data_PCOD9242401
_publ_section_title
;
Structure prediction by ZEFSAII (Michael W. Deem and Ramdas Pophale) SiO2 
 PCOD9242401
Probable space group: P 21/C
;
_chemical_formula_sum "Si O2"
_cell_formula_units_Z 28
_cell_length_a 11.949406
_cell_length_b 21.654119
_cell_length_c 5.458349
_cell_angle_alpha 90.000000
_cell_angle_beta 89.119422
_cell_angle_gamma 90.000000
_cell_volume 1412.202069
_symmetry_space_group_name_H-M "P 21/C"
_symmetry_group_IT_number 14
_symmetry_cell_setting 'monoclinic'
loop_
_space_group_symop_operation_xyz
x,y,z
-x,1/2+y,1/2-z
-x,-y,-z
x,1/2-y,1/2+z
loop_
_atom_site_type_symbol
_atom_site_label
_atom_site_fract_x
_atom_site_fract_y
_atom_site_fract_z
Si Si1 0.073647 0.561854 0.981996
Si Si2 0.227321 0.006015 0.156486
Si Si3 0.126641 0.275586 0.617102
Si Si4 0.409819 0.525427 0.310315
Si Si5 0.602545 0.913538 0.568281
Si Si6 0.032676 0.094029 0.019532
Si Si7 0.381083 0.226140 0.598199
O O1 0.193338 0.536088 0.889766
O O2 0.024747 0.596848 0.744357
O O3 0.000000 0.500000 0.000000
O O4 0.052596 0.592729 0.245820
O O5 0.304824 0.063498 0.239055
O O6 0.115598 0.034858 0.040123
O O7 0.296791 0.965208 0.963650
O O8 0.077461 0.238837 0.386223
O O9 0.110306 0.346554 0.553798
O O10 0.256587 0.255437 0.628464
O O11 0.500000 0.500000 0.500000
O O12 0.476357 0.581030 0.179131
O O13 0.391551 0.468182 0.129574
O O14 0.626532 0.846525 0.458898
O O15 0.434995 0.259033 0.359414
#
# Coordination Sequence:
#
# PCOD9242401 Si02
#       7
#     4   4   4   4   4   4   4
#     4  10  22  35  51  82 116 155 190 229 277 339
#     4  10  20  32  57  79 115 157 190 225 290 346
#     4  10  20  33  51  79 106 148 187 221 285 341
#     4   9  21  35  55  83 115 158 187 238 299 354
#     4  10  21  36  56  84 123 150 193 242 290 356
#     4  11  22  35  53  81 123 149 186 241 277 341
#     4  10  22  34  54  84 113 149 189 226 288 347
#
# _framework density 19.827189000000001
#
# number of rings (size 3 to 8) (size 9 to 14) (size 15 to 20)
#    0.000    2.000    0.000    4.286   14.000    0.000 
#    0.000    0.000    0.000    0.000    0.000    6.000 
#    0.000    0.000    0.000    0.000    0.000    0.000 
#
# Total GULP energy -156068.563899 kJ/mol
# GULP energy per Si atom -5573.877282 kJ/mol
# Density = 1.978206 g / cm^3
# Si number density = 19.827189 Si / 1000 Ang^3
#
#
#
# Elastic Constant Matrix: (Units=GPa)
#
#
# Indices 1 2 3 4 5 6 
#
# 1 69.6377 21.8829 20.8484 0.0000 -21.0634 0.0000
# 2 21.8829 48.6181 -11.8121 0.0000 -1.7929 0.0000
# 3 20.8484 -11.8121 113.4547 0.0000 -6.3425 0.0000
# 4 0.0000 0.0000 0.0000 22.3934 0.0000 -0.6167
# 5 -21.0634 -1.7929 -6.3425 0.0000 34.1109 0.0000
# 6 0.0000 0.0000 0.0000 -0.6167 0.0000 27.2681
#
#
#
# Elastic Compliance Matrix: (Units=1/GPa)
#
#
# Indices 1 2 3 4 5 6 
#
# 1 0.023121 -0.011072 -0.004684 0.000000 0.012824 0.000000
# 2 -0.011072 0.026484 0.004535 0.000000 -0.004602 0.000000
# 3 -0.004684 0.004535 0.010104 0.000000 -0.000776 0.000000
# 4 0.000000 0.000000 0.000000 0.044684 0.000000 0.001011
# 5 0.012824 -0.004602 -0.000776 0.000000 0.036849 0.000000
# 6 0.000000 0.000000 0.000000 0.001011 0.000000 0.036696
#
#
# Mechanical properties :
#
#
# Convention : Reuss Voigt Hill
#
# Bulk Modulus (GPa) = 26.83488 32.61655 29.72572
# Shear Modulus (GPa) = 23.49612 30.14058 26.81835
#
# Velocity S-wave (km/s) = 3.44618 3.90316 3.68177
# Velocity P-wave (km/s) = 5.42205 6.06622 5.75316
#
# Compressibility (1/GPa) = 0.03726493
#
# Stress axis : x y z
#
# Youngs Moduli (GPa) = 43.25163 37.75889 98.97417
#
# Poissons Ratio (x) = 0.41806 0.46364
# Poissons Ratio (y) = 0.47887 -0.44881
# Poissons Ratio (z) = 0.20261 -0.17122
#
# Static dielectric constant tensor:
#      x y z
#    x 1.740620 0.000000 -0.006190 
#    y 0.000000 1.690170 0.000000 
#    z -0.006190 0.000000 1.818450 
# 
# From -- ./inp_files/2883.got.cif
#   From: 2010.05.17/outbox.cif.g08.bks.cpg/sg14_2_cif.got.tgz:2883.got - 2010.06.03 17:49:19.
