data_PCOD9242072
_publ_section_title
;
Structure prediction by ZEFSAII (Michael W. Deem and Ramdas Pophale) SiO2 
 PCOD9242072
Probable space group: P 21/C
;
_chemical_formula_sum "Si O2"
_cell_formula_units_Z 28
_cell_length_a 20.649167
_cell_length_b 11.522511
_cell_length_c 17.366968
_cell_angle_alpha 90.000000
_cell_angle_beta 158.310400
_cell_angle_gamma 90.000000
_cell_volume 1527.143686
_symmetry_space_group_name_H-M "P 21/C"
_symmetry_group_IT_number 14
_symmetry_cell_setting 'monoclinic'
loop_
_space_group_symop_operation_xyz
x,y,z
-x,1/2+y,1/2-z
-x,-y,-z
x,1/2-y,1/2+z
loop_
_atom_site_type_symbol
_atom_site_label
_atom_site_fract_x
_atom_site_fract_y
_atom_site_fract_z
Si Si1 0.190695 0.309005 0.802918
Si Si2 0.318572 0.120290 0.835592
Si Si3 0.204972 0.798702 0.127987
Si Si4 0.297666 0.948698 0.685098
Si Si5 0.531569 0.272390 0.951256
Si Si6 0.510888 0.037164 0.637639
Si Si7 0.597359 0.881031 0.325124
O O1 0.206396 0.189253 0.773673
O O2 0.990416 0.345552 0.584008
O O3 0.322854 0.402742 0.910409
O O4 0.273533 0.302274 0.980041
O O5 0.393354 0.213156 0.856609
O O6 0.234543 0.020049 0.690554
O O7 0.493444 0.071095 0.069811
O O8 0.211749 0.677447 0.088349
O O9 0.285311 0.769606 0.300680
O O10 0.339255 0.887896 0.237157
O O11 0.290943 0.028132 0.602199
O O12 0.486467 0.404865 0.884037
O O13 0.518342 0.196308 0.859672
O O14 0.516560 0.052196 0.736448
#
# Coordination Sequence:
#
# PCOD9242072 Si02
#       7
#     4   4   4   4   4   4   4
#     4  10  22  37  55  90 117 146 188 244 286 339
#     4   9  18  35  61  83 111 149 193 236 280 338
#     4  11  22  39  61  87 114 151 201 232 286 344
#     4   9  17  36  63  80 111 152 192 235 281 345
#     4  10  19  39  62  84 110 161 194 231 286 349
#     4  10  22  37  61  80 124 152 188 238 293 339
#     4   9  21  37  58  87 116 152 192 236 296 330
#
# _framework density 18.334882
#
# number of rings (size 3 to 8) (size 9 to 14) (size 15 to 20)
#    0.857    1.429    2.857    1.286    4.000    1.143 
#    2.571    2.857    0.000    0.000    0.000    0.000 
#    0.000    0.000    0.000    0.000    0.000    0.000 
#
# Total GULP energy -155939.299331 kJ/mol
# GULP energy per Si atom -5569.260690 kJ/mol
# Density = 1.829315 g / cm^3
# Si number density = 18.334882 Si / 1000 Ang^3
#
#
#
# Elastic Constant Matrix: (Units=GPa)
#
#
# Indices 1 2 3 4 5 6 
#
# 1 74.4184 29.6839 40.1579 0.0000 -11.0255 0.0000
# 2 29.6839 92.9032 9.1776 0.0000 2.0703 0.0000
# 3 40.1579 9.1776 58.4939 0.0000 8.0366 0.0000
# 4 0.0000 0.0000 0.0000 5.5930 0.0000 -5.5772
# 5 -11.0255 2.0703 8.0366 0.0000 26.8155 0.0000
# 6 0.0000 0.0000 0.0000 -5.5772 0.0000 8.7848
#
#
#
# Elastic Compliance Matrix: (Units=1/GPa)
#
#
# Indices 1 2 3 4 5 6 
#
# 1 0.033383 -0.008727 -0.024538 0.000000 0.021753 0.000000
# 2 -0.008727 0.013218 0.004746 0.000000 -0.006031 0.000000
# 3 -0.024538 0.004746 0.036121 0.000000 -0.021281 0.000000
# 4 0.000000 0.000000 0.000000 0.487269 0.000000 0.309348
# 5 0.021753 -0.006031 -0.021281 0.000000 0.053080 0.000000
# 6 0.000000 0.000000 0.000000 0.309348 0.000000 0.310226
#
#
# Mechanical properties :
#
#
# Convention : Reuss Voigt Hill
#
# Bulk Modulus (GPa) = 38.93449 42.65047 40.79248
# Shear Modulus (GPa) = 5.00554 18.02507 11.51530
#
# Velocity S-wave (km/s) = 1.65408 3.13885 2.50882
# Velocity P-wave (km/s) = 4.99292 6.03729 5.53977
#
# Compressibility (1/GPa) = 0.02568417
#
# Stress axis : x y z
#
# Youngs Moduli (GPa) = 29.95578 75.65541 27.68486
#
# Poissons Ratio (x) = 0.66024 0.67932
# Poissons Ratio (y) = 0.26142 -0.13140
# Poissons Ratio (z) = 0.73504 -0.35907
#
# Static dielectric constant tensor:
#      x y z
#    x 1.658980 0.000000 -0.022670 
#    y 0.000000 1.645100 0.000000 
#    z -0.022670 0.000000 1.622150 
# 
# From -- ./inp_files/61311.got.cif
#   From: 2010.05.17/outbox.cif.g08.bks.cpg/sg14_31_cif.got.tgz:61311.got - 2010.06.03 17:49:19.
