data_PCOD9242960
_publ_section_title
;
Structure prediction by ZEFSAII (Michael W. Deem and Ramdas Pophale) SiO2 
 PCOD9242960
Probable space group: P 21/C
;
_chemical_formula_sum "Si O2"
_cell_formula_units_Z 28
_cell_length_a 8.581958
_cell_length_b 9.510860
_cell_length_c 23.776274
_cell_angle_alpha 90.000000
_cell_angle_beta 145.385333
_cell_angle_gamma 90.000000
_cell_volume 1102.401838
_symmetry_space_group_name_H-M "P 21/C"
_symmetry_group_IT_number 14
_symmetry_cell_setting 'monoclinic'
loop_
_space_group_symop_operation_xyz
x,y,z
-x,1/2+y,1/2-z
-x,-y,-z
x,1/2-y,1/2+z
loop_
_atom_site_type_symbol
_atom_site_label
_atom_site_fract_x
_atom_site_fract_y
_atom_site_fract_z
Si Si1 0.490705 0.918713 0.831777
Si Si2 0.092786 0.754410 0.390554
Si Si3 0.912173 0.480126 0.895489
Si Si4 0.125989 0.542918 0.635240
Si Si5 0.029800 0.991565 0.283148
Si Si6 0.729249 0.715044 0.056951
Si Si7 0.489234 0.400237 0.155276
O O1 0.287657 0.924945 0.715463
O O2 0.578863 0.762677 0.874688
O O3 0.287414 0.969573 0.821294
O O4 0.748962 0.012296 0.889507
O O5 0.418835 0.750755 0.479414
O O6 0.956804 0.606613 0.362696
O O7 0.001153 0.845761 0.309447
O O8 0.996276 0.859270 0.410707
O O9 0.738394 0.480226 0.900716
O O10 0.197475 0.396642 0.971159
O O11 0.381599 0.610003 0.743505
O O12 0.883608 0.648164 0.579980
O O13 0.156347 0.124648 0.355573
O O14 0.253045 0.954340 0.303511
#
# Coordination Sequence:
#
# PCOD9242960 Si02
#       7
#     4   4   4   4   4   4   4
#     4   9  19  36  53  84 111 140 182 229 277 334
#     4  10  20  36  59  79 109 152 190 219 269 333
#     4   9  18  35  58  77 106 147 185 225 266 331
#     4  11  20  34  61  83 109 143 184 233 278 323
#     4  10  22  35  58  82 113 144 176 238 279 326
#     4  10  20  39  54  83 110 146 195 222 259 341
#     4  11  20  35  57  86 115 133 183 236 290 327
#
# _framework density 25.399084999999999
#
# number of rings (size 3 to 8) (size 9 to 14) (size 15 to 20)
#    0.000    2.286    4.286    2.143    2.000    0.000 
#    0.000    2.857    0.000    0.857    0.000    0.000 
#    0.000    0.000    0.000    0.000    0.000    0.000 
#
# Total GULP energy -156168.426570 kJ/mol
# GULP energy per Si atom -5577.443806 kJ/mol
# Density = 2.534128 g / cm^3
# Si number density = 25.399085 Si / 1000 Ang^3
#
#
#
# Elastic Constant Matrix: (Units=GPa)
#
#
# Indices 1 2 3 4 5 6 
#
# 1 146.1977 20.8031 5.4575 0.0000 34.0538 0.0000
# 2 20.8031 138.3075 10.4442 0.0000 11.0982 0.0000
# 3 5.4575 10.4442 47.1466 0.0000 14.3250 0.0000
# 4 0.0000 0.0000 0.0000 29.6085 0.0000 16.7680
# 5 34.0538 11.0982 14.3250 0.0000 32.3589 0.0000
# 6 0.0000 0.0000 0.0000 16.7680 0.0000 35.1954
#
#
#
# Elastic Compliance Matrix: (Units=1/GPa)
#
#
# Indices 1 2 3 4 5 6 
#
# 1 0.009321 -0.000727 0.002296 0.000000 -0.010577 0.000000
# 2 -0.000727 0.007533 -0.001192 0.000000 -0.001291 0.000000
# 3 0.002296 -0.001192 0.025209 0.000000 -0.013167 0.000000
# 4 0.000000 0.000000 0.000000 0.046254 0.000000 -0.022037
# 5 -0.010577 -0.001291 -0.013167 0.000000 0.048306 0.000000
# 6 0.000000 0.000000 0.000000 -0.022037 0.000000 0.038912
#
#
# Mechanical properties :
#
#
# Convention : Reuss Voigt Hill
#
# Bulk Modulus (GPa) = 23.35523 45.00683 34.18103
# Shear Modulus (GPa) = 26.44739 39.09569 32.77154
#
# Velocity S-wave (km/s) = 3.23038 3.92759 3.59592
# Velocity P-wave (km/s) = 4.80927 6.19082 5.54325
#
# Compressibility (1/GPa) = 0.04281696
#
# Stress axis : x y z
#
# Youngs Moduli (GPa) = 107.28031 132.74546 39.66764
#
# Poissons Ratio (x) = 0.09647 -0.09106
# Poissons Ratio (y) = 0.07796 0.04730
# Poissons Ratio (z) = -0.24627 0.15829
#
# Static dielectric constant tensor:
#      x y z
#    x 2.134150 0.000000 -0.079700 
#    y 0.000000 1.943750 0.000000 
#    z -0.079700 0.000000 2.173460 
# 
# From -- ./inp_files/79502.got.cif
#   From: 2010.05.17/outbox.cif.g08.bks.cpg/sg14_40_cif.got.tgz:79502.got - 2010.06.03 17:49:19.
