data_PCOD9242543
_publ_section_title
;
Structure prediction by ZEFSAII (Michael W. Deem and Ramdas Pophale) SiO2 
 PCOD9242543
Probable space group: P 21/C
;
_chemical_formula_sum "Si O2"
_cell_formula_units_Z 28
_cell_length_a 13.857474
_cell_length_b 8.371998
_cell_length_c 11.410309
_cell_angle_alpha 90.000000
_cell_angle_beta 120.136403
_cell_angle_gamma 90.000000
_cell_volume 1144.834348
_symmetry_space_group_name_H-M "P 21/C"
_symmetry_group_IT_number 14
_symmetry_cell_setting 'monoclinic'
loop_
_space_group_symop_operation_xyz
x,y,z
-x,1/2+y,1/2-z
-x,-y,-z
x,1/2-y,1/2+z
loop_
_atom_site_type_symbol
_atom_site_label
_atom_site_fract_x
_atom_site_fract_y
_atom_site_fract_z
Si Si1 0.518123 0.188332 0.618057
Si Si2 0.793598 0.428603 0.020389
Si Si3 0.974702 0.186404 0.905517
Si Si4 0.802656 0.695934 0.838544
Si Si5 0.442216 0.668755 0.112888
Si Si6 0.958031 0.527877 0.778498
Si Si7 0.246005 0.972337 0.237227
O O1 0.505863 0.247771 0.474791
O O2 0.504253 0.291231 0.728012
O O3 0.647301 0.137327 0.700147
O O4 0.452722 0.021415 0.594292
O O5 0.787813 0.499784 0.147760
O O6 0.927742 0.402255 0.089806
O O7 0.766505 0.557001 0.903608
O O8 0.692414 0.301400 0.960360
O O9 0.948787 0.345881 0.814203
O O10 0.858624 0.119723 0.882844
O O11 0.019740 0.053217 0.843288
O O12 0.079568 0.232294 0.046054
O O13 0.843336 0.615708 0.743053
O O14 0.726949 0.851304 0.791507
#
# Coordination Sequence:
#
# PCOD9242543 Si02
#       7
#     4   4   4   4   4   4   4
#     4  10  24  44  69  95 125 163 203 262 318 374
#     4   9  20  37  57  82 121 157 195 251 307 361
#     4  10  20  35  51  81 118 157 201 248 295 356
#     4  11  20  33  57  83 115 162 200 244 295 363
#     4  10  23  45  68  94 126 160 205 260 318 373
#     4  10  20  34  55  80 119 161 200 242 302 355
#     4  10  22  38  56  86 123 154 204 252 307 363
#
# _framework density 24.457685999999999
#
# number of rings (size 3 to 8) (size 9 to 14) (size 15 to 20)
#    0.000    2.000    0.000    4.714    6.000    0.571 
#    5.143    1.429    0.000    0.000    0.000    0.000 
#    0.000    0.000    0.000    0.000    0.000    0.000 
#
# Total GULP energy -156230.202990 kJ/mol
# GULP energy per Si atom -5579.650107 kJ/mol
# Density = 2.440202 g / cm^3
# Si number density = 24.457686 Si / 1000 Ang^3
#
#
#
# Elastic Constant Matrix: (Units=GPa)
#
#
# Indices 1 2 3 4 5 6 
#
# 1 105.3952 12.6467 25.5474 0.0000 -21.5068 0.0000
# 2 12.6467 34.5631 3.4367 0.0000 -4.8961 0.0000
# 3 25.5474 3.4367 72.4220 0.0000 -12.4107 0.0000
# 4 0.0000 0.0000 0.0000 41.0643 0.0000 -5.5300
# 5 -21.5068 -4.8961 -12.4107 0.0000 21.5458 0.0000
# 6 0.0000 0.0000 0.0000 -5.5300 0.0000 23.7651
#
#
#
# Elastic Compliance Matrix: (Units=1/GPa)
#
#
# Indices 1 2 3 4 5 6 
#
# 1 0.012574 -0.002870 -0.002508 0.000000 0.010454 0.000000
# 2 -0.002870 0.030555 0.000290 0.000000 0.004245 0.000000
# 3 -0.002508 0.000290 0.015823 0.000000 0.006677 0.000000
# 4 0.000000 0.000000 0.000000 0.025140 0.000000 0.005850
# 5 0.010454 0.004245 0.006677 0.000000 0.061659 0.000000
# 6 0.000000 0.000000 0.000000 0.005850 0.000000 0.043440
#
#
# Mechanical properties :
#
#
# Convention : Reuss Voigt Hill
#
# Bulk Modulus (GPa) = 20.50190 32.84909 26.67549
# Shear Modulus (GPa) = 23.18837 28.65834 25.92335
#
# Velocity S-wave (km/s) = 3.08247 3.42680 3.25918
# Velocity P-wave (km/s) = 4.59016 5.39606 5.00934
#
# Compressibility (1/GPa) = 0.04877597
#
# Stress axis : x y z
#
# Youngs Moduli (GPa) = 79.53138 32.72740 63.19901
#
# Poissons Ratio (x) = 0.09394 0.15849
# Poissons Ratio (y) = 0.22829 -0.01834
# Poissons Ratio (z) = 0.19945 -0.00950
#
# Static dielectric constant tensor:
#      x y z
#    x 1.976290 0.000000 0.012250 
#    y 0.000000 1.964660 0.000000 
#    z 0.012250 0.000000 2.031290 
# 
# From -- ./inp_files/31518.got.cif
#   From: 2010.05.17/outbox.cif.g08.bks.cpg/sg14_16_cif.got.tgz:31518.got - 2010.06.03 17:49:19.
