data_PCOD9242093
_publ_section_title
;
Structure prediction by ZEFSAII (Michael W. Deem and Ramdas Pophale) SiO2 
 PCOD9242093
Probable space group: P 21/C
;
_chemical_formula_sum "Si O2"
_cell_formula_units_Z 28
_cell_length_a 11.661226
_cell_length_b 7.685032
_cell_length_c 16.523517
_cell_angle_alpha 90.000000
_cell_angle_beta 53.405930
_cell_angle_gamma 90.000000
_cell_volume 1188.892479
_symmetry_space_group_name_H-M "P 21/C"
_symmetry_group_IT_number 14
_symmetry_cell_setting 'monoclinic'
loop_
_space_group_symop_operation_xyz
x,y,z
-x,1/2+y,1/2-z
-x,-y,-z
x,1/2-y,1/2+z
loop_
_atom_site_type_symbol
_atom_site_label
_atom_site_fract_x
_atom_site_fract_y
_atom_site_fract_z
Si Si1 0.046494 0.831321 0.132846
Si Si2 0.420847 0.333089 0.314797
Si Si3 0.260854 0.541399 0.073248
Si Si4 0.691449 0.446142 0.128166
Si Si5 0.948851 0.247052 0.556672
Si Si6 0.773396 0.655585 0.463874
Si Si7 0.758094 0.490335 0.749243
O O1 0.108966 0.646955 0.136608
O O2 0.883928 0.874179 0.223965
O O3 0.152090 0.991958 0.111665
O O4 0.050353 0.828534 0.033117
O O5 0.588893 0.336141 0.229253
O O6 0.356517 0.410407 0.424878
O O7 0.349674 0.424716 0.267807
O O8 0.365657 0.138048 0.338076
O O9 0.269034 0.331149 0.064713
O O10 0.318586 0.582399 0.138283
O O11 0.323544 0.604091 0.960515
O O12 0.856832 0.428191 0.083982
O O13 0.851926 0.353472 0.660152
O O14 0.104548 0.263313 0.528178
#
# Coordination Sequence:
#
# PCOD9242093 Si02
#       7
#     4   4   4   4   4   4   4
#     4  10  20  37  61  87 121 161 192 258 298 361
#     4  11  21  39  65  86 117 162 210 246 301 358
#     4  10  25  37  57  94 127 158 195 254 309 357
#     4  10  24  39  64  89 118 162 206 256 292 369
#     4  10  19  39  63  91 113 156 204 254 301 358
#     4  10  20  39  63  88 121 153 207 251 299 367
#     4  11  21  37  60  91 123 159 195 253 308 359
#
# _framework density 23.55133
#
# number of rings (size 3 to 8) (size 9 to 14) (size 15 to 20)
#    0.000    1.714    2.857    1.714    8.000    2.286 
#    2.571    0.000    0.000    2.571    0.000    0.000 
#    0.000    0.000    0.000    0.000    0.000    0.000 
#
# Total GULP energy -156286.146468 kJ/mol
# GULP energy per Si atom -5581.648088 kJ/mol
# Density = 2.349773 g / cm^3
# Si number density = 23.551330 Si / 1000 Ang^3
#
#
#
# Elastic Constant Matrix: (Units=GPa)
#
#
# Indices 1 2 3 4 5 6 
#
# 1 26.3923 -0.1763 33.8671 0.0000 -16.3917 0.0000
# 2 -0.1763 25.6020 1.1255 0.0000 -0.8806 0.0000
# 3 33.8671 1.1255 119.5239 0.0000 -2.6159 0.0000
# 4 0.0000 0.0000 0.0000 24.5381 0.0000 -9.5553
# 5 -16.3917 -0.8806 -2.6159 0.0000 40.7718 0.0000
# 6 0.0000 0.0000 0.0000 -9.5553 0.0000 25.9483
#
#
#
# Elastic Compliance Matrix: (Units=1/GPa)
#
#
# Indices 1 2 3 4 5 6 
#
# 1 0.092993 0.002997 -0.025594 0.000000 0.035809 0.000000
# 2 0.002997 0.039200 -0.001175 0.000000 0.001976 0.000000
# 3 -0.025594 -0.001175 0.015426 0.000000 -0.009325 0.000000
# 4 0.000000 0.000000 0.000000 0.047575 0.000000 0.017519
# 5 0.035809 0.001976 -0.009325 0.000000 0.038368 0.000000
# 6 0.000000 0.000000 0.000000 0.017519 0.000000 0.044989
#
#
# Mechanical properties :
#
#
# Convention : Reuss Voigt Hill
#
# Bulk Modulus (GPa) = 9.99262 26.79453 18.39358
# Shear Modulus (GPa) = 13.91007 27.36511 20.63759
#
# Velocity S-wave (km/s) = 2.43292 3.41241 2.96342
# Velocity P-wave (km/s) = 3.48486 5.18921 4.41996
#
# Compressibility (1/GPa) = 0.10007382
#
# Stress axis : x y z
#
# Youngs Moduli (GPa) = 10.75355 25.51041 64.82757
#
# Poissons Ratio (x) = -0.07646 1.65919
# Poissons Ratio (y) = -0.03223 0.07618
# Poissons Ratio (z) = 0.27523 0.02998
#
# Static dielectric constant tensor:
#      x y z
#    x 1.897370 0.000000 -0.033840 
#    y 0.000000 1.978840 0.000000 
#    z -0.033840 0.000000 1.933450 
# 
# From -- ./inp_files/43622.got.cif
#   From: 2010.05.17/outbox.cif.g08.bks.cpg/sg14_22_cif.got.tgz:43622.got - 2010.06.03 17:49:19.
