data_PCOD9242442
_publ_section_title
;
Structure prediction by ZEFSAII (Michael W. Deem and Ramdas Pophale) SiO2 
 PCOD9242442
Probable space group: P 21/C
;
_chemical_formula_sum "Si O2"
_cell_formula_units_Z 28
_cell_length_a 12.167093
_cell_length_b 9.281618
_cell_length_c 8.499602
_cell_angle_alpha 90.000000
_cell_angle_beta 102.249610
_cell_angle_gamma 90.000000
_cell_volume 938.009059
_symmetry_space_group_name_H-M "P 21/C"
_symmetry_group_IT_number 14
_symmetry_cell_setting 'monoclinic'
loop_
_space_group_symop_operation_xyz
x,y,z
-x,1/2+y,1/2-z
-x,-y,-z
x,1/2-y,1/2+z
loop_
_atom_site_type_symbol
_atom_site_label
_atom_site_fract_x
_atom_site_fract_y
_atom_site_fract_z
Si Si1 0.009891 0.828420 0.037596
Si Si2 0.484362 0.351647 0.262791
Si Si3 0.007198 0.472753 0.184584
Si Si4 0.364619 0.842544 0.455988
Si Si5 0.189360 0.353677 0.711944
Si Si6 0.213913 0.647621 0.178649
Si Si7 0.664130 0.652131 0.515385
O O1 0.128289 0.752066 0.054149
O O2 0.897363 0.766132 0.927198
O O3 0.996756 0.825255 0.220728
O O4 0.000000 0.000000 0.000000
O O5 0.561792 0.428179 0.153205
O O6 0.560222 0.255332 0.403774
O O7 0.406721 0.431433 0.370279
O O8 0.412775 0.248368 0.125097
O O9 0.891065 0.543587 0.212906
O O10 0.130249 0.544032 0.250575
O O11 0.000000 0.500000 0.000000
O O12 0.287516 0.741370 0.321361
O O13 0.288908 0.924613 0.562907
O O14 0.263302 0.258279 0.850998
O O15 0.262561 0.429354 0.594657
#
# Coordination Sequence:
#
# PCOD9242442 Si02
#       7
#     4   4   4   4   4   4   4
#     4  10  22  38  55  87 126 158 200 249 291 357
#     4   8  16  30  50  88 115 133 197 253 287 354
#     4  11  24  38  55  87 125 160 199 246 290 357
#     4   9  17  30  54  84 113 149 191 240 292 354
#     4  10  20  33  53  81 116 153 188 233 293 354
#     4  11  20  35  58  84 114 158 198 233 295 360
#     4   9  17  32  56  85 114 149 191 244 304 358
#
# _framework density 29.850455
#
# number of rings (size 3 to 8) (size 9 to 14) (size 15 to 20)
#    0.000    2.286    0.000    3.429    0.000    4.571 
#    0.000    0.000    0.000    0.000    0.000  452.000 
#    0.000    0.000    0.000    0.000    0.000    0.000 
#
# Total GULP energy -156457.462473 kJ/mol
# GULP energy per Si atom -5587.766517 kJ/mol
# Density = 2.978251 g / cm^3
# Si number density = 29.850455 Si / 1000 Ang^3
#
#
#
# Elastic Constant Matrix: (Units=GPa)
#
#
# Indices 1 2 3 4 5 6 
#
# 1 186.1489 24.6050 97.6766 0.0000 -75.7619 0.0000
# 2 24.6050 53.1641 32.4826 0.0000 -2.3037 0.0000
# 3 97.6766 32.4826 249.9430 0.0000 5.6115 0.0000
# 4 0.0000 0.0000 0.0000 59.2757 0.0000 8.7149
# 5 -75.7619 -2.3037 5.6115 0.0000 118.5115 0.0000
# 6 0.0000 0.0000 0.0000 8.7149 0.0000 17.7257
#
#
#
# Elastic Compliance Matrix: (Units=1/GPa)
#
#
# Indices 1 2 3 4 5 6 
#
# 1 0.010567 -0.002144 -0.004006 0.000000 0.006903 0.000000
# 2 -0.002144 0.020900 -0.001859 0.000000 -0.000876 0.000000
# 3 -0.004006 -0.001859 0.005873 0.000000 -0.002875 0.000000
# 4 0.000000 0.000000 0.000000 0.018185 0.000000 -0.008941
# 5 0.006903 -0.000876 -0.002875 0.000000 0.012970 0.000000
# 6 0.000000 0.000000 0.000000 -0.008941 0.000000 0.060811
#
#
# Mechanical properties :
#
#
# Convention : Reuss Voigt Hill
#
# Bulk Modulus (GPa) = 46.89931 88.75380 67.82655
# Shear Modulus (GPa) = 32.80211 61.40204 47.10208
#
# Velocity S-wave (km/s) = 3.31853 4.54032 3.97663
# Velocity P-wave (km/s) = 5.51626 7.56858 6.62241
#
# Compressibility (1/GPa) = 0.02132227
#
# Stress axis : x y z
#
# Youngs Moduli (GPa) = 94.63406 47.84801 170.28517
#
# Poissons Ratio (x) = 0.10258 0.68215
# Poissons Ratio (y) = 0.20288 0.31650
# Poissons Ratio (z) = 0.37910 0.08893
#
# Static dielectric constant tensor:
#      x y z
#    x 2.589700 0.000000 -0.038700 
#    y 0.000000 2.599310 0.000000 
#    z -0.038700 0.000000 2.445960 
# 
# From -- ./inp_files/13134.got.cif
#   From: 2010.05.17/outbox.cif.g08.bks.cpg/sg14_7_cif.got.tgz:13134.got - 2010.06.03 17:49:19.
