data_PCOD9242032
_publ_section_title
;
Structure prediction by ZEFSAII (Michael W. Deem and Ramdas Pophale) SiO2 
 PCOD9242032
Probable space group: P 21/C
;
_chemical_formula_sum "Si O2"
_cell_formula_units_Z 20
_cell_length_a 7.464819
_cell_length_b 21.224048
_cell_length_c 5.271986
_cell_angle_alpha 90.000000
_cell_angle_beta 113.408481
_cell_angle_gamma 90.000000
_cell_volume 766.514734
_symmetry_space_group_name_H-M "P 21/C"
_symmetry_group_IT_number 14
_symmetry_cell_setting 'monoclinic'
loop_
_space_group_symop_operation_xyz
x,y,z
-x,1/2+y,1/2-z
-x,-y,-z
x,1/2-y,1/2+z
loop_
_atom_site_type_symbol
_atom_site_label
_atom_site_fract_x
_atom_site_fract_y
_atom_site_fract_z
Si Si1 0.727455 0.543294 0.860321
Si Si2 0.072186 0.089171 0.024193
Si Si3 0.333256 0.911366 0.927507
Si Si4 0.783992 0.283976 0.902148
Si Si5 0.212071 0.267224 0.623570
O O1 0.883821 0.563747 0.731984
O O2 0.672856 0.471661 0.762358
O O3 0.536463 0.584976 0.691544
O O4 0.805944 0.553462 0.186965
O O5 0.141855 0.161390 0.080191
O O6 0.848237 0.084878 0.981501
O O7 0.299727 0.849123 0.743666
O O8 0.735481 0.231781 0.662847
O O9 0.022665 0.279576 0.024009
O O10 0.325154 0.249605 0.437847
#
# Coordination Sequence:
#
# PCOD9242032 Si02
#       5
#     4   4   4   4   4
#     4  11  29  44  70 116 129 191 237 283 352 420
#     4  12  24  46  73  99 144 182 234 284 359 410
#     4  11  25  49  74  97 156 174 236 297 340 424
#     4  10  21  38  70  97 125 192 223 269 363 397
#     4  10  19  38  67  95 130 182 227 277 348 405
#
# _framework density 26.092126
#
# number of rings (size 3 to 8) (size 9 to 14) (size 15 to 20)
#    0.000    1.200    4.000    2.400    2.800    8.000 
#    0.000    6.000    0.000    0.000    0.000    0.000 
#    0.000    0.000    0.000    0.000    0.000    0.000 
#
# Total GULP energy -112236.064233 kJ/mol
# GULP energy per Si atom -5611.803212 kJ/mol
# Density = 2.603274 g / cm^3
# Si number density = 26.092126 Si / 1000 Ang^3
#
#
#
# Elastic Constant Matrix: (Units=GPa)
#
#
# Indices 1 2 3 4 5 6 
#
# 1 55.5673 -19.9140 42.9164 0.0000 44.2448 0.0000
# 2 -19.9140 106.5846 19.2988 0.0000 -5.2104 0.0000
# 3 42.9164 19.2988 103.8787 0.0000 -25.6997 0.0000
# 4 0.0000 0.0000 0.0000 43.6782 0.0000 3.1190
# 5 44.2448 -5.2104 -25.6997 0.0000 31.6926 0.0000
# 6 0.0000 0.0000 0.0000 3.1190 0.0000 14.1117
#
#
#
# Elastic Compliance Matrix: (Units=1/GPa)
#
#
# Indices 1 2 3 4 5 6 
#
# 1 -0.011361 -0.002972 0.011320 0.000000 0.024552 0.000000
# 2 -0.002972 0.008932 0.001199 0.000000 0.006590 0.000000
# 3 0.011320 0.001199 0.001083 0.000000 -0.014728 0.000000
# 4 0.000000 0.000000 0.000000 0.023262 0.000000 -0.005141
# 5 0.024552 0.006590 -0.014728 0.000000 -0.013583 0.000000
# 6 0.000000 0.000000 0.000000 -0.005141 0.000000 0.072000
#
#
# Mechanical properties :
#
#
# Convention : Reuss Voigt Hill
#
# Bulk Modulus (GPa) = 56.34506 38.95922 47.65214
# Shear Modulus (GPa) = 74.45565 32.81179 53.63372
#
# Velocity S-wave (km/s) = 5.34767 3.55002 4.53874
# Velocity P-wave (km/s) = 7.73122 5.63626 6.76532
#
# Compressibility (1/GPa) = 0.01774778
#
# Stress axis : x y z
#
# Youngs Moduli (GPa) = -88.01740 111.95732 923.15948
#
# Poissons Ratio (x) = 0.33276 -10.45041
# Poissons Ratio (y) = -0.26161 -1.10679
# Poissons Ratio (z) = 0.99638 -0.13423
#
# Static dielectric constant tensor:
#      x y z
#    x 2.045840 0.000000 -0.020940 
#    y 0.000000 2.019410 0.000000 
#    z -0.020940 0.000000 2.084110 
# 
# From -- ./inp_files/1472.got.cif
#   From: 2010.05.17/outbox.cif.g08.bks.cpg/sg14_1_cif.got.tgz:1472.got - 2010.06.03 17:49:19.
