data_PCOD9242308
_publ_section_title
;
Structure prediction by ZEFSAII (Michael W. Deem and Ramdas Pophale) SiO2 
 PCOD9242308
Probable space group: P 21/C
;
_chemical_formula_sum "Si O2"
_cell_formula_units_Z 32
_cell_length_a 18.977647
_cell_length_b 14.105729
_cell_length_c 12.875919
_cell_angle_alpha 90.000000
_cell_angle_beta 20.985654
_cell_angle_gamma 90.000000
_cell_volume 1234.417052
_symmetry_space_group_name_H-M "P 21/C"
_symmetry_group_IT_number 14
_symmetry_cell_setting 'monoclinic'
loop_
_space_group_symop_operation_xyz
x,y,z
-x,1/2+y,1/2-z
-x,-y,-z
x,1/2-y,1/2+z
loop_
_atom_site_type_symbol
_atom_site_label
_atom_site_fract_x
_atom_site_fract_y
_atom_site_fract_z
Si Si1 0.849272 0.398444 0.627725
Si Si2 0.050357 0.056346 0.328418
Si Si3 0.100183 0.777573 0.331606
Si Si4 0.951368 0.722304 0.810604
Si Si5 0.046817 0.928622 0.745924
Si Si6 0.475339 0.336130 0.685308
Si Si7 0.465622 0.595721 0.612782
Si Si8 0.525298 0.961136 0.230592
O O1 0.948732 0.333267 0.580713
O O2 0.044005 0.505191 0.553412
O O3 0.874057 0.327295 0.496098
O O4 0.636206 0.425809 0.965419
O O5 0.985405 0.160864 0.455790
O O6 0.921895 0.019853 0.409395
O O7 0.270115 0.031824 0.990895
O O8 0.000000 0.000000 0.500000
O O9 0.003680 0.810167 0.356883
O O10 0.340170 0.786729 0.008811
O O11 0.936546 0.834947 0.857320
O O12 0.751175 0.695170 0.023139
O O13 0.271699 0.900091 0.451261
O O14 0.541816 0.333282 0.472153
O O15 0.468985 0.438395 0.753153
O O16 0.500000 0.500000 0.500000
O O17 0.605958 0.601648 0.519544
#
# Coordination Sequence:
#
# PCOD9242308 Si02
#       8
#     4   4   4   4   4   4   4   4
#     4  12  28  50  77 119 168 211 281 350 419 510
#     4  12  22  48  79 112 153 210 276 338 412 497
#     4  12  26  50  80 114 157 215 276 347 414 500
#     4  12  28  50  79 115 165 216 272 350 416 498
#     4  12  26  49  73 110 167 212 269 353 421 491
#     4  11  24  49  78 115 155 209 277 334 408 502
#     4  10  19  42  72 106 144 203 273 327 395 488
#     4  11  25  43  79 115 156 215 266 337 423 494
#
# _framework density 25.923169000000001
#
# number of rings (size 3 to 8) (size 9 to 14) (size 15 to 20)
#    0.000    0.500    3.750    4.500    1.750    5.000 
#    0.000    2.500    0.000    0.000    0.000    0.000 
#    0.000    0.000    0.000    0.000    0.000    0.000 
#
# Total GULP energy -178328.714749 kJ/mol
# GULP energy per Si atom -5572.772336 kJ/mol
# Density = 2.586417 g / cm^3
# Si number density = 25.923169 Si / 1000 Ang^3
#
#
#
# Elastic Constant Matrix: (Units=GPa)
#
#
# Indices 1 2 3 4 5 6 
#
# 1 104.5343 29.8822 45.2783 0.0000 8.5393 0.0000
# 2 29.8822 147.2817 63.1627 0.0000 0.3541 0.0000
# 3 45.2783 63.1627 176.8218 0.0000 10.4925 0.0000
# 4 0.0000 0.0000 0.0000 36.5968 0.0000 2.1345
# 5 8.5393 0.3541 10.4925 0.0000 45.3363 0.0000
# 6 0.0000 0.0000 0.0000 2.1345 0.0000 43.9889
#
#
#
# Elastic Compliance Matrix: (Units=1/GPa)
#
#
# Indices 1 2 3 4 5 6 
#
# 1 0.011042 -0.001256 -0.002288 0.000000 -0.001541 0.000000
# 2 -0.001256 0.008177 -0.002646 0.000000 0.000785 0.000000
# 3 -0.002288 -0.002646 0.007259 0.000000 -0.001229 0.000000
# 4 0.000000 0.000000 0.000000 0.027402 0.000000 -0.001330
# 5 -0.001541 0.000785 -0.001229 0.000000 0.022626 0.000000
# 6 0.000000 0.000000 0.000000 -0.001330 0.000000 0.022798
#
#
# Mechanical properties :
#
#
# Convention : Reuss Voigt Hill
#
# Bulk Modulus (GPa) = 70.92170 78.36490 74.64330
# Shear Modulus (GPa) = 42.96174 44.53870 43.75022
#
# Velocity S-wave (km/s) = 4.07538 4.14950 4.11260
# Velocity P-wave (km/s) = 7.04008 7.29747 7.16993
#
# Compressibility (1/GPa) = 0.01410006
#
# Stress axis : x y z
#
# Youngs Moduli (GPa) = 90.56471 122.28864 137.75442
#
# Poissons Ratio (x) = 0.15354 0.31512
# Poissons Ratio (y) = 0.11371 0.36451
# Poissons Ratio (z) = 0.20717 0.32359
#
# Static dielectric constant tensor:
#      x y z
#    x 2.402670 0.000000 -0.055080 
#    y 0.000000 2.418660 0.000000 
#    z -0.055080 0.000000 2.136000 
# 
# From -- ./inp_files/50775.got.cif
#   From: 2010.05.17/outbox.cif.g08.bks.cpg/sg14_26_cif.got.tgz:50775.got - 2010.06.03 17:49:19.
