data_PCOD9242145
_publ_section_title
;
Structure prediction by ZEFSAII (Michael W. Deem and Ramdas Pophale) SiO2 
 PCOD9242145
Probable space group: P 21/C
;
_chemical_formula_sum "Si O2"
_cell_formula_units_Z 28
_cell_length_a 15.248153
_cell_length_b 10.821924
_cell_length_c 9.431217
_cell_angle_alpha 90.000000
_cell_angle_beta 117.957465
_cell_angle_gamma 90.000000
_cell_volume 1374.661153
_symmetry_space_group_name_H-M "P 21/C"
_symmetry_group_IT_number 14
_symmetry_cell_setting 'monoclinic'
loop_
_space_group_symop_operation_xyz
x,y,z
-x,1/2+y,1/2-z
-x,-y,-z
x,1/2-y,1/2+z
loop_
_atom_site_type_symbol
_atom_site_label
_atom_site_fract_x
_atom_site_fract_y
_atom_site_fract_z
Si Si1 0.621018 0.869894 0.719692
Si Si2 0.786313 0.804638 0.349091
Si Si3 0.761542 0.534771 0.579267
Si Si4 0.590010 0.192923 0.342195
Si Si5 0.413402 0.901201 0.954435
Si Si6 0.114733 0.469329 0.575685
Si Si7 0.741342 0.503705 0.064400
O O1 0.670146 0.734353 0.742403
O O2 0.505711 0.872675 0.661407
O O3 0.658012 0.936003 0.605282
O O4 0.677936 0.916389 0.904947
O O5 0.813867 0.865883 0.220080
O O6 0.851229 0.677400 0.412154
O O7 0.783128 0.898622 0.479401
O O8 0.696751 0.455847 0.638404
O O9 0.840012 0.472768 0.534074
O O10 0.586044 0.330169 0.398134
O O11 0.575286 0.195048 0.163650
O O12 0.688147 0.115773 0.457231
O O13 0.500000 0.000000 0.000000
O O14 0.171016 0.520680 0.756654
O O15 0.000000 0.500000 0.500000
#
# Coordination Sequence:
#
# PCOD9242145 Si02
#       7
#     4   4   4   4   4   4   4
#     4  10  20  32  60  94 133 175 218 264 318 384
#     4  10  19  39  67  96 127 171 219 278 331 407
#     4  10  20  41  62  90 132 171 218 274 323 403
#     4  12  26  36  64  91 141 183 229 272 327 390
#     4  12  26  42  61  98 143 186 231 270 334 399
#     4  10  22  41  69  95 128 161 221 286 354 405
#     4  10  22  40  62  94 131 170 229 271 338 400
#
# _framework density 20.368656000000001
#
# number of rings (size 3 to 8) (size 9 to 14) (size 15 to 20)
#    0.000    1.714    2.857    4.714    6.000    0.000 
#    0.000    3.571    0.000    0.000    0.000    0.000 
#    0.000    0.000    0.000    0.000    0.000    0.000 
#
# Total GULP energy -156045.757485 kJ/mol
# GULP energy per Si atom -5573.062767 kJ/mol
# Density = 2.032230 g / cm^3
# Si number density = 20.368656 Si / 1000 Ang^3
#
#
#
# Elastic Constant Matrix: (Units=GPa)
#
#
# Indices 1 2 3 4 5 6 
#
# 1 115.7997 22.4068 33.3172 0.0000 15.2432 0.0000
# 2 22.4068 45.6672 17.4453 0.0000 -3.8086 0.0000
# 3 33.3172 17.4453 75.4765 0.0000 -17.1032 0.0000
# 4 0.0000 0.0000 0.0000 29.0365 0.0000 -6.1441
# 5 15.2432 -3.8086 -17.1032 0.0000 31.0368 0.0000
# 6 0.0000 0.0000 0.0000 -6.1441 0.0000 21.6310
#
#
#
# Elastic Compliance Matrix: (Units=1/GPa)
#
#
# Indices 1 2 3 4 5 6 
#
# 1 0.013011 -0.004558 -0.007159 0.000000 -0.010895 0.000000
# 2 -0.004558 0.025615 -0.003073 0.000000 0.003689 0.000000
# 3 -0.007159 -0.003073 0.020375 0.000000 0.014367 0.000000
# 4 0.000000 0.000000 0.000000 0.036642 0.000000 0.010408
# 5 -0.010895 0.003689 0.014367 0.000000 0.045940 0.000000
# 6 0.000000 0.000000 0.000000 0.010408 0.000000 0.049186
#
#
# Mechanical properties :
#
#
# Convention : Reuss Voigt Hill
#
# Bulk Modulus (GPa) = 33.98734 42.58691 38.28712
# Shear Modulus (GPa) = 21.72437 27.25913 24.49175
#
# Velocity S-wave (km/s) = 3.26936 3.66223 3.47136
# Velocity P-wave (km/s) = 5.56543 6.23186 5.90805
#
# Compressibility (1/GPa) = 0.02942272
#
# Stress axis : x y z
#
# Youngs Moduli (GPa) = 76.85612 39.03906 49.07978
#
# Poissons Ratio (x) = 0.17794 0.35135
# Poissons Ratio (y) = 0.35031 0.15081
# Poissons Ratio (z) = 0.55020 0.11996
#
# Static dielectric constant tensor:
#      x y z
#    x 1.742530 0.000000 -0.034190 
#    y 0.000000 1.971550 0.000000 
#    z -0.034190 0.000000 1.752270 
# 
# From -- ./inp_files/15582.got.cif
#   From: 2010.05.17/outbox.cif.g08.bks.cpg/sg14_8_cif.got.tgz:15582.got - 2010.06.03 17:49:19.
