data_PCOD9242577
_publ_section_title
;
Structure prediction by ZEFSAII (Michael W. Deem and Ramdas Pophale) SiO2 
 PCOD9242577
Probable space group: P 21/C
;
_chemical_formula_sum "Si O2"
_cell_formula_units_Z 20
_cell_length_a 17.229361
_cell_length_b 14.059138
_cell_length_c 10.771067
_cell_angle_alpha 90.000000
_cell_angle_beta 163.274750
_cell_angle_gamma 90.000000
_cell_volume 750.846437
_symmetry_space_group_name_H-M "P 21/C"
_symmetry_group_IT_number 14
_symmetry_cell_setting 'monoclinic'
loop_
_space_group_symop_operation_xyz
x,y,z
-x,1/2+y,1/2-z
-x,-y,-z
x,1/2-y,1/2+z
loop_
_atom_site_type_symbol
_atom_site_label
_atom_site_fract_x
_atom_site_fract_y
_atom_site_fract_z
Si Si1 0.113773 0.511884 0.851353
Si Si2 0.783125 0.689953 0.301111
Si Si3 0.174211 0.206878 0.409907
Si Si4 0.918684 0.158837 0.358503
Si Si5 0.621137 0.509207 0.478300
O O1 0.316050 0.532643 0.045931
O O2 0.260299 0.527648 0.207692
O O3 0.867352 0.583591 0.462983
O O4 0.070887 0.398497 0.782037
O O5 0.052306 0.757594 0.697223
O O6 0.679223 0.697666 0.000248
O O7 0.652494 0.745565 0.215570
O O8 0.937586 0.281153 0.013769
O O9 0.200808 0.099248 0.786129
O O10 0.701424 0.075937 0.008141
#
# Coordination Sequence:
#
# PCOD9242577 Si02
#       5
#     4   4   4   4   4
#     4  11  19  34  57  86 110 137 196 225 269 318
#     4  10  20  36  58  81 110 147 183 226 276 327
#     4  10  20  36  58  81 110 147 183 226 276 327
#     4   9  20  37  54  78 112 151 176 215 290 320
#     4  10  20  34  57  82 111 150 179 227 267 345
#
# _framework density 26.636606
#
# number of rings (size 3 to 8) (size 9 to 14) (size 15 to 20)
#    1.200    0.800    4.000    0.600    0.000    1.600 
#    0.000    0.000    0.000    2.400    0.000    0.000 
#    0.000    0.000    0.000    0.000    0.000    0.000 
#
# Total GULP energy -111565.646897 kJ/mol
# GULP energy per Si atom -5578.282345 kJ/mol
# Density = 2.657598 g / cm^3
# Si number density = 26.636606 Si / 1000 Ang^3
#
#
#
# Elastic Constant Matrix: (Units=GPa)
#
#
# Indices 1 2 3 4 5 6 
#
# 1 105.9252 20.9821 5.6497 0.0000 -13.9537 0.0000
# 2 20.9821 166.5161 30.7741 0.0000 20.7767 0.0000
# 3 5.6497 30.7741 66.7111 0.0000 3.0958 0.0000
# 4 0.0000 0.0000 0.0000 14.4235 0.0000 7.4863
# 5 -13.9537 20.7767 3.0958 0.0000 20.9664 0.0000
# 6 0.0000 0.0000 0.0000 7.4863 0.0000 59.8412
#
#
#
# Elastic Compliance Matrix: (Units=1/GPa)
#
#
# Indices 1 2 3 4 5 6 
#
# 1 0.011323 -0.002662 -0.000204 0.000000 0.010204 0.000000
# 2 -0.002662 0.008070 -0.003065 0.000000 -0.009316 0.000000
# 3 -0.000204 -0.003065 0.016399 0.000000 0.000480 0.000000
# 4 0.000000 0.000000 0.000000 0.074146 0.000000 -0.009276
# 5 0.010204 -0.009316 0.000480 0.000000 0.063647 0.000000
# 6 0.000000 0.000000 0.000000 -0.009276 0.000000 0.017871
#
#
# Mechanical properties :
#
#
# Convention : Reuss Voigt Hill
#
# Bulk Modulus (GPa) = 41.79059 50.44045 46.11552
# Shear Modulus (GPa) = 23.66360 37.82933 30.74646
#
# Velocity S-wave (km/s) = 2.98381 3.77264 3.40118
# Velocity P-wave (km/s) = 5.25301 6.16074 5.72489
#
# Compressibility (1/GPa) = 0.02392883
#
# Stress axis : x y z
#
# Youngs Moduli (GPa) = 88.31527 123.92088 60.97983
#
# Poissons Ratio (x) = 0.32990 0.01246
# Poissons Ratio (y) = 0.23511 0.18689
# Poissons Ratio (z) = 0.01805 0.37979
#
# Static dielectric constant tensor:
#      x y z
#    x 2.188710 0.000000 -0.001610 
#    y 0.000000 2.072310 0.000000 
#    z -0.001610 0.000000 2.172680 
# 
# From -- ./inp_files/34129.got.cif
#   From: 2010.05.17/outbox.cif.g08.bks.cpg/sg14_18_cif.got.tgz:34129.got - 2010.06.03 17:49:19.
