data_PCOD9242438
_publ_section_title
;
Structure prediction by ZEFSAII (Michael W. Deem and Ramdas Pophale) SiO2 
 PCOD9242438
Probable space group: P 21/C
;
_chemical_formula_sum "Si O2"
_cell_formula_units_Z 24
_cell_length_a 15.983403
_cell_length_b 9.932263
_cell_length_c 5.677514
_cell_angle_alpha 90.000000
_cell_angle_beta 71.524832
_cell_angle_gamma 90.000000
_cell_volume 854.860384
_symmetry_space_group_name_H-M "P 21/C"
_symmetry_group_IT_number 14
_symmetry_cell_setting 'monoclinic'
loop_
_space_group_symop_operation_xyz
x,y,z
-x,1/2+y,1/2-z
-x,-y,-z
x,1/2-y,1/2+z
loop_
_atom_site_type_symbol
_atom_site_label
_atom_site_fract_x
_atom_site_fract_y
_atom_site_fract_z
Si Si1 0.100321 0.031403 0.335030
Si Si2 0.356993 0.432045 0.066492
Si Si3 0.160656 0.435340 0.274686
Si Si4 0.522927 0.104603 0.182005
Si Si5 0.082529 0.761866 0.815005
Si Si6 0.318068 0.790989 0.493111
O O1 0.141619 0.108887 0.520748
O O2 0.138411 0.878026 0.272843
O O3 0.109025 0.091801 0.065510
O O4 0.000000 0.000000 0.500000
O O5 0.429712 0.342785 0.871090
O O6 0.326624 0.553083 0.919208
O O7 0.261365 0.389524 0.240850
O O8 0.416309 0.512954 0.200997
O O9 0.132796 0.595306 0.261693
O O10 0.585276 0.226202 0.052730
O O11 0.500000 0.000000 0.000000
O O12 0.033849 0.739614 0.609438
O O13 0.280680 0.779896 0.793352
#
# Coordination Sequence:
#
# PCOD9242438 Si02
#       6
#     4   4   4   4   4   4
#     4  10  20  35  53  80 113 143 173 218 279 344
#     4  10  22  35  55  85 117 152 191 241 286 334
#     4  10  21  34  56  85 114 141 180 228 283 330
#     4  10  20  36  52  80 120 154 192 229 284 340
#     4   8  16  30  48  76 107 135 167 207 267 324
#     4  10  20  33  53  77 108 153 188 226 282 332
#
# _framework density 28.074757999999999
#
# number of rings (size 3 to 8) (size 9 to 14) (size 15 to 20)
#    0.000    2.333    1.667    0.500    2.333    8.000 
#    0.000    0.000    0.000    0.000    0.000   63.000 
#    0.000    0.000    0.000    0.000    0.000    0.000 
#
# Total GULP energy -133827.497987 kJ/mol
# GULP energy per Si atom -5576.145749 kJ/mol
# Density = 2.801086 g / cm^3
# Si number density = 28.074758 Si / 1000 Ang^3
#
#
#
# Elastic Constant Matrix: (Units=GPa)
#
#
# Indices 1 2 3 4 5 6 
#
# 1 143.6127 -3.0455 72.8299 0.0000 -4.3127 0.0000
# 2 -3.0455 86.6046 6.5991 0.0000 -1.9829 0.0000
# 3 72.8299 6.5991 253.5927 0.0000 23.7359 0.0000
# 4 0.0000 0.0000 0.0000 24.8347 0.0000 -14.5176
# 5 -4.3127 -1.9829 23.7359 0.0000 43.1482 0.0000
# 6 0.0000 0.0000 0.0000 -14.5176 0.0000 36.1798
#
#
#
# Elastic Compliance Matrix: (Units=1/GPa)
#
#
# Indices 1 2 3 4 5 6 
#
# 1 0.008382 0.000549 -0.002638 0.000000 0.002314 0.000000
# 2 0.000549 0.011628 -0.000543 0.000000 0.000888 0.000000
# 3 -0.002638 -0.000543 0.005000 0.000000 -0.003039 0.000000
# 4 0.000000 0.000000 0.000000 0.052606 0.000000 0.021109
# 5 0.002314 0.000888 -0.003039 0.000000 0.025120 0.000000
# 6 0.000000 0.000000 0.000000 0.021109 0.000000 0.036110
#
#
# Mechanical properties :
#
#
# Convention : Reuss Voigt Hill
#
# Bulk Modulus (GPa) = 50.64809 70.73079 60.68944
# Shear Modulus (GPa) = 33.18027 47.99428 40.58728
#
# Velocity S-wave (km/s) = 3.44154 4.13912 3.80634
# Velocity P-wave (km/s) = 5.81995 6.93480 6.40169
#
# Compressibility (1/GPa) = 0.01974408
#
# Stress axis : x y z
#
# Youngs Moduli (GPa) = 119.30018 86.00108 200.01671
#
# Poissons Ratio (x) = -0.04720 0.52769
# Poissons Ratio (y) = -0.06547 0.10867
# Poissons Ratio (z) = 0.31474 0.04673
#
# Static dielectric constant tensor:
#      x y z
#    x 2.249630 0.000000 -0.041250 
#    y 0.000000 2.371760 0.000000 
#    z -0.041250 0.000000 2.255260 
# 
# From -- ./inp_files/3562.got.cif
#   From: 2010.05.17/outbox.cif.g08.bks.cpg/sg14_2_cif.got.tgz:3562.got - 2010.06.03 17:49:19.
