data_PCOD9242071
_publ_section_title
;
Structure prediction by ZEFSAII (Michael W. Deem and Ramdas Pophale) SiO2 
 PCOD9242071
Probable space group: P 21/C
;
_chemical_formula_sum "Si O2"
_cell_formula_units_Z 28
_cell_length_a 7.409946
_cell_length_b 9.019604
_cell_length_c 20.398678
_cell_angle_alpha 90.000000
_cell_angle_beta 122.058526
_cell_angle_gamma 90.000000
_cell_volume 1155.440272
_symmetry_space_group_name_H-M "P 21/C"
_symmetry_group_IT_number 14
_symmetry_cell_setting 'monoclinic'
loop_
_space_group_symop_operation_xyz
x,y,z
-x,1/2+y,1/2-z
-x,-y,-z
x,1/2-y,1/2+z
loop_
_atom_site_type_symbol
_atom_site_label
_atom_site_fract_x
_atom_site_fract_y
_atom_site_fract_z
Si Si1 0.566796 0.085871 0.947407
Si Si2 0.289858 0.588828 0.800718
Si Si3 0.791230 0.605592 0.854995
Si Si4 0.573880 0.160046 0.536541
Si Si5 0.172399 0.765522 0.651790
Si Si6 0.333498 0.251703 0.299652
Si Si7 0.837434 0.685993 0.481991
O O1 0.363639 0.132511 0.864834
O O2 0.653772 0.241948 0.991417
O O3 0.500000 0.000000 0.000000
O O4 0.733097 0.974064 0.945679
O O5 0.540567 0.594429 0.827702
O O6 0.276943 0.654362 0.871229
O O7 0.168827 0.685455 0.722225
O O8 0.246166 0.412569 0.796700
O O9 0.883301 0.440274 0.865019
O O10 0.792310 0.679434 0.784415
O O11 0.887637 0.714215 0.928269
O O12 0.356389 0.231060 0.520024
O O13 0.500000 0.000000 0.500000
O O14 0.418793 0.759596 0.676138
O O15 0.019848 0.683924 0.571427
#
# Coordination Sequence:
#
# PCOD9242071 Si02
#       7
#     4   4   4   4   4   4   4
#     4  10  22  36  62  82 115 157 205 242 287 362
#     4   9  19  35  59  85 112 156 202 243 292 364
#     4   9  20  34  59  84 120 155 191 238 304 367
#     4  10  19  39  62  80 112 161 212 243 288 367
#     4  10  21  37  59  87 125 150 188 257 316 355
#     4  10  20  36  59  89 112 154 201 240 299 363
#     4  10  22  38  57  90 121 150 196 252 311 353
#
# _framework density 24.233184999999999
#
# number of rings (size 3 to 8) (size 9 to 14) (size 15 to 20)
#    0.000    2.286    1.429    0.429   12.000    0.571 
#    0.000    1.429    0.000    0.000    0.000    0.000 
#    0.000    0.000    0.000    0.000    0.000    0.000 
#
# Total GULP energy -156515.010728 kJ/mol
# GULP energy per Si atom -5589.821812 kJ/mol
# Density = 2.417803 g / cm^3
# Si number density = 24.233185 Si / 1000 Ang^3
#
#
#
# Elastic Constant Matrix: (Units=GPa)
#
#
# Indices 1 2 3 4 5 6 
#
# 1 50.8967 29.0294 35.0039 0.0000 12.6978 0.0000
# 2 29.0294 160.2800 65.6130 0.0000 -2.0039 0.0000
# 3 35.0039 65.6130 168.3911 0.0000 -16.4831 0.0000
# 4 0.0000 0.0000 0.0000 41.1372 0.0000 -27.7171
# 5 12.6978 -2.0039 -16.4831 0.0000 30.2278 0.0000
# 6 0.0000 0.0000 0.0000 -27.7171 0.0000 -5.3443
#
#
#
# Elastic Compliance Matrix: (Units=1/GPa)
#
#
# Indices 1 2 3 4 5 6 
#
# 1 0.030037 -0.002891 -0.006730 0.000000 -0.016479 0.000000
# 2 -0.002891 0.007739 -0.002372 0.000000 0.000434 0.000000
# 3 -0.006730 -0.002372 0.009004 0.000000 0.007580 0.000000
# 4 0.000000 0.000000 0.000000 0.005409 0.000000 -0.028051
# 5 -0.016479 0.000434 0.007580 0.000000 0.044167 0.000000
# 6 0.000000 0.000000 0.000000 -0.028051 0.000000 -0.041633
#
#
# Mechanical properties :
#
#
# Convention : Reuss Voigt Hill
#
# Bulk Modulus (GPa) = 43.87379 70.98448 57.42914
# Shear Modulus (GPa) = 57.93308 29.86555 43.89931
#
# Velocity S-wave (km/s) = 4.89473 3.51440 4.26083
# Velocity P-wave (km/s) = 7.07734 6.76933 6.92505
#
# Compressibility (1/GPa) = 0.02279265
#
# Stress axis : x y z
#
# Youngs Moduli (GPa) = 33.29274 129.21289 111.06339
#
# Poissons Ratio (x) = 0.37355 0.74750
# Poissons Ratio (y) = 0.09625 0.26346
# Poissons Ratio (z) = 0.22407 0.30651
#
# Static dielectric constant tensor:
#      x y z
#    x 1.971270 0.000000 -0.020080 
#    y 0.000000 1.954750 0.000000 
#    z -0.020080 0.000000 1.898890 
# 
# From -- ./inp_files/73008.got.cif
#   From: 2010.05.17/outbox.cif.g08.bks.cpg/sg14_37_cif.got.tgz:73008.got - 2010.06.03 17:49:19.
