data_PCOD9242785
_publ_section_title
;
Structure prediction by ZEFSAII (Michael W. Deem and Ramdas Pophale) SiO2 
 PCOD9242785
Probable space group: P 21/C
;
_chemical_formula_sum "Si O2"
_cell_formula_units_Z 26
_cell_length_a 11.291344
_cell_length_b 7.686385
_cell_length_c 14.947579
_cell_angle_alpha 90.000000
_cell_angle_beta 53.715656
_cell_angle_gamma 90.000000
_cell_volume 1045.736276
_symmetry_space_group_name_H-M "P 21/C"
_symmetry_group_IT_number 14
_symmetry_cell_setting 'monoclinic'
loop_
_space_group_symop_operation_xyz
x,y,z
-x,1/2+y,1/2-z
-x,-y,-z
x,1/2-y,1/2+z
loop_
_atom_site_type_symbol
_atom_site_label
_atom_site_fract_x
_atom_site_fract_y
_atom_site_fract_z
Si Si1 0.500000 0.500000 0.000000
Si Si2 0.053662 0.829016 0.746291
Si Si3 0.716186 0.656649 0.448756
Si Si4 0.285315 0.778422 0.003749
Si Si5 0.282901 0.087559 0.694692
Si Si6 0.859774 0.201971 0.600687
Si Si7 0.811619 0.705534 0.094051
O O1 0.383684 0.615200 0.984474
O O2 0.399141 0.565639 0.137041
O O3 0.128553 0.763253 0.622190
O O4 0.116158 0.724439 0.804193
O O5 0.878974 0.850719 0.830724
O O6 0.127280 0.016917 0.731817
O O7 0.658471 0.461683 0.481489
O O8 0.638118 0.806464 0.424043
O O9 0.735345 0.734087 0.537793
O O10 0.255798 0.802102 0.910662
O O11 0.264606 0.203693 0.788117
O O12 0.018486 0.261310 0.492257
O O13 0.823499 0.001016 0.599279
#
# Coordination Sequence:
#
# PCOD9242785 Si02
#       7
#     2   4   4   4   4   4   4
#     4  10  26  44  58  78 116 166 214 250 288 368
#     4  10  20  35  61  94 124 156 198 255 331 398
#     4  11  21  35  63  95 120 155 203 262 329 388
#     4  11  22  40  60  85 125 166 205 256 316 378
#     4  11  22  40  59  85 125 162 205 258 308 374
#     4  10  20  36  60  93 127 157 198 257 322 385
#     4  10  20  35  60  94 125 156 202 258 320 383
#
# _framework density 24.862864999999999
#
# number of rings (size 3 to 8) (size 9 to 14) (size 15 to 20)
#    0.000    1.538    0.000    6.462    0.000    5.538 
#    0.000    9.231    0.000    0.000    0.000    0.000 
#    0.000    0.000    0.000    0.000    0.000    0.000 
#
# Total GULP energy -145011.059174 kJ/mol
# GULP energy per Si atom -5577.348430 kJ/mol
# Density = 2.480628 g / cm^3
# Si number density = 24.862865 Si / 1000 Ang^3
#
#
#
# Elastic Constant Matrix: (Units=GPa)
#
#
# Indices 1 2 3 4 5 6 
#
# 1 75.3635 4.4935 29.8666 0.0000 1.0194 0.0000
# 2 4.4935 69.2974 -4.2942 0.0000 -2.8540 0.0000
# 3 29.8666 -4.2942 105.3586 0.0000 11.6146 0.0000
# 4 0.0000 0.0000 0.0000 43.6154 0.0000 7.5533
# 5 1.0194 -2.8540 11.6146 0.0000 42.9293 0.0000
# 6 0.0000 0.0000 0.0000 7.5533 0.0000 37.6052
#
#
#
# Elastic Compliance Matrix: (Units=1/GPa)
#
#
# Indices 1 2 3 4 5 6 
#
# 1 0.015078 -0.001220 -0.004407 0.000000 0.000753 0.000000
# 2 -0.001220 0.014594 0.000856 0.000000 0.000768 0.000000
# 3 -0.004407 0.000856 0.011088 0.000000 -0.002838 0.000000
# 4 0.000000 0.000000 0.000000 0.023754 0.000000 -0.004771
# 5 0.000753 0.000768 -0.002838 0.000000 0.024095 0.000000
# 6 0.000000 0.000000 0.000000 -0.004771 0.000000 0.027550
#
#
# Mechanical properties :
#
#
# Convention : Reuss Voigt Hill
#
# Bulk Modulus (GPa) = 32.03154 34.46126 33.24640
# Shear Modulus (GPa) = 36.73540 39.49354 38.11447
#
# Velocity S-wave (km/s) = 3.84802 3.98987 3.91959
# Velocity P-wave (km/s) = 5.71439 5.92588 5.82110
#
# Compressibility (1/GPa) = 0.03121923
#
# Stress axis : x y z
#
# Youngs Moduli (GPa) = 66.32152 68.51986 90.18377
#
# Poissons Ratio (x) = 0.08358 0.39744
# Poissons Ratio (y) = 0.08090 -0.07720
# Poissons Ratio (z) = 0.29228 -0.05865
#
# Static dielectric constant tensor:
#      x y z
#    x 2.003040 0.000000 -0.060590 
#    y 0.000000 2.210970 0.000000 
#    z -0.060590 0.000000 2.025780 
# 
# From -- ./inp_files/43290.got.cif
#   From: 2010.05.17/outbox.cif.g08.bks.cpg/sg14_22_cif.got.tgz:43290.got - 2010.06.03 17:49:19.
