data_PCOD9242959
_publ_section_title
;
Structure prediction by ZEFSAII (Michael W. Deem and Ramdas Pophale) SiO2 
 PCOD9242959
Probable space group: P 21/C
;
_chemical_formula_sum "Si O2"
_cell_formula_units_Z 24
_cell_length_a 17.519427
_cell_length_b 5.355073
_cell_length_c 13.947935
_cell_angle_alpha 90.000000
_cell_angle_beta 45.711819
_cell_angle_gamma 90.000000
_cell_volume 936.718768
_symmetry_space_group_name_H-M "P 21/C"
_symmetry_group_IT_number 14
_symmetry_cell_setting 'monoclinic'
loop_
_space_group_symop_operation_xyz
x,y,z
-x,1/2+y,1/2-z
-x,-y,-z
x,1/2-y,1/2+z
loop_
_atom_site_type_symbol
_atom_site_label
_atom_site_fract_x
_atom_site_fract_y
_atom_site_fract_z
Si Si1 0.551701 0.768885 0.586195
Si Si2 0.642134 0.347286 0.126119
Si Si3 0.939353 0.489795 0.825100
Si Si4 0.632952 0.888181 0.331051
Si Si5 0.756148 0.270857 0.357876
Si Si6 0.802220 0.982859 0.626873
O O1 0.470628 0.617860 0.722184
O O2 0.590168 0.688024 0.447558
O O3 0.645636 0.893137 0.564756
O O4 0.468516 0.002207 0.634239
O O5 0.727689 0.320505 0.134849
O O6 0.674317 0.147435 0.015496
O O7 0.845373 0.381398 0.839085
O O8 0.977745 0.758595 0.752680
O O9 0.901872 0.532794 0.968265
O O10 0.727108 0.760269 0.190488
O O11 0.684919 0.098127 0.352091
O O12 0.813377 0.449324 0.229322
#
# Coordination Sequence:
#
# PCOD9242959 Si02
#       6
#     4   4   4   4   4   4
#     4  10  20  36  58  95 141 183 239 277 324 407
#     4  10  21  37  58  96 133 182 225 278 334 397
#     4  11  29  51  75 108 137 175 233 300 374 443
#     4  10  22  39  62  97 136 185 234 280 341 406
#     4  10  24  44  66 101 135 175 234 283 357 424
#     4  11  24  43  71  95 136 184 223 295 358 417
#
# _framework density 25.621348999999999
#
# number of rings (size 3 to 8) (size 9 to 14) (size 15 to 20)
#    0.000    1.667    1.667    1.000    7.000    2.000 
#    0.000    0.000    0.000    0.000    0.000    0.000 
#    0.000    0.000    0.000    0.000    0.000    0.000 
#
# Total GULP energy -133904.699897 kJ/mol
# GULP energy per Si atom -5579.362496 kJ/mol
# Density = 2.556303 g / cm^3
# Si number density = 25.621349 Si / 1000 Ang^3
#
#
#
# Elastic Constant Matrix: (Units=GPa)
#
#
# Indices 1 2 3 4 5 6 
#
# 1 74.2870 -2.6169 14.4713 0.0000 14.0530 0.0000
# 2 -2.6169 65.4843 34.6000 0.0000 9.3746 0.0000
# 3 14.4713 34.6000 197.2563 0.0000 9.9458 0.0000
# 4 0.0000 0.0000 0.0000 41.3636 0.0000 4.9856
# 5 14.0530 9.3746 9.9458 0.0000 37.0010 0.0000
# 6 0.0000 0.0000 0.0000 4.9856 0.0000 31.8387
#
#
#
# Elastic Compliance Matrix: (Units=1/GPa)
#
#
# Indices 1 2 3 4 5 6 
#
# 1 0.014865 0.002041 -0.001154 0.000000 -0.005853 0.000000
# 2 0.002041 0.017575 -0.003010 0.000000 -0.004419 0.000000
# 3 -0.001154 -0.003010 0.005699 0.000000 -0.000331 0.000000
# 4 0.000000 0.000000 0.000000 0.024641 0.000000 -0.003859
# 5 -0.005853 -0.004419 -0.000331 0.000000 0.030458 0.000000
# 6 0.000000 0.000000 0.000000 -0.003859 0.000000 0.032013
#
#
# Mechanical properties :
#
#
# Convention : Reuss Voigt Hill
#
# Bulk Modulus (GPa) = 29.50237 47.77070 38.63653
# Shear Modulus (GPa) = 35.51317 41.41222 38.46269
#
# Velocity S-wave (km/s) = 3.72704 4.02471 3.87873
# Velocity P-wave (km/s) = 5.48278 6.34689 5.93060
#
# Compressibility (1/GPa) = 0.03389558
#
# Stress axis : x y z
#
# Youngs Moduli (GPa) = 67.27146 56.89793 175.47551
#
# Poissons Ratio (x) = -0.11615 0.20241
# Poissons Ratio (y) = -0.13733 0.52814
# Poissons Ratio (z) = 0.07760 0.17125
#
# Static dielectric constant tensor:
#      x y z
#    x 1.985390 0.000000 -0.003170 
#    y 0.000000 2.177990 0.000000 
#    z -0.003170 0.000000 2.192720 
# 
# From -- ./inp_files/49467.got.cif
#   From: 2010.05.17/outbox.cif.g08.bks.cpg/sg14_25_cif.got.tgz:49467.got - 2010.06.03 17:49:19.
