data_PCOD9242858
_publ_section_title
;
Structure prediction by ZEFSAII (Michael W. Deem and Ramdas Pophale) SiO2 
 PCOD9242858
Probable space group: P 21/C
;
_chemical_formula_sum "Si O2"
_cell_formula_units_Z 24
_cell_length_a 22.058306
_cell_length_b 5.415812
_cell_length_c 23.049408
_cell_angle_alpha 90.000000
_cell_angle_beta 19.337557
_cell_angle_gamma 90.000000
_cell_volume 911.796553
_symmetry_space_group_name_H-M "P 21/C"
_symmetry_group_IT_number 14
_symmetry_cell_setting 'monoclinic'
loop_
_space_group_symop_operation_xyz
x,y,z
-x,1/2+y,1/2-z
-x,-y,-z
x,1/2-y,1/2+z
loop_
_atom_site_type_symbol
_atom_site_label
_atom_site_fract_x
_atom_site_fract_y
_atom_site_fract_z
Si Si1 0.887239 0.954742 0.727349
Si Si2 0.430966 0.508975 0.262837
Si Si3 0.320561 0.492003 0.851087
Si Si4 0.117086 0.498193 0.644150
Si Si5 0.318589 0.638401 0.685056
Si Si6 0.815290 0.865132 0.186208
O O1 0.103362 0.990223 0.542281
O O2 0.793043 0.952953 0.874527
O O3 0.843599 0.715595 0.727829
O O4 0.807739 0.165541 0.758132
O O5 0.605914 0.509169 0.147513
O O6 0.407214 0.757676 0.248983
O O7 0.255868 0.506368 0.465193
O O8 0.408446 0.258518 0.248518
O O9 0.015687 0.761466 0.741634
O O10 0.500000 0.500000 0.500000
O O11 0.332745 0.920118 0.692601
O O12 0.219000 0.411638 0.809901
O O13 0.000000 0.000000 0.000000
#
# Coordination Sequence:
#
# PCOD9242858 Si02
#       6
#     4   4   4   4   4   4
#     4  10  24  36  68  87 127 163 217 251 333 377
#     4  10  20  36  54  81 124 156 204 240 304 347
#     4  10  20  36  57  81 116 164 196 256 288 375
#     4  12  22  36  59  89 126 165 201 250 307 385
#     4  10  23  43  68  93 129 165 212 282 333 379
#     4  10  23  43  68  91 124 167 218 270 331 384
#
# _framework density 26.321663000000001
#
# number of rings (size 3 to 8) (size 9 to 14) (size 15 to 20)
#    1.000    0.667    3.333    1.000    4.667    0.000 
#    3.000    0.000    0.000    0.000    0.000    0.000 
#    0.000    0.000    0.000    0.000    0.000    0.000 
#
# Total GULP energy -134036.526576 kJ/mol
# GULP energy per Si atom -5584.855274 kJ/mol
# Density = 2.626175 g / cm^3
# Si number density = 26.321663 Si / 1000 Ang^3
#
#
#
# Elastic Constant Matrix: (Units=GPa)
#
#
# Indices 1 2 3 4 5 6 
#
# 1 80.2365 1.6101 9.3713 0.0000 -8.2568 0.0000
# 2 1.6101 217.5373 24.3800 0.0000 -11.7931 0.0000
# 3 9.3713 24.3800 113.5187 0.0000 -20.0812 0.0000
# 4 0.0000 0.0000 0.0000 42.1852 0.0000 -9.4559
# 5 -8.2568 -11.7931 -20.0812 0.0000 45.7392 0.0000
# 6 0.0000 0.0000 0.0000 -9.4559 0.0000 28.8645
#
#
#
# Elastic Compliance Matrix: (Units=1/GPa)
#
#
# Indices 1 2 3 4 5 6 
#
# 1 0.012752 0.000095 -0.000717 0.000000 0.002012 0.000000
# 2 0.000095 0.004741 -0.000875 0.000000 0.000855 0.000000
# 3 -0.000717 -0.000875 0.009751 0.000000 0.003926 0.000000
# 4 0.000000 0.000000 0.000000 0.025584 0.000000 0.008381
# 5 0.002012 0.000855 0.003926 0.000000 0.024170 0.000000
# 6 0.000000 0.000000 0.000000 0.008381 0.000000 0.037390
#
#
# Mechanical properties :
#
#
# Convention : Reuss Voigt Hill
#
# Bulk Modulus (GPa) = 41.23792 53.55728 47.39760
# Shear Modulus (GPa) = 39.85187 48.41984 44.13586
#
# Velocity S-wave (km/s) = 3.89528 4.29364 4.09930
# Velocity P-wave (km/s) = 5.99432 6.70611 6.36018
#
# Compressibility (1/GPa) = 0.02424953
#
# Stress axis : x y z
#
# Youngs Moduli (GPa) = 78.41894 210.94343 102.55704
#
# Poissons Ratio (x) = -0.02005 0.07356
# Poissons Ratio (y) = -0.00745 0.08970
# Poissons Ratio (z) = 0.05625 0.18450
#
# Static dielectric constant tensor:
#      x y z
#    x 2.077280 0.000000 0.008120 
#    y 0.000000 2.241980 0.000000 
#    z 0.008120 0.000000 2.119750 
# 
# From -- ./inp_files/74774.got.cif
#   From: 2010.05.17/outbox.cif.g08.bks.cpg/sg14_38_cif.got.tgz:74774.got - 2010.06.03 17:49:19.
