data_PCOD9242847
_publ_section_title
;
Structure prediction by ZEFSAII (Michael W. Deem and Ramdas Pophale) SiO2 
 PCOD9242847
Probable space group: P 21/C
;
_chemical_formula_sum "Si O2"
_cell_formula_units_Z 28
_cell_length_a 9.485128
_cell_length_b 18.042491
_cell_length_c 10.139627
_cell_angle_alpha 90.000000
_cell_angle_beta 124.969034
_cell_angle_gamma 90.000000
_cell_volume 1421.970049
_symmetry_space_group_name_H-M "P 21/C"
_symmetry_group_IT_number 14
_symmetry_cell_setting 'monoclinic'
loop_
_space_group_symop_operation_xyz
x,y,z
-x,1/2+y,1/2-z
-x,-y,-z
x,1/2-y,1/2+z
loop_
_atom_site_type_symbol
_atom_site_label
_atom_site_fract_x
_atom_site_fract_y
_atom_site_fract_z
Si Si1 0.739133 0.591624 0.248288
Si Si2 0.822518 0.217820 0.207448
Si Si3 0.224286 0.434535 0.047897
Si Si4 0.613670 0.429476 0.253636
Si Si5 0.404566 0.832760 0.514072
Si Si6 0.070982 0.830053 0.006434
Si Si7 0.863095 0.104053 0.430894
O O1 0.663064 0.515450 0.266343
O O2 0.904157 0.618226 0.417862
O O3 0.783162 0.578335 0.115559
O O4 0.590620 0.654121 0.174842
O O5 0.638572 0.254341 0.074555
O O6 0.907547 0.273034 0.360936
O O7 0.933486 0.211946 0.135150
O O8 0.807632 0.136225 0.260025
O O9 0.418570 0.418254 0.197372
O O10 0.186299 0.520208 0.061290
O O11 0.070391 0.390555 0.037201
O O12 0.611461 0.396232 0.104768
O O13 0.759177 0.381889 0.403745
O O14 0.248751 0.847248 0.529834
#
# Coordination Sequence:
#
# PCOD9242847 Si02
#       7
#     4   4   4   4   4   4   4
#     4  11  19  40  62  94 118 160 211 252 304 369
#     4  11  23  42  58  87 127 166 203 248 304 371
#     4  10  20  35  67  92 118 161 204 255 309 362
#     4  10  20  39  63  92 120 156 208 252 308 365
#     4  10  20  38  65  85 120 167 201 245 306 373
#     4  11  24  40  63  87 128 162 205 255 306 362
#     4  11  19  37  64  87 124 157 204 250 309 355
#
# _framework density 19.690991
#
# number of rings (size 3 to 8) (size 9 to 14) (size 15 to 20)
#    0.000    1.429    5.714    1.286    0.000    0.000 
#    5.143    0.714    3.143    0.000    0.000    0.000 
#    0.000    0.000    0.000    0.000    0.000    0.000 
#
# Total GULP energy -156091.939595 kJ/mol
# GULP energy per Si atom -5574.712128 kJ/mol
# Density = 1.964617 g / cm^3
# Si number density = 19.690991 Si / 1000 Ang^3
#
#
#
# Elastic Constant Matrix: (Units=GPa)
#
#
# Indices 1 2 3 4 5 6 
#
# 1 108.5579 13.2198 47.8403 0.0000 22.8146 0.0000
# 2 13.2198 23.6036 25.0580 0.0000 11.4321 0.0000
# 3 47.8403 25.0580 84.2388 0.0000 22.0639 0.0000
# 4 0.0000 0.0000 0.0000 19.5484 0.0000 2.1604
# 5 22.8146 11.4321 22.0639 0.0000 32.9277 0.0000
# 6 0.0000 0.0000 0.0000 2.1604 0.0000 9.7765
#
#
#
# Elastic Compliance Matrix: (Units=1/GPa)
#
#
# Indices 1 2 3 4 5 6 
#
# 1 0.012994 0.002429 -0.006699 0.000000 -0.005358 0.000000
# 2 0.002429 0.065914 -0.017649 0.000000 -0.012741 0.000000
# 3 -0.006699 -0.017649 0.021958 0.000000 -0.003945 0.000000
# 4 0.000000 0.000000 0.000000 0.052436 0.000000 -0.011587
# 5 -0.005358 -0.012741 -0.003945 0.000000 0.041149 0.000000
# 6 0.000000 0.000000 0.000000 -0.011587 0.000000 0.104847
#
#
# Mechanical properties :
#
#
# Convention : Reuss Voigt Hill
#
# Bulk Modulus (GPa) = 17.53519 43.18183 30.35851
# Shear Modulus (GPa) = 13.80664 21.13599 17.47132
#
# Velocity S-wave (km/s) = 2.65083 3.27981 2.98195
# Velocity P-wave (km/s) = 4.27711 6.02662 5.22560
#
# Compressibility (1/GPa) = 0.05702819
#
# Stress axis : x y z
#
# Youngs Moduli (GPa) = 76.95933 15.17131 45.54058
#
# Poissons Ratio (x) = -0.03685 0.30505
# Poissons Ratio (y) = -0.18691 0.80375
# Poissons Ratio (z) = 0.51551 0.26776
#
# Static dielectric constant tensor:
#      x y z
#    x 1.738400 0.000000 0.003100 
#    y 0.000000 1.715220 0.000000 
#    z 0.003100 0.000000 1.708830 
# 
# From -- ./inp_files/26668.got.cif
#   From: 2010.05.17/outbox.cif.g08.bks.cpg/sg14_14_cif.got.tgz:26668.got - 2010.06.03 17:49:19.
