data_PCOD9242613
_publ_section_title
;
Structure prediction by ZEFSAII (Michael W. Deem and Ramdas Pophale) SiO2 
 PCOD9242613
Probable space group: P 21/C
;
_chemical_formula_sum "Si O2"
_cell_formula_units_Z 24
_cell_length_a 10.545442
_cell_length_b 19.972992
_cell_length_c 5.405374
_cell_angle_alpha 90.000000
_cell_angle_beta 111.673686
_cell_angle_gamma 90.000000
_cell_volume 1058.012184
_symmetry_space_group_name_H-M "P 21/C"
_symmetry_group_IT_number 14
_symmetry_cell_setting 'monoclinic'
loop_
_space_group_symop_operation_xyz
x,y,z
-x,1/2+y,1/2-z
-x,-y,-z
x,1/2-y,1/2+z
loop_
_atom_site_type_symbol
_atom_site_label
_atom_site_fract_x
_atom_site_fract_y
_atom_site_fract_z
Si Si1 0.722715 0.986905 0.628941
Si Si2 0.928385 0.095339 0.935579
Si Si3 0.149223 0.766969 0.227152
Si Si4 0.932196 0.573171 0.958935
Si Si5 0.455046 0.786394 0.955620
Si Si6 0.500349 0.436393 0.681524
O O1 0.634844 0.942563 0.750670
O O2 0.780905 0.941503 0.448262
O O3 0.847718 0.025234 0.854001
O O4 0.627259 0.045486 0.451698
O O5 0.824636 0.154958 0.796875
O O6 0.039378 0.100613 0.793720
O O7 0.989378 0.106576 0.251808
O O8 0.073218 0.757379 0.428986
O O9 0.290585 0.726066 0.339459
O O10 0.000000 0.500000 0.000000
O O11 0.505317 0.744891 0.750778
O O12 0.482937 0.864843 0.935585
O O13 0.500000 0.500000 0.500000
#
# Coordination Sequence:
#
# PCOD9242613 Si02
#       6
#     4   4   4   4   4   4
#     4  10  23  39  60  98 136 169 213 273 330 394
#     4  11  22  38  65  94 126 168 212 276 328 396
#     4  10  20  34  60  87 121 157 212 267 329 377
#     4  10  22  38  62  93 127 167 207 259 338 391
#     4  10  23  41  62  90 129 172 219 269 334 392
#     4  11  26  38  68  99 139 175 228 278 333 393
#
# _framework density 22.684049999999999
#
# number of rings (size 3 to 8) (size 9 to 14) (size 15 to 20)
#    0.000    1.667    0.000    5.000   16.333    0.000 
#    0.000    0.000    0.000    6.000    0.000    0.000 
#    0.000    0.000    0.000    0.000    0.000    0.000 
#
# Total GULP energy -134005.317294 kJ/mol
# GULP energy per Si atom -5583.554887 kJ/mol
# Density = 2.263242 g / cm^3
# Si number density = 22.684050 Si / 1000 Ang^3
#
#
#
# Elastic Constant Matrix: (Units=GPa)
#
#
# Indices 1 2 3 4 5 6 
#
# 1 109.8027 31.5930 34.6443 0.0000 -21.9986 0.0000
# 2 31.5930 114.5191 24.8844 0.0000 -13.9230 0.0000
# 3 34.6443 24.8844 131.2178 0.0000 -37.1035 0.0000
# 4 0.0000 0.0000 0.0000 37.0059 0.0000 -2.5822
# 5 -21.9986 -13.9230 -37.1035 0.0000 35.6591 0.0000
# 6 0.0000 0.0000 0.0000 -2.5822 0.0000 20.3668
#
#
#
# Elastic Compliance Matrix: (Units=1/GPa)
#
#
# Indices 1 2 3 4 5 6 
#
# 1 0.011064 -0.002223 -0.001155 0.000000 0.004756 0.000000
# 2 -0.002223 0.009713 -0.000808 0.000000 0.001580 0.000000
# 3 -0.001155 -0.000808 0.011035 0.000000 0.010454 0.000000
# 4 0.000000 0.000000 0.000000 0.027264 0.000000 0.003457
# 5 0.004756 0.001580 0.010454 0.000000 0.042472 0.000000
# 6 0.000000 0.000000 0.000000 0.003457 0.000000 0.049538
#
#
# Mechanical properties :
#
#
# Convention : Reuss Voigt Hill
#
# Bulk Modulus (GPa) = 42.66204 59.75367 51.20785
# Shear Modulus (GPa) = 29.89147 36.23422 33.06285
#
# Velocity S-wave (km/s) = 3.63399 4.00101 3.82191
# Velocity P-wave (km/s) = 6.03786 6.90963 6.48841
#
# Compressibility (1/GPa) = 0.02344004
#
# Stress axis : x y z
#
# Youngs Moduli (GPa) = 90.38237 102.95259 90.61975
#
# Poissons Ratio (x) = 0.22888 0.10464
# Poissons Ratio (y) = 0.20093 0.07325
# Poissons Ratio (z) = 0.10436 0.08322
#
# Static dielectric constant tensor:
#      x y z
#    x 1.888920 0.000000 -0.030600 
#    y 0.000000 1.891840 0.000000 
#    z -0.030600 0.000000 1.982390 
# 
# From -- ./inp_files/2713.got.cif
#   From: 2010.05.17/outbox.cif.g08.bks.cpg/sg14_2_cif.got.tgz:2713.got - 2010.06.03 17:49:19.
