data_PCOD9242244
_publ_section_title
;
Structure prediction by ZEFSAII (Michael W. Deem and Ramdas Pophale) SiO2 
 PCOD9242244
Probable space group: P 21/C
;
_chemical_formula_sum "Si O2"
_cell_formula_units_Z 28
_cell_length_a 11.827247
_cell_length_b 21.617087
_cell_length_c 5.400464
_cell_angle_alpha 90.000000
_cell_angle_beta 67.783602
_cell_angle_gamma 90.000000
_cell_volume 1278.237206
_symmetry_space_group_name_H-M "P 21/C"
_symmetry_group_IT_number 14
_symmetry_cell_setting 'monoclinic'
loop_
_space_group_symop_operation_xyz
x,y,z
-x,1/2+y,1/2-z
-x,-y,-z
x,1/2-y,1/2+z
loop_
_atom_site_type_symbol
_atom_site_label
_atom_site_fract_x
_atom_site_fract_y
_atom_site_fract_z
Si Si1 0.537654 0.427016 0.486565
Si Si2 0.947718 0.593923 0.064416
Si Si3 0.852169 0.767170 0.595067
Si Si4 0.156440 0.460627 0.347727
Si Si5 0.814165 0.090284 0.924661
Si Si6 0.438685 0.431165 0.068641
Si Si7 0.873287 0.218056 0.129114
O O1 0.500000 0.500000 0.500000
O O2 0.679184 0.419532 0.431248
O O3 0.501847 0.399768 0.251445
O O4 0.463808 0.401256 0.782266
O O5 0.107591 0.448357 0.111541
O O6 0.893394 0.662057 0.066757
O O7 0.914064 0.573151 0.368452
O O8 0.090295 0.594887 0.880266
O O9 0.784676 0.750955 0.399999
O O10 0.978207 0.725918 0.489406
O O11 0.155838 0.531713 0.428718
O O12 0.296159 0.438322 0.235556
O O13 0.832620 0.151133 0.073861
O O14 0.500000 0.500000 0.000000
O O15 0.832358 0.237031 0.437539
#
# Coordination Sequence:
#
# PCOD9242244 Si02
#       7
#     4   4   4   4   4   4   4
#     4  10  21  38  65  88 123 173 213 254 311 386
#     4  12  26  39  60 101 141 167 198 274 340 400
#     4  10  19  41  63  81 126 171 225 253 306 400
#     4  12  26  40  61  99 143 170 206 260 342 405
#     4  12  24  41  67  96 141 170 210 274 339 402
#     4  10  20  42  62  83 129 171 221 246 292 401
#     4  10  22  39  63  87 126 166 224 264 313 392
#
# _framework density 21.905165
#
# number of rings (size 3 to 8) (size 9 to 14) (size 15 to 20)
#    0.000    1.143    5.714    2.571    4.000    3.429 
#    0.000    0.000    0.000    0.000    0.000   20.000 
#    0.000    0.000    0.000    0.000    0.000    0.000 
#
# Total GULP energy -156590.454856 kJ/mol
# GULP energy per Si atom -5592.516245 kJ/mol
# Density = 2.185531 g / cm^3
# Si number density = 21.905165 Si / 1000 Ang^3
#
#
#
# Elastic Constant Matrix: (Units=GPa)
#
#
# Indices 1 2 3 4 5 6 
#
# 1 66.7581 8.0447 48.0416 0.0000 1.4718 0.0000
# 2 8.0447 67.0137 12.6652 0.0000 2.0879 0.0000
# 3 48.0416 12.6652 153.2861 0.0000 26.3354 0.0000
# 4 0.0000 0.0000 0.0000 12.6834 0.0000 16.4454
# 5 1.4718 2.0879 26.3354 0.0000 40.7294 0.0000
# 6 0.0000 0.0000 0.0000 16.4454 0.0000 9.6252
#
#
#
# Elastic Compliance Matrix: (Units=1/GPa)
#
#
# Indices 1 2 3 4 5 6 
#
# 1 0.019928 -0.001226 -0.006785 0.000000 0.003730 0.000000
# 2 -0.001226 0.015235 -0.000841 0.000000 -0.000193 0.000000
# 3 -0.006785 -0.000841 0.009754 0.000000 -0.006018 0.000000
# 4 0.000000 0.000000 0.000000 -0.064873 0.000000 0.110841
# 5 0.003730 -0.000193 -0.006018 0.000000 0.028319 0.000000
# 6 0.000000 0.000000 0.000000 0.110841 0.000000 -0.085486
#
#
# Mechanical properties :
#
#
# Convention : Reuss Voigt Hill
#
# Bulk Modulus (GPa) = 36.74993 47.17341 41.96167
# Shear Modulus (GPa) = -99.30874 27.16137 -36.07368
#
# Velocity S-wave (km/s) = -6.74049 3.52512 -4.06250
# Velocity P-wave (km/s) = 6.61556 6.17662 1.67556
#
# Compressibility (1/GPa) = 0.02721094
#
# Stress axis : x y z
#
# Youngs Moduli (GPa) = 50.18116 65.64034 102.52417
#
# Poissons Ratio (x) = 0.08048 0.69564
# Poissons Ratio (y) = 0.06153 0.08626
# Poissons Ratio (z) = 0.34048 0.05523
#
# Static dielectric constant tensor:
#      x y z
#    x 1.807990 0.000000 0.039090 
#    y 0.000000 1.858600 0.000000 
#    z 0.039090 0.000000 1.873190 
# 
# From -- ./inp_files/2929.got.cif
#   From: 2010.05.17/outbox.cif.g08.bks.cpg/sg14_2_cif.got.tgz:2929.got - 2010.06.03 17:49:19.
