data_PCOD9242427
_publ_section_title
;
Structure prediction by ZEFSAII (Michael W. Deem and Ramdas Pophale) SiO2 
 PCOD9242427
Probable space group: P 21/C
;
_chemical_formula_sum "Si O2"
_cell_formula_units_Z 28
_cell_length_a 6.137401
_cell_length_b 17.173625
_cell_length_c 13.020539
_cell_angle_alpha 90.000000
_cell_angle_beta 89.999939
_cell_angle_gamma 90.000000
_cell_volume 1372.383342
_symmetry_space_group_name_H-M "P 21/C"
_symmetry_group_IT_number 14
_symmetry_cell_setting 'monoclinic'
loop_
_space_group_symop_operation_xyz
x,y,z
-x,1/2+y,1/2-z
-x,-y,-z
x,1/2-y,1/2+z
loop_
_atom_site_type_symbol
_atom_site_label
_atom_site_fract_x
_atom_site_fract_y
_atom_site_fract_z
Si Si1 0.890626 0.459578 0.849717
Si Si2 0.230195 0.601795 0.480381
Si Si3 0.890626 0.959578 0.150283
Si Si4 0.383176 0.823167 0.609457
Si Si5 1.000000 0.250000 0.027678
Si Si6 0.383176 0.323167 0.390543
Si Si7 0.769806 0.898205 0.480381
O O1 0.989055 0.500000 0.750000
O O2 0.727994 0.389270 0.822729
O O3 0.755414 0.526327 0.909423
O O4 0.073490 0.425707 0.925786
O O5 0.244586 0.526327 0.409423
O O6 0.449892 0.634384 0.531274
O O7 0.073491 0.574293 0.574214
O O8 0.107655 0.673511 0.422095
O O9 0.727994 0.889270 0.177272
O O10 0.499999 0.750000 0.663372
O O11 0.550109 0.865616 0.531275
O O12 0.193009 0.783857 0.542535
O O13 0.193008 0.216143 0.957465
O O14 0.107654 0.326489 0.077905
#
# Coordination Sequence:
#
# PCOD9242427 Si02
#       7
#     4   4   4   4   4   4   4
#     4  10  20  33  51  78 105 137 181 222 264 323
#     4   9  18  34  53  73 105 140 172 220 272 319
#     4  10  20  33  51  78 105 137 181 222 264 323
#     4   9  17  33  54  74 102 140 175 218 274 322
#     4   8  16  32  54  76 100 136 176 214 266 326
#     4   9  17  33  54  74 102 140 175 218 274 322
#     4   9  18  34  53  73 105 140 172 220 272 319
#
# _framework density 20.402460999999999
#
# number of rings (size 3 to 8) (size 9 to 14) (size 15 to 20)
#    0.000    2.857    0.000    0.857    0.000    1.143 
#    0.000   12.857    0.000    0.000    0.000    0.000 
#    0.000    0.000    0.000    0.000    0.000    0.000 
#
# Total GULP energy -155891.327871 kJ/mol
# GULP energy per Si atom -5567.547424 kJ/mol
# Density = 2.035602 g / cm^3
# Si number density = 20.402461 Si / 1000 Ang^3
#
#
#
# Elastic Constant Matrix: (Units=GPa)
#
#
# Indices 1 2 3 4 5 6 
#
# 1 70.6563 42.9794 7.2319 0.0000 10.1912 0.0000
# 2 42.9794 150.3988 26.6312 0.0000 3.2454 0.0000
# 3 7.2319 26.6312 33.5338 0.0000 -2.8216 0.0000
# 4 0.0000 0.0000 0.0000 9.7395 0.0000 5.8847
# 5 10.1912 3.2454 -2.8216 0.0000 8.6273 0.0000
# 6 0.0000 0.0000 0.0000 5.8847 0.0000 39.3827
#
#
#
# Elastic Compliance Matrix: (Units=1/GPa)
#
#
# Indices 1 2 3 4 5 6 
#
# 1 0.020855 -0.005008 -0.002504 0.000000 -0.023571 0.000000
# 2 -0.005008 0.009160 -0.006156 0.000000 0.000456 0.000000
# 3 -0.002504 -0.006156 0.036704 0.000000 0.017278 0.000000
# 4 0.000000 0.000000 0.000000 0.112864 0.000000 -0.016864
# 5 -0.023571 0.000456 0.017278 0.000000 0.149235 0.000000
# 6 0.000000 0.000000 0.000000 -0.016864 0.000000 0.027912
#
#
# Mechanical properties :
#
#
# Convention : Reuss Voigt Hill
#
# Bulk Modulus (GPa) = 25.39171 45.36375 35.37773
# Shear Modulus (GPa) = 12.58831 23.39965 17.99398
#
# Velocity S-wave (km/s) = 2.48664 3.39027 2.97299
# Velocity P-wave (km/s) = 4.55159 6.13253 5.40023
#
# Compressibility (1/GPa) = 0.03938293
#
# Stress axis : x y z
#
# Youngs Moduli (GPa) = 47.94941 109.16623 27.24520
#
# Poissons Ratio (x) = 0.54668 0.06822
# Poissons Ratio (y) = 0.24012 0.16773
# Poissons Ratio (z) = 0.12007 0.67207
#
# Static dielectric constant tensor:
#      x y z
#    x 1.730270 0.000000 0.012890 
#    y 0.000000 1.794770 0.000000 
#    z 0.012890 0.000000 1.665350 
# 
# From -- ./inp_files/37727.got.cif
#   From: 2010.05.17/outbox.cif.g08.bks.cpg/sg14_19_cif.got.tgz:37727.got - 2010.06.03 17:49:19.
