data_PCOD9242227
_publ_section_title
;
Structure prediction by ZEFSAII (Michael W. Deem and Ramdas Pophale) SiO2 
 PCOD9242227
Probable space group: P 21/C
;
_chemical_formula_sum "Si O2"
_cell_formula_units_Z 28
_cell_length_a 8.758876
_cell_length_b 11.112601
_cell_length_c 11.913185
_cell_angle_alpha 90.000000
_cell_angle_beta 69.331809
_cell_angle_gamma 90.000000
_cell_volume 1084.927766
_symmetry_space_group_name_H-M "P 21/C"
_symmetry_group_IT_number 14
_symmetry_cell_setting 'monoclinic'
loop_
_space_group_symop_operation_xyz
x,y,z
-x,1/2+y,1/2-z
-x,-y,-z
x,1/2-y,1/2+z
loop_
_atom_site_type_symbol
_atom_site_label
_atom_site_fract_x
_atom_site_fract_y
_atom_site_fract_z
Si Si1 0.146925 0.077543 0.852160
Si Si2 0.813048 0.417838 0.448802
Si Si3 0.555996 0.690858 0.046647
Si Si4 0.876412 0.845620 0.585080
Si Si5 0.497417 0.401129 0.254356
Si Si6 0.255240 0.860052 0.504599
Si Si7 0.643887 0.891845 0.848056
O O1 0.115927 0.200086 0.932142
O O2 0.317398 0.092957 0.747988
O O3 0.978019 0.068034 0.831669
O O4 0.157389 0.965954 0.933679
O O5 0.761745 0.281800 0.463499
O O6 0.687982 0.508981 0.428283
O O7 0.726265 0.623620 0.037650
O O8 0.515937 0.788581 0.155602
O O9 0.396951 0.609633 0.060333
O O10 0.588153 0.775104 0.929596
O O11 0.796582 0.863963 0.728166
O O12 0.062756 0.894892 0.540730
O O13 0.652742 0.379252 0.136760
O O14 0.519757 0.533450 0.302893
#
# Coordination Sequence:
#
# PCOD9242227 Si02
#       7
#     4   4   4   4   4   4   4
#     4   9  19  38  60  98 122 161 219 267 312 378
#     4  10  19  40  68  92 124 172 220 261 315 385
#     4  11  21  43  66  95 128 172 215 270 322 376
#     4  10  24  41  63  98 133 168 217 270 318 387
#     4  11  22  39  64  99 129 165 219 270 319 386
#     4  11  24  42  65  97 135 168 213 270 326 382
#     4  12  22  42  69  94 129 172 219 267 321 384
#
# _framework density 25.808171000000002
#
# number of rings (size 3 to 8) (size 9 to 14) (size 15 to 20)
#    0.000    1.429    4.286    3.000    0.000    1.714 
#    5.143    0.714    0.000    0.000    0.000    0.000 
#    0.000    0.000    0.000    0.000    0.000    0.000 
#
# Total GULP energy -156335.993984 kJ/mol
# GULP energy per Si atom -5583.428357 kJ/mol
# Density = 2.574943 g / cm^3
# Si number density = 25.808171 Si / 1000 Ang^3
#
#
#
# Elastic Constant Matrix: (Units=GPa)
#
#
# Indices 1 2 3 4 5 6 
#
# 1 201.2223 49.8266 76.7546 0.0000 -53.5561 0.0000
# 2 49.8266 77.5161 25.5104 0.0000 -2.2362 0.0000
# 3 76.7546 25.5104 132.1190 0.0000 -42.2760 0.0000
# 4 0.0000 0.0000 0.0000 41.0377 0.0000 4.0046
# 5 -53.5561 -2.2362 -42.2760 0.0000 47.0457 0.0000
# 6 0.0000 0.0000 0.0000 4.0046 0.0000 45.8319
#
#
#
# Elastic Compliance Matrix: (Units=1/GPa)
#
#
# Indices 1 2 3 4 5 6 
#
# 1 0.009171 -0.005145 -0.001505 0.000000 0.008844 0.000000
# 2 -0.005145 0.016864 -0.002646 0.000000 -0.007433 0.000000
# 3 -0.001505 -0.002646 0.011742 0.000000 0.008713 0.000000
# 4 0.000000 0.000000 0.000000 0.024577 0.000000 -0.002147
# 5 0.008844 -0.007433 0.008713 0.000000 0.038799 0.000000
# 6 0.000000 0.000000 0.000000 -0.002147 0.000000 0.022007
#
#
# Mechanical properties :
#
#
# Convention : Reuss Voigt Hill
#
# Bulk Modulus (GPa) = 52.12008 79.44897 65.78452
# Shear Modulus (GPa) = 33.75032 44.03412 38.89222
#
# Velocity S-wave (km/s) = 3.62019 4.13511 3.88619
# Velocity P-wave (km/s) = 6.14112 7.32462 6.75883
#
# Compressibility (1/GPa) = 0.01918646
#
# Stress axis : x y z
#
# Youngs Moduli (GPa) = 109.03421 59.29835 85.16508
#
# Poissons Ratio (x) = 0.30509 0.12816
# Poissons Ratio (y) = 0.56097 0.22531
# Poissons Ratio (z) = 0.16408 0.15688
#
# Static dielectric constant tensor:
#      x y z
#    x 2.163410 0.000000 -0.010590 
#    y 0.000000 2.050370 0.000000 
#    z -0.010590 0.000000 2.025400 
# 
# From -- ./inp_files/25421.got.cif
#   From: 2010.05.17/outbox.cif.g08.bks.cpg/sg14_13_cif.got.tgz:25421.got - 2010.06.03 17:49:19.
