data_PCOD9242710
_publ_section_title
;
Structure prediction by ZEFSAII (Michael W. Deem and Ramdas Pophale) SiO2 
 PCOD9242710
Probable space group: P 21/C
;
_chemical_formula_sum "Si O2"
_cell_formula_units_Z 28
_cell_length_a 6.111064
_cell_length_b 14.224843
_cell_length_c 13.160302
_cell_angle_alpha 90.000000
_cell_angle_beta 84.012535
_cell_angle_gamma 90.000000
_cell_volume 1137.770041
_symmetry_space_group_name_H-M "P 21/C"
_symmetry_group_IT_number 14
_symmetry_cell_setting 'monoclinic'
loop_
_space_group_symop_operation_xyz
x,y,z
-x,1/2+y,1/2-z
-x,-y,-z
x,1/2-y,1/2+z
loop_
_atom_site_type_symbol
_atom_site_label
_atom_site_fract_x
_atom_site_fract_y
_atom_site_fract_z
Si Si1 0.091293 0.517378 0.324370
Si Si2 0.444360 0.619399 0.915255
Si Si3 0.122852 0.797219 0.583199
Si Si4 0.211760 0.727725 0.287555
Si Si5 0.107027 0.022230 0.383051
Si Si6 0.190081 0.243518 0.570646
Si Si7 0.698501 0.928939 0.000782
O O1 0.232043 0.614913 0.303619
O O2 0.009343 0.486273 0.216154
O O3 0.885870 0.543545 0.408442
O O4 0.218726 0.441428 0.387045
O O5 0.351017 0.522318 0.876008
O O6 0.693210 0.643072 0.930078
O O7 0.363639 0.702673 0.843985
O O8 0.307175 0.638027 0.023737
O O9 0.236110 0.745994 0.669248
O O10 0.004538 0.739649 0.501848
O O11 0.927126 0.866778 0.628315
O O12 0.953393 0.746385 0.322382
O O13 0.000000 0.000000 0.500000
O O14 0.361141 0.323313 0.530403
O O15 0.500000 0.000000 0.000000
#
# Coordination Sequence:
#
# PCOD9242710 Si02
#       7
#     4   4   4   4   4   4   4
#     4   9  19  37  59  81 113 154 183 234 285 337
#     4  10  20  35  57  85 111 144 189 233 281 339
#     4   9  20  38  56  77 112 152 183 229 283 335
#     4   9  19  37  56  76 113 148 184 228 281 337
#     4   9  19  38  60  83 112 151 195 228 284 344
#     4  10  21  35  54  83 113 145 185 235 281 331
#     4  10  20  36  57  85 116 144 191 235 285 341
#
# _framework density 24.609541
#
# number of rings (size 3 to 8) (size 9 to 14) (size 15 to 20)
#    0.000    2.571    0.000    0.857    2.000    2.857 
#    2.571    8.571    0.000    0.000    0.000    0.000 
#    0.000    0.000    0.000    0.000    0.000    0.000 
#
# Total GULP energy -156132.492273 kJ/mol
# GULP energy per Si atom -5576.160438 kJ/mol
# Density = 2.455353 g / cm^3
# Si number density = 24.609541 Si / 1000 Ang^3
#
#
#
# Elastic Constant Matrix: (Units=GPa)
#
#
# Indices 1 2 3 4 5 6 
#
# 1 32.4933 15.1798 23.2431 0.0000 15.2932 0.0000
# 2 15.1798 53.7189 12.0634 0.0000 1.4587 0.0000
# 3 23.2431 12.0634 143.6861 0.0000 25.4165 0.0000
# 4 0.0000 0.0000 0.0000 30.8981 0.0000 7.0831
# 5 15.2932 1.4587 25.4165 0.0000 18.9984 0.0000
# 6 0.0000 0.0000 0.0000 7.0831 0.0000 41.8698
#
#
#
# Elastic Compliance Matrix: (Units=1/GPa)
#
#
# Indices 1 2 3 4 5 6 
#
# 1 0.060521 -0.015797 -0.000079 0.000000 -0.047398 0.000000
# 2 -0.015797 0.023108 -0.001729 0.000000 0.013256 0.000000
# 3 -0.000079 -0.001729 0.009279 0.000000 -0.012216 0.000000
# 4 0.000000 0.000000 0.000000 0.033670 0.000000 -0.005696
# 5 -0.047398 0.013256 -0.012216 0.000000 0.106116 0.000000
# 6 0.000000 0.000000 0.000000 -0.005696 0.000000 0.024847
#
#
# Mechanical properties :
#
#
# Convention : Reuss Voigt Hill
#
# Bulk Modulus (GPa) = 17.33247 36.76341 27.04794
# Shear Modulus (GPa) = 16.02646 30.31406 23.17026
#
# Velocity S-wave (km/s) = 2.55469 3.51351 3.07174
# Velocity P-wave (km/s) = 3.96991 5.60632 4.85752
#
# Compressibility (1/GPa) = 0.05769518
#
# Stress axis : x y z
#
# Youngs Moduli (GPa) = 16.52327 43.27549 107.77470
#
# Poissons Ratio (x) = 0.68362 0.00857
# Poissons Ratio (y) = 0.26102 0.18639
# Poissons Ratio (z) = 0.00131 0.07484
#
# Static dielectric constant tensor:
#      x y z
#    x 1.987700 0.000000 0.010630 
#    y 0.000000 2.009960 0.000000 
#    z 0.010630 0.000000 2.011310 
# 
# From -- ./inp_files/37544.got.cif
#   From: 2010.05.17/outbox.cif.g08.bks.cpg/sg14_19_cif.got.tgz:37544.got - 2010.06.03 17:49:19.
