data_PCOD9242299
_publ_section_title
;
Structure prediction by ZEFSAII (Michael W. Deem and Ramdas Pophale) SiO2 
 PCOD9242299
Probable space group: P 21/C
;
_chemical_formula_sum "Si O2"
_cell_formula_units_Z 28
_cell_length_a 17.062890
_cell_length_b 7.239601
_cell_length_c 19.295664
_cell_angle_alpha 90.000000
_cell_angle_beta 151.465653
_cell_angle_gamma 90.000000
_cell_volume 1138.594304
_symmetry_space_group_name_H-M "P 21/C"
_symmetry_group_IT_number 14
_symmetry_cell_setting 'monoclinic'
loop_
_space_group_symop_operation_xyz
x,y,z
-x,1/2+y,1/2-z
-x,-y,-z
x,1/2-y,1/2+z
loop_
_atom_site_type_symbol
_atom_site_label
_atom_site_fract_x
_atom_site_fract_y
_atom_site_fract_z
Si Si1 0.895181 0.234041 0.903474
Si Si2 0.745481 0.908893 0.332419
Si Si3 0.547910 0.242828 0.980423
Si Si4 0.855009 0.340133 0.641925
Si Si5 0.201032 0.069692 0.465764
Si Si6 0.988100 0.943577 0.871190
Si Si7 0.656048 0.827000 0.555785
O O1 0.765005 0.395444 0.809249
O O2 0.886692 0.107472 0.829421
O O3 0.079240 0.313663 0.044129
O O4 0.896267 0.123720 0.976663
O O5 0.599897 0.790784 0.188078
O O6 0.736010 0.935140 0.407489
O O7 0.469577 0.213587 0.995280
O O8 0.699572 0.122972 0.069763
O O9 0.599800 0.458267 0.018524
O O10 0.016575 0.352754 0.814836
O O11 0.899871 0.464113 0.609727
O O12 0.819362 0.138259 0.580743
O O13 0.317613 0.189381 0.505854
O O14 0.840668 0.809493 0.731206
#
# Coordination Sequence:
#
# PCOD9242299 Si02
#       7
#     4   4   4   4   4   4   4
#     4  10  22  36  68  94 132 177 229 279 347 426
#     4  11  22  41  64 102 137 173 226 308 348 405
#     4  10  21  41  68 100 139 175 228 303 349 409
#     4  10  22  42  69  99 134 176 247 282 351 425
#     4  10  22  39  68  94 135 187 234 293 343 434
#     4  10  19  42  66  96 125 191 232 276 338 446
#     4   9  20  41  69  92 138 189 234 279 360 428
#
# _framework density 24.591728
#
# number of rings (size 3 to 8) (size 9 to 14) (size 15 to 20)
#    0.000    2.000    2.857    0.000    6.000    0.000 
#    5.143    0.714   15.714    0.000    0.000    0.000 
#    0.000    0.000    0.000    0.000    0.000    0.000 
#
# Total GULP energy -156560.243596 kJ/mol
# GULP energy per Si atom -5591.437271 kJ/mol
# Density = 2.453576 g / cm^3
# Si number density = 24.591728 Si / 1000 Ang^3
#
#
#
# Elastic Constant Matrix: (Units=GPa)
#
#
# Indices 1 2 3 4 5 6 
#
# 1 194.8669 41.0985 54.3073 0.0000 22.3247 0.0000
# 2 41.0985 57.1618 23.3099 0.0000 -11.7551 0.0000
# 3 54.3073 23.3099 111.1282 0.0000 -0.6063 0.0000
# 4 0.0000 0.0000 0.0000 22.5798 0.0000 -0.9855
# 5 22.3247 -11.7551 -0.6063 0.0000 29.2304 0.0000
# 6 0.0000 0.0000 0.0000 -0.9855 0.0000 41.4935
#
#
#
# Elastic Compliance Matrix: (Units=1/GPa)
#
#
# Indices 1 2 3 4 5 6 
#
# 1 0.008377 -0.006805 -0.002716 0.000000 -0.009191 0.000000
# 2 -0.006805 0.026517 -0.002150 0.000000 0.015817 0.000000
# 3 -0.002716 -0.002150 0.010785 0.000000 0.001434 0.000000
# 4 0.000000 0.000000 0.000000 0.044333 0.000000 0.001053
# 5 -0.009191 0.015817 0.001434 0.000000 0.047621 0.000000
# 6 0.000000 0.000000 0.000000 0.001053 0.000000 0.024125
#
#
# Mechanical properties :
#
#
# Convention : Reuss Voigt Hill
#
# Bulk Modulus (GPa) = 44.77306 66.73203 55.75255
# Shear Modulus (GPa) = 25.96776 34.95682 30.46229
#
# Velocity S-wave (km/s) = 3.25307 3.77435 3.52337
# Velocity P-wave (km/s) = 5.68824 6.79626 6.26679
#
# Compressibility (1/GPa) = 0.02233486
#
# Stress axis : x y z
#
# Youngs Moduli (GPa) = 119.37485 37.71237 92.72207
#
# Poissons Ratio (x) = 0.25664 0.25187
# Poissons Ratio (y) = 0.81238 0.19936
# Poissons Ratio (z) = 0.32427 0.08108
#
# Static dielectric constant tensor:
#      x y z
#    x 1.964730 0.000000 0.012520 
#    y 0.000000 2.064920 0.000000 
#    z 0.012520 0.000000 1.862640 
# 
# From -- ./inp_files/69092.got.cif
#   From: 2010.05.17/outbox.cif.g08.bks.cpg/sg14_35_cif.got.tgz:69092.got - 2010.06.03 17:49:19.
