data_PCOD9242634
_publ_section_title
;
Structure prediction by ZEFSAII (Michael W. Deem and Ramdas Pophale) SiO2 
 PCOD9242634
Probable space group: P 21/C
;
_chemical_formula_sum "Si O2"
_cell_formula_units_Z 32
_cell_length_a 5.353999
_cell_length_b 17.124663
_cell_length_c 22.766088
_cell_angle_alpha 90.000000
_cell_angle_beta 124.493708
_cell_angle_gamma 90.000000
_cell_volume 1720.343691
_symmetry_space_group_name_H-M "P 21/C"
_symmetry_group_IT_number 14
_symmetry_cell_setting 'monoclinic'
loop_
_space_group_symop_operation_xyz
x,y,z
-x,1/2+y,1/2-z
-x,-y,-z
x,1/2-y,1/2+z
loop_
_atom_site_type_symbol
_atom_site_label
_atom_site_fract_x
_atom_site_fract_y
_atom_site_fract_z
Si Si1 0.196789 0.102218 0.030071
Si Si2 0.931933 0.711445 0.842725
Si Si3 0.268335 0.723727 0.273214
Si Si4 0.734485 0.056136 0.177016
Si Si5 0.644891 0.593531 0.731755
Si Si6 0.663280 0.205728 0.014598
Si Si7 0.986041 0.963077 0.115869
Si Si8 0.754212 0.805735 0.139821
O O1 0.386941 0.061775 0.107804
O O2 0.434017 0.163771 0.030775
O O3 0.906043 0.146199 0.017692
O O4 0.090878 0.045641 0.962990
O O5 0.624093 0.762744 0.808937
O O6 0.797428 0.625705 0.810731
O O7 0.146521 0.733743 0.816026
O O8 0.139295 0.729207 0.926085
O O9 0.203208 0.633377 0.278210
O O10 0.064883 0.760446 0.194174
O O11 0.816086 0.979713 0.225567
O O12 0.898387 0.042851 0.136482
O O13 0.631063 0.669011 0.686964
O O14 0.307966 0.561372 0.685162
O O15 0.465618 0.237955 0.933926
O O16 0.784341 0.890936 0.113982
#
# Coordination Sequence:
#
# PCOD9242634 Si02
#       8
#     4   4   4   4   4   4   4   4
#     4  11  22  35  53  84 116 150 178 224 274 348
#     4  11  21  39  57  81 109 149 191 234 269 329
#     4  11  22  37  58  81 111 146 194 233 270 322
#     4  11  23  34  52  84 115 153 181 229 279 335
#     4  10  21  35  56  75 117 149 186 221 284 333
#     4  11  20  36  59  82 110 145 192 230 277 319
#     4  10  20  35  51  81 117 152 178 220 283 343
#     4   9  20  37  55  80 110 150 187 231 275 331
#
# _framework density 18.600933999999999
#
# number of rings (size 3 to 8) (size 9 to 14) (size 15 to 20)
#    0.000    1.500    5.000    0.375    3.500    0.500 
#    0.000    0.000    0.000    0.750    0.000    0.875 
#    0.000    0.000    0.000    0.000    0.000    0.000 
#
# Total GULP energy -178277.503639 kJ/mol
# GULP energy per Si atom -5571.171989 kJ/mol
# Density = 1.855860 g / cm^3
# Si number density = 18.600934 Si / 1000 Ang^3
#
#
#
# Elastic Constant Matrix: (Units=GPa)
#
#
# Indices 1 2 3 4 5 6 
#
# 1 75.4015 -0.2105 3.4161 0.0000 2.6004 0.0000
# 2 -0.2105 47.4268 14.7382 0.0000 -7.3746 0.0000
# 3 3.4161 14.7382 72.3405 0.0000 6.5335 0.0000
# 4 0.0000 0.0000 0.0000 37.0568 0.0000 -3.2305
# 5 2.6004 -7.3746 6.5335 0.0000 24.9459 0.0000
# 6 0.0000 0.0000 0.0000 -3.2305 0.0000 21.3211
#
#
#
# Elastic Compliance Matrix: (Units=1/GPa)
#
#
# Indices 1 2 3 4 5 6 
#
# 1 0.013329 0.000028 -0.000523 0.000000 -0.001244 0.000000
# 2 0.000028 0.024206 -0.005714 0.000000 0.008649 0.000000
# 3 -0.000523 -0.005714 0.015527 0.000000 -0.005701 0.000000
# 4 0.000000 0.000000 0.000000 0.027347 0.000000 0.004143
# 5 -0.001244 0.008649 -0.005701 0.000000 0.044267 0.000000
# 6 0.000000 0.000000 0.000000 0.004143 0.000000 0.047530
#
#
# Mechanical properties :
#
#
# Convention : Reuss Voigt Hill
#
# Bulk Modulus (GPa) = 24.60342 25.67293 25.13817
# Shear Modulus (GPa) = 25.23071 28.47975 26.85523
#
# Velocity S-wave (km/s) = 3.68696 3.91716 3.80380
# Velocity P-wave (km/s) = 5.60184 5.85583 5.73024
#
# Compressibility (1/GPa) = 0.04064476
#
# Stress axis : x y z
#
# Youngs Moduli (GPa) = 75.02434 41.31224 64.40273
#
# Poissons Ratio (x) = -0.00116 0.03367
# Poissons Ratio (y) = -0.00211 0.36800
# Poissons Ratio (z) = 0.03922 0.23606
#
# Static dielectric constant tensor:
#      x y z
#    x 1.763100 0.000000 -0.020540 
#    y 0.000000 1.683600 0.000000 
#    z -0.020540 0.000000 1.693710 
# 
# From -- ./inp_files/63765.got.cif
#   From: 2010.05.17/outbox.cif.g08.bks.cpg/sg14_32_cif.got.tgz:63765.got - 2010.06.03 17:49:19.
