data_PCOD9242993
_publ_section_title
;
Structure prediction by ZEFSAII (Michael W. Deem and Ramdas Pophale) SiO2 
 PCOD9242993
Probable space group: P 21/C
;
_chemical_formula_sum "Si O2"
_cell_formula_units_Z 30
_cell_length_a 14.453027
_cell_length_b 8.702798
_cell_length_c 9.026914
_cell_angle_alpha 90.000000
_cell_angle_beta 107.243295
_cell_angle_gamma 90.000000
_cell_volume 1084.389344
_symmetry_space_group_name_H-M "P 21/C"
_symmetry_group_IT_number 14
_symmetry_cell_setting 'monoclinic'
loop_
_space_group_symop_operation_xyz
x,y,z
-x,1/2+y,1/2-z
-x,-y,-z
x,1/2-y,1/2+z
loop_
_atom_site_type_symbol
_atom_site_label
_atom_site_fract_x
_atom_site_fract_y
_atom_site_fract_z
Si Si1 0.789185 0.744032 0.494846
Si Si2 0.139562 0.522706 0.162393
Si Si3 0.052074 0.826286 0.365899
Si Si4 0.606276 0.194079 0.410764
Si Si5 0.585888 0.772864 0.283750
Si Si6 0.500000 0.500000 0.000000
Si Si7 0.105621 0.092905 0.200280
Si Si8 0.331800 0.947362 0.857955
O O1 0.679627 0.697786 0.404241
O O2 0.865221 0.627966 0.454074
O O3 0.820395 0.796854 0.672540
O O4 0.803018 0.906476 0.418083
O O5 0.216407 0.547907 0.328571
O O6 0.042306 0.431240 0.148299
O O7 0.113405 0.665156 0.045002
O O8 0.106481 0.920993 0.263587
O O9 0.001324 0.664029 0.317648
O O10 0.488396 0.156097 0.335806
O O11 0.618973 0.360355 0.483485
O O12 0.656885 0.159346 0.282885
O O13 0.617356 0.061117 0.536269
O O14 0.523439 0.859733 0.378139
O O15 0.619417 0.895790 0.175474
#
# Coordination Sequence:
#
# PCOD9242993 Si02
#       8
#     4   4   4   4   4   2   4   4
#     4   9  20  35  58  85 117 152 202 247 301 366
#     4   8  17  37  56  78 110 166 188 234 306 376
#     4   9  18  35  61  82 117 155 201 245 313 372
#     4  11  21  38  59  87 119 161 197 256 302 366
#     4  10  21  39  63  82 122 163 203 252 305 366
#     4  10  22  38  58  90 118 162 208 246 304 372
#     4  10  20  36  59  88 116 158 203 248 308 372
#     4  10  21  36  59  84 118 151 210 246 301 359
#
# _framework density 27.66534
#
# number of rings (size 3 to 8) (size 9 to 14) (size 15 to 20)
#    0.000    2.400    1.333    1.200    1.867    1.600 
#    0.000    0.000    2.933    0.000    0.000    0.000 
#    0.000    0.000    0.000    0.000    0.000    0.000 
#
# Total GULP energy -167469.230907 kJ/mol
# GULP energy per Si atom -5582.307697 kJ/mol
# Density = 2.760237 g / cm^3
# Si number density = 27.665340 Si / 1000 Ang^3
#
#
#
# Elastic Constant Matrix: (Units=GPa)
#
#
# Indices 1 2 3 4 5 6 
#
# 1 95.9590 27.9212 40.5685 0.0000 8.6343 0.0000
# 2 27.9212 84.4982 42.1487 0.0000 -8.8634 0.0000
# 3 40.5685 42.1487 88.7711 0.0000 -6.2274 0.0000
# 4 0.0000 0.0000 0.0000 44.6984 0.0000 -8.5514
# 5 8.6343 -8.8634 -6.2274 0.0000 53.2162 0.0000
# 6 0.0000 0.0000 0.0000 -8.5514 0.0000 34.4510
#
#
#
# Elastic Compliance Matrix: (Units=1/GPa)
#
#
# Indices 1 2 3 4 5 6 
#
# 1 0.013629 -0.002123 -0.005445 0.000000 -0.003202 0.000000
# 2 -0.002123 0.015999 -0.006468 0.000000 0.002252 0.000000
# 3 -0.005445 -0.006468 0.016950 0.000000 0.001790 0.000000
# 4 0.000000 0.000000 0.000000 0.023488 0.000000 0.005830
# 5 -0.003202 0.002252 0.001790 0.000000 0.019895 0.000000
# 6 0.000000 0.000000 0.000000 0.005830 0.000000 0.030474
#
#
# Mechanical properties :
#
#
# Convention : Reuss Voigt Hill
#
# Bulk Modulus (GPa) = 54.03889 54.50056 54.26972
# Shear Modulus (GPa) = 32.32586 37.04579 34.68582
#
# Velocity S-wave (km/s) = 3.42198 3.66330 3.54470
# Velocity P-wave (km/s) = 5.93201 6.13480 6.03426
#
# Compressibility (1/GPa) = 0.01850519
#
# Stress axis : x y z
#
# Youngs Moduli (GPa) = 73.37274 62.50506 58.99796
#
# Poissons Ratio (x) = 0.13272 0.32124
# Poissons Ratio (y) = 0.15580 0.38159
# Poissons Ratio (z) = 0.39951 0.40427
#
# Static dielectric constant tensor:
#      x y z
#    x 2.237420 0.000000 -0.057520 
#    y 0.000000 2.470520 0.000000 
#    z -0.057520 0.000000 2.550590 
# 
# From -- ./inp_files/15602.got.cif
#   From: 2010.05.17/outbox.cif.g08.bks.cpg/sg14_8_cif.got.tgz:15602.got - 2010.06.03 17:49:19.
