data_PCOD9242258
_publ_section_title
;
Structure prediction by ZEFSAII (Michael W. Deem and Ramdas Pophale) SiO2 
 PCOD9242258
Probable space group: P 21/C
;
_chemical_formula_sum "Si O2"
_cell_formula_units_Z 24
_cell_length_a 14.205373
_cell_length_b 8.228156
_cell_length_c 13.403920
_cell_angle_alpha 90.000000
_cell_angle_beta 140.130425
_cell_angle_gamma 90.000000
_cell_volume 1004.323400
_symmetry_space_group_name_H-M "P 21/C"
_symmetry_group_IT_number 14
_symmetry_cell_setting 'monoclinic'
loop_
_space_group_symop_operation_xyz
x,y,z
-x,1/2+y,1/2-z
-x,-y,-z
x,1/2-y,1/2+z
loop_
_atom_site_type_symbol
_atom_site_label
_atom_site_fract_x
_atom_site_fract_y
_atom_site_fract_z
Si Si1 0.765383 0.554963 0.398794
Si Si2 0.984366 0.271986 0.286602
Si Si3 0.793466 0.177046 0.461686
Si Si4 0.090526 0.425285 0.187152
Si Si5 0.389832 0.210136 0.867970
Si Si6 0.517146 0.926949 0.858612
O O1 0.920893 0.643207 0.549727
O O2 0.788852 0.363688 0.424391
O O3 0.679751 0.626953 0.233682
O O4 0.653120 0.592203 0.396948
O O5 0.088003 0.283385 0.272029
O O6 0.929779 0.095781 0.273516
O O7 0.842898 0.350987 0.117297
O O8 0.636101 0.102491 0.319276
O O9 0.929939 0.104729 0.508977
O O10 0.244718 0.403940 0.260042
O O11 0.502819 0.110549 0.889893
O O12 0.463858 0.201534 0.036093
#
# Coordination Sequence:
#
# PCOD9242258 Si02
#       6
#     4   4   4   4   4   4
#     4  12  23  41  68  94 134 168 211 267 317 373
#     4  10  19  41  66  92 130 165 209 267 317 372
#     4  10  21  38  62  94 127 167 209 266 313 369
#     4  10  21  42  65  98 121 168 217 254 322 373
#     4  11  25  42  69  92 126 177 213 259 316 394
#     4  11  23  44  63  94 132 170 216 258 319 382
#
# _framework density 23.896685000000002
#
# number of rings (size 3 to 8) (size 9 to 14) (size 15 to 20)
#    1.000    0.333    3.333    2.000    0.000    5.333 
#    0.000    1.667    0.000    0.000    0.000    0.000 
#    0.000    0.000    0.000    0.000    0.000    0.000 
#
# Total GULP energy -133899.569912 kJ/mol
# GULP energy per Si atom -5579.148746 kJ/mol
# Density = 2.384229 g / cm^3
# Si number density = 23.896685 Si / 1000 Ang^3
#
#
#
# Elastic Constant Matrix: (Units=GPa)
#
#
# Indices 1 2 3 4 5 6 
#
# 1 41.2638 1.5733 9.7742 0.0000 10.7312 0.0000
# 2 1.5733 25.8287 -10.6924 0.0000 4.2739 0.0000
# 3 9.7742 -10.6924 134.5517 0.0000 15.1148 0.0000
# 4 0.0000 0.0000 0.0000 37.6533 0.0000 1.4087
# 5 10.7312 4.2739 15.1148 0.0000 22.8505 0.0000
# 6 0.0000 0.0000 0.0000 1.4087 0.0000 23.5244
#
#
#
# Elastic Compliance Matrix: (Units=1/GPa)
#
#
# Indices 1 2 3 4 5 6 
#
# 1 0.027651 0.000168 -0.000576 0.000000 -0.012636 0.000000
# 2 0.000168 0.042442 0.004603 0.000000 -0.011062 0.000000
# 3 -0.000576 0.004603 0.008541 0.000000 -0.006240 0.000000
# 4 0.000000 0.000000 0.000000 0.026618 0.000000 -0.001594
# 5 -0.012636 -0.011062 -0.006240 0.000000 0.055893 0.000000
# 6 0.000000 0.000000 0.000000 -0.001594 0.000000 0.042604
#
#
# Mechanical properties :
#
#
# Convention : Reuss Voigt Hill
#
# Bulk Modulus (GPa) = 11.49095 22.55048 17.02072
# Shear Modulus (GPa) = 22.28501 30.20492 26.24497
#
# Velocity S-wave (km/s) = 3.05709 3.55911 3.31761
# Velocity P-wave (km/s) = 4.15694 5.13291 4.67049
#
# Compressibility (1/GPa) = 0.08702497
#
# Stress axis : x y z
#
# Youngs Moduli (GPa) = 36.16571 23.56135 117.08689
#
# Poissons Ratio (x) = -0.00397 0.06741
# Poissons Ratio (y) = -0.00609 -0.53897
# Poissons Ratio (z) = 0.02082 -0.10846
#
# Static dielectric constant tensor:
#      x y z
#    x 1.962490 0.000000 -0.067510 
#    y 0.000000 1.919730 0.000000 
#    z -0.067510 0.000000 1.975130 
# 
# From -- ./inp_files/46604.got.cif
#   From: 2010.05.17/outbox.cif.g08.bks.cpg/sg14_24_cif.got.tgz:46604.got - 2010.06.03 17:49:19.
