data_PCOD9242515
_publ_section_title
;
Structure prediction by ZEFSAII (Michael W. Deem and Ramdas Pophale) SiO2 
 PCOD9242515
Probable space group: P 21/C
;
_chemical_formula_sum "Si O2"
_cell_formula_units_Z 16
_cell_length_a 10.552330
_cell_length_b 11.900488
_cell_length_c 11.584187
_cell_angle_alpha 90.000000
_cell_angle_beta 154.713094
_cell_angle_gamma 90.000000
_cell_volume 621.384428
_symmetry_space_group_name_H-M "P 21/C"
_symmetry_group_IT_number 14
_symmetry_cell_setting 'monoclinic'
loop_
_space_group_symop_operation_xyz
x,y,z
-x,1/2+y,1/2-z
-x,-y,-z
x,1/2-y,1/2+z
loop_
_atom_site_type_symbol
_atom_site_label
_atom_site_fract_x
_atom_site_fract_y
_atom_site_fract_z
Si Si1 0.983967 0.779143 0.530747
Si Si2 0.026368 0.482954 0.825131
Si Si3 0.591353 0.900002 0.797974
Si Si4 0.609631 0.657260 0.060013
O O1 0.055545 0.902023 0.636933
O O2 0.755736 0.719744 0.435097
O O3 0.796132 0.765248 0.259178
O O4 0.276986 0.701499 0.766434
O O5 0.231680 0.406770 0.911006
O O6 0.754892 0.520298 0.522299
O O7 0.244154 0.586521 0.034808
O O8 0.631855 0.921171 0.693756
#
# Coordination Sequence:
#
# PCOD9242515 Si02
#       4
#     4   4   4   4
#     4  10  22  34  51  86 109 133 176 225 254 327
#     4  12  20  34  62  74 111 146 160 228 279 285
#     4  10  20  34  53  87 104 130 186 216 265 313
#     4  10  20  36  52  85 108 128 185 221 259 313
#
# _framework density 25.748956
#
# number of rings (size 3 to 8) (size 9 to 14) (size 15 to 20)
#    1.500    0.000    2.500    4.500    0.000    0.000 
#    0.000    0.000    0.000    9.000    0.000    0.000 
#    0.000    0.000    0.000    0.000    0.000    0.000 
#
# Total GULP energy -89391.303543 kJ/mol
# GULP energy per Si atom -5586.956471 kJ/mol
# Density = 2.569035 g / cm^3
# Si number density = 25.748956 Si / 1000 Ang^3
#
#
#
# Elastic Constant Matrix: (Units=GPa)
#
#
# Indices 1 2 3 4 5 6 
#
# 1 75.2197 17.2996 8.2821 0.0000 -6.4851 0.0000
# 2 17.2996 37.7630 0.9923 0.0000 -8.7595 0.0000
# 3 8.2821 0.9923 130.6861 0.0000 8.0629 0.0000
# 4 0.0000 0.0000 0.0000 34.9699 0.0000 -8.6907
# 5 -6.4851 -8.7595 8.0629 0.0000 14.3981 0.0000
# 6 0.0000 0.0000 0.0000 -8.6907 0.0000 40.9848
#
#
#
# Elastic Compliance Matrix: (Units=1/GPa)
#
#
# Indices 1 2 3 4 5 6 
#
# 1 0.015133 -0.006022 -0.001147 0.000000 0.003795 0.000000
# 2 -0.006022 0.033493 -0.000997 0.000000 0.018222 0.000000
# 3 -0.001147 -0.000997 0.008081 0.000000 -0.005649 0.000000
# 4 0.000000 0.000000 0.000000 0.030187 0.000000 0.006401
# 5 0.003795 0.018222 -0.005649 0.000000 0.085412 0.000000
# 6 0.000000 0.000000 0.000000 0.006401 0.000000 0.025757
#
#
# Mechanical properties :
#
#
# Convention : Reuss Voigt Hill
#
# Bulk Modulus (GPa) = 24.76878 32.97963 28.87420
# Shear Modulus (GPa) = 21.94403 32.54355 27.24379
#
# Velocity S-wave (km/s) = 2.92246 3.55896 3.25630
# Velocity P-wave (km/s) = 4.58562 5.45199 5.03747
#
# Compressibility (1/GPa) = 0.04037341
#
# Stress axis : x y z
#
# Youngs Moduli (GPa) = 66.08109 29.85722 123.75154
#
# Poissons Ratio (x) = 0.17980 0.14200
# Poissons Ratio (y) = 0.39795 0.12337
# Poissons Ratio (z) = 0.07582 0.02977
#
# Static dielectric constant tensor:
#      x y z
#    x 2.038700 0.000000 -0.025360 
#    y 0.000000 2.171640 0.000000 
#    z -0.025360 0.000000 1.954470 
# 
# From -- ./inp_files/5050.got.cif
#   From: 2010.05.17/outbox.cif.g08.bks.cpg/sg14_3_cif.got.tgz:5050.got - 2010.06.03 17:49:19.
