data_PCOD9242836
_publ_section_title
;
Structure prediction by ZEFSAII (Michael W. Deem and Ramdas Pophale) SiO2 
 PCOD9242836
Probable space group: P 21/C
;
_chemical_formula_sum "Si O2"
_cell_formula_units_Z 28
_cell_length_a 9.757500
_cell_length_b 19.239132
_cell_length_c 8.646016
_cell_angle_alpha 90.000000
_cell_angle_beta 135.676431
_cell_angle_gamma 90.000000
_cell_volume 1134.062001
_symmetry_space_group_name_H-M "P 21/C"
_symmetry_group_IT_number 14
_symmetry_cell_setting 'monoclinic'
loop_
_space_group_symop_operation_xyz
x,y,z
-x,1/2+y,1/2-z
-x,-y,-z
x,1/2-y,1/2+z
loop_
_atom_site_type_symbol
_atom_site_label
_atom_site_fract_x
_atom_site_fract_y
_atom_site_fract_z
Si Si1 0.451784 0.052740 0.596299
Si Si2 0.475341 0.850199 0.604575
Si Si3 0.143467 0.952403 0.470673
Si Si4 0.023803 0.768280 0.946582
Si Si5 0.347545 0.554746 0.441266
Si Si6 0.149851 0.349221 0.398575
Si Si7 0.302844 0.797231 0.907615
O O1 0.450792 0.125772 0.506124
O O2 0.634858 0.045459 0.861328
O O3 0.500000 0.000000 0.500000
O O4 0.246664 0.025268 0.503442
O O5 0.290237 0.895723 0.508912
O O6 0.423945 0.769731 0.552695
O O7 0.637191 0.863072 0.863833
O O8 0.941114 0.920725 0.242784
O O9 0.165032 0.947938 0.675070
O O10 0.132756 0.809518 0.898137
O O11 0.189927 0.720979 0.160402
O O12 0.954271 0.818070 0.029165
O O13 0.875364 0.713306 0.746820
O O14 0.500000 0.500000 0.500000
O O15 0.425421 0.633566 0.491777
#
# Coordination Sequence:
#
# PCOD9242836 Si02
#       7
#     4   4   4   4   4   4   4
#     4   9  21  37  63  95 123 169 212 254 312 377
#     4  11  22  39  66  94 122 161 216 259 310 381
#     4  10  20  41  61  88 132 164 203 263 315 366
#     4  10  21  37  58  88 126 161 200 257 315 372
#     4  10  20  35  64  93 119 165 213 250 312 377
#     4  11  23  39  60  95 125 163 211 261 315 376
#     4  11  19  36  63  86 119 167 200 252 320 361
#
# _framework density 24.690007999999999
#
# number of rings (size 3 to 8) (size 9 to 14) (size 15 to 20)
#    0.000    1.714    4.286    0.857    2.000    4.000 
#    0.000    1.429    0.000    8.571    0.000    0.000 
#    0.000    0.000    0.000    0.000    0.000    0.000 
#
# Total GULP energy -156467.036278 kJ/mol
# GULP energy per Si atom -5588.108439 kJ/mol
# Density = 2.463381 g / cm^3
# Si number density = 24.690008 Si / 1000 Ang^3
#
#
#
# Elastic Constant Matrix: (Units=GPa)
#
#
# Indices 1 2 3 4 5 6 
#
# 1 63.0700 18.2049 18.7915 0.0000 -29.0259 0.0000
# 2 18.2049 81.0242 -2.3455 0.0000 -5.5936 0.0000
# 3 18.7915 -2.3455 159.6767 0.0000 -21.2200 0.0000
# 4 0.0000 0.0000 0.0000 33.8705 0.0000 -14.5575
# 5 -29.0259 -5.5936 -21.2200 0.0000 46.7132 0.0000
# 6 0.0000 0.0000 0.0000 -14.5575 0.0000 24.2408
#
#
#
# Elastic Compliance Matrix: (Units=1/GPa)
#
#
# Indices 1 2 3 4 5 6 
#
# 1 0.023780 -0.004422 -0.001033 0.000000 0.013778 0.000000
# 2 -0.004422 0.013292 0.000598 0.000000 -0.000884 0.000000
# 3 -0.001033 0.000598 0.006723 0.000000 0.002484 0.000000
# 4 0.000000 0.000000 0.000000 0.039796 0.000000 0.023899
# 5 0.013778 -0.000884 0.002484 0.000000 0.030991 0.000000
# 6 0.000000 0.000000 0.000000 0.023899 0.000000 0.055605
#
#
# Mechanical properties :
#
#
# Convention : Reuss Voigt Hill
#
# Bulk Modulus (GPa) = 29.34062 41.45254 35.39658
# Shear Modulus (GPa) = 26.14245 38.90622 32.52433
#
# Velocity S-wave (km/s) = 3.25749 3.97393 3.63341
# Velocity P-wave (km/s) = 5.10468 6.15482 5.65418
#
# Compressibility (1/GPa) = 0.03408245
#
# Stress axis : x y z
#
# Youngs Moduli (GPa) = 42.05211 75.23453 148.74146
#
# Poissons Ratio (x) = 0.33267 0.15358
# Poissons Ratio (y) = 0.18594 -0.08896
# Poissons Ratio (z) = 0.04342 -0.04500
#
# Static dielectric constant tensor:
#      x y z
#    x 2.046580 0.000000 -0.001240 
#    y 0.000000 2.095480 0.000000 
#    z -0.001240 0.000000 1.960270 
# 
# From -- ./inp_files/14357.got.cif
#   From: 2010.05.17/outbox.cif.g08.bks.cpg/sg14_8_cif.got.tgz:14357.got - 2010.06.03 17:49:19.
