data_PCOD9242037
_publ_section_title
;
Structure prediction by ZEFSAII (Michael W. Deem and Ramdas Pophale) SiO2 
 PCOD9242037
Probable space group: P 21/C
;
_chemical_formula_sum "Si O2"
_cell_formula_units_Z 32
_cell_length_a 16.926341
_cell_length_b 12.842897
_cell_length_c 14.103027
_cell_angle_alpha 90.000000
_cell_angle_beta 27.509054
_cell_angle_gamma 90.000000
_cell_volume 1416.041008
_symmetry_space_group_name_H-M "P 21/C"
_symmetry_group_IT_number 14
_symmetry_cell_setting 'monoclinic'
loop_
_space_group_symop_operation_xyz
x,y,z
-x,1/2+y,1/2-z
-x,-y,-z
x,1/2-y,1/2+z
loop_
_atom_site_type_symbol
_atom_site_label
_atom_site_fract_x
_atom_site_fract_y
_atom_site_fract_z
Si Si1 0.677676 0.280093 0.586983
Si Si2 0.107548 0.206796 0.886879
Si Si3 0.306891 0.477824 0.212902
Si Si4 0.055208 0.583304 0.617308
Si Si5 0.844132 0.103722 0.302232
Si Si6 0.602609 0.047134 0.029970
Si Si7 0.061802 0.076640 0.353083
Si Si8 0.328425 0.877023 0.255884
O O1 0.865097 0.334536 0.395488
O O2 0.701489 0.174374 0.501816
O O3 0.568941 0.367087 0.647520
O O4 0.625179 0.234590 0.745783
O O5 0.273763 0.143829 0.738771
O O6 0.137509 0.323724 0.826494
O O7 0.029513 0.150639 0.876720
O O8 0.979467 0.183114 0.110055
O O9 0.218367 0.523917 0.399650
O O10 0.219588 0.537740 0.219036
O O11 0.500000 0.500000 0.000000
O O12 0.930176 0.487475 0.774430
O O13 0.640587 0.108804 0.890230
O O14 0.776248 0.980198 0.868894
O O15 0.446090 0.967858 0.177030
O O16 0.877277 0.112197 0.507156
O O17 0.000000 0.000000 0.500000
#
# Coordination Sequence:
#
# PCOD9242037 Si02
#       8
#     4   4   4   4   4   4   4   4
#     4  12  23  38  72  90 130 177 218 273 344 389
#     4   9  17  38  58  89 122 168 216 263 329 396
#     4   9  19  36  60  88 126 163 213 271 326 388
#     4   9  20  35  60  87 125 161 209 269 319 390
#     4   9  20  37  58  90 125 166 217 263 326 394
#     4  10  25  44  68  99 131 175 225 277 331 409
#     4  10  19  38  68  95 126 172 223 261 331 400
#     4  10  23  46  67  94 138 174 221 282 336 395
#
# _framework density 22.598213999999999
#
# number of rings (size 3 to 8) (size 9 to 14) (size 15 to 20)
#    0.000    2.250    1.250    3.000    3.500    2.000 
#    4.500    2.500    0.000    0.000    0.000    0.000 
#    0.000    0.000    0.000    0.000    0.000    0.000 
#
# Total GULP energy -178443.183244 kJ/mol
# GULP energy per Si atom -5576.349476 kJ/mol
# Density = 2.254678 g / cm^3
# Si number density = 22.598214 Si / 1000 Ang^3
#
#
#
# Elastic Constant Matrix: (Units=GPa)
#
#
# Indices 1 2 3 4 5 6 
#
# 1 59.4469 30.4326 9.4624 0.0000 2.2501 0.0000
# 2 30.4326 143.4924 29.0555 0.0000 8.7308 0.0000
# 3 9.4624 29.0555 49.0431 0.0000 -11.9784 0.0000
# 4 0.0000 0.0000 0.0000 16.1965 0.0000 5.9552
# 5 2.2501 8.7308 -11.9784 0.0000 21.9152 0.0000
# 6 0.0000 0.0000 0.0000 5.9552 0.0000 46.8919
#
#
#
# Elastic Compliance Matrix: (Units=1/GPa)
#
#
# Indices 1 2 3 4 5 6 
#
# 1 0.019005 -0.003533 -0.001969 0.000000 -0.001620 0.000000
# 2 -0.003533 0.009500 -0.006673 0.000000 -0.007069 0.000000
# 3 -0.001969 -0.006673 0.029339 0.000000 0.018897 0.000000
# 4 0.000000 0.000000 0.000000 0.064766 0.000000 -0.008225
# 5 -0.001620 -0.007069 0.018897 0.000000 0.058942 0.000000
# 6 0.000000 0.000000 0.000000 -0.008225 0.000000 0.022370
#
#
# Mechanical properties :
#
#
# Convention : Reuss Voigt Hill
#
# Bulk Modulus (GPa) = 29.85706 43.32036 36.58871
# Shear Modulus (GPa) = 20.88229 29.20283 25.04256
#
# Velocity S-wave (km/s) = 3.04315 3.59871 3.33252
# Velocity P-wave (km/s) = 5.05851 6.03979 5.57079
#
# Compressibility (1/GPa) = 0.03349291
#
# Stress axis : x y z
#
# Youngs Moduli (GPa) = 52.61670 105.26636 34.08442
#
# Poissons Ratio (x) = 0.37195 0.06712
# Poissons Ratio (y) = 0.18592 0.22744
# Poissons Ratio (z) = 0.10361 0.70243
#
# Static dielectric constant tensor:
#      x y z
#    x 1.902530 0.000000 -0.021820 
#    y 0.000000 1.821610 0.000000 
#    z -0.021820 0.000000 1.717660 
# 
# From -- ./inp_files/48988.got.cif
#   From: 2010.05.17/outbox.cif.g08.bks.cpg/sg14_25_cif.got.tgz:48988.got - 2010.06.03 17:49:19.
