data_PCOD9242248
_publ_section_title
;
Structure prediction by ZEFSAII (Michael W. Deem and Ramdas Pophale) SiO2 
 PCOD9242248
Probable space group: P 21/C
;
_chemical_formula_sum "Si O2"
_cell_formula_units_Z 24
_cell_length_a 12.361961
_cell_length_b 16.586876
_cell_length_c 17.936197
_cell_angle_alpha 90.000000
_cell_angle_beta 160.583975
_cell_angle_gamma 90.000000
_cell_volume 1222.576140
_symmetry_space_group_name_H-M "P 21/C"
_symmetry_group_IT_number 14
_symmetry_cell_setting 'monoclinic'
loop_
_space_group_symop_operation_xyz
x,y,z
-x,1/2+y,1/2-z
-x,-y,-z
x,1/2-y,1/2+z
loop_
_atom_site_type_symbol
_atom_site_label
_atom_site_fract_x
_atom_site_fract_y
_atom_site_fract_z
Si Si1 0.333393 0.178025 0.820221
Si Si2 0.354485 0.672093 0.311266
Si Si3 0.502975 0.497677 0.412041
Si Si4 0.121646 0.189412 0.972368
Si Si5 0.213582 0.558796 0.837461
Si Si6 0.374798 0.672520 0.079417
O O1 0.379392 0.090820 0.811845
O O2 0.504374 0.248771 0.886041
O O3 0.952083 0.191719 0.587126
O O4 0.503156 0.175430 0.012238
O O5 0.306879 0.577756 0.260397
O O6 0.633772 0.704403 0.437553
O O7 0.042138 0.728600 0.106070
O O8 0.500000 0.500000 0.500000
O O9 0.871281 0.512496 0.624260
O O10 0.849331 0.128795 0.764206
O O11 0.337378 0.150000 0.177189
O O12 0.500000 0.500000 0.000000
O O13 0.292135 0.603272 0.966271
#
# Coordination Sequence:
#
# PCOD9242248 Si02
#       6
#     4   4   4   4   4   4
#     4  11  21  41  69  92 127 168 215 257 321 380
#     4  10  19  41  64  90 126 167 206 262 311 377
#     4   9  19  39  66  90 119 168 209 250 318 373
#     4  11  23  41  63  95 127 163 215 258 317 375
#     4  11  24  42  65  90 129 167 209 265 321 375
#     4  12  24  41  65  94 127 166 210 267 313 380
#
# _framework density 19.630679000000001
#
# number of rings (size 3 to 8) (size 9 to 14) (size 15 to 20)
#    0.000    1.333    6.667    1.000    2.333    3.333 
#    0.000    7.500    0.000    0.000    0.000    0.000 
#    0.000    0.000    0.000    0.000    0.000    0.000 
#
# Total GULP energy -134051.678811 kJ/mol
# GULP energy per Si atom -5585.486617 kJ/mol
# Density = 1.958600 g / cm^3
# Si number density = 19.630679 Si / 1000 Ang^3
#
#
#
# Elastic Constant Matrix: (Units=GPa)
#
#
# Indices 1 2 3 4 5 6 
#
# 1 62.7976 65.6935 33.8799 0.0000 17.8028 0.0000
# 2 65.6935 104.8198 47.8176 0.0000 35.7733 0.0000
# 3 33.8799 47.8176 83.8063 0.0000 -1.2550 0.0000
# 4 0.0000 0.0000 0.0000 25.8743 0.0000 21.4726
# 5 17.8028 35.7733 -1.2550 0.0000 40.8630 0.0000
# 6 0.0000 0.0000 0.0000 21.4726 0.0000 20.7286
#
#
#
# Elastic Compliance Matrix: (Units=1/GPa)
#
#
# Indices 1 2 3 4 5 6 
#
# 1 0.047941 -0.032010 -0.001010 0.000000 0.007106 0.000000
# 2 -0.032010 0.043626 -0.012320 0.000000 -0.024625 0.000000
# 3 -0.001010 -0.012320 0.019547 0.000000 0.011826 0.000000
# 4 0.000000 0.000000 0.000000 0.275398 0.000000 -0.285281
# 5 0.007106 -0.024625 0.011826 0.000000 0.043297 0.000000
# 6 0.000000 0.000000 0.000000 -0.285281 0.000000 0.343762
#
#
# Mechanical properties :
#
#
# Convention : Reuss Voigt Hill
#
# Bulk Modulus (GPa) = 48.93936 60.68953 54.81445
# Shear Modulus (GPa) = 5.74010 24.42869 15.08439
#
# Velocity S-wave (km/s) = 1.71184 3.53145 2.77503
# Velocity P-wave (km/s) = 5.37507 6.90007 6.18475
#
# Compressibility (1/GPa) = 0.02043345
#
# Stress axis : x y z
#
# Youngs Moduli (GPa) = 20.85881 22.92192 51.15777
#
# Poissons Ratio (x) = 0.73374 0.05169
# Poissons Ratio (y) = 0.66770 0.63027
# Poissons Ratio (z) = 0.02107 0.28240
#
# Static dielectric constant tensor:
#      x y z
#    x 1.689530 0.000000 -0.042080 
#    y 0.000000 1.709420 0.000000 
#    z -0.042080 0.000000 1.710460 
# 
# From -- ./inp_files/58147.got.cif
#   From: 2010.05.17/outbox.cif.g08.bks.cpg/sg14_30_cif.got.tgz:58147.got - 2010.06.03 17:49:19.
