data_PCOD9242220
_publ_section_title
;
Structure prediction by ZEFSAII (Michael W. Deem and Ramdas Pophale) SiO2 
 PCOD9242220
Probable space group: P 21/C
;
_chemical_formula_sum "Si O2"
_cell_formula_units_Z 32
_cell_length_a 29.978141
_cell_length_b 11.454492
_cell_length_c 16.567957
_cell_angle_alpha 90.000000
_cell_angle_beta 164.326269
_cell_angle_gamma 90.000000
_cell_volume 1536.982766
_symmetry_space_group_name_H-M "P 21/C"
_symmetry_group_IT_number 14
_symmetry_cell_setting 'monoclinic'
loop_
_space_group_symop_operation_xyz
x,y,z
-x,1/2+y,1/2-z
-x,-y,-z
x,1/2-y,1/2+z
loop_
_atom_site_type_symbol
_atom_site_label
_atom_site_fract_x
_atom_site_fract_y
_atom_site_fract_z
Si Si1 0.361234 0.030385 0.546837
Si Si2 0.673525 0.467677 0.265539
Si Si3 0.683428 0.026733 0.354705
Si Si4 0.742640 0.089321 0.189075
Si Si5 0.884976 0.579564 0.058211
Si Si6 0.300164 0.793036 0.054326
Si Si7 0.753019 0.159538 0.760802
Si Si8 0.691656 0.818878 0.699055
O O1 0.290910 0.122524 0.359097
O O2 0.310810 0.047273 0.551635
O O3 0.295174 0.902376 0.406369
O O4 0.558716 0.035119 0.877195
O O5 0.755748 0.380858 0.471878
O O6 0.628338 0.394672 0.107328
O O7 0.754868 0.586460 0.374785
O O8 0.500000 0.500000 0.000000
O O9 0.718153 0.161058 0.442746
O O10 0.807524 0.987149 0.500565
O O11 0.500000 0.000000 0.000000
O O12 0.742625 0.203673 0.244463
O O13 0.865240 0.997547 0.443202
O O14 0.776169 0.147663 0.159908
O O15 0.069886 0.615103 0.401942
O O16 0.782628 0.697664 0.865979
O O17 0.497154 0.801636 0.378282
#
# Coordination Sequence:
#
# PCOD9242220 Si02
#       8
#     4   4   4   4   4   4   4   4
#     4  10  22  41  67  93 127 178 230 276 322 402
#     4   9  20  39  66  92 125 173 222 281 323 398
#     4  12  21  40  66 100 131 177 238 278 332 405
#     4  11  23  42  69  96 135 177 224 281 338 399
#     4  12  26  41  67  99 141 180 218 283 349 409
#     4  10  19  40  66  97 126 166 241 280 317 399
#     4  11  25  43  65  97 139 173 224 280 355 398
#     4   9  20  40  62  94 137 166 226 275 341 391
#
# _framework density 20.820011999999998
#
# number of rings (size 3 to 8) (size 9 to 14) (size 15 to 20)
#    0.000    1.500    3.750    1.500    5.250    0.500 
#    2.250    0.625    0.000    0.000    0.000    0.000 
#    0.000    0.000    0.000    0.000    0.000    0.000 
#
# Total GULP energy -178464.388183 kJ/mol
# GULP energy per Si atom -5577.012131 kJ/mol
# Density = 2.077262 g / cm^3
# Si number density = 20.820012 Si / 1000 Ang^3
#
#
#
# Elastic Constant Matrix: (Units=GPa)
#
#
# Indices 1 2 3 4 5 6 
#
# 1 112.6939 47.3283 17.6486 0.0000 -26.0266 0.0000
# 2 47.3283 149.0728 36.2536 0.0000 -18.6024 0.0000
# 3 17.6486 36.2536 77.9389 0.0000 -11.9982 0.0000
# 4 0.0000 0.0000 0.0000 10.6885 0.0000 -11.6624
# 5 -26.0266 -18.6024 -11.9982 0.0000 15.3848 0.0000
# 6 0.0000 0.0000 0.0000 -11.6624 0.0000 21.4609
#
#
#
# Elastic Compliance Matrix: (Units=1/GPa)
#
#
# Indices 1 2 3 4 5 6 
#
# 1 0.015098 -0.002107 0.001251 0.000000 0.023970 0.000000
# 2 -0.002107 0.008649 -0.002824 0.000000 0.004692 0.000000
# 3 0.001251 -0.002824 0.015525 0.000000 0.010809 0.000000
# 4 0.000000 0.000000 0.000000 0.229840 0.000000 0.124900
# 5 0.023970 0.004692 0.010809 0.000000 0.119653 0.000000
# 6 0.000000 0.000000 0.000000 0.124900 0.000000 0.114470
#
#
# Mechanical properties :
#
#
# Convention : Reuss Voigt Hill
#
# Bulk Modulus (GPa) = 31.33450 60.24074 45.78762
# Shear Modulus (GPa) = 9.59265 25.40518 17.49891
#
# Velocity S-wave (km/s) = 2.14882 3.49697 2.90226
# Velocity P-wave (km/s) = 4.60862 6.73067 5.76807
#
# Compressibility (1/GPa) = 0.03191370
#
# Stress axis : x y z
#
# Youngs Moduli (GPa) = 66.23255 115.61773 64.41292
#
# Poissons Ratio (x) = 0.24355 -0.08059
# Poissons Ratio (y) = 0.13952 0.18189
# Poissons Ratio (z) = -0.08286 0.32649
#
# Static dielectric constant tensor:
#      x y z
#    x 1.992910 0.000000 -0.124480 
#    y 0.000000 1.759720 0.000000 
#    z -0.124480 0.000000 1.802280 
# 
# From -- ./inp_files/52055.got.cif
#   From: 2010.05.17/outbox.cif.g08.bks.cpg/sg14_27_cif.got.tgz:52055.got - 2010.06.03 17:49:19.
