data_PCOD9242247
_publ_section_title
;
Structure prediction by ZEFSAII (Michael W. Deem and Ramdas Pophale) SiO2 
 PCOD9242247
Probable space group: P 21/C
;
_chemical_formula_sum "Si O2"
_cell_formula_units_Z 28
_cell_length_a 14.300862
_cell_length_b 8.648105
_cell_length_c 10.906931
_cell_angle_alpha 90.000000
_cell_angle_beta 123.361401
_cell_angle_gamma 90.000000
_cell_volume 1126.641779
_symmetry_space_group_name_H-M "P 21/C"
_symmetry_group_IT_number 14
_symmetry_cell_setting 'monoclinic'
loop_
_space_group_symop_operation_xyz
x,y,z
-x,1/2+y,1/2-z
-x,-y,-z
x,1/2-y,1/2+z
loop_
_atom_site_type_symbol
_atom_site_label
_atom_site_fract_x
_atom_site_fract_y
_atom_site_fract_z
Si Si1 0.237305 0.110099 0.225314
Si Si2 0.403379 0.039793 0.553494
Si Si3 0.525219 0.343207 0.729331
Si Si4 0.925486 0.719398 0.211372
Si Si5 0.661710 0.074008 0.920242
Si Si6 0.861238 0.069640 0.231362
Si Si7 0.774501 0.570489 0.888380
O O1 0.316710 0.030075 0.382371
O O2 0.113189 0.123122 0.195368
O O3 0.264005 0.292174 0.229145
O O4 0.261182 0.031341 0.113286
O O5 0.445527 0.211198 0.606385
O O6 0.337976 0.003075 0.634895
O O7 0.490029 0.898867 0.633955
O O8 0.628731 0.222429 0.818043
O O9 0.454300 0.491259 0.625604
O O10 0.050546 0.689763 0.257415
O O11 0.903071 0.899723 0.218317
O O12 0.845843 0.652094 0.046374
O O13 0.738622 0.107110 0.091881
O O14 0.848560 0.051796 0.368348
#
# Coordination Sequence:
#
# PCOD9242247 Si02
#       7
#     4   4   4   4   4   4   4
#     4  10  20  40  69  86 128 173 203 266 316 385
#     4  10  21  41  60  94 126 165 218 259 325 369
#     4  10  22  39  64  90 128 166 212 270 304 385
#     4  10  22  40  66  91 128 167 214 253 331 374
#     4  11  22  45  62  97 128 168 219 256 325 371
#     4  11  23  41  64  94 129 169 207 270 310 392
#     4  10  19  41  64  88 125 172 204 264 320 375
#
# _framework density 24.852623000000001
#
# number of rings (size 3 to 8) (size 9 to 14) (size 15 to 20)
#    0.000    1.714    2.857    2.143    0.000    5.143 
#   10.286    2.143    0.000    0.000    0.000    0.000 
#    0.000    0.000    0.000    0.000    0.000    0.000 
#
# Total GULP energy -155937.097860 kJ/mol
# GULP energy per Si atom -5569.182066 kJ/mol
# Density = 2.479606 g / cm^3
# Si number density = 24.852623 Si / 1000 Ang^3
#
#
#
# Elastic Constant Matrix: (Units=GPa)
#
#
# Indices 1 2 3 4 5 6 
#
# 1 98.8527 19.4938 -9.2915 0.0000 -6.8884 0.0000
# 2 19.4938 61.1751 -1.4537 0.0000 7.7672 0.0000
# 3 -9.2915 -1.4537 24.3407 0.0000 2.3277 0.0000
# 4 0.0000 0.0000 0.0000 136.0788 0.0000 58.6347
# 5 -6.8884 7.7672 2.3277 0.0000 32.6029 0.0000
# 6 0.0000 0.0000 0.0000 58.6347 0.0000 59.9676
#
#
#
# Elastic Compliance Matrix: (Units=1/GPa)
#
#
# Indices 1 2 3 4 5 6 
#
# 1 0.011474 -0.003957 0.003848 0.000000 0.003092 0.000000
# 2 -0.003957 0.018269 0.000077 0.000000 -0.005194 0.000000
# 3 0.003848 0.000077 0.042773 0.000000 -0.002259 0.000000
# 4 0.000000 0.000000 0.000000 0.012699 0.000000 -0.012417
# 5 0.003092 -0.005194 -0.002259 0.000000 0.032724 0.000000
# 6 0.000000 0.000000 0.000000 -0.012417 0.000000 0.028816
#
#
# Mechanical properties :
#
#
# Convention : Reuss Voigt Hill
#
# Bulk Modulus (GPa) = 13.80254 22.42951 18.11603
# Shear Modulus (GPa) = 29.24502 57.43787 43.34144
#
# Velocity S-wave (km/s) = 3.43408 4.81265 4.18058
# Velocity P-wave (km/s) = 4.61408 6.31876 5.53247
#
# Compressibility (1/GPa) = 0.07245042
#
# Stress axis : x y z
#
# Youngs Moduli (GPa) = 87.15674 54.73808 23.37934
#
# Poissons Ratio (x) = 0.21661 -0.08996
# Poissons Ratio (y) = 0.34490 -0.00180
# Poissons Ratio (z) = -0.33535 -0.00422
#
# Static dielectric constant tensor:
#      x y z
#    x 2.392050 0.000000 0.108910 
#    y 0.000000 1.264040 0.000000 
#    z 0.108910 0.000000 2.026290 
# 
# From -- ./inp_files/31668.got.cif
#   From: 2010.05.17/outbox.cif.g08.bks.cpg/sg14_16_cif.got.tgz:31668.got - 2010.06.03 17:49:19.
