data_PCOD9242925
_publ_section_title
;
Structure prediction by ZEFSAII (Michael W. Deem and Ramdas Pophale) SiO2 
 PCOD9242925
Probable space group: P 21/C
;
_chemical_formula_sum "Si O2"
_cell_formula_units_Z 28
_cell_length_a 12.629999
_cell_length_b 22.282401
_cell_length_c 5.366188
_cell_angle_alpha 90.000000
_cell_angle_beta 116.543669
_cell_angle_gamma 90.000000
_cell_volume 1351.005691
_symmetry_space_group_name_H-M "P 21/C"
_symmetry_group_IT_number 14
_symmetry_cell_setting 'monoclinic'
loop_
_space_group_symop_operation_xyz
x,y,z
-x,1/2+y,1/2-z
-x,-y,-z
x,1/2-y,1/2+z
loop_
_atom_site_type_symbol
_atom_site_label
_atom_site_fract_x
_atom_site_fract_y
_atom_site_fract_z
Si Si1 0.587641 0.219766 0.398077
Si Si2 0.569010 0.415400 0.038421
Si Si3 0.951565 0.068978 0.458873
Si Si4 0.299687 0.417825 0.617663
Si Si5 0.052197 0.432226 0.564748
Si Si6 0.318676 0.965006 0.835866
Si Si7 0.301214 0.219156 0.055061
O O1 0.631138 0.262817 0.667713
O O2 0.609198 0.151851 0.508640
O O3 0.444601 0.225734 0.222339
O O4 0.615164 0.435401 0.356639
O O5 0.427005 0.417281 0.882842
O O6 0.615471 0.455641 0.856480
O O7 0.810962 0.064246 0.316520
O O8 0.003426 0.097048 0.262867
O O9 0.000000 0.000000 0.500000
O O10 0.002278 0.097474 0.762133
O O11 0.192899 0.435546 0.688053
O O12 0.303385 0.465918 0.399618
O O13 0.277108 0.350963 0.497368
O O14 0.000000 0.500000 0.500000
O O15 0.256834 0.243172 0.273481
#
# Coordination Sequence:
#
# PCOD9242925 Si02
#       7
#     4   4   4   4   4   4   4
#     4   9  17  35  58  75 110 156 201 237 277 348
#     4  11  25  36  54  95 125 155 188 240 312 364
#     4  10  20  37  57  77 113 148 207 230 263 337
#     4  11  23  38  62  85 127 162 187 241 310 365
#     4  10  20  36  58  82 110 149 204 232 269 347
#     4  12  23  38  56  86 134 154 187 240 300 369
#     4   9  20  36  54  83 111 148 200 245 287 349
#
# _framework density 20.725303
#
# number of rings (size 3 to 8) (size 9 to 14) (size 15 to 20)
#    0.000    1.714    2.857    2.571    2.000    6.857 
#    0.000    0.000    0.000    0.000    0.000   20.000 
#    0.000    0.000    0.000    0.000    0.000    0.000 
#
# Total GULP energy -156415.038674 kJ/mol
# GULP energy per Si atom -5586.251381 kJ/mol
# Density = 2.067813 g / cm^3
# Si number density = 20.725303 Si / 1000 Ang^3
#
#
#
# Elastic Constant Matrix: (Units=GPa)
#
#
# Indices 1 2 3 4 5 6 
#
# 1 75.7223 4.5898 41.5251 0.0000 14.7148 0.0000
# 2 4.5898 73.0564 22.6109 0.0000 -2.3920 0.0000
# 3 41.5251 22.6109 117.4081 0.0000 -15.5121 0.0000
# 4 0.0000 0.0000 0.0000 8.6161 0.0000 -8.1402
# 5 14.7148 -2.3920 -15.5121 0.0000 35.9752 0.0000
# 6 0.0000 0.0000 0.0000 -8.1402 0.0000 8.0566
#
#
#
# Elastic Compliance Matrix: (Units=1/GPa)
#
#
# Indices 1 2 3 4 5 6 
#
# 1 0.020491 0.001122 -0.009078 0.000000 -0.012221 0.000000
# 2 0.001122 0.014619 -0.003335 0.000000 -0.000925 0.000000
# 3 -0.009078 -0.003335 0.013607 0.000000 0.009359 0.000000
# 4 0.000000 0.000000 0.000000 2.555040 0.000000 2.581554
# 5 -0.012221 -0.000925 0.009359 0.000000 0.036770 0.000000
# 6 0.000000 0.000000 0.000000 2.581554 0.000000 2.732465
#
#
# Mechanical properties :
#
#
# Convention : Reuss Voigt Hill
#
# Bulk Modulus (GPa) = 38.26095 44.84871 41.55483
# Shear Modulus (GPa) = 0.92519 23.69364 12.30942
#
# Velocity S-wave (km/s) = 0.66886 3.38483 2.43972
# Velocity P-wave (km/s) = 4.37008 6.07969 5.29435
#
# Compressibility (1/GPa) = 0.02613631
#
# Stress axis : x y z
#
# Youngs Moduli (GPa) = 48.80077 68.40267 73.49279
#
# Poissons Ratio (x) = -0.07676 0.66719
# Poissons Ratio (y) = -0.05476 0.24506
# Poissons Ratio (z) = 0.44303 0.22809
#
# Static dielectric constant tensor:
#      x y z
#    x 1.768370 0.000000 -0.029370 
#    y 0.000000 1.732160 0.000000 
#    z -0.029370 0.000000 1.795040 
# 
# From -- ./inp_files/2997.got.cif
#   From: 2010.05.17/outbox.cif.g08.bks.cpg/sg14_2_cif.got.tgz:2997.got - 2010.06.03 17:49:19.
