data_PCOD9242105
_publ_section_title
;
Structure prediction by ZEFSAII (Michael W. Deem and Ramdas Pophale) SiO2 
 PCOD9242105
Probable space group: P 21/C
;
_chemical_formula_sum "Si O2"
_cell_formula_units_Z 28
_cell_length_a 10.907888
_cell_length_b 9.031609
_cell_length_c 14.402105
_cell_angle_alpha 90.000000
_cell_angle_beta 119.830234
_cell_angle_gamma 90.000000
_cell_volume 1230.843396
_symmetry_space_group_name_H-M "P 21/C"
_symmetry_group_IT_number 14
_symmetry_cell_setting 'monoclinic'
loop_
_space_group_symop_operation_xyz
x,y,z
-x,1/2+y,1/2-z
-x,-y,-z
x,1/2-y,1/2+z
loop_
_atom_site_type_symbol
_atom_site_label
_atom_site_fract_x
_atom_site_fract_y
_atom_site_fract_z
Si Si1 0.215041 0.859441 0.180182
Si Si2 0.919532 0.649853 0.290767
Si Si3 0.301175 0.451024 0.148904
Si Si4 0.823915 0.964902 0.197018
Si Si5 0.474876 0.692616 0.278831
Si Si6 0.070576 0.256183 0.997585
Si Si7 0.303759 0.010994 0.034553
O O1 0.347082 0.781820 0.277217
O O2 0.184739 0.017499 0.216224
O O3 0.270173 0.883744 0.095466
O O4 0.071485 0.766432 0.114252
O O5 0.858540 0.787631 0.209583
O O6 0.965585 0.722425 0.407332
O O7 0.042040 0.563469 0.282443
O O8 0.228499 0.487569 0.218978
O O9 0.405457 0.589438 0.172257
O O10 0.401831 0.308021 0.201217
O O11 0.170462 0.402388 0.033437
O O12 0.706944 0.011545 0.078031
O O13 0.552037 0.582717 0.377922
O O14 0.174275 0.124645 0.005311
#
# Coordination Sequence:
#
# PCOD9242105 Si02
#       7
#     4   4   4   4   4   4   4
#     4  11  19  39  70  87 120 176 208 249 311 378
#     4  10  21  37  62  97 124 161 204 258 317 363
#     4  10  24  39  64  92 127 162 214 260 307 367
#     4  11  22  38  65  95 129 156 206 264 315 371
#     4  11  23  41  62  90 124 173 212 253 305 378
#     4   9  18  38  66  93 114 169 213 249 299 379
#     4  10  19  39  64  89 123 167 205 249 315 375
#
# _framework density 22.748629000000001
#
# number of rings (size 3 to 8) (size 9 to 14) (size 15 to 20)
#    0.000    1.714    4.286    1.714    2.000    1.143 
#    0.000    5.000    0.000    2.571    0.000    0.000 
#    0.000    0.000    0.000    0.000    0.000    0.000 
#
# Total GULP energy -156233.899628 kJ/mol
# GULP energy per Si atom -5579.782130 kJ/mol
# Density = 2.269685 g / cm^3
# Si number density = 22.748629 Si / 1000 Ang^3
#
#
#
# Elastic Constant Matrix: (Units=GPa)
#
#
# Indices 1 2 3 4 5 6 
#
# 1 84.3388 32.0850 24.5108 0.0000 24.1989 0.0000
# 2 32.0850 109.1528 25.9977 0.0000 16.9166 0.0000
# 3 24.5108 25.9977 44.9951 0.0000 16.4231 0.0000
# 4 0.0000 0.0000 0.0000 20.6886 0.0000 5.7304
# 5 24.1989 16.9166 16.4231 0.0000 40.3994 0.0000
# 6 0.0000 0.0000 0.0000 5.7304 0.0000 43.0344
#
#
#
# Elastic Compliance Matrix: (Units=1/GPa)
#
#
# Indices 1 2 3 4 5 6 
#
# 1 0.016152 -0.002554 -0.004911 0.000000 -0.006609 0.000000
# 2 -0.002554 0.011211 -0.004616 0.000000 -0.001288 0.000000
# 3 -0.004911 -0.004616 0.030281 0.000000 -0.007435 0.000000
# 4 0.000000 0.000000 0.000000 0.050187 0.000000 -0.006683
# 5 -0.006609 -0.001288 -0.007435 0.000000 0.032274 0.000000
# 6 0.000000 0.000000 0.000000 -0.006683 0.000000 0.024127
#
#
# Mechanical properties :
#
#
# Convention : Reuss Voigt Hill
#
# Bulk Modulus (GPa) = 29.86668 44.85264 37.35966
# Shear Modulus (GPa) = 25.05580 31.21736 28.13658
#
# Velocity S-wave (km/s) = 3.32237 3.70844 3.52070
# Velocity P-wave (km/s) = 5.27968 6.17221 5.74331
#
# Compressibility (1/GPa) = 0.03348213
#
# Stress axis : x y z
#
# Youngs Moduli (GPa) = 61.91164 89.19544 33.02418
#
# Poissons Ratio (x) = 0.22780 0.16217
# Poissons Ratio (y) = 0.15812 0.15245
# Poissons Ratio (z) = 0.30403 0.41176
#
# Static dielectric constant tensor:
#      x y z
#    x 1.875210 0.000000 0.004770 
#    y 0.000000 1.930770 0.000000 
#    z 0.004770 0.000000 1.880520 
# 
# From -- ./inp_files/43821.got.cif
#   From: 2010.05.17/outbox.cif.g08.bks.cpg/sg14_22_cif.got.tgz:43821.got - 2010.06.03 17:49:19.
