data_PCOD9242119
_publ_section_title
;
Structure prediction by ZEFSAII (Michael W. Deem and Ramdas Pophale) SiO2 
 PCOD9242119
Probable space group: P 21/C
;
_chemical_formula_sum "Si O2"
_cell_formula_units_Z 28
_cell_length_a 7.221305
_cell_length_b 13.809575
_cell_length_c 13.438416
_cell_angle_alpha 90.000000
_cell_angle_beta 124.695160
_cell_angle_gamma 90.000000
_cell_volume 1101.837113
_symmetry_space_group_name_H-M "P 21/C"
_symmetry_group_IT_number 14
_symmetry_cell_setting 'monoclinic'
loop_
_space_group_symop_operation_xyz
x,y,z
-x,1/2+y,1/2-z
-x,-y,-z
x,1/2-y,1/2+z
loop_
_atom_site_type_symbol
_atom_site_label
_atom_site_fract_x
_atom_site_fract_y
_atom_site_fract_z
Si Si1 0.308917 0.905878 0.563083
Si Si2 0.393508 0.594577 0.560344
Si Si3 0.875637 0.591843 0.064915
Si Si4 0.858817 0.990019 0.173017
Si Si5 0.556156 0.753888 0.247805
Si Si6 0.422894 0.738216 0.920478
Si Si7 0.069414 0.272034 0.295793
O O1 0.477367 0.853760 0.691919
O O2 0.352048 0.847315 0.474525
O O3 0.063704 0.891575 0.537914
O O4 0.311618 0.019770 0.538339
O O5 0.177996 0.547137 0.442120
O O6 0.602048 0.521157 0.637773
O O7 0.378906 0.666881 0.648903
O O8 0.484739 0.669307 0.504972
O O9 0.812752 0.693187 0.096960
O O10 0.987912 0.533933 0.192956
O O11 0.946149 0.882738 0.175754
O O12 0.569941 0.772480 0.367242
O O13 0.790240 0.772586 0.263602
O O14 0.180448 0.766178 0.797228
#
# Coordination Sequence:
#
# PCOD9242119 Si02
#       7
#     4   4   4   4   4   4   4
#     4  10  22  40  68  93 129 180 209 266 333 381
#     4   9  20  38  66  92 125 174 209 260 334 378
#     4  11  21  40  70  95 133 172 221 272 326 394
#     4  10  19  39  65  94 129 167 217 269 323 389
#     4  10  22  41  65  98 130 167 216 267 323 395
#     4  11  20  43  66  94 136 164 213 272 323 390
#     4  11  22  39  66  93 128 169 213 273 329 381
#
# _framework density 25.412102999999998
#
# number of rings (size 3 to 8) (size 9 to 14) (size 15 to 20)
#    0.000    1.714    4.286    0.000    0.000    0.571 
#    7.714    7.857    0.000    0.000    0.000    0.000 
#    0.000    0.000    0.000    0.000    0.000    0.000 
#
# Total GULP energy -156581.258812 kJ/mol
# GULP energy per Si atom -5592.187815 kJ/mol
# Density = 2.535426 g / cm^3
# Si number density = 25.412103 Si / 1000 Ang^3
#
#
#
# Elastic Constant Matrix: (Units=GPa)
#
#
# Indices 1 2 3 4 5 6 
#
# 1 60.0703 7.7226 15.7216 0.0000 -27.2762 0.0000
# 2 7.7226 137.3591 48.4211 0.0000 -13.5925 0.0000
# 3 15.7216 48.4211 148.7445 0.0000 -21.2189 0.0000
# 4 0.0000 0.0000 0.0000 23.5167 0.0000 6.1218
# 5 -27.2762 -13.5925 -21.2189 0.0000 41.3324 0.0000
# 6 0.0000 0.0000 0.0000 6.1218 0.0000 33.6691
#
#
#
# Elastic Compliance Matrix: (Units=1/GPa)
#
#
# Indices 1 2 3 4 5 6 
#
# 1 0.023797 0.000349 -0.000401 0.000000 0.015612 0.000000
# 2 0.000349 0.008309 -0.002502 0.000000 0.001678 0.000000
# 3 -0.000401 -0.002502 0.008011 0.000000 0.003025 0.000000
# 4 0.000000 0.000000 0.000000 0.044636 0.000000 -0.008116
# 5 0.015612 0.001678 0.003025 0.000000 0.036602 0.000000
# 6 0.000000 0.000000 0.000000 -0.008116 0.000000 0.031176
#
#
# Mechanical properties :
#
#
# Convention : Reuss Voigt Hill
#
# Bulk Modulus (GPa) = 28.56615 54.43384 41.49999
# Shear Modulus (GPa) = 29.53165 37.99088 33.76126
#
# Velocity S-wave (km/s) = 3.41267 3.87071 3.64888
# Velocity P-wave (km/s) = 5.17629 6.43766 5.84112
#
# Compressibility (1/GPa) = 0.03500647
#
# Stress axis : x y z
#
# Youngs Moduli (GPa) = 42.02277 120.35582 124.82109
#
# Poissons Ratio (x) = -0.04195 0.05011
# Poissons Ratio (y) = -0.01465 0.31233
# Poissons Ratio (z) = 0.01687 0.30116
#
# Static dielectric constant tensor:
#      x y z
#    x 2.046560 0.000000 0.117240 
#    y 0.000000 2.076690 0.000000 
#    z 0.117240 0.000000 2.047680 
# 
# From -- ./inp_files/25301.got.cif
#   From: 2010.05.17/outbox.cif.g08.bks.cpg/sg14_13_cif.got.tgz:25301.got - 2010.06.03 17:49:19.
