data_PCOD9242744
_publ_section_title
;
Structure prediction by ZEFSAII (Michael W. Deem and Ramdas Pophale) SiO2 
 PCOD9242744
Probable space group: P 21/C
;
_chemical_formula_sum "Si O2"
_cell_formula_units_Z 32
_cell_length_a 9.944130
_cell_length_b 8.290952
_cell_length_c 20.570245
_cell_angle_alpha 90.000000
_cell_angle_beta 107.034295
_cell_angle_gamma 90.000000
_cell_volume 1621.539057
_symmetry_space_group_name_H-M "P 21/C"
_symmetry_group_IT_number 14
_symmetry_cell_setting 'monoclinic'
loop_
_space_group_symop_operation_xyz
x,y,z
-x,1/2+y,1/2-z
-x,-y,-z
x,1/2-y,1/2+z
loop_
_atom_site_type_symbol
_atom_site_label
_atom_site_fract_x
_atom_site_fract_y
_atom_site_fract_z
Si Si1 0.409651 0.759095 0.818125
Si Si2 0.971808 0.718580 0.195417
Si Si3 0.296128 0.121940 0.645014
Si Si4 0.015391 0.231147 0.060797
Si Si5 0.137436 0.856726 0.337953
Si Si6 0.305371 0.374521 0.299899
Si Si7 0.399372 0.755980 0.663218
Si Si8 0.116791 0.632923 0.591692
O O1 0.572344 0.731674 0.857986
O O2 0.301893 0.653101 0.844489
O O3 0.398309 0.713881 0.740069
O O4 0.357977 0.942946 0.816302
O O5 0.923378 0.535208 0.180879
O O6 0.832175 0.827894 0.179841
O O7 0.059669 0.744621 0.273616
O O8 0.067548 0.774690 0.149326
O O9 0.154176 0.159187 0.586684
O O10 0.269438 0.151435 0.718327
O O11 0.346951 0.938063 0.646886
O O12 0.902816 0.294751 0.096733
O O13 0.064187 0.050426 0.086703
O O14 0.951668 0.218407 0.980224
O O15 0.440552 0.266122 0.335787
O O16 0.285376 0.642779 0.612826
#
# Coordination Sequence:
#
# PCOD9242744 Si02
#       8
#     4   4   4   4   4   4   4   4
#     4  10  20  35  58  88 120 153 192 244 295 345
#     4  12  23  37  60  89 120 154 197 247 292 345
#     4  10  20  35  58  87 119 156 194 240 294 348
#     4  11  24  41  61  86 120 160 198 241 295 353
#     4  12  23  37  60  89 120 154 197 247 292 345
#     4  10  20  35  58  88 120 153 192 244 295 345
#     4  10  20  35  58  87 119 156 194 240 294 348
#     4  11  24  41  61  86 120 160 198 241 295 353
#
# _framework density 19.734338999999999
#
# number of rings (size 3 to 8) (size 9 to 14) (size 15 to 20)
#    0.000    1.250    2.500    4.500    0.000    4.000 
#    0.000    1.250    0.000    7.500    0.000    0.000 
#    0.000    0.000    0.000    0.000    0.000    0.000 
#
# Total GULP energy -178989.228261 kJ/mol
# GULP energy per Si atom -5593.413383 kJ/mol
# Density = 1.968942 g / cm^3
# Si number density = 19.734339 Si / 1000 Ang^3
#
#
#
# Elastic Constant Matrix: (Units=GPa)
#
#
# Indices 1 2 3 4 5 6 
#
# 1 79.1646 -0.3714 13.4414 0.0000 1.0684 0.0000
# 2 -0.3714 28.4436 -4.8011 0.0000 -4.2920 0.0000
# 3 13.4414 -4.8011 12.3067 0.0000 0.9412 0.0000
# 4 0.0000 0.0000 0.0000 9.2458 0.0000 8.7143
# 5 1.0684 -4.2920 0.9412 0.0000 21.8885 0.0000
# 6 0.0000 0.0000 0.0000 8.7143 0.0000 32.4228
#
#
#
# Elastic Compliance Matrix: (Units=1/GPa)
#
#
# Indices 1 2 3 4 5 6 
#
# 1 0.015732 -0.002968 -0.018298 0.000000 -0.000563 0.000000
# 2 -0.002968 0.039223 0.018003 0.000000 0.007062 0.000000
# 3 -0.018298 0.018003 0.108282 0.000000 -0.000233 0.000000
# 4 0.000000 0.000000 0.000000 0.144852 0.000000 -0.038932
# 5 -0.000563 0.007062 -0.000233 0.000000 0.047108 0.000000
# 6 0.000000 0.000000 0.000000 -0.038932 0.000000 0.041306
#
#
# Mechanical properties :
#
#
# Convention : Reuss Voigt Hill
#
# Bulk Modulus (GPa) = 6.38111 15.16141 10.77126
# Shear Modulus (GPa) = 10.98257 20.15446 15.56852
#
# Velocity S-wave (km/s) = 2.36163 3.19923 2.81179
# Velocity P-wave (km/s) = 3.26755 4.62019 4.00144
#
# Compressibility (1/GPa) = 0.15671262
#
# Stress axis : x y z
#
# Youngs Moduli (GPa) = 63.56328 25.49528 9.23511
#
# Poissons Ratio (x) = 0.07567 0.16898
# Poissons Ratio (y) = 0.18866 -0.16626
# Poissons Ratio (z) = 1.16306 -0.45900
#
# Static dielectric constant tensor:
#      x y z
#    x 1.689990 0.000000 0.009930 
#    y 0.000000 1.715240 0.000000 
#    z 0.009930 0.000000 1.654830 
# 
# From -- ./inp_files/64851.got.cif
#   From: 2010.05.17/outbox.cif.g08.bks.cpg/sg14_33_cif.got.tgz:64851.got - 2010.06.03 17:49:19.
