data_PCOD9242289
_publ_section_title
;
Structure prediction by ZEFSAII (Michael W. Deem and Ramdas Pophale) SiO2 
 PCOD9242289
Probable space group: P 21/C
;
_chemical_formula_sum "Si O2"
_cell_formula_units_Z 30
_cell_length_a 8.338233
_cell_length_b 12.766915
_cell_length_c 11.752267
_cell_angle_alpha 90.000000
_cell_angle_beta 73.937507
_cell_angle_gamma 90.000000
_cell_volume 1202.228925
_symmetry_space_group_name_H-M "P 21/C"
_symmetry_group_IT_number 14
_symmetry_cell_setting 'monoclinic'
loop_
_space_group_symop_operation_xyz
x,y,z
-x,1/2+y,1/2-z
-x,-y,-z
x,1/2-y,1/2+z
loop_
_atom_site_type_symbol
_atom_site_label
_atom_site_fract_x
_atom_site_fract_y
_atom_site_fract_z
Si Si1 0.000000 0.000000 0.000000
Si Si2 0.561075 0.243122 0.441324
Si Si3 0.934012 0.617989 0.861453
Si Si4 0.662390 0.567645 0.088657
Si Si5 0.109835 0.760871 0.013466
Si Si6 0.702858 0.579552 0.456997
Si Si7 0.698330 0.082652 0.771347
Si Si8 0.138276 0.197840 0.262993
O O1 0.201567 0.032764 0.955404
O O2 0.054592 0.880666 0.026239
O O3 0.495200 0.127023 0.432157
O O4 0.693090 0.250646 0.516836
O O5 0.406492 0.319082 0.499592
O O6 0.648643 0.300568 0.316164
O O7 0.854648 0.876683 0.847567
O O8 0.831487 0.685122 0.789516
O O9 0.807972 0.553377 0.965800
O O10 0.023560 0.701528 0.927255
O O11 0.630142 0.464087 0.167631
O O12 0.734783 0.650851 0.169073
O O13 0.037601 0.703711 0.139891
O O14 0.629788 0.489947 0.388533
O O15 0.900035 0.067131 0.724226
#
# Coordination Sequence:
#
# PCOD9242289 Si02
#       8
#     2   4   4   4   4   4   4   4
#     4  12  20  40  62  96 124 172 232 266 316 404
#     4  12  23  43  64  98 143 168 219 286 340 395
#     4  11  20  44  68  90 130 176 228 272 325 406
#     4  10  24  41  68  96 130 181 222 269 341 397
#     4  11  24  38  69  98 132 173 221 276 335 390
#     4  11  22  40  66  97 127 172 229 273 330 396
#     4  11  24  40  67  97 131 174 223 276 334 399
#     4  10  19  42  64  92 124 174 223 263 325 398
#
# _framework density 24.953652000000002
#
# number of rings (size 3 to 8) (size 9 to 14) (size 15 to 20)
#    0.000    1.067    5.333    1.600    0.000    2.133 
#    2.400    0.667    2.933    0.000    0.000    0.000 
#    0.000    0.000    0.000    0.000    0.000    0.000 
#
# Total GULP energy -167202.474689 kJ/mol
# GULP energy per Si atom -5573.415823 kJ/mol
# Density = 2.489686 g / cm^3
# Si number density = 24.953652 Si / 1000 Ang^3
#
#
#
# Elastic Constant Matrix: (Units=GPa)
#
#
# Indices 1 2 3 4 5 6 
#
# 1 68.2021 19.1492 0.0113 0.0000 -4.0547 0.0000
# 2 19.1492 79.5903 22.0825 0.0000 -5.3261 0.0000
# 3 0.0113 22.0825 88.0592 0.0000 -13.4736 0.0000
# 4 0.0000 0.0000 0.0000 36.2956 0.0000 -5.6407
# 5 -4.0547 -5.3261 -13.4736 0.0000 22.9764 0.0000
# 6 0.0000 0.0000 0.0000 -5.6407 0.0000 42.8951
#
#
#
# Elastic Compliance Matrix: (Units=1/GPa)
#
#
# Indices 1 2 3 4 5 6 
#
# 1 0.015962 -0.004056 0.001430 0.000000 0.002716 0.000000
# 2 -0.004056 0.014567 -0.003565 0.000000 0.000570 0.000000
# 3 0.001430 -0.003565 0.013361 0.000000 0.007261 0.000000
# 4 0.000000 0.000000 0.000000 0.028126 0.000000 0.003699
# 5 0.002716 0.000570 0.007261 0.000000 0.048392 0.000000
# 6 0.000000 0.000000 0.000000 0.003699 0.000000 0.023799
#
#
# Mechanical properties :
#
#
# Convention : Reuss Voigt Hill
#
# Bulk Modulus (GPa) = 31.73626 35.37085 33.55356
# Shear Modulus (GPa) = 29.92358 33.40732 31.66545
#
# Velocity S-wave (km/s) = 3.46666 3.66290 3.56613
# Velocity P-wave (km/s) = 5.36370 5.66520 5.51651
#
# Compressibility (1/GPa) = 0.03150970
#
# Stress axis : x y z
#
# Youngs Moduli (GPa) = 62.64795 68.64601 74.84564
#
# Poissons Ratio (x) = 0.27840 -0.10707
# Poissons Ratio (y) = 0.25408 0.26685
# Poissons Ratio (z) = -0.08962 0.24474
#
# Static dielectric constant tensor:
#      x y z
#    x 2.069010 0.000000 0.039020 
#    y 0.000000 1.993570 0.000000 
#    z 0.039020 0.000000 2.054920 
# 
# From -- ./inp_files/40918.got.cif
#   From: 2010.05.17/outbox.cif.g08.bks.cpg/sg14_21_cif.got.tgz:40918.got - 2010.06.03 17:49:19.
