data_PCOD9242174
_publ_section_title
;
Structure prediction by ZEFSAII (Michael W. Deem and Ramdas Pophale) SiO2 
 PCOD9242174
Probable space group: P 21/C
;
_chemical_formula_sum "Si O2"
_cell_formula_units_Z 24
_cell_length_a 11.280771
_cell_length_b 8.580956
_cell_length_c 18.692026
_cell_angle_alpha 90.000000
_cell_angle_beta 34.325174
_cell_angle_gamma 90.000000
_cell_volume 1020.291865
_symmetry_space_group_name_H-M "P 21/C"
_symmetry_group_IT_number 14
_symmetry_cell_setting 'monoclinic'
loop_
_space_group_symop_operation_xyz
x,y,z
-x,1/2+y,1/2-z
-x,-y,-z
x,1/2-y,1/2+z
loop_
_atom_site_type_symbol
_atom_site_label
_atom_site_fract_x
_atom_site_fract_y
_atom_site_fract_z
Si Si1 0.007894 0.968135 0.116930
Si Si2 0.119526 0.552246 0.111165
Si Si3 0.582246 0.334006 0.552839
Si Si4 0.941942 0.259281 0.549853
Si Si5 0.799537 0.764590 0.337456
Si Si6 0.754652 0.544764 0.172628
O O1 0.836567 0.875790 0.248527
O O2 0.225838 0.954078 0.051387
O O3 0.059790 0.868574 0.019029
O O4 0.943235 0.134687 0.119328
O O5 0.192269 0.384625 0.101683
O O6 0.997955 0.648009 0.234758
O O7 0.939670 0.542813 0.140686
O O8 0.309174 0.664536 0.994256
O O9 0.419753 0.319541 0.568451
O O10 0.450019 0.391686 0.686981
O O11 0.156455 0.159606 0.432273
O O12 0.755896 0.132364 0.644918
#
# Coordination Sequence:
#
# PCOD9242174 Si02
#       6
#     4   4   4   4   4   4
#     4  10  21  39  61  88 124 161 207 258 316 374
#     4  10  21  39  63  87 127 168 210 266 316 370
#     4  10  19  40  61  94 117 157 211 258 309 373
#     4  10  20  40  60  82 124 168 196 256 324 368
#     4  10  21  39  63  87 127 168 210 266 316 370
#     4  10  21  39  61  88 124 161 207 258 316 374
#
# _framework density 23.522680999999999
#
# number of rings (size 3 to 8) (size 9 to 14) (size 15 to 20)
#    0.000    2.000    5.000    0.500    2.333    1.333 
#    0.000   15.000    0.000    0.000    0.000    0.000 
#    0.000    0.000    0.000    0.000    0.000    0.000 
#
# Total GULP energy -134125.019529 kJ/mol
# GULP energy per Si atom -5588.542480 kJ/mol
# Density = 2.346914 g / cm^3
# Si number density = 23.522681 Si / 1000 Ang^3
#
#
#
# Elastic Constant Matrix: (Units=GPa)
#
#
# Indices 1 2 3 4 5 6 
#
# 1 65.2974 26.0434 15.6412 0.0000 -1.2760 0.0000
# 2 26.0434 97.9128 27.4883 0.0000 1.0170 0.0000
# 3 15.6412 27.4883 92.6844 0.0000 -5.0552 0.0000
# 4 0.0000 0.0000 0.0000 38.5945 0.0000 15.5698
# 5 -1.2760 1.0170 -5.0552 0.0000 29.8287 0.0000
# 6 0.0000 0.0000 0.0000 15.5698 0.0000 52.2038
#
#
#
# Elastic Compliance Matrix: (Units=1/GPa)
#
#
# Indices 1 2 3 4 5 6 
#
# 1 0.017386 -0.004163 -0.001666 0.000000 0.000603 0.000000
# 2 -0.004163 0.012164 -0.002965 0.000000 -0.001095 0.000000
# 3 -0.001666 -0.002965 0.012063 0.000000 0.002074 0.000000
# 4 0.000000 0.000000 0.000000 0.029454 0.000000 -0.008785
# 5 0.000603 -0.001095 0.002074 0.000000 0.033939 0.000000
# 6 0.000000 0.000000 0.000000 -0.008785 0.000000 0.021776
#
#
# Mechanical properties :
#
#
# Convention : Reuss Voigt Hill
#
# Bulk Modulus (GPa) = 41.62391 43.80449 42.71420
# Shear Modulus (GPa) = 32.81289 36.57350 34.69320
#
# Velocity S-wave (km/s) = 3.73895 3.94740 3.84459
# Velocity P-wave (km/s) = 6.03103 6.28001 6.15678
#
# Compressibility (1/GPa) = 0.02402465
#
# Stress axis : x y z
#
# Youngs Moduli (GPa) = 57.51809 82.20877 82.89825
#
# Poissons Ratio (x) = 0.34222 0.13815
# Poissons Ratio (y) = 0.23944 0.24578
# Poissons Ratio (z) = 0.09585 0.24374
#
# Static dielectric constant tensor:
#      x y z
#    x 1.967300 0.000000 0.030270 
#    y 0.000000 1.941780 0.000000 
#    z 0.030270 0.000000 1.855100 
# 
# From -- ./inp_files/73025.got.cif
#   From: 2010.05.17/outbox.cif.g08.bks.cpg/sg14_37_cif.got.tgz:73025.got - 2010.06.03 17:49:19.
