data_PCOD9242389
_publ_section_title
;
Structure prediction by ZEFSAII (Michael W. Deem and Ramdas Pophale) SiO2 
 PCOD9242389
Probable space group: P 21/C
;
_chemical_formula_sum "Si O2"
_cell_formula_units_Z 28
_cell_length_a 10.766204
_cell_length_b 6.921667
_cell_length_c 21.267260
_cell_angle_alpha 90.000000
_cell_angle_beta 73.239571
_cell_angle_gamma 90.000000
_cell_volume 1517.512217
_symmetry_space_group_name_H-M "P 21/C"
_symmetry_group_IT_number 14
_symmetry_cell_setting 'monoclinic'
loop_
_space_group_symop_operation_xyz
x,y,z
-x,1/2+y,1/2-z
-x,-y,-z
x,1/2-y,1/2+z
loop_
_atom_site_type_symbol
_atom_site_label
_atom_site_fract_x
_atom_site_fract_y
_atom_site_fract_z
Si Si1 0.694814 0.037005 0.437703
Si Si2 0.711847 0.119445 0.845887
Si Si3 0.642143 0.101454 0.170216
Si Si4 0.844085 0.720776 0.826884
Si Si5 0.463660 0.286024 0.809713
Si Si6 0.575922 0.103296 0.583833
Si Si7 0.130428 0.631642 0.271028
O O1 0.705068 0.258329 0.411495
O O2 0.674289 0.039197 0.514990
O O3 0.812395 0.916008 0.390977
O O4 0.566080 0.937441 0.425347
O O5 0.580495 0.181689 0.830093
O O6 0.825815 0.214959 0.788129
O O7 0.737997 0.892328 0.842633
O O8 0.523386 0.159093 0.234068
O O9 0.610812 0.187047 0.106453
O O10 0.774574 0.168214 0.183930
O O11 0.647948 0.870783 0.173590
O O12 0.843265 0.576195 0.766617
O O13 0.982565 0.825899 0.809479
O O14 0.420764 0.471562 0.854620
#
# Coordination Sequence:
#
# PCOD9242389 Si02
#       7
#     4   4   4   4   4   4   4
#     4   9  21  36  60  83 111 152 189 226 276 340
#     4   9  19  34  56  82 108 142 184 226 277 326
#     4  11  21  33  53  84 114 143 179 229 283 341
#     4  11  19  37  56  81 110 145 189 240 271 337
#     4  10  20  32  55  83 110 146 173 222 288 333
#     4  10  20  39  55  85 119 142 185 233 279 342
#     4  10  22  33  54  84 109 143 189 229 286 324
#
# _framework density 18.451253000000001
#
# number of rings (size 3 to 8) (size 9 to 14) (size 15 to 20)
#    0.000    2.000    2.857    1.714    2.000    1.143 
#    0.000    5.000    0.000    1.714    0.000    0.000 
#    0.000    0.000    0.000    0.000    0.000    0.000 
#
# Total GULP energy -156035.056540 kJ/mol
# GULP energy per Si atom -5572.680591 kJ/mol
# Density = 1.840926 g / cm^3
# Si number density = 18.451253 Si / 1000 Ang^3
#
#
#
# Elastic Constant Matrix: (Units=GPa)
#
#
# Indices 1 2 3 4 5 6 
#
# 1 31.7610 2.3015 20.7493 0.0000 -7.8790 0.0000
# 2 2.3015 71.8438 9.4729 0.0000 -2.3451 0.0000
# 3 20.7493 9.4729 70.4507 0.0000 -7.1311 0.0000
# 4 0.0000 0.0000 0.0000 16.9930 0.0000 -3.5100
# 5 -7.8790 -2.3451 -7.1311 0.0000 18.8131 0.0000
# 6 0.0000 0.0000 0.0000 -3.5100 0.0000 25.1456
#
#
#
# Elastic Compliance Matrix: (Units=1/GPa)
#
#
# Indices 1 2 3 4 5 6 
#
# 1 0.042031 0.000556 -0.011091 0.000000 0.013468 0.000000
# 2 0.000556 0.014199 -0.001945 0.000000 0.001265 0.000000
# 3 -0.011091 -0.001945 0.017915 0.000000 0.001903 0.000000
# 4 0.000000 0.000000 0.000000 0.060595 0.000000 0.008458
# 5 0.013468 0.001265 0.001903 0.000000 0.059674 0.000000
# 6 0.000000 0.000000 0.000000 0.008458 0.000000 0.040949
#
#
# Mechanical properties :
#
#
# Convention : Reuss Voigt Hill
#
# Bulk Modulus (GPa) = 20.33109 26.56697 23.44903
# Shear Modulus (GPa) = 18.06891 21.62580 19.84735
#
# Velocity S-wave (km/s) = 3.13274 3.42724 3.28329
# Velocity P-wave (km/s) = 4.91204 5.48553 5.20668
#
# Compressibility (1/GPa) = 0.04918574
#
# Stress axis : x y z
#
# Youngs Moduli (GPa) = 23.79172 70.42744 55.81948
#
# Poissons Ratio (x) = -0.03912 0.61907
# Poissons Ratio (y) = -0.01322 0.10855
# Poissons Ratio (z) = 0.26386 0.13696
#
# Static dielectric constant tensor:
#      x y z
#    x 1.640310 0.000000 -0.008800 
#    y 0.000000 1.699050 0.000000 
#    z -0.008800 0.000000 1.615280 
# 
# From -- ./inp_files/66267.got.cif
#   From: 2010.05.17/outbox.cif.g08.bks.cpg/sg14_34_cif.got.tgz:66267.got - 2010.06.03 17:49:19.
