data_PCOD9242099
_publ_section_title
;
Structure prediction by ZEFSAII (Michael W. Deem and Ramdas Pophale) SiO2 
 PCOD9242099
Probable space group: P 21/C
;
_chemical_formula_sum "Si O2"
_cell_formula_units_Z 28
_cell_length_a 10.591060
_cell_length_b 9.345171
_cell_length_c 23.889695
_cell_angle_alpha 90.000000
_cell_angle_beta 143.894443
_cell_angle_gamma 90.000000
_cell_volume 1393.333555
_symmetry_space_group_name_H-M "P 21/C"
_symmetry_group_IT_number 14
_symmetry_cell_setting 'monoclinic'
loop_
_space_group_symop_operation_xyz
x,y,z
-x,1/2+y,1/2-z
-x,-y,-z
x,1/2-y,1/2+z
loop_
_atom_site_type_symbol
_atom_site_label
_atom_site_fract_x
_atom_site_fract_y
_atom_site_fract_z
Si Si1 0.327986 0.415338 0.901523
Si Si2 0.506999 0.499445 0.315096
Si Si3 0.704185 0.600085 0.576554
Si Si4 0.633462 0.363214 0.175257
Si Si5 0.803557 0.700990 0.488227
Si Si6 0.150011 0.925222 0.774842
Si Si7 0.289650 0.750191 0.674355
O O1 0.364165 0.247068 0.918271
O O2 0.338232 0.485566 0.843984
O O3 0.083620 0.430464 0.836089
O O4 0.500000 0.500000 0.000000
O O5 0.717757 0.582317 0.413594
O O6 0.332186 0.502827 0.301979
O O7 0.570338 0.343854 0.317476
O O8 0.397492 0.598243 0.227976
O O9 0.500000 0.500000 0.500000
O O10 0.787756 0.635632 0.544925
O O11 0.863965 0.511096 0.672572
O O12 0.765879 0.238377 0.189189
O O13 0.704408 0.337500 0.264404
O O14 0.382808 0.320284 0.081690
O O15 0.043966 0.756321 0.566323
#
# Coordination Sequence:
#
# PCOD9242099 Si02
#       7
#     4   4   4   4   4   4   4
#     4  12  22  34  60  90 124 152 193 235 296 360
#     4  10  22  38  62  83 114 154 203 234 298 347
#     4  12  20  37  61  88 123 153 190 238 290 359
#     4  10  22  38  58  90 116 161 197 230 305 349
#     4  10  19  39  64  80 117 159 192 235 297 349
#     4  10  21  39  59  85 120 160 187 245 293 345
#     4  10  21  40  62  83 115 155 197 251 285 344
#
# _framework density 20.095690000000001
#
# number of rings (size 3 to 8) (size 9 to 14) (size 15 to 20)
#    0.000    1.714    4.286    3.857    0.000    1.143 
#    0.000    5.714    3.143    0.000    0.000    0.000 
#    0.000    0.000    0.000    0.000    0.000    0.000 
#
# Total GULP energy -156298.485423 kJ/mol
# GULP energy per Si atom -5582.088765 kJ/mol
# Density = 2.004995 g / cm^3
# Si number density = 20.095690 Si / 1000 Ang^3
#
#
#
# Elastic Constant Matrix: (Units=GPa)
#
#
# Indices 1 2 3 4 5 6 
#
# 1 13.4844 2.9033 14.2390 0.0000 13.1277 0.0000
# 2 2.9033 46.5130 21.8908 0.0000 6.1490 0.0000
# 3 14.2390 21.8908 139.2222 0.0000 30.1266 0.0000
# 4 0.0000 0.0000 0.0000 26.0746 0.0000 -11.1030
# 5 13.1277 6.1490 30.1266 0.0000 26.4316 0.0000
# 6 0.0000 0.0000 0.0000 -11.1030 0.0000 25.2257
#
#
#
# Elastic Compliance Matrix: (Units=1/GPa)
#
#
# Indices 1 2 3 4 5 6 
#
# 1 0.143695 0.000161 0.000969 0.000000 -0.072510 0.000000
# 2 0.000161 0.023272 -0.003301 0.000000 -0.001731 0.000000
# 3 0.000969 -0.003301 0.010009 0.000000 -0.011122 0.000000
# 4 0.000000 0.000000 0.000000 0.047197 0.000000 0.020774
# 5 -0.072510 -0.001731 -0.011122 0.000000 0.086926 0.000000
# 6 0.000000 0.000000 0.000000 0.020774 0.000000 0.048786
#
#
# Mechanical properties :
#
#
# Convention : Reuss Voigt Hill
#
# Bulk Modulus (GPa) = 5.79264 30.80954 18.30109
# Shear Modulus (GPa) = 11.85475 26.22550 19.04012
#
# Velocity S-wave (km/s) = 2.43145 3.61644 3.08144
# Velocity P-wave (km/s) = 3.28198 5.72738 4.66767
#
# Compressibility (1/GPa) = 0.17263278
#
# Stress axis : x y z
#
# Youngs Moduli (GPa) = 6.95920 42.97054 99.90611
#
# Poissons Ratio (x) = -0.00690 -0.09680
# Poissons Ratio (y) = -0.00112 0.32979
# Poissons Ratio (z) = -0.00674 0.14184
#
# Static dielectric constant tensor:
#      x y z
#    x 1.714630 0.000000 -0.011110 
#    y 0.000000 1.704740 0.000000 
#    z -0.011110 0.000000 1.766580 
# 
# From -- ./inp_files/77156.got.cif
#   From: 2010.05.17/outbox.cif.g08.bks.cpg/sg14_39_cif.got.tgz:77156.got - 2010.06.03 17:49:19.
