data_PCOD9242395
_publ_section_title
;
Structure prediction by ZEFSAII (Michael W. Deem and Ramdas Pophale) SiO2 
 PCOD9242395
Probable space group: P 21/C
;
_chemical_formula_sum "Si O2"
_cell_formula_units_Z 30
_cell_length_a 28.564102
_cell_length_b 4.835334
_cell_length_c 8.100516
_cell_angle_alpha 90.000000
_cell_angle_beta 101.582529
_cell_angle_gamma 90.000000
_cell_volume 1096.035709
_symmetry_space_group_name_H-M "P 21/C"
_symmetry_group_IT_number 14
_symmetry_cell_setting 'monoclinic'
loop_
_space_group_symop_operation_xyz
x,y,z
-x,1/2+y,1/2-z
-x,-y,-z
x,1/2-y,1/2+z
loop_
_atom_site_type_symbol
_atom_site_label
_atom_site_fract_x
_atom_site_fract_y
_atom_site_fract_z
Si Si1 0.106775 0.712826 0.373821
Si Si2 0.500000 0.000000 0.500000
Si Si3 0.765348 0.439925 0.308734
Si Si4 0.034559 0.761414 0.063868
Si Si5 0.569415 0.597496 0.347104
Si Si6 0.705546 0.885406 0.467079
Si Si7 0.167396 0.436312 0.134466
Si Si8 0.363034 0.445739 0.344648
O O1 0.087407 0.621746 0.538821
O O2 0.139067 0.526961 0.279297
O O3 0.135179 0.984431 0.453858
O O4 0.053050 0.738880 0.264279
O O5 0.537791 0.777404 0.450468
O O6 0.534629 0.051306 0.693688
O O7 0.731174 0.612763 0.409138
O O8 0.740993 0.457082 0.113085
O O9 0.785605 0.132801 0.343812
O O10 0.812879 0.629562 0.346050
O O11 0.000000 0.500000 0.000000
O O12 0.000000 0.000000 0.000000
O O13 0.602872 0.791918 0.260509
O O14 0.602726 0.409542 0.493725
O O15 0.679026 0.062360 0.303720
O O16 0.665360 0.773881 0.564478
#
# Coordination Sequence:
#
# PCOD9242395 Si02
#       8
#     4   2   4   4   4   4   4   4
#     4  10  24  40  62  87 121 157 197 250 310 370
#     4  10  20  32  56  86 112 164 212 256 328 396
#     4  11  22  38  62  89 122 160 209 258 311 386
#     4  11  24  41  62  87 116 155 201 248 301 368
#     4   9  18  34  58  84 123 165 208 266 328 388
#     4   9  18  34  60  83 108 156 211 258 320 380
#     4  11  24  40  60  91 123 159 201 253 314 374
#     4   8  16  33  58  82 113 164 205 253 324 386
#
# _framework density 27.371372000000001
#
# number of rings (size 3 to 8) (size 9 to 14) (size 15 to 20)
#    0.000    2.133    0.000    2.400    0.000    8.533 
#    0.000    0.000    0.000   89.600    0.000    0.000 
#    0.000    0.000    0.000    0.000    0.000    0.000 
#
# Total GULP energy -167004.934293 kJ/mol
# GULP energy per Si atom -5566.831143 kJ/mol
# Density = 2.730907 g / cm^3
# Si number density = 27.371372 Si / 1000 Ang^3
#
#
#
# Elastic Constant Matrix: (Units=GPa)
#
#
# Indices 1 2 3 4 5 6 
#
# 1 126.1658 27.0345 43.9460 0.0000 -0.8655 0.0000
# 2 27.0345 71.1325 36.7547 0.0000 3.3710 0.0000
# 3 43.9460 36.7547 157.9274 0.0000 56.5240 0.0000
# 4 0.0000 0.0000 0.0000 20.9154 0.0000 -12.3291
# 5 -0.8655 3.3710 56.5240 0.0000 81.4993 0.0000
# 6 0.0000 0.0000 0.0000 -12.3291 0.0000 18.6566
#
#
#
# Elastic Compliance Matrix: (Units=1/GPa)
#
#
# Indices 1 2 3 4 5 6 
#
# 1 0.009420 -0.002186 -0.002901 0.000000 0.002202 0.000000
# 2 -0.002186 0.016896 -0.004078 0.000000 0.002106 0.000000
# 3 -0.002901 -0.004078 0.010693 0.000000 -0.007279 0.000000
# 4 0.000000 0.000000 0.000000 0.078322 0.000000 0.051758
# 5 0.002202 0.002106 -0.007279 0.000000 0.017254 0.000000
# 6 0.000000 0.000000 0.000000 0.051758 0.000000 0.087804
#
#
# Mechanical properties :
#
#
# Convention : Reuss Voigt Hill
#
# Bulk Modulus (GPa) = 53.53095 63.41066 58.47080
# Shear Modulus (GPa) = 20.41267 40.71361 30.56314
#
# Velocity S-wave (km/s) = 2.73384 3.86093 3.34520
# Velocity P-wave (km/s) = 5.43736 6.56451 6.02734
#
# Compressibility (1/GPa) = 0.01868078
#
# Stress axis : x y z
#
# Youngs Moduli (GPa) = 106.15788 59.18481 93.51597
#
# Poissons Ratio (x) = 0.12936 0.27127
# Poissons Ratio (y) = 0.23202 0.38135
# Poissons Ratio (z) = 0.30795 0.24135
#
# Static dielectric constant tensor:
#      x y z
#    x 2.114180 0.000000 -0.003620 
#    y 0.000000 2.089860 0.000000 
#    z -0.003620 0.000000 2.225030 
# 
# From -- ./inp_files/19856.got.cif
#   From: 2010.05.17/outbox.cif.g08.bks.cpg/sg14_10_cif.got.tgz:19856.got - 2010.06.03 17:49:19.
