data_PCOD9242683
_publ_section_title
;
Structure prediction by ZEFSAII (Michael W. Deem and Ramdas Pophale) SiO2 
 PCOD9242683
Probable space group: P 21/C
;
_chemical_formula_sum "Si O2"
_cell_formula_units_Z 32
_cell_length_a 9.344498
_cell_length_b 26.712130
_cell_length_c 5.377432
_cell_angle_alpha 90.000000
_cell_angle_beta 75.265497
_cell_angle_gamma 90.000000
_cell_volume 1298.127759
_symmetry_space_group_name_H-M "P 21/C"
_symmetry_group_IT_number 14
_symmetry_cell_setting 'monoclinic'
loop_
_space_group_symop_operation_xyz
x,y,z
-x,1/2+y,1/2-z
-x,-y,-z
x,1/2-y,1/2+z
loop_
_atom_site_type_symbol
_atom_site_label
_atom_site_fract_x
_atom_site_fract_y
_atom_site_fract_z
Si Si1 0.099784 0.044337 0.056101
Si Si2 0.218069 0.390692 0.884105
Si Si3 0.714521 0.328726 0.679477
Si Si4 0.470485 0.137010 0.898054
Si Si5 0.476679 0.222767 0.545878
Si Si6 0.972427 0.364196 0.291165
Si Si7 0.336453 0.481090 0.113392
Si Si8 0.275882 0.582842 0.933558
O O1 0.046851 0.093277 0.928346
O O2 0.265163 0.025281 0.916025
O O3 0.105961 0.066551 0.326655
O O4 0.000000 0.000000 0.000000
O O5 0.324496 0.371007 0.621827
O O6 0.318220 0.426057 0.009975
O O7 0.110893 0.349851 0.055626
O O8 0.590601 0.332244 0.514973
O O9 0.878213 0.324378 0.492427
O O10 0.652243 0.287576 0.902187
O O11 0.714635 0.382022 0.825179
O O12 0.433530 0.168043 0.665184
O O13 0.567498 0.089077 0.778771
O O14 0.426202 0.244433 0.304800
O O15 0.845743 0.391348 0.185424
O O16 0.245295 0.526040 0.020337
O O17 0.500000 0.500000 0.000000
#
# Coordination Sequence:
#
# PCOD9242683 Si02
#       8
#     4   4   4   4   4   4   4   4
#     4  11  22  36  53  78 120 174 226 273 315 375
#     4  11  23  37  56  88 127 179 220 271 330 388
#     4  10  20  38  65  93 124 160 209 268 326 393
#     4  10  22  38  62  94 127 165 213 269 330 397
#     4  11  22  42  70 105 130 161 206 265 328 404
#     4  10  21  36  56  84 119 164 211 261 320 377
#     4  11  22  34  52  81 122 167 225 275 319 365
#     4  10  20  35  56  84 119 167 220 277 320 366
#
# _framework density 24.650886
#
# number of rings (size 3 to 8) (size 9 to 14) (size 15 to 20)
#    0.000    1.500    1.250    4.500    0.000    9.000 
#    0.000    0.000    0.000    1.500    0.000    0.000 
#    0.000    0.000    0.000    0.000    0.000    0.000 
#
# Total GULP energy -178601.492037 kJ/mol
# GULP energy per Si atom -5581.296626 kJ/mol
# Density = 2.459478 g / cm^3
# Si number density = 24.650886 Si / 1000 Ang^3
#
#
#
# Elastic Constant Matrix: (Units=GPa)
#
#
# Indices 1 2 3 4 5 6 
#
# 1 97.5569 -1.3278 30.7184 0.0000 -20.6938 0.0000
# 2 -1.3278 49.8573 13.4271 0.0000 7.8294 0.0000
# 3 30.7184 13.4271 107.7508 0.0000 -24.4224 0.0000
# 4 0.0000 0.0000 0.0000 40.2148 0.0000 2.6860
# 5 -20.6938 7.8294 -24.4224 0.0000 54.1191 0.0000
# 6 0.0000 0.0000 0.0000 2.6860 0.0000 17.9887
#
#
#
# Elastic Compliance Matrix: (Units=1/GPa)
#
#
# Indices 1 2 3 4 5 6 
#
# 1 0.011789 0.000537 -0.002700 0.000000 0.003212 0.000000
# 2 0.000537 0.021882 -0.003955 0.000000 -0.004745 0.000000
# 3 -0.002700 -0.003955 0.011628 0.000000 0.004787 0.000000
# 4 0.000000 0.000000 0.000000 0.025117 0.000000 -0.003750
# 5 0.003212 -0.004745 0.004787 0.000000 0.022553 0.000000
# 6 0.000000 0.000000 0.000000 -0.003750 0.000000 0.056151
#
#
# Mechanical properties :
#
#
# Convention : Reuss Voigt Hill
#
# Bulk Modulus (GPa) = 30.24578 37.86672 34.05625
# Shear Modulus (GPa) = 29.00610 36.62100 32.81355
#
# Velocity S-wave (km/s) = 3.43399 3.85851 3.65242
# Velocity P-wave (km/s) = 5.29333 5.93678 5.62427
#
# Compressibility (1/GPa) = 0.03306246
#
# Stress axis : x y z
#
# Youngs Moduli (GPa) = 84.82383 45.69982 85.99686
#
# Poissons Ratio (x) = -0.02453 0.23218
# Poissons Ratio (y) = -0.04552 0.34015
# Poissons Ratio (z) = 0.22901 0.18076
#
# Static dielectric constant tensor:
#      x y z
#    x 2.053470 0.000000 0.030660 
#    y 0.000000 2.016730 0.000000 
#    z 0.030660 0.000000 2.067290 
# 
# From -- ./inp_files/2225.got.cif
#   From: 2010.05.17/outbox.cif.g08.bks.cpg/sg14_2_cif.got.tgz:2225.got - 2010.06.03 17:49:19.
