data_PCOD9242232
_publ_section_title
;
Structure prediction by ZEFSAII (Michael W. Deem and Ramdas Pophale) SiO2 
 PCOD9242232
Probable space group: P 21/C
;
_chemical_formula_sum "Si O2"
_cell_formula_units_Z 28
_cell_length_a 13.651884
_cell_length_b 9.692662
_cell_length_c 8.551780
_cell_angle_alpha 90.000000
_cell_angle_beta 62.950595
_cell_angle_gamma 90.000000
_cell_volume 1007.817858
_symmetry_space_group_name_H-M "P 21/C"
_symmetry_group_IT_number 14
_symmetry_cell_setting 'monoclinic'
loop_
_space_group_symop_operation_xyz
x,y,z
-x,1/2+y,1/2-z
-x,-y,-z
x,1/2-y,1/2+z
loop_
_atom_site_type_symbol
_atom_site_label
_atom_site_fract_x
_atom_site_fract_y
_atom_site_fract_z
Si Si1 0.419182 0.516729 0.877388
Si Si2 0.077181 0.331420 0.556086
Si Si3 0.779897 0.363788 0.304168
Si Si4 0.356079 0.391359 0.598948
Si Si5 0.438063 0.782254 0.602935
Si Si6 0.923054 0.169230 0.427158
Si Si7 0.215785 0.133481 0.684267
O O1 0.524921 0.424911 0.846637
O O2 0.307304 0.467756 0.048054
O O3 0.397265 0.471727 0.718835
O O4 0.439182 0.672871 0.917275
O O5 0.142806 0.210991 0.603992
O O6 0.148996 0.421042 0.382559
O O7 0.997012 0.257240 0.491447
O O8 0.003893 0.404793 0.743784
O O9 0.719895 0.494359 0.427931
O O10 0.684650 0.271310 0.292442
O O11 0.848007 0.270073 0.374937
O O12 0.851136 0.416424 0.103431
O O13 0.460622 0.321585 0.443365
O O14 0.283164 0.263198 0.703385
#
# Coordination Sequence:
#
# PCOD9242232 Si02
#       7
#     4   4   4   4   4   4   4
#     4  10  22  41  65 100 133 178 220 279 339 401
#     4   9  18  40  69  95 137 178 225 283 327 406
#     4  11  22  43  65  93 136 178 224 279 336 406
#     4  11  23  39  67 101 128 179 226 277 338 407
#     4  10  24  42  63  97 136 175 223 277 340 406
#     4   9  21  39  68  95 136 181 225 280 340 395
#     4  10  19  40  69  98 137 175 227 273 335 399
#
# _framework density 27.782796999999999
#
# number of rings (size 3 to 8) (size 9 to 14) (size 15 to 20)
#    0.000    2.000    1.429    1.286    4.000    0.000 
#    2.571    7.143   12.571    0.000    0.000    0.000 
#    0.000    0.000    0.000    0.000    0.000    0.000 
#
# Total GULP energy -156735.059693 kJ/mol
# GULP energy per Si atom -5597.680703 kJ/mol
# Density = 2.771956 g / cm^3
# Si number density = 27.782797 Si / 1000 Ang^3
#
#
#
# Elastic Constant Matrix: (Units=GPa)
#
#
# Indices 1 2 3 4 5 6 
#
# 1 103.6944 -5.3741 18.2982 0.0000 10.6239 0.0000
# 2 -5.3741 61.1724 0.8523 0.0000 -10.6619 0.0000
# 3 18.2982 0.8523 151.1552 0.0000 -17.0674 0.0000
# 4 0.0000 0.0000 0.0000 10.8684 0.0000 5.2264
# 5 10.6239 -10.6619 -17.0674 0.0000 39.5660 0.0000
# 6 0.0000 0.0000 0.0000 5.2264 0.0000 38.1943
#
#
#
# Elastic Compliance Matrix: (Units=1/GPa)
#
#
# Indices 1 2 3 4 5 6 
#
# 1 0.010295 0.000339 -0.001629 0.000000 -0.003376 0.000000
# 2 0.000339 0.017193 0.000394 0.000000 0.004712 0.000000
# 3 -0.001629 0.000394 0.007224 0.000000 0.003660 0.000000
# 4 0.000000 0.000000 0.000000 0.098491 0.000000 -0.013477
# 5 -0.003376 0.004712 0.003660 0.000000 0.029029 0.000000
# 6 0.000000 0.000000 0.000000 -0.013477 0.000000 0.028026
#
#
# Mechanical properties :
#
#
# Convention : Reuss Voigt Hill
#
# Bulk Modulus (GPa) = 30.37809 38.17497 34.27653
# Shear Modulus (GPa) = 24.62772 37.87545 31.25159
#
# Velocity S-wave (km/s) = 2.98054 3.69625 3.35752
# Velocity P-wave (km/s) = 4.77522 5.65568 5.23400
#
# Compressibility (1/GPa) = 0.03291847
#
# Stress axis : x y z
#
# Youngs Moduli (GPa) = 97.13783 58.16395 138.42794
#
# Poissons Ratio (x) = -0.01970 0.22554
# Poissons Ratio (y) = -0.03290 -0.05455
# Poissons Ratio (z) = 0.15827 -0.02292
#
# Static dielectric constant tensor:
#      x y z
#    x 2.223540 0.000000 -0.010390 
#    y 0.000000 2.202560 0.000000 
#    z -0.010390 0.000000 2.306430 
# 
# From -- ./inp_files/15690.got.cif
#   From: 2010.05.17/outbox.cif.g08.bks.cpg/sg14_8_cif.got.tgz:15690.got - 2010.06.03 17:49:19.
