data_PCOD9242981
_publ_section_title
;
Structure prediction by ZEFSAII (Michael W. Deem and Ramdas Pophale) SiO2 
 PCOD9242981
Probable space group: P 21/C
;
_chemical_formula_sum "Si O2"
_cell_formula_units_Z 32
_cell_length_a 7.868788
_cell_length_b 33.035545
_cell_length_c 5.104046
_cell_angle_alpha 90.000000
_cell_angle_beta 94.085590
_cell_angle_gamma 90.000000
_cell_volume 1323.423486
_symmetry_space_group_name_H-M "P 21/C"
_symmetry_group_IT_number 14
_symmetry_cell_setting 'monoclinic'
loop_
_space_group_symop_operation_xyz
x,y,z
-x,1/2+y,1/2-z
-x,-y,-z
x,1/2-y,1/2+z
loop_
_atom_site_type_symbol
_atom_site_label
_atom_site_fract_x
_atom_site_fract_y
_atom_site_fract_z
Si Si1 0.964010 0.380539 0.292412
Si Si2 0.481055 0.906066 0.139978
Si Si3 0.800504 0.724180 0.228062
Si Si4 0.278498 0.138694 0.502030
Si Si5 0.213584 0.773598 0.769619
Si Si6 0.747034 0.138666 0.266440
Si Si7 0.189636 0.064914 0.101829
Si Si8 0.616008 0.489831 0.260755
O O1 0.845310 0.379559 0.024516
O O2 0.135710 0.357772 0.216095
O O3 0.872540 0.359235 0.525614
O O4 0.022205 0.423513 0.421587
O O5 0.539743 0.871755 0.348152
O O6 0.403349 0.888094 0.867894
O O7 0.658450 0.927099 0.086208
O O8 0.360252 0.941628 0.231048
O O9 0.750809 0.743876 0.497262
O O10 0.727891 0.679716 0.162449
O O11 0.007545 0.721130 0.233055
O O12 0.217822 0.099513 0.325977
O O13 0.258721 0.738882 0.567687
O O14 0.297628 0.815096 0.687445
O O15 0.222384 0.019990 0.213635
O O16 0.500000 0.500000 0.500000
O O17 0.500000 0.500000 0.000000
#
# Coordination Sequence:
#
# PCOD9242981 Si02
#       8
#     4   4   4   4   4   4   4   4
#     4  11  23  38  65  90 125 165 207 256 305 374
#     4  10  25  39  66  95 129 165 205 259 315 380
#     4  10  22  34  58  89 118 151 208 263 299 354
#     4  11  21  41  65  93 120 164 210 254 312 363
#     4  10  20  36  59  85 116 160 210 252 299 369
#     4  12  24  41  61  94 129 165 204 256 321 376
#     4  10  21  41  70  94 121 166 218 259 303 371
#     4  10  20  39  64  95 122 163 213 256 300 373
#
# _framework density 24.179711000000001
#
# number of rings (size 3 to 8) (size 9 to 14) (size 15 to 20)
#    0.000    1.500    3.750    0.750    8.750    0.000 
#    0.000    2.500    0.000    0.000    0.000    0.000 
#    0.000    0.000    0.000    0.000    0.000    0.000 
#
# Total GULP energy -179012.629229 kJ/mol
# GULP energy per Si atom -5594.144663 kJ/mol
# Density = 2.412468 g / cm^3
# Si number density = 24.179711 Si / 1000 Ang^3
#
#
#
# Elastic Constant Matrix: (Units=GPa)
#
#
# Indices 1 2 3 4 5 6 
#
# 1 52.3810 15.3092 15.9216 0.0000 7.1093 0.0000
# 2 15.3092 79.3397 23.0139 0.0000 11.0642 0.0000
# 3 15.9216 23.0139 149.1611 0.0000 14.6969 0.0000
# 4 0.0000 0.0000 0.0000 34.5567 0.0000 1.0819
# 5 7.1093 11.0642 14.6969 0.0000 38.8656 0.0000
# 6 0.0000 0.0000 0.0000 1.0819 0.0000 19.7496
#
#
#
# Elastic Compliance Matrix: (Units=1/GPa)
#
#
# Indices 1 2 3 4 5 6 
#
# 1 0.020811 -0.003261 -0.001490 0.000000 -0.002315 0.000000
# 2 -0.003261 0.014076 -0.001545 0.000000 -0.002826 0.000000
# 3 -0.001490 -0.001545 0.007304 0.000000 -0.002049 0.000000
# 4 0.000000 0.000000 0.000000 0.028988 0.000000 -0.001588
# 5 -0.002315 -0.002826 -0.002049 0.000000 0.027733 0.000000
# 6 0.000000 0.000000 0.000000 -0.001588 0.000000 0.050721
#
#
# Mechanical properties :
#
#
# Convention : Reuss Voigt Hill
#
# Bulk Modulus (GPa) = 33.78586 43.26348 38.52467
# Shear Modulus (GPa) = 29.05470 33.74353 31.39911
#
# Velocity S-wave (km/s) = 3.47019 3.73973 3.60748
# Velocity P-wave (km/s) = 5.48265 6.04804 5.77227
#
# Compressibility (1/GPa) = 0.02959818
#
# Stress axis : x y z
#
# Youngs Moduli (GPa) = 48.05146 71.04532 136.91955
#
# Poissons Ratio (x) = 0.23165 0.20404
# Poissons Ratio (y) = 0.15667 0.21157
# Poissons Ratio (z) = 0.07161 0.10978
#
# Static dielectric constant tensor:
#      x y z
#    x 1.991500 0.000000 -0.012530 
#    y 0.000000 1.960270 0.000000 
#    z -0.012530 0.000000 1.908890 
# 
# From -- ./inp_files/2256.got.cif
#   From: 2010.05.17/outbox.cif.g08.bks.cpg/sg14_2_cif.got.tgz:2256.got - 2010.06.03 17:49:19.
