data_PCOD9242790
_publ_section_title
;
Structure prediction by ZEFSAII (Michael W. Deem and Ramdas Pophale) SiO2 
 PCOD9242790
Probable space group: P 21/C
;
_chemical_formula_sum "Si O2"
_cell_formula_units_Z 20
_cell_length_a 11.033176
_cell_length_b 5.054187
_cell_length_c 23.052225
_cell_angle_alpha 90.000000
_cell_angle_beta 146.954117
_cell_angle_gamma 90.000000
_cell_volume 700.984706
_symmetry_space_group_name_H-M "P 21/C"
_symmetry_group_IT_number 14
_symmetry_cell_setting 'monoclinic'
loop_
_space_group_symop_operation_xyz
x,y,z
-x,1/2+y,1/2-z
-x,-y,-z
x,1/2-y,1/2+z
loop_
_atom_site_type_symbol
_atom_site_label
_atom_site_fract_x
_atom_site_fract_y
_atom_site_fract_z
Si Si1 0.149169 0.474392 0.386909
Si Si2 0.714126 0.712169 0.377471
Si Si3 0.290593 0.790246 0.765514
Si Si4 0.272535 0.194038 0.333248
Si Si5 0.860910 0.211417 0.508750
O O1 0.310367 0.293912 0.413520
O O2 0.228380 0.686734 0.465464
O O3 0.967325 0.285422 0.345771
O O4 0.994967 0.636171 0.279589
O O5 0.448062 0.735549 0.272717
O O6 0.776427 0.429957 0.429226
O O7 0.868418 0.764324 0.383761
O O8 0.795449 0.932448 0.456202
O O9 0.370036 0.572302 0.845205
O O10 0.317711 0.069912 0.806867
#
# Coordination Sequence:
#
# PCOD9242790 Si02
#       5
#     4   4   4   4   4
#     4  10  21  38  62  88 114 161 197 239 302 356
#     4  10  22  43  55  86 121 154 198 247 294 349
#     4  10  20  37  60  84 121 150 192 258 285 346
#     4  10  20  35  61  84 122 148 193 252 294 347
#     4  10  23  39  63  79 119 164 193 239 303 360
#
# _framework density 28.531289999999998
#
# number of rings (size 3 to 8) (size 9 to 14) (size 15 to 20)
#    1.200    0.800    2.000    1.200    2.800    0.000 
#    3.600    6.000    0.000    0.000    0.000    0.000 
#    0.000    0.000    0.000    0.000    0.000    0.000 
#
# Total GULP energy -112069.380156 kJ/mol
# GULP energy per Si atom -5603.469008 kJ/mol
# Density = 2.846635 g / cm^3
# Si number density = 28.531290 Si / 1000 Ang^3
#
#
#
# Elastic Constant Matrix: (Units=GPa)
#
#
# Indices 1 2 3 4 5 6 
#
# 1 169.8109 27.6644 26.1473 0.0000 8.1622 0.0000
# 2 27.6644 151.4457 39.2090 0.0000 -7.5020 0.0000
# 3 26.1473 39.2090 67.6846 0.0000 -15.0784 0.0000
# 4 0.0000 0.0000 0.0000 26.3072 0.0000 -7.4913
# 5 8.1622 -7.5020 -15.0784 0.0000 42.6360 0.0000
# 6 0.0000 0.0000 0.0000 -7.4913 0.0000 39.5410
#
#
#
# Elastic Compliance Matrix: (Units=1/GPa)
#
#
# Indices 1 2 3 4 5 6 
#
# 1 0.006511 -0.000611 -0.002673 0.000000 -0.002299 0.000000
# 2 -0.000611 0.007828 -0.004305 0.000000 -0.000028 0.000000
# 3 -0.002673 -0.004305 0.019807 0.000000 0.006759 0.000000
# 4 0.000000 0.000000 0.000000 0.040180 0.000000 0.007612
# 5 -0.002299 -0.000028 0.006759 0.000000 0.026280 0.000000
# 6 0.000000 0.000000 0.000000 0.007612 0.000000 0.026732
#
#
# Mechanical properties :
#
#
# Convention : Reuss Voigt Hill
#
# Bulk Modulus (GPa) = 52.72422 63.88694 58.30558
# Shear Modulus (GPa) = 33.59359 41.42489 37.50924
#
# Velocity S-wave (km/s) = 3.43509 3.81453 3.62977
# Velocity P-wave (km/s) = 5.85258 6.46849 6.16823
#
# Compressibility (1/GPa) = 0.01896662
#
# Stress axis : x y z
#
# Youngs Moduli (GPa) = 153.59517 127.75075 50.48824
#
# Poissons Ratio (x) = 0.07806 0.13497
# Poissons Ratio (y) = 0.09385 0.21734
# Poissons Ratio (z) = 0.41062 0.54993
#
# Static dielectric constant tensor:
#      x y z
#    x 2.242520 0.000000 0.105240 
#    y 0.000000 2.173250 0.000000 
#    z 0.105240 0.000000 2.281810 
# 
# From -- ./inp_files/60859.got.cif
#   From: 2010.05.17/outbox.cif.g08.bks.cpg/sg14_31_cif.got.tgz:60859.got - 2010.06.03 17:49:19.
