data_PCOD9242639
_publ_section_title
;
Structure prediction by ZEFSAII (Michael W. Deem and Ramdas Pophale) SiO2 
 PCOD9242639
Probable space group: P 21/C
;
_chemical_formula_sum "Si O2"
_cell_formula_units_Z 28
_cell_length_a 12.198036
_cell_length_b 4.922765
_cell_length_c 26.994636
_cell_angle_alpha 90.000000
_cell_angle_beta 49.845871
_cell_angle_gamma 90.000000
_cell_volume 1238.932011
_symmetry_space_group_name_H-M "P 21/C"
_symmetry_group_IT_number 14
_symmetry_cell_setting 'monoclinic'
loop_
_space_group_symop_operation_xyz
x,y,z
-x,1/2+y,1/2-z
-x,-y,-z
x,1/2-y,1/2+z
loop_
_atom_site_type_symbol
_atom_site_label
_atom_site_fract_x
_atom_site_fract_y
_atom_site_fract_z
Si Si1 0.450995 0.478422 0.404010
Si Si2 0.175306 0.710988 0.968882
Si Si3 0.866376 0.715421 0.585677
Si Si4 0.644156 0.961615 0.356437
Si Si5 0.207433 0.214529 0.283143
Si Si6 0.465719 0.619452 0.728487
Si Si7 0.951724 0.044190 0.294329
O O1 0.301299 0.627188 0.460691
O O2 0.515520 0.179678 0.395033
O O3 0.448707 0.483970 0.344443
O O4 0.573426 0.675299 0.389939
O O5 0.209090 0.427616 0.930835
O O6 0.130579 0.919164 0.938741
O O7 0.029817 0.674760 0.042470
O O8 0.798047 0.685586 0.659272
O O9 0.780713 0.047215 0.349150
O O10 0.715092 0.897279 0.281486
O O11 0.303159 0.942495 0.259843
O O12 0.048811 0.145459 0.310892
O O13 0.498856 0.921205 0.736020
O O14 0.997377 0.244810 0.236245
#
# Coordination Sequence:
#
# PCOD9242639 Si02
#       7
#     4   4   4   4   4   4   4
#     4  11  20  34  52  73 106 142 173 211 272 324
#     4  10  21  37  55  79 111 149 185 224 262 318
#     4  10  21  36  56  81 109 145 191 223 261 318
#     4  10  21  34  53  79 103 136 175 220 273 324
#     4  10  21  35  55  78 107 140 176 221 271 317
#     4  11  20  29  44  72 103 129 162 205 257 314
#     4  10  20  35  53  76 107 137 176 222 272 329
#
# _framework density 22.600113
#
# number of rings (size 3 to 8) (size 9 to 14) (size 15 to 20)
#    0.000    1.714    0.000    6.857    0.000    5.714 
#    0.000    0.000    0.000    1.714    0.000    0.000 
#    0.000    0.000    0.000    0.000    0.000    0.000 
#
# Total GULP energy -156277.591492 kJ/mol
# GULP energy per Si atom -5581.342553 kJ/mol
# Density = 2.254867 g / cm^3
# Si number density = 22.600113 Si / 1000 Ang^3
#
#
#
# Elastic Constant Matrix: (Units=GPa)
#
#
# Indices 1 2 3 4 5 6 
#
# 1 88.3774 8.1924 -4.8971 0.0000 -24.8742 0.0000
# 2 8.1924 101.2247 3.4405 0.0000 -2.3203 0.0000
# 3 -4.8971 3.4405 39.2241 0.0000 -18.3516 0.0000
# 4 0.0000 0.0000 0.0000 19.3368 0.0000 -10.8497
# 5 -24.8742 -2.3203 -18.3516 0.0000 25.3868 0.0000
# 6 0.0000 0.0000 0.0000 -10.8497 0.0000 31.6566
#
#
#
# Elastic Compliance Matrix: (Units=1/GPa)
#
#
# Indices 1 2 3 4 5 6 
#
# 1 0.023101 -0.001711 0.020476 0.000000 0.037280 0.000000
# 2 -0.001711 0.010038 -0.002190 0.000000 -0.002342 0.000000
# 3 0.020476 -0.002190 0.056719 0.000000 0.060863 0.000000
# 4 0.000000 0.000000 0.000000 0.064028 0.000000 0.021944
# 5 0.037280 -0.002342 0.060863 0.000000 0.119700 0.000000
# 6 0.000000 0.000000 0.000000 0.021944 0.000000 0.039110
#
#
# Mechanical properties :
#
#
# Convention : Reuss Voigt Hill
#
# Bulk Modulus (GPa) = 8.12953 26.92199 17.52576
# Shear Modulus (GPa) = 15.59827 30.08207 22.84017
#
# Velocity S-wave (km/s) = 2.62999 3.65233 3.18248
# Velocity P-wave (km/s) = 3.58153 5.45199 4.61257
#
# Compressibility (1/GPa) = 0.12300835
#
# Stress axis : x y z
#
# Youngs Moduli (GPa) = 43.28842 99.61908 17.63080
#
# Poissons Ratio (x) = 0.17045 -0.36101
# Poissons Ratio (y) = 0.07407 0.03861
# Poissons Ratio (z) = -0.88638 0.21816
#
# Static dielectric constant tensor:
#      x y z
#    x 1.896490 0.000000 -0.092250 
#    y 0.000000 1.821090 0.000000 
#    z -0.092250 0.000000 1.907230 
# 
# From -- ./inp_files/79769.got.cif
#   From: 2010.05.17/outbox.cif.g08.bks.cpg/sg14_40_cif.got.tgz:79769.got - 2010.06.03 17:49:19.
