data_PCOD9242598
_publ_section_title
;
Structure prediction by ZEFSAII (Michael W. Deem and Ramdas Pophale) SiO2 
 PCOD9242598
Probable space group: P 21/C
;
_chemical_formula_sum "Si O2"
_cell_formula_units_Z 32
_cell_length_a 12.361944
_cell_length_b 8.268329
_cell_length_c 20.166148
_cell_angle_alpha 90.000000
_cell_angle_beta 128.491499
_cell_angle_gamma 90.000000
_cell_volume 1613.329550
_symmetry_space_group_name_H-M "P 21/C"
_symmetry_group_IT_number 14
_symmetry_cell_setting 'monoclinic'
loop_
_space_group_symop_operation_xyz
x,y,z
-x,1/2+y,1/2-z
-x,-y,-z
x,1/2-y,1/2+z
loop_
_atom_site_type_symbol
_atom_site_label
_atom_site_fract_x
_atom_site_fract_y
_atom_site_fract_z
Si Si1 0.055501 0.636794 0.353538
Si Si2 0.234603 0.273909 0.292081
Si Si3 0.110575 0.714966 0.011289
Si Si4 0.694420 0.171674 0.808026
Si Si5 0.586661 0.810872 0.752586
Si Si6 0.799326 0.652398 0.934663
Si Si7 0.849647 0.733183 0.593683
Si Si8 0.137505 0.858409 0.737488
O O1 0.118840 0.735440 0.438234
O O2 0.090787 0.449100 0.379121
O O3 0.116135 0.693252 0.305760
O O4 0.890682 0.665304 0.285254
O O5 0.375654 0.242173 0.307555
O O6 0.235592 0.244321 0.371126
O O7 0.189557 0.458134 0.260119
O O8 0.188984 0.834617 0.090776
O O9 0.177523 0.539585 0.049827
O O10 0.949110 0.714229 0.967842
O O11 0.569734 0.283253 0.786103
O O12 0.762874 0.248120 0.768543
O O13 0.631183 0.996036 0.774377
O O14 0.684380 0.705593 0.838562
O O15 0.771361 0.729681 0.996074
O O16 0.984785 0.848449 0.647250
#
# Coordination Sequence:
#
# PCOD9242598 Si02
#       8
#     4   4   4   4   4   4   4   4
#     4  10  20  34  58  89 119 153 194 243 293 343
#     4  10  20  36  57  86 121 154 194 241 292 347
#     4  11  22  37  60  89 121 154 196 247 292 341
#     4  12  25  41  62  86 119 158 198 241 295 355
#     4  12  25  41  62  86 119 158 198 241 295 355
#     4  11  22  37  60  89 121 154 196 247 292 341
#     4  10  20  34  58  89 119 153 194 243 293 343
#     4  10  20  36  57  86 121 154 194 241 292 347
#
# _framework density 19.834758000000001
#
# number of rings (size 3 to 8) (size 9 to 14) (size 15 to 20)
#    0.000    1.250    2.500    4.500    0.000    4.000 
#    0.000    1.250    0.000    7.500    0.000    0.000 
#    0.000    0.000    0.000    0.000    0.000    0.000 
#
# Total GULP energy -178957.258272 kJ/mol
# GULP energy per Si atom -5592.414321 kJ/mol
# Density = 1.978961 g / cm^3
# Si number density = 19.834758 Si / 1000 Ang^3
#
#
#
# Elastic Constant Matrix: (Units=GPa)
#
#
# Indices 1 2 3 4 5 6 
#
# 1 100.6579 13.2036 28.9018 0.0000 -17.9990 0.0000
# 2 13.2036 32.5890 -1.7016 0.0000 -3.8618 0.0000
# 3 28.9018 -1.7016 48.5633 0.0000 -9.5491 0.0000
# 4 0.0000 0.0000 0.0000 31.0941 0.0000 -1.2004
# 5 -17.9990 -3.8618 -9.5491 0.0000 26.0420 0.0000
# 6 0.0000 0.0000 0.0000 -1.2004 0.0000 28.9915
#
#
#
# Elastic Compliance Matrix: (Units=1/GPa)
#
#
# Indices 1 2 3 4 5 6 
#
# 1 0.013775 -0.005232 -0.007180 0.000000 0.006112 0.000000
# 2 -0.005232 0.033433 0.004902 0.000000 0.003139 0.000000
# 3 -0.007180 0.004902 0.026084 0.000000 0.005329 0.000000
# 4 0.000000 0.000000 0.000000 0.032212 0.000000 0.001334
# 5 0.006112 0.003139 0.005329 0.000000 0.045044 0.000000
# 6 0.000000 0.000000 0.000000 0.001334 0.000000 0.034548
#
#
# Mechanical properties :
#
#
# Convention : Reuss Voigt Hill
#
# Bulk Modulus (GPa) = 17.16021 29.17978 23.16999
# Shear Modulus (GPa) = 22.77499 26.65262 24.71381
#
# Velocity S-wave (km/s) = 3.39224 3.66967 3.53368
# Velocity P-wave (km/s) = 4.90035 5.71828 5.32504
#
# Compressibility (1/GPa) = 0.05827436
#
# Stress axis : x y z
#
# Youngs Moduli (GPa) = 72.59335 29.91073 38.33733
#
# Poissons Ratio (x) = 0.15648 0.27525
# Poissons Ratio (y) = 0.37979 -0.18794
# Poissons Ratio (z) = 0.52119 -0.14663
#
# Static dielectric constant tensor:
#      x y z
#    x 1.699930 0.000000 -0.024850 
#    y 0.000000 1.716940 0.000000 
#    z -0.024850 0.000000 1.664870 
# 
# From -- ./inp_files/67051.got.cif
#   From: 2010.05.17/outbox.cif.g08.bks.cpg/sg14_34_cif.got.tgz:67051.got - 2010.06.03 17:49:19.
