data_PCOD9242281
_publ_section_title
;
Structure prediction by ZEFSAII (Michael W. Deem and Ramdas Pophale) SiO2 
 PCOD9242281
Probable space group: P 21/C
;
_chemical_formula_sum "Si O2"
_cell_formula_units_Z 24
_cell_length_a 15.516166
_cell_length_b 12.977838
_cell_length_c 11.498645
_cell_angle_alpha 90.000000
_cell_angle_beta 155.227878
_cell_angle_gamma 90.000000
_cell_volume 970.193084
_symmetry_space_group_name_H-M "P 21/C"
_symmetry_group_IT_number 14
_symmetry_cell_setting 'monoclinic'
loop_
_space_group_symop_operation_xyz
x,y,z
-x,1/2+y,1/2-z
-x,-y,-z
x,1/2-y,1/2+z
loop_
_atom_site_type_symbol
_atom_site_label
_atom_site_fract_x
_atom_site_fract_y
_atom_site_fract_z
Si Si1 0.996042 0.294870 0.149106
Si Si2 0.740279 0.816340 0.224636
Si Si3 0.762629 0.909190 0.870166
Si Si4 0.642161 0.262258 0.884332
Si Si5 0.327323 0.116687 0.608457
Si Si6 0.302383 0.560867 0.900302
O O1 0.045186 0.333617 0.079463
O O2 0.075210 0.385658 0.331028
O O3 0.154071 0.200048 0.360457
O O4 0.784527 0.253777 0.944970
O O5 0.555584 0.825037 0.906020
O O6 0.739224 0.697726 0.269444
O O7 0.689904 0.886010 0.273884
O O8 0.538667 0.929888 0.648978
O O9 0.811005 0.003931 0.844389
O O10 0.756327 0.327094 0.124817
O O11 0.542349 0.162706 0.822252
O O12 0.290021 0.012664 0.495734
#
# Coordination Sequence:
#
# PCOD9242281 Si02
#       6
#     4   4   4   4   4   4
#     4  10  21  40  58  92 126 156 200 259 303 356
#     4  10  19  42  60  85 128 164 191 257 308 361
#     4  10  20  39  67  86 122 160 210 255 297 361
#     4  11  22  39  63  94 122 159 208 249 313 363
#     4  10  22  42  61  87 129 163 201 252 310 363
#     4  11  20  40  66  91 116 167 208 248 305 361
#
# _framework density 24.737342000000002
#
# number of rings (size 3 to 8) (size 9 to 14) (size 15 to 20)
#    0.000    1.667    8.333    0.000    0.000    4.000 
#    3.000    0.833    0.000    0.000    0.000    0.000 
#    0.000    0.000    0.000    0.000    0.000    0.000 
#
# Total GULP energy -134219.777778 kJ/mol
# GULP energy per Si atom -5592.490741 kJ/mol
# Density = 2.468104 g / cm^3
# Si number density = 24.737342 Si / 1000 Ang^3
#
#
#
# Elastic Constant Matrix: (Units=GPa)
#
#
# Indices 1 2 3 4 5 6 
#
# 1 204.1039 29.4453 50.4980 0.0000 26.3145 0.0000
# 2 29.4453 59.8395 31.0076 0.0000 -1.0351 0.0000
# 3 50.4980 31.0076 52.6049 0.0000 18.3046 0.0000
# 4 0.0000 0.0000 0.0000 18.1331 0.0000 -11.8305
# 5 26.3145 -1.0351 18.3046 0.0000 51.6816 0.0000
# 6 0.0000 0.0000 0.0000 -11.8305 0.0000 28.8577
#
#
#
# Elastic Compliance Matrix: (Units=1/GPa)
#
#
# Indices 1 2 3 4 5 6 
#
# 1 0.006500 -0.000331 -0.005578 0.000000 -0.001341 0.000000
# 2 -0.000331 0.026007 -0.017395 0.000000 0.006851 0.000000
# 3 -0.005578 -0.017395 0.038495 0.000000 -0.011142 0.000000
# 4 0.000000 0.000000 0.000000 0.075284 0.000000 0.030863
# 5 -0.001341 0.006851 -0.011142 0.000000 0.024116 0.000000
# 6 0.000000 0.000000 0.000000 0.030863 0.000000 0.047306
#
#
# Mechanical properties :
#
#
# Convention : Reuss Voigt Hill
#
# Bulk Modulus (GPa) = 40.99586 59.82778 50.41182
# Shear Modulus (GPa) = 18.35221 33.44097 25.89659
#
# Velocity S-wave (km/s) = 2.72671 3.68073 3.23904
# Velocity P-wave (km/s) = 5.14992 6.50395 5.86614
#
# Compressibility (1/GPa) = 0.02439271
#
# Stress axis : x y z
#
# Youngs Moduli (GPa) = 153.84147 38.45157 25.97744
#
# Poissons Ratio (x) = 0.01274 0.14490
# Poissons Ratio (y) = 0.05097 0.45188
# Poissons Ratio (z) = 0.85814 0.66887
#
# Static dielectric constant tensor:
#      x y z
#    x 2.041100 0.000000 -0.001920 
#    y 0.000000 1.932820 0.000000 
#    z -0.001920 0.000000 1.986430 
# 
# From -- ./inp_files/32647.got.cif
#   From: 2010.05.17/outbox.cif.g08.bks.cpg/sg14_17_cif.got.tgz:32647.got - 2010.06.03 17:49:19.
