data_PCOD9242505
_publ_section_title
;
Structure prediction by ZEFSAII (Michael W. Deem and Ramdas Pophale) SiO2 
 PCOD9242505
Probable space group: P 21/C
;
_chemical_formula_sum "Si O2"
_cell_formula_units_Z 24
_cell_length_a 9.005543
_cell_length_b 15.364528
_cell_length_c 14.886451
_cell_angle_alpha 90.000000
_cell_angle_beta 40.149416
_cell_angle_gamma 90.000000
_cell_volume 1328.109718
_symmetry_space_group_name_H-M "P 21/C"
_symmetry_group_IT_number 14
_symmetry_cell_setting 'monoclinic'
loop_
_space_group_symop_operation_xyz
x,y,z
-x,1/2+y,1/2-z
-x,-y,-z
x,1/2-y,1/2+z
loop_
_atom_site_type_symbol
_atom_site_label
_atom_site_fract_x
_atom_site_fract_y
_atom_site_fract_z
Si Si1 0.369923 0.913765 0.268563
Si Si2 0.930516 0.975694 0.711730
Si Si3 0.942494 0.674314 0.056022
Si Si4 0.127622 0.956938 0.803964
Si Si5 0.125848 0.129143 0.917310
Si Si6 0.640331 0.935354 0.575142
O O1 0.623637 0.875348 0.151597
O O2 0.178667 0.846916 0.393682
O O3 0.276326 0.960443 0.222130
O O4 0.372024 0.991103 0.341484
O O5 0.928791 0.892935 0.645542
O O6 0.948708 0.947656 0.805808
O O7 0.164900 0.029963 0.582352
O O8 0.924940 0.773985 0.091595
O O9 0.739329 0.648769 0.080325
O O10 0.384156 0.928954 0.655665
O O11 0.125680 0.056956 0.838980
O O12 0.056940 0.901012 0.923376
#
# Coordination Sequence:
#
# PCOD9242505 Si02
#       6
#     4   4   4   4   4   4
#     4   8  17  34  55  73  99 140 173 207 260 310
#     4   9  17  35  58  77 101 136 179 216 251 302
#     4   9  18  34  55  75  99 136 183 215 248 302
#     4  10  20  34  53  78 112 137 166 209 272 313
#     4  10  21  34  50  77 110 142 166 209 267 317
#     4   8  16  33  57  76  98 138 173 210 253 308
#
# _framework density 18.070796999999999
#
# number of rings (size 3 to 8) (size 9 to 14) (size 15 to 20)
#    0.000    3.000    0.000    2.500    2.333    0.667 
#    6.000    0.000    0.000    0.000    0.000    0.000 
#    0.000    0.000    0.000    0.000    0.000    0.000 
#
# Total GULP energy -133701.460215 kJ/mol
# GULP energy per Si atom -5570.894176 kJ/mol
# Density = 1.802967 g / cm^3
# Si number density = 18.070797 Si / 1000 Ang^3
#
#
#
# Elastic Constant Matrix: (Units=GPa)
#
#
# Indices 1 2 3 4 5 6 
#
# 1 71.3425 14.5908 0.8175 0.0000 -1.3221 0.0000
# 2 14.5908 94.1907 16.4056 0.0000 -5.6462 0.0000
# 3 0.8175 16.4056 12.9453 0.0000 -7.8088 0.0000
# 4 0.0000 0.0000 0.0000 8.3713 0.0000 -2.6337
# 5 -1.3221 -5.6462 -7.8088 0.0000 27.5111 0.0000
# 6 0.0000 0.0000 0.0000 -2.6337 0.0000 13.0852
#
#
#
# Elastic Compliance Matrix: (Units=1/GPa)
#
#
# Indices 1 2 3 4 5 6 
#
# 1 0.014562 -0.002749 0.003193 0.000000 0.001042 0.000000
# 2 -0.002749 0.014292 -0.019606 0.000000 -0.002764 0.000000
# 3 0.003193 -0.019606 0.120127 0.000000 0.030227 0.000000
# 4 0.000000 0.000000 0.000000 0.127531 0.000000 0.025668
# 5 0.001042 -0.002764 0.030227 0.000000 0.044411 0.000000
# 6 0.000000 0.000000 0.000000 0.025668 0.000000 0.081589
#
#
# Mechanical properties :
#
#
# Convention : Reuss Voigt Hill
#
# Bulk Modulus (GPa) = 9.03696 26.90069 17.96882
# Shear Modulus (GPa) = 10.46637 19.57117 15.01877
#
# Velocity S-wave (km/s) = 2.40924 3.29451 2.88602
# Velocity P-wave (km/s) = 3.57085 5.42128 4.59028
#
# Compressibility (1/GPa) = 0.11065670
#
# Stress axis : x y z
#
# Youngs Moduli (GPa) = 68.67225 69.97018 8.32455
#
# Poissons Ratio (x) = 0.19238 -0.02658
# Poissons Ratio (y) = 0.18881 0.16321
# Poissons Ratio (z) = -0.21930 1.37182
#
# Static dielectric constant tensor:
#      x y z
#    x 1.635450 0.000000 -0.018930 
#    y 0.000000 1.606980 0.000000 
#    z -0.018930 0.000000 1.629710 
# 
# From -- ./inp_files/24818.got.cif
#   From: 2010.05.17/outbox.cif.g08.bks.cpg/sg14_13_cif.got.tgz:24818.got - 2010.06.03 17:49:19.
