data_PCOD9242142
_publ_section_title
;
Structure prediction by ZEFSAII (Michael W. Deem and Ramdas Pophale) SiO2 
 PCOD9242142
Probable space group: P 21/C
;
_chemical_formula_sum "Si O2"
_cell_formula_units_Z 28
_cell_length_a 5.144880
_cell_length_b 23.494328
_cell_length_c 9.329091
_cell_angle_alpha 90.000000
_cell_angle_beta 109.261084
_cell_angle_gamma 90.000000
_cell_volume 1064.538089
_symmetry_space_group_name_H-M "P 21/C"
_symmetry_group_IT_number 14
_symmetry_cell_setting 'monoclinic'
loop_
_space_group_symop_operation_xyz
x,y,z
-x,1/2+y,1/2-z
-x,-y,-z
x,1/2-y,1/2+z
loop_
_atom_site_type_symbol
_atom_site_label
_atom_site_fract_x
_atom_site_fract_y
_atom_site_fract_z
Si Si1 0.177317 0.995614 0.676151
Si Si2 0.393677 0.935433 0.953166
Si Si3 0.411950 0.908238 0.552039
Si Si4 0.023589 0.183746 0.542253
Si Si5 0.826241 0.273277 0.713109
Si Si6 0.289530 0.343510 0.673620
Si Si7 0.543433 0.893671 0.259754
O O1 0.138897 0.951088 0.800035
O O2 0.441276 0.964965 0.649979
O O3 0.224775 0.059109 0.738218
O O4 0.000000 0.000000 0.500000
O O5 0.617304 0.894281 0.915841
O O6 0.336326 0.902829 0.091250
O O7 0.500000 0.000000 0.000000
O O8 0.636840 0.865319 0.653338
O O9 0.427145 0.916061 0.387715
O O10 0.128931 0.874687 0.531742
O O11 0.850943 0.213372 0.638292
O O12 0.986983 0.223220 0.394933
O O13 0.306550 0.164839 0.671348
O O14 0.991452 0.316225 0.636889
O O15 0.516211 0.294687 0.679527
#
# Coordination Sequence:
#
# PCOD9242142 Si02
#       7
#     4   4   4   4   4   4   4
#     4  10  19  39  67  94 137 178 222 280 350 425
#     4   9  22  41  66 105 139 176 228 288 352 415
#     4  10  21  40  65  95 126 176 230 275 344 417
#     4  11  25  42  65  95 129 176 229 286 342 411
#     4  11  26  43  68  96 131 182 233 286 346 411
#     4  10  23  46  67  95 137 180 229 283 348 420
#     4  11  21  40  66  94 135 171 229 284 344 410
#
# _framework density 26.302486999999999
#
# number of rings (size 3 to 8) (size 9 to 14) (size 15 to 20)
#    0.000    1.714    2.857    0.429    4.000    1.143 
#    0.000    1.429    0.000    0.000    0.000    0.000 
#    0.000    0.000    0.000    0.000    0.000    0.000 
#
# Total GULP energy -156190.737848 kJ/mol
# GULP energy per Si atom -5578.240637 kJ/mol
# Density = 2.624262 g / cm^3
# Si number density = 26.302487 Si / 1000 Ang^3
#
#
#
# Elastic Constant Matrix: (Units=GPa)
#
#
# Indices 1 2 3 4 5 6 
#
# 1 58.2937 23.2391 -2.8960 0.0000 -4.7154 0.0000
# 2 23.2391 108.5643 53.7081 0.0000 2.6513 0.0000
# 3 -2.8960 53.7081 133.4247 0.0000 -13.8811 0.0000
# 4 0.0000 0.0000 0.0000 49.3532 0.0000 -3.2860
# 5 -4.7154 2.6513 -13.8811 0.0000 33.5587 0.0000
# 6 0.0000 0.0000 0.0000 -3.2860 0.0000 22.0808
#
#
#
# Elastic Compliance Matrix: (Units=1/GPa)
#
#
# Indices 1 2 3 4 5 6 
#
# 1 0.020134 -0.006098 0.003382 0.000000 0.004710 0.000000
# 2 -0.006098 0.013635 -0.006084 0.000000 -0.004451 0.000000
# 3 0.003382 -0.006084 0.010572 0.000000 0.005329 0.000000
# 4 0.000000 0.000000 0.000000 0.020465 0.000000 0.003045
# 5 0.004710 -0.004451 0.005329 0.000000 0.033016 0.000000
# 6 0.000000 0.000000 0.000000 0.003045 0.000000 0.045741
#
#
# Mechanical properties :
#
#
# Convention : Reuss Voigt Hill
#
# Bulk Modulus (GPa) = 37.39632 49.82057 43.60844
# Shear Modulus (GPa) = 29.39842 36.08064 32.73953
#
# Velocity S-wave (km/s) = 3.34684 3.70774 3.53190
# Velocity P-wave (km/s) = 5.40220 6.10838 5.76611
#
# Compressibility (1/GPa) = 0.02674060
#
# Stress axis : x y z
#
# Youngs Moduli (GPa) = 49.66613 73.34121 94.59293
#
# Poissons Ratio (x) = 0.44723 -0.31988
# Poissons Ratio (y) = 0.30286 0.57549
# Poissons Ratio (z) = -0.16795 0.44620
#
# Static dielectric constant tensor:
#      x y z
#    x 2.109360 0.000000 0.047310 
#    y 0.000000 2.159110 0.000000 
#    z 0.047310 0.000000 2.147020 
# 
# From -- ./inp_files/6502.got.cif
#   From: 2010.05.17/outbox.cif.g08.bks.cpg/sg14_4_cif.got.tgz:6502.got - 2010.06.03 17:49:19.
