data_PCOD9242739
_publ_section_title
;
Structure prediction by ZEFSAII (Michael W. Deem and Ramdas Pophale) SiO2 
 PCOD9242739
Probable space group: P 21/C
;
_chemical_formula_sum "Si O2"
_cell_formula_units_Z 28
_cell_length_a 22.710681
_cell_length_b 10.916896
_cell_length_c 8.884576
_cell_angle_alpha 90.000000
_cell_angle_beta 41.868950
_cell_angle_gamma 90.000000
_cell_volume 1470.182242
_symmetry_space_group_name_H-M "P 21/C"
_symmetry_group_IT_number 14
_symmetry_cell_setting 'monoclinic'
loop_
_space_group_symop_operation_xyz
x,y,z
-x,1/2+y,1/2-z
-x,-y,-z
x,1/2-y,1/2+z
loop_
_atom_site_type_symbol
_atom_site_label
_atom_site_fract_x
_atom_site_fract_y
_atom_site_fract_z
Si Si1 0.760024 0.896774 0.935480
Si Si2 0.926715 0.600008 0.617059
Si Si3 0.759301 0.869932 0.580630
Si Si4 0.016743 0.736269 0.190801
Si Si5 0.552208 0.887271 0.326840
Si Si6 0.447924 0.116250 0.030163
Si Si7 0.086982 0.582092 0.809882
O O1 0.779053 0.881072 0.720461
O O2 0.826499 0.999399 0.869637
O O3 0.771806 0.768587 0.998440
O O4 0.655802 0.920388 0.148797
O O5 0.000000 0.500000 0.500000
O O6 0.947761 0.654956 0.415676
O O7 0.956295 0.699093 0.683141
O O8 0.829512 0.556724 0.845361
O O9 0.657489 0.904280 0.748728
O O10 0.064817 0.830023 0.211932
O O11 0.089081 0.660605 0.959856
O O12 0.534349 0.751889 0.432476
O O13 0.500000 0.000000 0.500000
O O14 0.534300 0.878314 0.182432
O O15 0.500000 0.000000 0.000000
O O16 0.000000 0.500000 0.000000
#
# Coordination Sequence:
#
# PCOD9242739 Si02
#       7
#     4   4   4   4   4   4   4
#     4  10  21  37  59  83 111 146 185 233 283 338
#     4  11  20  34  53  77 108 144 180 224 271 320
#     4  10  20  35  58  85 110 142 191 233 277 341
#     4  10  22  34  51  78 111 147 189 230 276 331
#     4  10  21  40  63  89 118 151 194 243 298 363
#     4  10  21  39  63  89 118 152 192 246 302 354
#     4  11  21  37  55  77 113 152 191 239 286 337
#
# _framework density 19.045258
#
# number of rings (size 3 to 8) (size 9 to 14) (size 15 to 20)
#    0.000    1.714    0.000    6.000    0.000    2.286 
#    0.000    7.143    0.000    0.000    0.000    0.000 
#    0.000    0.000    0.000    0.000    0.000    0.000 
#
# Total GULP energy -156281.670764 kJ/mol
# GULP energy per Si atom -5581.488242 kJ/mol
# Density = 1.900191 g / cm^3
# Si number density = 19.045258 Si / 1000 Ang^3
#
#
#
# Elastic Constant Matrix: (Units=GPa)
#
#
# Indices 1 2 3 4 5 6 
#
# 1 72.3301 37.1039 30.0112 0.0000 0.5950 0.0000
# 2 37.1039 82.5585 42.5624 0.0000 -10.0475 0.0000
# 3 30.0112 42.5624 91.4475 0.0000 -6.6725 0.0000
# 4 0.0000 0.0000 0.0000 32.4833 0.0000 -11.7662
# 5 0.5950 -10.0475 -6.6725 0.0000 23.3794 0.0000
# 6 0.0000 0.0000 0.0000 -11.7662 0.0000 22.7172
#
#
#
# Elastic Compliance Matrix: (Units=1/GPa)
#
#
# Indices 1 2 3 4 5 6 
#
# 1 0.018990 -0.007509 -0.003072 0.000000 -0.004587 0.000000
# 2 -0.007509 0.019459 -0.006095 0.000000 0.006814 0.000000
# 3 -0.003072 -0.006095 0.014905 0.000000 0.001713 0.000000
# 4 0.000000 0.000000 0.000000 0.037894 0.000000 0.019627
# 5 -0.004587 0.006814 0.001713 0.000000 0.046307 0.000000
# 6 0.000000 0.000000 0.000000 0.019627 0.000000 0.054185
#
#
# Mechanical properties :
#
#
# Convention : Reuss Voigt Hill
#
# Bulk Modulus (GPa) = 49.99573 51.74344 50.86959
# Shear Modulus (GPa) = 21.57403 24.82656 23.20030
#
# Velocity S-wave (km/s) = 3.36933 3.61440 3.49401
# Velocity P-wave (km/s) = 6.43774 6.68178 6.56089
#
# Compressibility (1/GPa) = 0.02000171
#
# Stress axis : x y z
#
# Youngs Moduli (GPa) = 52.65981 51.38985 67.09048
#
# Poissons Ratio (x) = 0.38589 0.20609
# Poissons Ratio (y) = 0.39543 0.40894
# Poissons Ratio (z) = 0.16176 0.31324
#
# Static dielectric constant tensor:
#      x y z
#    x 1.642160 0.000000 0.000830 
#    y 0.000000 1.630460 0.000000 
#    z 0.000830 0.000000 1.704180 
# 
# From -- ./inp_files/18917.got.cif
#   From: 2010.05.17/outbox.cif.g08.bks.cpg/sg14_10_cif.got.tgz:18917.got - 2010.06.03 17:49:19.
