data_PCOD9242846
_publ_section_title
;
Structure prediction by ZEFSAII (Michael W. Deem and Ramdas Pophale) SiO2 
 PCOD9242846
Probable space group: P 21/C
;
_chemical_formula_sum "Si O2"
_cell_formula_units_Z 28
_cell_length_a 15.087595
_cell_length_b 16.204801
_cell_length_c 9.041193
_cell_angle_alpha 90.000000
_cell_angle_beta 144.982412
_cell_angle_gamma 90.000000
_cell_volume 1268.443398
_symmetry_space_group_name_H-M "P 21/C"
_symmetry_group_IT_number 14
_symmetry_cell_setting 'monoclinic'
loop_
_space_group_symop_operation_xyz
x,y,z
-x,1/2+y,1/2-z
-x,-y,-z
x,1/2-y,1/2+z
loop_
_atom_site_type_symbol
_atom_site_label
_atom_site_fract_x
_atom_site_fract_y
_atom_site_fract_z
Si Si1 0.622587 0.233285 0.610960
Si Si2 0.178329 0.553372 0.279606
Si Si3 0.070533 0.297284 0.037339
Si Si4 0.496667 0.641770 0.779850
Si Si5 0.045965 0.501400 0.804925
Si Si6 0.823635 0.170480 0.622634
Si Si7 0.188757 0.344524 0.908902
O O1 0.529792 0.172555 0.590459
O O2 0.517858 0.280347 0.350471
O O3 0.745634 0.185959 0.675616
O O4 0.705068 0.300762 0.831245
O O5 0.349217 0.586018 0.539346
O O6 0.119293 0.500520 0.339030
O O7 0.161193 0.503155 0.105346
O O8 0.051695 0.629107 0.089940
O O9 0.141395 0.239176 0.260276
O O10 0.202143 0.324752 0.101950
O O11 0.959859 0.236291 0.795108
O O12 0.666500 0.612163 0.973064
O O13 0.102374 0.581285 0.796218
O O14 0.060255 0.416447 0.736218
#
# Coordination Sequence:
#
# PCOD9242846 Si02
#       7
#     4   4   4   4   4   4   4
#     4  10  20  35  67  89 109 159 206 246 281 357
#     4  10  20  39  65  84 120 157 209 234 296 358
#     4  11  21  40  64  89 114 158 202 256 280 357
#     4  11  21  39  60  88 119 159 196 244 294 365
#     4  10  22  37  59  93 117 157 195 256 294 348
#     4  11  19  38  64  91 115 150 211 249 292 340
#     4  11  25  38  60  90 127 152 197 244 313 346
#
# _framework density 22.074300000000001
#
# number of rings (size 3 to 8) (size 9 to 14) (size 15 to 20)
#    0.000    1.429    4.286    2.571    2.000    1.143 
#    0.000    0.714    3.143    0.000    0.000    0.000 
#    0.000    0.000    0.000    0.000    0.000    0.000 
#
# Total GULP energy -156203.894689 kJ/mol
# GULP energy per Si atom -5578.710525 kJ/mol
# Density = 2.202406 g / cm^3
# Si number density = 22.074300 Si / 1000 Ang^3
#
#
#
# Elastic Constant Matrix: (Units=GPa)
#
#
# Indices 1 2 3 4 5 6 
#
# 1 132.8489 24.2052 14.8214 0.0000 -13.5576 0.0000
# 2 24.2052 78.6669 0.6128 0.0000 -16.2014 0.0000
# 3 14.8214 0.6128 20.8600 0.0000 -8.9023 0.0000
# 4 0.0000 0.0000 0.0000 8.6908 0.0000 -3.3827
# 5 -13.5576 -16.2014 -8.9023 0.0000 27.9092 0.0000
# 6 0.0000 0.0000 0.0000 -3.3827 0.0000 7.6636
#
#
#
# Elastic Compliance Matrix: (Units=1/GPa)
#
#
# Indices 1 2 3 4 5 6 
#
# 1 0.008707 -0.002427 -0.005685 0.000000 0.001007 0.000000
# 2 -0.002427 0.015359 0.005296 0.000000 0.009426 0.000000
# 3 -0.005685 0.005296 0.060143 0.000000 0.019497 0.000000
# 4 0.000000 0.000000 0.000000 0.138933 0.000000 0.061324
# 5 0.001007 0.009426 0.019497 0.000000 0.048010 0.000000
# 6 0.000000 0.000000 0.000000 0.061324 0.000000 0.157556
#
#
# Mechanical properties :
#
#
# Convention : Reuss Voigt Hill
#
# Bulk Modulus (GPa) = 12.72658 34.62828 23.67743
# Shear Modulus (GPa) = 10.85702 21.70182 16.27942
#
# Velocity S-wave (km/s) = 2.22015 3.13889 2.71861
# Velocity P-wave (km/s) = 3.51425 5.37197 4.53916
#
# Compressibility (1/GPa) = 0.07857569
#
# Stress axis : x y z
#
# Youngs Moduli (GPa) = 114.85496 65.10964 16.62703
#
# Poissons Ratio (x) = 0.15804 0.09453
# Poissons Ratio (y) = 0.27879 -0.08806
# Poissons Ratio (z) = 0.65297 -0.34483
#
# Static dielectric constant tensor:
#      x y z
#    x 1.881790 0.000000 0.001030 
#    y 0.000000 1.870210 0.000000 
#    z 0.001030 0.000000 1.845240 
# 
# From -- ./inp_files/16695.got.cif
#   From: 2010.05.17/outbox.cif.g08.bks.cpg/sg14_9_cif.got.tgz:16695.got - 2010.06.03 17:49:19.
