data_PCOD9242482
_publ_section_title
;
Structure prediction by ZEFSAII (Michael W. Deem and Ramdas Pophale) SiO2 
 PCOD9242482
Probable space group: P 21/C
;
_chemical_formula_sum "Si O2"
_cell_formula_units_Z 32
_cell_length_a 14.697009
_cell_length_b 7.440124
_cell_length_c 16.340783
_cell_angle_alpha 90.000000
_cell_angle_beta 139.106345
_cell_angle_gamma 90.000000
_cell_volume 1169.757619
_symmetry_space_group_name_H-M "P 21/C"
_symmetry_group_IT_number 14
_symmetry_cell_setting 'monoclinic'
loop_
_space_group_symop_operation_xyz
x,y,z
-x,1/2+y,1/2-z
-x,-y,-z
x,1/2-y,1/2+z
loop_
_atom_site_type_symbol
_atom_site_label
_atom_site_fract_x
_atom_site_fract_y
_atom_site_fract_z
Si Si1 0.626420 0.071310 0.158196
Si Si2 0.722367 0.658189 0.229845
Si Si3 0.969834 0.762045 0.314564
Si Si4 0.874754 0.323840 0.744864
Si Si5 0.528609 0.470345 0.849879
Si Si6 0.775492 0.135230 0.427628
Si Si7 0.627621 0.874675 0.923027
Si Si8 0.874250 0.784805 0.998569
O O1 0.710567 0.183208 0.147671
O O2 0.692478 0.156502 0.286929
O O3 0.460397 0.066260 0.057895
O O4 0.672712 0.864923 0.193547
O O5 0.578218 0.558135 0.148840
O O6 0.816239 0.637490 0.375072
O O7 0.832671 0.638605 0.231215
O O8 0.057532 0.735989 0.293011
O O9 0.086819 0.748725 0.464933
O O10 0.914542 0.965891 0.280888
O O11 0.963379 0.219745 0.873945
O O12 0.660670 0.341104 0.921819
O O13 0.593284 0.664633 0.899680
O O14 0.441310 0.456716 0.705764
O O15 0.827377 0.926599 0.464402
O O16 0.791735 0.880305 0.017938
#
# Coordination Sequence:
#
# PCOD9242482 Si02
#       8
#     4   4   4   4   4   4   4   4
#     4   9  17  31  52  74  95 123 159 198 238 280
#     4   9  17  31  52  74  95 123 159 198 238 280
#     4  10  20  34  50  69  96 128 162 199 237 280
#     4  10  20  34  50  69  96 128 162 199 237 280
#     4   9  16  28  49  75  99 122 153 196 240 281
#     4   8  15  30  52  73  92 122 162 196 230 278
#     4   9  16  28  49  75  99 122 153 196 240 281
#     4   8  15  30  52  73  92 122 162 196 230 278
#
# _framework density 27.356093000000001
#
# number of rings (size 3 to 8) (size 9 to 14) (size 15 to 20)
#    0.000    3.000    0.000    3.000    0.000    4.000 
#    0.000    7.500    0.000   15.000    0.000    0.000 
#    0.000    0.000    0.000    0.000    0.000    0.000 
#
# Total GULP energy -178963.736903 kJ/mol
# GULP energy per Si atom -5592.616778 kJ/mol
# Density = 2.729383 g / cm^3
# Si number density = 27.356093 Si / 1000 Ang^3
#
#
#
# Elastic Constant Matrix: (Units=GPa)
#
#
# Indices 1 2 3 4 5 6 
#
# 1 144.7874 25.0237 26.3215 0.0000 24.8008 0.0000
# 2 25.0237 44.7339 -1.2657 0.0000 15.8834 0.0000
# 3 26.3215 -1.2657 86.7002 0.0000 8.6668 0.0000
# 4 0.0000 0.0000 0.0000 31.1085 0.0000 13.8216
# 5 24.8008 15.8834 8.6668 0.0000 35.7928 0.0000
# 6 0.0000 0.0000 0.0000 13.8216 0.0000 30.8050
#
#
#
# Elastic Compliance Matrix: (Units=1/GPa)
#
#
# Indices 1 2 3 4 5 6 
#
# 1 0.008583 -0.003501 -0.002273 0.000000 -0.003843 0.000000
# 2 -0.003501 0.028183 0.002544 0.000000 -0.010696 0.000000
# 3 -0.002273 0.002544 0.012520 0.000000 -0.002585 0.000000
# 4 0.000000 0.000000 0.000000 0.040149 0.000000 -0.018014
# 5 -0.003843 -0.010696 -0.002585 0.000000 0.035974 0.000000
# 6 0.000000 0.000000 0.000000 -0.018014 0.000000 0.040545
#
#
# Mechanical properties :
#
#
# Convention : Reuss Voigt Hill
#
# Bulk Modulus (GPa) = 23.35078 41.82005 32.58542
# Shear Modulus (GPa) = 26.78245 34.61739 30.69992
#
# Velocity S-wave (km/s) = 3.13234 3.56116 3.35361
# Velocity P-wave (km/s) = 4.65150 5.67711 5.18970
#
# Compressibility (1/GPa) = 0.04282512
#
# Stress axis : x y z
#
# Youngs Moduli (GPa) = 116.50559 35.48275 79.87499
#
# Poissons Ratio (x) = 0.12423 0.18153
# Poissons Ratio (y) = 0.40789 -0.20317
# Poissons Ratio (z) = 0.26479 -0.09025
#
# Static dielectric constant tensor:
#      x y z
#    x 2.212620 0.000000 -0.011090 
#    y 0.000000 2.125690 0.000000 
#    z -0.011090 0.000000 2.120910 
# 
# From -- ./inp_files/68195.got.cif
#   From: 2010.05.17/outbox.cif.g08.bks.cpg/sg14_35_cif.got.tgz:68195.got - 2010.06.03 17:49:19.
