data_PCOD9242649
_publ_section_title
;
Structure prediction by ZEFSAII (Michael W. Deem and Ramdas Pophale) SiO2 
 PCOD9242649
Probable space group: P 21/C
;
_chemical_formula_sum "Si O2"
_cell_formula_units_Z 24
_cell_length_a 26.666424
_cell_length_b 5.060789
_cell_length_c 12.730374
_cell_angle_alpha 90.000000
_cell_angle_beta 28.905298
_cell_angle_gamma 90.000000
_cell_volume 830.420146
_symmetry_space_group_name_H-M "P 21/C"
_symmetry_group_IT_number 14
_symmetry_cell_setting 'monoclinic'
loop_
_space_group_symop_operation_xyz
x,y,z
-x,1/2+y,1/2-z
-x,-y,-z
x,1/2-y,1/2+z
loop_
_atom_site_type_symbol
_atom_site_label
_atom_site_fract_x
_atom_site_fract_y
_atom_site_fract_z
Si Si1 0.049499 0.686224 0.102980
Si Si2 0.788434 0.229168 0.042165
Si Si3 0.409582 0.690296 0.312291
Si Si4 0.113109 0.229803 0.749460
Si Si5 0.396720 0.031333 0.055089
Si Si6 0.282168 0.294130 0.087435
O O1 0.012306 0.405748 0.215271
O O2 0.006630 0.728131 0.063683
O O3 0.167748 0.757034 0.418447
O O4 0.850148 0.452663 0.865101
O O5 0.669427 0.320801 0.258704
O O6 0.825193 0.954539 0.928106
O O7 0.327459 0.925616 0.472485
O O8 0.445639 0.631396 0.367629
O O9 0.348802 0.422514 0.398701
O O10 0.512051 0.790967 0.065876
O O11 0.162320 0.241354 0.775086
O O12 0.313303 0.222756 0.149418
#
# Coordination Sequence:
#
# PCOD9242649 Si02
#       6
#     4   4   4   4   4   4
#     4   8  16  33  52  74 104 140 167 205 264 316
#     4  10  21  33  58  81 102 136 185 216 246 315
#     4  10  20  35  57  70 105 144 178 204 265 313
#     4  10  20  36  54  80 111 135 168 221 271 301
#     4  10  21  36  58  75 103 142 185 210 252 316
#     4  10  20  35  55  76 105 146 168 210 272 312
#
# _framework density 28.901033000000002
#
# number of rings (size 3 to 8) (size 9 to 14) (size 15 to 20)
#    1.000    1.333    1.667    1.000    2.333    0.000 
#    0.000    5.833    0.000    1.000    0.000    0.000 
#    0.000    0.000    0.000    0.000    0.000    0.000 
#
# Total GULP energy -134510.110675 kJ/mol
# GULP energy per Si atom -5604.587945 kJ/mol
# Density = 2.883525 g / cm^3
# Si number density = 28.901033 Si / 1000 Ang^3
#
#
#
# Elastic Constant Matrix: (Units=GPa)
#
#
# Indices 1 2 3 4 5 6 
#
# 1 137.1148 22.8302 37.6602 0.0000 -43.1662 0.0000
# 2 22.8302 167.4246 49.5041 0.0000 10.3588 0.0000
# 3 37.6602 49.5041 120.5439 0.0000 -14.1309 0.0000
# 4 0.0000 0.0000 0.0000 37.3209 0.0000 -6.1621
# 5 -43.1662 10.3588 -14.1309 0.0000 49.5189 0.0000
# 6 0.0000 0.0000 0.0000 -6.1621 0.0000 26.4645
#
#
#
# Elastic Compliance Matrix: (Units=1/GPa)
#
#
# Indices 1 2 3 4 5 6 
#
# 1 0.010986 -0.001586 -0.001675 0.000000 0.009431 0.000000
# 2 -0.001586 0.007289 -0.002937 0.000000 -0.003746 0.000000
# 3 -0.001675 -0.002937 0.010270 0.000000 0.002085 0.000000
# 4 0.000000 0.000000 0.000000 0.027866 0.000000 0.006488
# 5 0.009431 -0.003746 0.002085 0.000000 0.029794 0.000000
# 6 0.000000 0.000000 0.000000 0.006488 0.000000 0.039297
#
#
# Mechanical properties :
#
#
# Convention : Reuss Voigt Hill
#
# Bulk Modulus (GPa) = 61.92710 71.67471 66.80091
# Shear Modulus (GPa) = 34.89615 43.66676 39.28145
#
# Velocity S-wave (km/s) = 3.47859 3.89126 3.69069
# Velocity P-wave (km/s) = 6.13253 6.71141 6.42849
#
# Compressibility (1/GPa) = 0.01614802
#
# Stress axis : x y z
#
# Youngs Moduli (GPa) = 91.02164 137.18708 97.37384
#
# Poissons Ratio (x) = 0.21761 0.16314
# Poissons Ratio (y) = 0.14438 0.28599
# Poissons Ratio (z) = 0.15250 0.40293
#
# Static dielectric constant tensor:
#      x y z
#    x 2.400000 0.000000 -0.011880 
#    y 0.000000 2.202830 0.000000 
#    z -0.011880 0.000000 2.156530 
# 
# From -- ./inp_files/52108.got.cif
#   From: 2010.05.17/outbox.cif.g08.bks.cpg/sg14_27_cif.got.tgz:52108.got - 2010.06.03 17:49:19.
