data_PCOD9242372
_publ_section_title
;
Structure prediction by ZEFSAII (Michael W. Deem and Ramdas Pophale) SiO2 
 PCOD9242372
Probable space group: P 21/C
;
_chemical_formula_sum "Si O2"
_cell_formula_units_Z 28
_cell_length_a 26.543890
_cell_length_b 12.179708
_cell_length_c 26.070942
_cell_angle_alpha 90.000000
_cell_angle_beta 169.167960
_cell_angle_gamma 90.000000
_cell_volume 1584.001657
_symmetry_space_group_name_H-M "P 21/C"
_symmetry_group_IT_number 14
_symmetry_cell_setting 'monoclinic'
loop_
_space_group_symop_operation_xyz
x,y,z
-x,1/2+y,1/2-z
-x,-y,-z
x,1/2-y,1/2+z
loop_
_atom_site_type_symbol
_atom_site_label
_atom_site_fract_x
_atom_site_fract_y
_atom_site_fract_z
Si Si1 0.749952 0.922882 0.019525
Si Si2 0.248719 0.580428 0.748718
Si Si3 0.162737 0.293151 0.494573
Si Si4 0.632188 0.123296 0.519992
Si Si5 0.837273 0.706838 0.169107
Si Si6 0.749991 0.922894 0.480416
Si Si7 0.632181 0.123286 0.744381
O O1 0.499965 0.999985 0.783797
O O2 0.707574 0.862503 0.922713
O O3 0.840699 0.829921 0.150687
O O4 0.999963 0.000004 0.261352
O O5 0.260343 0.640131 0.705814
O O6 0.000000 0.500000 0.500000
O O7 0.500000 0.500000 0.000000
O O8 0.260354 0.640138 0.814878
O O9 0.379036 0.300192 0.755810
O O10 0.159285 0.170069 0.469277
O O11 0.880068 0.346169 0.229990
O O12 0.499995 0.000007 0.382621
O O13 0.707575 0.637484 0.992433
O O14 0.119955 0.653827 0.469871
O O15 0.620993 0.699790 0.997767
#
# Coordination Sequence:
#
# PCOD9242372 Si02
#       7
#     4   4   4   4   4   4   4
#     4  11  22  36  52  76 108 139 176 220 254 304
#     4  10  20  32  50  78 108 136 166 206 262 316
#     4  11  22  34  54  79 104 142 179 206 263 316
#     4  11  20  34  53  79 110 138 168 212 261 317
#     4  11  22  34  54  79 104 142 179 206 263 316
#     4  11  22  36  52  76 108 139 176 220 254 304
#     4  11  20  34  53  79 110 138 168 212 261 317
#
# _framework density 17.676748
#
# number of rings (size 3 to 8) (size 9 to 14) (size 15 to 20)
#    0.000    1.143    0.000   10.286    0.000    4.571 
#    0.000    0.000    0.000    0.000    0.000   20.000 
#    0.000    0.000    0.000    0.000    0.000    0.000 
#
# Total GULP energy -156097.743436 kJ/mol
# GULP energy per Si atom -5574.919408 kJ/mol
# Density = 1.763652 g / cm^3
# Si number density = 17.676748 Si / 1000 Ang^3
#
#
#
# Elastic Constant Matrix: (Units=GPa)
#
#
# Indices 1 2 3 4 5 6 
#
# 1 80.6301 33.2456 24.1430 0.0000 1.3433 0.0000
# 2 33.2456 68.4580 14.9299 0.0000 -2.4927 0.0000
# 3 24.1430 14.9299 109.2317 0.0000 2.5513 0.0000
# 4 0.0000 0.0000 0.0000 17.2369 0.0000 -1.3601
# 5 1.3433 -2.4927 2.5513 0.0000 33.3440 0.0000
# 6 0.0000 0.0000 0.0000 -1.3601 0.0000 27.1519
#
#
#
# Elastic Compliance Matrix: (Units=1/GPa)
#
#
# Indices 1 2 3 4 5 6 
#
# 1 0.016217 -0.007355 -0.002556 0.000000 -0.001008 0.000000
# 2 -0.007355 0.018447 -0.000937 0.000000 0.001747 0.000000
# 3 -0.002556 -0.000937 0.009865 0.000000 -0.000722 0.000000
# 4 0.000000 0.000000 0.000000 0.058245 0.000000 0.002918
# 5 -0.001008 0.001747 -0.000722 0.000000 0.030217 0.000000
# 6 0.000000 0.000000 0.000000 0.002918 0.000000 0.036976
#
#
# Mechanical properties :
#
#
# Convention : Reuss Voigt Hill
#
# Bulk Modulus (GPa) = 43.79305 44.77297 44.28301
# Shear Modulus (GPa) = 25.09135 27.94667 26.51901
#
# Velocity S-wave (km/s) = 3.77165 3.98047 3.87747
# Velocity P-wave (km/s) = 6.61780 6.81977 6.71955
#
# Compressibility (1/GPa) = 0.02283467
#
# Stress axis : x y z
#
# Youngs Moduli (GPa) = 61.66423 54.20905 101.37302
#
# Poissons Ratio (x) = 0.39870 0.25906
# Poissons Ratio (y) = 0.45353 0.09494
# Poissons Ratio (z) = 0.15759 0.05077
#
# Static dielectric constant tensor:
#      x y z
#    x 1.659520 0.000000 -0.008440 
#    y 0.000000 1.605190 0.000000 
#    z -0.008440 0.000000 1.597530 
# 
# From -- ./inp_files/78293.got.cif
#   From: 2010.05.17/outbox.cif.g08.bks.cpg/sg14_40_cif.got.tgz:78293.got - 2010.06.03 17:49:19.
