data_PCOD9242672
_publ_section_title
;
Structure prediction by ZEFSAII (Michael W. Deem and Ramdas Pophale) SiO2 
 PCOD9242672
Probable space group: P 21/C
;
_chemical_formula_sum "Si O2"
_cell_formula_units_Z 28
_cell_length_a 8.566672
_cell_length_b 13.588423
_cell_length_c 15.277316
_cell_angle_alpha 90.000000
_cell_angle_beta 118.148570
_cell_angle_gamma 90.000000
_cell_volume 1568.059475
_symmetry_space_group_name_H-M "P 21/C"
_symmetry_group_IT_number 14
_symmetry_cell_setting 'monoclinic'
loop_
_space_group_symop_operation_xyz
x,y,z
-x,1/2+y,1/2-z
-x,-y,-z
x,1/2-y,1/2+z
loop_
_atom_site_type_symbol
_atom_site_label
_atom_site_fract_x
_atom_site_fract_y
_atom_site_fract_z
Si Si1 0.885731 0.868649 0.063712
Si Si2 0.548811 0.790870 0.307783
Si Si3 0.616451 0.935301 0.854387
Si Si4 0.093299 0.153539 0.504857
Si Si5 0.967696 0.463504 0.129098
Si Si6 0.326880 0.407361 0.321330
Si Si7 0.237144 0.565467 0.752233
O O1 0.939395 0.760132 0.044957
O O2 0.740263 0.867718 0.103360
O O3 0.058507 0.917978 0.149915
O O4 0.793135 0.925598 0.959498
O O5 0.546736 0.675296 0.325206
O O6 0.703419 0.840082 0.407929
O O7 0.603235 0.820317 0.223209
O O8 0.362494 0.840114 0.279014
O O9 0.479009 0.009801 0.863711
O O10 0.659114 0.979021 0.770150
O O11 0.976597 0.123202 0.558765
O O12 0.059575 0.066108 0.427839
O O13 0.819021 0.452474 0.163301
O O14 0.156612 0.455978 0.228310
#
# Coordination Sequence:
#
# PCOD9242672 Si02
#       7
#     4   4   4   4   4   4   4
#     4  10  20  35  56  82 110 143 180 221 270 327
#     4   9  20  36  52  80 108 142 181 221 270 322
#     4  10  20  36  55  77 115 144 174 231 270 318
#     4   9  19  36  56  77 113 140 179 222 274 313
#     4   9  19  36  56  82 105 145 181 226 263 317
#     4   9  19  35  55  79 111 142 182 218 268 328
#     4  10  21  36  56  83 109 139 189 219 267 331
#
# _framework density 17.856465
#
# number of rings (size 3 to 8) (size 9 to 14) (size 15 to 20)
#    0.000    2.571    0.000    0.857    4.000    0.571 
#    0.000    7.143    0.000    0.000    0.000    0.000 
#    0.000    0.000    0.000    0.000    0.000    0.000 
#
# Total GULP energy -156079.815471 kJ/mol
# GULP energy per Si atom -5574.279124 kJ/mol
# Density = 1.781582 g / cm^3
# Si number density = 17.856465 Si / 1000 Ang^3
#
#
#
# Elastic Constant Matrix: (Units=GPa)
#
#
# Indices 1 2 3 4 5 6 
#
# 1 57.8147 8.4801 19.8648 0.0000 -24.5136 0.0000
# 2 8.4801 61.3549 33.5223 0.0000 -12.3326 0.0000
# 3 19.8648 33.5223 55.3667 0.0000 -22.0237 0.0000
# 4 0.0000 0.0000 0.0000 21.1113 0.0000 6.3377
# 5 -24.5136 -12.3326 -22.0237 0.0000 23.5194 0.0000
# 6 0.0000 0.0000 0.0000 6.3377 0.0000 13.8607
#
#
#
# Elastic Compliance Matrix: (Units=1/GPa)
#
#
# Indices 1 2 3 4 5 6 
#
# 1 0.031400 0.001853 0.001620 0.000000 0.035216 0.000000
# 2 0.001853 0.024505 -0.015334 0.000000 0.000423 0.000000
# 3 0.001620 -0.015334 0.038624 0.000000 0.029816 0.000000
# 4 0.000000 0.000000 0.000000 0.054905 0.000000 -0.025105
# 5 0.035216 0.000423 0.029816 0.000000 0.107364 0.000000
# 6 0.000000 0.000000 0.000000 -0.025105 0.000000 0.083625
#
#
# Mechanical properties :
#
#
# Convention : Reuss Voigt Hill
#
# Bulk Modulus (GPa) = 14.12252 33.14120 23.63186
# Shear Modulus (GPa) = 12.89501 19.20955 16.05228
#
# Velocity S-wave (km/s) = 2.69020 3.28346 3.00152
# Velocity P-wave (km/s) = 4.19233 5.74238 5.02745
#
# Compressibility (1/GPa) = 0.07080890
#
# Stress axis : x y z
#
# Youngs Moduli (GPa) = 31.84741 40.80741 25.89037
#
# Poissons Ratio (x) = -0.07563 -0.04195
# Poissons Ratio (y) = -0.05903 0.39700
# Poissons Ratio (z) = -0.05160 0.62574
#
# Static dielectric constant tensor:
#      x y z
#    x 1.605150 0.000000 -0.005310 
#    y 0.000000 1.577260 0.000000 
#    z -0.005310 0.000000 1.619380 
# 
# From -- ./inp_files/39947.got.cif
#   From: 2010.05.17/outbox.cif.g08.bks.cpg/sg14_20_cif.got.tgz:39947.got - 2010.06.03 17:49:19.
