data_PCOD9242878
_publ_section_title
;
Structure prediction by ZEFSAII (Michael W. Deem and Ramdas Pophale) SiO2 
 PCOD9242878
Probable space group: P 21/C
;
_chemical_formula_sum "Si O2"
_cell_formula_units_Z 24
_cell_length_a 20.025562
_cell_length_b 7.297123
_cell_length_c 10.975221
_cell_angle_alpha 90.000000
_cell_angle_beta 145.845661
_cell_angle_gamma 90.000000
_cell_volume 900.410772
_symmetry_space_group_name_H-M "P 21/C"
_symmetry_group_IT_number 14
_symmetry_cell_setting 'monoclinic'
loop_
_space_group_symop_operation_xyz
x,y,z
-x,1/2+y,1/2-z
-x,-y,-z
x,1/2-y,1/2+z
loop_
_atom_site_type_symbol
_atom_site_label
_atom_site_fract_x
_atom_site_fract_y
_atom_site_fract_z
Si Si1 0.471102 0.118241 0.635329
Si Si2 0.109148 0.721274 0.660077
Si Si3 0.859492 0.553513 0.509450
Si Si4 0.089726 0.423871 0.003985
Si Si5 0.303296 0.748359 0.627192
Si Si6 0.521138 0.778777 0.097535
O O1 0.605816 0.195260 0.842815
O O2 0.418661 0.237724 0.443584
O O3 0.421785 0.124072 0.698106
O O4 0.487518 0.917931 0.605125
O O5 0.117575 0.556804 0.580323
O O6 0.979847 0.794219 0.503759
O O7 0.158256 0.908434 0.669771
O O8 0.185894 0.664411 0.893576
O O9 0.844101 0.770391 0.474036
O O10 0.749858 0.442200 0.401140
O O11 0.980323 0.515855 0.766478
O O12 0.391083 0.850421 0.854235
#
# Coordination Sequence:
#
# PCOD9242878 Si02
#       6
#     4   4   4   4   4   4
#     4   9  19  38  62  86 118 154 192 244 300 361
#     4  10  20  36  56  78 115 153 201 250 290 350
#     4  11  19  36  58  79 115 157 200 245 297 351
#     4  10  21  34  55  80 111 156 198 248 298 347
#     4   9  20  36  56  83 113 154 188 251 295 349
#     4   9  19  38  63  85 119 154 190 242 300 363
#
# _framework density 26.654502999999998
#
# number of rings (size 3 to 8) (size 9 to 14) (size 15 to 20)
#    1.000    1.333    1.667    1.500    0.000    0.667 
#    3.000    0.000    7.333    0.000    0.000    0.000 
#    0.000    0.000    0.000    0.000    0.000    0.000 
#
# Total GULP energy -133871.714711 kJ/mol
# GULP energy per Si atom -5577.988113 kJ/mol
# Density = 2.659384 g / cm^3
# Si number density = 26.654503 Si / 1000 Ang^3
#
#
#
# Elastic Constant Matrix: (Units=GPa)
#
#
# Indices 1 2 3 4 5 6 
#
# 1 63.5222 9.7098 39.1271 0.0000 -15.5934 0.0000
# 2 9.7098 123.1681 22.1810 0.0000 -16.7584 0.0000
# 3 39.1271 22.1810 121.3435 0.0000 -25.9427 0.0000
# 4 0.0000 0.0000 0.0000 32.5335 0.0000 -17.0025
# 5 -15.5934 -16.7584 -25.9427 0.0000 48.7225 0.0000
# 6 0.0000 0.0000 0.0000 -17.0025 0.0000 99.0048
#
#
#
# Elastic Compliance Matrix: (Units=1/GPa)
#
#
# Indices 1 2 3 4 5 6 
#
# 1 0.020124 -0.000095 -0.005757 0.000000 0.003342 0.000000
# 2 -0.000095 0.008638 -0.001038 0.000000 0.002388 0.000000
# 3 -0.005757 -0.001038 0.011078 0.000000 0.003699 0.000000
# 4 0.000000 0.000000 0.000000 0.033768 0.000000 0.005799
# 5 0.003342 0.002388 0.003699 0.000000 0.024385 0.000000
# 6 0.000000 0.000000 0.000000 0.005799 0.000000 0.011096
#
#
# Mechanical properties :
#
#
# Convention : Reuss Voigt Hill
#
# Bulk Modulus (GPa) = 38.37213 50.00773 44.18993
# Shear Modulus (GPa) = 38.00667 51.85321 44.92994
#
# Velocity S-wave (km/s) = 3.78021 4.41543 4.11011
# Velocity P-wave (km/s) = 5.78625 6.69305 6.25610
#
# Compressibility (1/GPa) = 0.02606058
#
# Stress axis : x y z
#
# Youngs Moduli (GPa) = 49.69302 115.76337 90.26956
#
# Poissons Ratio (x) = 0.01098 0.51967
# Poissons Ratio (y) = 0.00472 0.09369
# Poissons Ratio (z) = 0.28608 0.12015
#
# Static dielectric constant tensor:
#      x y z
#    x 2.243260 0.000000 -0.060420 
#    y 0.000000 2.442890 0.000000 
#    z -0.060420 0.000000 2.122130 
# 
# From -- ./inp_files/36108.got.cif
#   From: 2010.05.17/outbox.cif.g08.bks.cpg/sg14_19_cif.got.tgz:36108.got - 2010.06.03 17:49:19.
