data_PCOD9242462
_publ_section_title
;
Structure prediction by ZEFSAII (Michael W. Deem and Ramdas Pophale) SiO2 
 PCOD9242462
Probable space group: P 21/C
;
_chemical_formula_sum "Si O2"
_cell_formula_units_Z 32
_cell_length_a 19.209176
_cell_length_b 12.250135
_cell_length_c 8.246191
_cell_angle_alpha 90.000000
_cell_angle_beta 127.930184
_cell_angle_gamma 90.000000
_cell_volume 1530.551963
_symmetry_space_group_name_H-M "P 21/C"
_symmetry_group_IT_number 14
_symmetry_cell_setting 'monoclinic'
loop_
_space_group_symop_operation_xyz
x,y,z
-x,1/2+y,1/2-z
-x,-y,-z
x,1/2-y,1/2+z
loop_
_atom_site_type_symbol
_atom_site_label
_atom_site_fract_x
_atom_site_fract_y
_atom_site_fract_z
Si Si1 0.415958 0.918762 0.866276
Si Si2 0.217285 0.063100 0.240013
Si Si3 0.611292 0.839098 0.624001
Si Si4 0.480411 0.763701 0.690011
Si Si5 0.283124 0.115601 0.682112
Si Si6 0.101514 0.395219 0.025826
Si Si7 0.941280 0.680064 0.683834
Si Si8 0.922702 0.060003 0.787774
O O1 0.423918 0.847383 0.714844
O O2 0.334862 0.001569 0.761191
O O3 0.422169 0.821202 0.005359
O O4 0.500000 0.000000 0.000000
O O5 0.312468 0.070066 0.286695
O O6 0.241243 0.123825 0.442532
O O7 0.166240 0.954706 0.233970
O O8 0.142847 0.124129 0.027307
O O9 0.545712 0.842503 0.681632
O O10 0.545495 0.818834 0.380223
O O11 0.658531 0.721521 0.707642
O O12 0.205906 0.116641 0.703288
O O13 0.055779 0.369972 0.131331
O O14 0.075865 0.307451 0.851696
O O15 0.089954 0.504867 0.907406
O O16 0.029100 0.669011 0.699197
O O17 0.000000 0.000000 0.000000
#
# Coordination Sequence:
#
# PCOD9242462 Si02
#       8
#     4   4   4   4   4   4   4   4
#     4  11  21  41  60  86 130 169 208 269 321 377
#     4  10  20  33  56  88 121 153 202 256 316 365
#     4  11  18  34  56  89 121 155 206 257 309 366
#     4  10  22  35  61  88 123 166 210 252 323 380
#     4  11  21  35  60  85 126 161 202 269 314 356
#     4  11  22  35  61  92 119 164 207 255 319 372
#     4  11  21  35  58  89 129 155 198 258 316 381
#     4   9  20  37  54  86 127 159 192 248 317 369
#
# _framework density 20.907491
#
# number of rings (size 3 to 8) (size 9 to 14) (size 15 to 20)
#    0.000    1.500    5.000    2.625    1.750    0.000 
#    0.000    8.125    0.000   18.000    0.000    0.000 
#    0.000    0.000    0.000    0.000    0.000    0.000 
#
# Total GULP energy -178176.500503 kJ/mol
# GULP energy per Si atom -5568.015641 kJ/mol
# Density = 2.085990 g / cm^3
# Si number density = 20.907491 Si / 1000 Ang^3
#
#
#
# Elastic Constant Matrix: (Units=GPa)
#
#
# Indices 1 2 3 4 5 6 
#
# 1 75.7829 36.7248 10.5023 0.0000 4.4333 0.0000
# 2 36.7248 63.6891 4.0768 0.0000 3.4347 0.0000
# 3 10.5023 4.0768 47.7010 0.0000 -6.8342 0.0000
# 4 0.0000 0.0000 0.0000 24.0252 0.0000 8.4358
# 5 4.4333 3.4347 -6.8342 0.0000 16.0608 0.0000
# 6 0.0000 0.0000 0.0000 8.4358 0.0000 38.0270
#
#
#
# Elastic Compliance Matrix: (Units=1/GPa)
#
#
# Indices 1 2 3 4 5 6 
#
# 1 0.019121 -0.010515 -0.003988 0.000000 -0.004726 0.000000
# 2 -0.010515 0.021842 0.000208 0.000000 -0.001680 0.000000
# 3 -0.003988 0.000208 0.023402 0.000000 0.011015 0.000000
# 4 0.000000 0.000000 0.000000 0.045139 0.000000 -0.010014
# 5 -0.004726 -0.001680 0.011015 0.000000 0.068614 0.000000
# 6 0.000000 0.000000 0.000000 -0.010014 0.000000 0.028518
#
#
# Mechanical properties :
#
#
# Convention : Reuss Voigt Hill
#
# Bulk Modulus (GPa) = 27.95378 32.19788 30.07583
# Shear Modulus (GPa) = 20.23042 24.68054 22.45548
#
# Velocity S-wave (km/s) = 3.11403 3.43952 3.28081
# Velocity P-wave (km/s) = 5.13116 5.58635 5.36358
#
# Compressibility (1/GPa) = 0.03577334
#
# Stress axis : x y z
#
# Youngs Moduli (GPa) = 52.29984 45.78343 42.73068
#
# Poissons Ratio (x) = 0.48142 0.17042
# Poissons Ratio (y) = 0.54995 -0.00888
# Poissons Ratio (z) = 0.20858 -0.00951
#
# Static dielectric constant tensor:
#      x y z
#    x 1.939360 0.000000 -0.115520 
#    y 0.000000 1.770960 0.000000 
#    z -0.115520 0.000000 1.912060 
# 
# From -- ./inp_files/18955.got.cif
#   From: 2010.05.17/outbox.cif.g08.bks.cpg/sg14_10_cif.got.tgz:18955.got - 2010.06.03 17:49:19.
