data_PCOD9242457
_publ_section_title
;
Structure prediction by ZEFSAII (Michael W. Deem and Ramdas Pophale) SiO2 
 PCOD9242457
Probable space group: P 21/C
;
_chemical_formula_sum "Si O2"
_cell_formula_units_Z 28
_cell_length_a 11.063824
_cell_length_b 23.570331
_cell_length_c 5.080479
_cell_angle_alpha 90.000000
_cell_angle_beta 93.972045
_cell_angle_gamma 90.000000
_cell_volume 1321.694722
_symmetry_space_group_name_H-M "P 21/C"
_symmetry_group_IT_number 14
_symmetry_cell_setting 'monoclinic'
loop_
_space_group_symop_operation_xyz
x,y,z
-x,1/2+y,1/2-z
-x,-y,-z
x,1/2-y,1/2+z
loop_
_atom_site_type_symbol
_atom_site_label
_atom_site_fract_x
_atom_site_fract_y
_atom_site_fract_z
Si Si1 0.044595 0.277951 0.294365
Si Si2 0.267642 0.899579 0.077127
Si Si3 0.754624 0.216696 0.655515
Si Si4 0.305498 0.491422 0.897112
Si Si5 0.000672 0.387683 0.626246
Si Si6 0.077610 0.449235 0.134395
Si Si7 0.517925 0.445958 0.692149
O O1 0.094689 0.268992 0.008593
O O2 0.051203 0.333465 0.477695
O O3 0.900460 0.275986 0.201903
O O4 0.146254 0.885780 0.892063
O O5 0.245958 0.963119 0.188877
O O6 0.272654 0.848862 0.289332
O O7 0.395866 0.901977 0.944728
O O8 0.708403 0.258598 0.876311
O O9 0.214703 0.467067 0.098471
O O10 0.381011 0.439869 0.777080
O O11 0.400421 0.532682 0.055235
O O12 0.045305 0.398033 0.928244
O O13 0.044424 0.436448 0.429252
O O14 0.000000 0.500000 0.000000
O O15 0.500000 0.500000 0.500000
#
# Coordination Sequence:
#
# PCOD9242457 Si02
#       7
#     4   4   4   4   4   4   4
#     4   9  17  33  52  73 106 140 181 225 266 319
#     4  10  20  33  56  76 113 145 180 218 273 326
#     4   9  19  31  48  78 107 137 172 221 271 323
#     4  10  21  35  54  77 111 146 187 224 260 327
#     4  11  23  34  54  85 113 150 180 218 280 331
#     4  12  23  35  52  80 121 150 181 218 270 330
#     4   9  20  36  54  77 101 145 186 223 266 315
#
# _framework density 21.184920000000002
#
# number of rings (size 3 to 8) (size 9 to 14) (size 15 to 20)
#    0.000    2.000    1.429    2.143    6.000    2.286 
#    0.000    0.000    0.000    0.000    0.000    6.000 
#    0.000    0.000    0.000    0.000    0.000    0.000 
#
# Total GULP energy -156042.220029 kJ/mol
# GULP energy per Si atom -5572.936430 kJ/mol
# Density = 2.113670 g / cm^3
# Si number density = 21.184920 Si / 1000 Ang^3
#
#
#
# Elastic Constant Matrix: (Units=GPa)
#
#
# Indices 1 2 3 4 5 6 
#
# 1 50.1650 8.8451 -3.3079 0.0000 -22.2924 0.0000
# 2 8.8451 52.2261 -5.8644 0.0000 -1.2629 0.0000
# 3 -3.3079 -5.8644 57.7275 0.0000 -10.5396 0.0000
# 4 0.0000 0.0000 0.0000 24.1187 0.0000 -2.8814
# 5 -22.2924 -1.2629 -10.5396 0.0000 27.3292 0.0000
# 6 0.0000 0.0000 0.0000 -2.8814 0.0000 14.1528
#
#
#
# Elastic Compliance Matrix: (Units=1/GPa)
#
#
# Indices 1 2 3 4 5 6 
#
# 1 0.035036 -0.004365 0.007256 0.000000 0.031176 0.000000
# 2 -0.004365 0.019993 0.001398 0.000000 -0.002098 0.000000
# 3 0.007256 0.001398 0.020410 0.000000 0.013855 0.000000
# 4 0.000000 0.000000 0.000000 0.042495 0.000000 0.008652
# 5 0.031176 -0.002098 0.013855 0.000000 0.067267 0.000000
# 6 0.000000 0.000000 0.000000 0.008652 0.000000 0.072419
#
#
# Mechanical properties :
#
#
# Convention : Reuss Voigt Hill
#
# Bulk Modulus (GPa) = 11.90233 17.71824 14.81028
# Shear Modulus (GPa) = 18.04740 23.81653 20.93196
#
# Velocity S-wave (km/s) = 2.92190 3.35658 3.14675
# Velocity P-wave (km/s) = 4.12478 4.83776 4.49543
#
# Compressibility (1/GPa) = 0.08401719
#
# Stress axis : x y z
#
# Youngs Moduli (GPa) = 28.54185 50.01744 48.99540
#
# Poissons Ratio (x) = 0.21833 -0.35552
# Poissons Ratio (y) = 0.12459 -0.06849
# Poissons Ratio (z) = -0.20710 -0.06992
#
# Static dielectric constant tensor:
#      x y z
#    x 1.818900 0.000000 -0.022800 
#    y 0.000000 1.856930 0.000000 
#    z -0.022800 0.000000 1.871370 
# 
# From -- ./inp_files/2877.got.cif
#   From: 2010.05.17/outbox.cif.g08.bks.cpg/sg14_2_cif.got.tgz:2877.got - 2010.06.03 17:49:19.
