data_PCOD9242216
_publ_section_title
;
Structure prediction by ZEFSAII (Michael W. Deem and Ramdas Pophale) SiO2 
 PCOD9242216
Probable space group: P 21/C
;
_chemical_formula_sum "Si O2"
_cell_formula_units_Z 32
_cell_length_a 12.466443
_cell_length_b 10.288345
_cell_length_c 21.269760
_cell_angle_alpha 90.000000
_cell_angle_beta 29.624691
_cell_angle_gamma 90.000000
_cell_volume 1348.515023
_symmetry_space_group_name_H-M "P 21/C"
_symmetry_group_IT_number 14
_symmetry_cell_setting 'monoclinic'
loop_
_space_group_symop_operation_xyz
x,y,z
-x,1/2+y,1/2-z
-x,-y,-z
x,1/2-y,1/2+z
loop_
_atom_site_type_symbol
_atom_site_label
_atom_site_fract_x
_atom_site_fract_y
_atom_site_fract_z
Si Si1 0.828876 0.864519 0.340355
Si Si2 0.648042 0.466482 0.825364
Si Si3 0.773052 0.061587 0.700477
Si Si4 0.513356 0.194387 0.946742
Si Si5 0.732827 0.159391 0.956789
Si Si6 0.936791 0.340047 0.576321
Si Si7 0.200458 0.556904 0.030648
Si Si8 0.319088 0.995719 0.895264
O O1 0.738832 0.740132 0.425131
O O2 0.058259 0.837760 0.193591
O O3 0.687419 0.913953 0.352547
O O4 0.843423 0.984913 0.380491
O O5 0.615236 0.338595 0.884597
O O6 0.841633 0.432128 0.680184
O O7 0.429112 0.488674 0.896255
O O8 0.642907 0.108799 0.830022
O O9 0.877880 0.192890 0.620277
O O10 0.578021 0.006663 0.757239
O O11 0.976603 0.966418 0.607701
O O12 0.543644 0.146918 0.002216
O O13 0.741067 0.293614 0.990279
O O14 0.723940 0.044897 0.010961
O O15 0.803993 0.389227 0.583802
O O16 0.192058 0.371471 0.443102
#
# Coordination Sequence:
#
# PCOD9242216 Si02
#       8
#     4   4   4   4   4   4   4   4
#     4  11  20  37  61  94 138 180 214 262 340 400
#     4  10  19  40  66  90 129 181 218 264 332 396
#     4  11  26  44  71 102 133 174 227 281 331 408
#     4  10  21  36  62  96 131 170 212 268 331 399
#     4  12  23  38  62 100 142 170 215 282 332 400
#     4  10  25  50  71  90 128 180 226 281 338 397
#     4  11  23  38  64 107 133 172 226 266 340 408
#     4  11  27  48  68  98 131 177 229 278 342 390
#
# _framework density 23.729807000000001
#
# number of rings (size 3 to 8) (size 9 to 14) (size 15 to 20)
#    0.000    1.250    5.000    0.750    7.000    2.500 
#    4.500    1.250    0.000    0.000    0.000    0.000 
#    0.000    0.000    0.000    0.000    0.000    0.000 
#
# Total GULP energy -178741.709091 kJ/mol
# GULP energy per Si atom -5585.678409 kJ/mol
# Density = 2.367580 g / cm^3
# Si number density = 23.729807 Si / 1000 Ang^3
#
#
#
# Elastic Constant Matrix: (Units=GPa)
#
#
# Indices 1 2 3 4 5 6 
#
# 1 84.6685 17.5366 0.1706 0.0000 -21.3480 0.0000
# 2 17.5366 49.9383 0.1559 0.0000 -14.3765 0.0000
# 3 0.1706 0.1559 29.5358 0.0000 -27.8510 0.0000
# 4 0.0000 0.0000 0.0000 8.9466 0.0000 2.4501
# 5 -21.3480 -14.3765 -27.8510 0.0000 45.3670 0.0000
# 6 0.0000 0.0000 0.0000 2.4501 0.0000 11.6122
#
#
#
# Elastic Compliance Matrix: (Units=1/GPa)
#
#
# Indices 1 2 3 4 5 6 
#
# 1 0.016369 -0.000730 0.016514 0.000000 0.017609 0.000000
# 2 -0.000730 0.025453 0.016982 0.000000 0.018147 0.000000
# 3 0.016514 0.016982 0.109409 0.000000 0.080319 0.000000
# 4 0.000000 0.000000 0.000000 0.118629 0.000000 -0.025030
# 5 0.017609 0.018147 0.080319 0.000000 0.085387 0.000000
# 6 0.000000 0.000000 0.000000 -0.025030 0.000000 0.091397
#
#
# Mechanical properties :
#
#
# Convention : Reuss Voigt Hill
#
# Bulk Modulus (GPa) = 4.61337 22.20764 13.41051
# Shear Modulus (GPa) = 11.02858 22.93714 16.98286
#
# Velocity S-wave (km/s) = 2.15816 3.11239 2.67812
# Velocity P-wave (km/s) = 2.85632 4.72174 3.90214
#
# Compressibility (1/GPa) = 0.21676111
#
# Stress axis : x y z
#
# Youngs Moduli (GPa) = 61.09279 39.28871 9.13999
#
# Poissons Ratio (x) = 0.02869 -0.15093
# Poissons Ratio (y) = 0.04462 -0.15522
# Poissons Ratio (z) = -1.00886 -0.66721
#
# Static dielectric constant tensor:
#      x y z
#    x 1.960230 0.000000 -0.026730 
#    y 0.000000 1.860790 0.000000 
#    z -0.026730 0.000000 1.910840 
# 
# From -- ./inp_files/67419.got.cif
#   From: 2010.05.17/outbox.cif.g08.bks.cpg/sg14_34_cif.got.tgz:67419.got - 2010.06.03 17:49:19.
