data_PCOD9242770
_publ_section_title
;
Structure prediction by ZEFSAII (Michael W. Deem and Ramdas Pophale) SiO2 
 PCOD9242770
Probable space group: P 21/C
;
_chemical_formula_sum "Si O2"
_cell_formula_units_Z 32
_cell_length_a 28.956350
_cell_length_b 11.747641
_cell_length_c 8.126893
_cell_angle_alpha 90.000000
_cell_angle_beta 142.860643
_cell_angle_gamma 90.000000
_cell_volume 1669.092013
_symmetry_space_group_name_H-M "P 21/C"
_symmetry_group_IT_number 14
_symmetry_cell_setting 'monoclinic'
loop_
_space_group_symop_operation_xyz
x,y,z
-x,1/2+y,1/2-z
-x,-y,-z
x,1/2-y,1/2+z
loop_
_atom_site_type_symbol
_atom_site_label
_atom_site_fract_x
_atom_site_fract_y
_atom_site_fract_z
Si Si1 0.624572 0.657902 0.763080
Si Si2 0.127384 0.094153 0.620805
Si Si3 0.441904 0.982117 0.484302
Si Si4 0.552350 0.213895 0.261735
Si Si5 0.694838 0.622183 0.317227
Si Si6 0.578186 0.422181 0.523802
Si Si7 0.968592 0.401452 0.289859
Si Si8 0.043569 0.289750 0.187530
O O1 0.539125 0.714182 0.535629
O O2 0.677069 0.751940 0.830446
O O3 0.616274 0.544822 0.629305
O O4 0.663585 0.620445 0.042891
O O5 0.103366 0.192483 0.420097
O O6 0.079465 0.132205 0.646695
O O7 0.104093 0.968295 0.491269
O O8 0.216528 0.097065 0.913549
O O9 0.441045 0.854530 0.547796
O O10 0.500000 0.000000 0.500000
O O11 0.359242 0.036273 0.233881
O O12 0.487358 0.049920 0.758660
O O13 0.590044 0.334797 0.408843
O O14 0.592954 0.140901 0.236866
O O15 0.018950 0.365200 0.273942
O O16 0.972976 0.285340 0.411125
O O17 0.000000 0.500000 0.500000
#
# Coordination Sequence:
#
# PCOD9242770 Si02
#       8
#     4   4   4   4   4   4   4   4
#     4  11  22  37  54  84 113 152 191 255 312 362
#     4  10  20  35  59  93 125 160 193 243 305 358
#     4  11  22  35  56  82 108 156 205 255 306 360
#     4  11  19  37  56  78 105 142 210 256 300 360
#     4  12  23  38  57  85 129 151 195 256 318 362
#     4  11  21  37  58  80 106 143 208 257 301 361
#     4   9  18  34  64  94 127 162 202 237 284 353
#     4   9  18  36  60  96 125 158 200 242 281 358
#
# _framework density 19.172101000000001
#
# number of rings (size 3 to 8) (size 9 to 14) (size 15 to 20)
#    0.000    1.500    3.750    2.625    3.500    0.000 
#    0.000    0.000    2.750    0.000    0.000    0.000 
#    0.000    0.000    0.000    0.000    0.000    0.000 
#
# Total GULP energy -178374.566765 kJ/mol
# GULP energy per Si atom -5574.205211 kJ/mol
# Density = 1.912846 g / cm^3
# Si number density = 19.172101 Si / 1000 Ang^3
#
#
#
# Elastic Constant Matrix: (Units=GPa)
#
#
# Indices 1 2 3 4 5 6 
#
# 1 55.7363 34.8941 36.4777 0.0000 -11.2327 0.0000
# 2 34.8941 91.5045 51.6155 0.0000 10.2878 0.0000
# 3 36.4777 51.6155 108.7538 0.0000 3.8249 0.0000
# 4 0.0000 0.0000 0.0000 29.0834 0.0000 -6.0764
# 5 -11.2327 10.2878 3.8249 0.0000 23.5445 0.0000
# 6 0.0000 0.0000 0.0000 -6.0764 0.0000 34.9738
#
#
#
# Elastic Compliance Matrix: (Units=1/GPa)
#
#
# Indices 1 2 3 4 5 6 
#
# 1 0.034289 -0.011857 -0.006669 0.000000 0.022623 0.000000
# 2 -0.011857 0.019740 -0.004917 0.000000 -0.013484 0.000000
# 3 -0.006669 -0.004917 0.013881 0.000000 -0.003288 0.000000
# 4 0.000000 0.000000 0.000000 0.035679 0.000000 0.006199
# 5 0.022623 -0.013484 -0.003288 0.000000 0.059692 0.000000
# 6 0.000000 0.000000 0.000000 0.006199 0.000000 0.029670
#
#
# Mechanical properties :
#
#
# Convention : Reuss Voigt Hill
#
# Bulk Modulus (GPa) = 47.56761 55.77438 51.67099
# Shear Modulus (GPa) = 20.25548 26.38747 23.32148
#
# Velocity S-wave (km/s) = 3.25392 3.71394 3.49152
# Velocity P-wave (km/s) = 6.24356 6.89534 6.57753
#
# Compressibility (1/GPa) = 0.02102271
#
# Stress axis : x y z
#
# Youngs Moduli (GPa) = 29.16368 50.65918 72.03846
#
# Poissons Ratio (x) = 0.60068 0.48044
# Poissons Ratio (y) = 0.34580 0.35423
# Poissons Ratio (z) = 0.19450 0.24911
#
# Static dielectric constant tensor:
#      x y z
#    x 1.718370 0.000000 -0.072190 
#    y 0.000000 1.757310 0.000000 
#    z -0.072190 0.000000 1.684830 
# 
# From -- ./inp_files/19990.got.cif
#   From: 2010.05.17/outbox.cif.g08.bks.cpg/sg14_10_cif.got.tgz:19990.got - 2010.06.03 17:49:19.
