data_PCOD9242540
_publ_section_title
;
Structure prediction by ZEFSAII (Michael W. Deem and Ramdas Pophale) SiO2 
 PCOD9242540
Probable space group: P 21/C
;
_chemical_formula_sum "Si O2"
_cell_formula_units_Z 30
_cell_length_a 6.952889
_cell_length_b 6.972935
_cell_length_c 27.021024
_cell_angle_alpha 90.000000
_cell_angle_beta 102.441029
_cell_angle_gamma 90.000000
_cell_volume 1279.272558
_symmetry_space_group_name_H-M "P 21/C"
_symmetry_group_IT_number 14
_symmetry_cell_setting 'monoclinic'
loop_
_space_group_symop_operation_xyz
x,y,z
-x,1/2+y,1/2-z
-x,-y,-z
x,1/2-y,1/2+z
loop_
_atom_site_type_symbol
_atom_site_label
_atom_site_fract_x
_atom_site_fract_y
_atom_site_fract_z
Si Si1 0.971428 0.092004 0.566712
Si Si2 0.153790 0.372050 0.345372
Si Si3 0.308153 0.221844 0.954810
Si Si4 0.983620 0.448424 0.176963
Si Si5 0.217684 0.552527 0.734801
Si Si6 0.232503 0.778093 0.536018
Si Si7 0.000000 0.500000 0.500000
Si Si8 0.334883 0.115074 0.754888
O O1 0.800038 0.930732 0.551762
O O2 0.987667 0.155974 0.624183
O O3 0.163757 0.975136 0.558156
O O4 0.908096 0.251875 0.522470
O O5 0.253431 0.401985 0.403161
O O6 0.137843 0.140655 0.340861
O O7 0.286407 0.449140 0.307723
O O8 0.932668 0.429657 0.318786
O O9 0.541795 0.262564 0.964699
O O10 0.217970 0.105887 0.995150
O O11 0.881839 0.365483 0.220604
O O12 0.204816 0.499055 0.207393
O O13 0.249630 0.327420 0.744180
O O14 0.435627 0.628737 0.740735
O O15 0.120580 0.604809 0.556028
#
# Coordination Sequence:
#
# PCOD9242540 Si02
#       8
#     4   4   4   4   4   4   2   4
#     4   9  20  36  58  82 107 141 189 237 276 332
#     4   9  20  36  55  77 105 141 184 226 269 326
#     4  10  20  37  58  79 108 149 187 230 286 334
#     4   9  19  36  54  77 108 140 179 229 277 324
#     4  10  20  35  54  80 111 142 181 226 273 332
#     4  10  20  37  58  82 111 145 188 232 280 337
#     4  10  22  36  52  80 114 144 178 228 278 334
#     4  10  20  34  55  79 107 143 178 222 275 329
#
# _framework density 23.450827
#
# number of rings (size 3 to 8) (size 9 to 14) (size 15 to 20)
#    0.000    2.400    0.000    1.600    0.000    8.533 
#    0.000    1.333    0.000    0.000    0.000    0.000 
#    0.000    0.000    0.000    0.000    0.000    0.000 
#
# Total GULP energy -167025.181260 kJ/mol
# GULP energy per Si atom -5567.506042 kJ/mol
# Density = 2.339745 g / cm^3
# Si number density = 23.450827 Si / 1000 Ang^3
#
#
#
# Elastic Constant Matrix: (Units=GPa)
#
#
# Indices 1 2 3 4 5 6 
#
# 1 205.2089 23.0995 44.9044 0.0000 21.2831 0.0000
# 2 23.0995 63.6723 6.9108 0.0000 -2.7265 0.0000
# 3 44.9044 6.9108 115.8331 0.0000 -1.7199 0.0000
# 4 0.0000 0.0000 0.0000 21.7949 0.0000 5.1280
# 5 21.2831 -2.7265 -1.7199 0.0000 11.0634 0.0000
# 6 0.0000 0.0000 0.0000 5.1280 0.0000 26.7254
#
#
#
# Elastic Compliance Matrix: (Units=1/GPa)
#
#
# Indices 1 2 3 4 5 6 
#
# 1 0.007482 -0.003062 -0.002949 0.000000 -0.015606 0.000000
# 2 -0.003062 0.017219 0.000311 0.000000 0.010183 0.000000
# 3 -0.002949 0.000311 0.009866 0.000000 0.007284 0.000000
# 4 0.000000 0.000000 0.000000 0.048052 0.000000 -0.009220
# 5 -0.015606 0.010183 0.007284 0.000000 0.124053 0.000000
# 6 0.000000 0.000000 0.000000 -0.009220 0.000000 0.039187
#
#
# Mechanical properties :
#
#
# Convention : Reuss Voigt Hill
#
# Bulk Modulus (GPa) = 43.16844 59.39372 51.28108
# Shear Modulus (GPa) = 18.86927 32.57005 25.71966
#
# Velocity S-wave (km/s) = 2.83968 3.73079 3.31531
# Velocity P-wave (km/s) = 5.40368 6.62875 6.04732
#
# Compressibility (1/GPa) = 0.02316507
#
# Stress axis : x y z
#
# Youngs Moduli (GPa) = 133.65751 58.07626 101.35715
#
# Poissons Ratio (x) = 0.17786 0.29895
# Poissons Ratio (y) = 0.40932 -0.03153
# Poissons Ratio (z) = 0.39421 -0.01807
#
# Static dielectric constant tensor:
#      x y z
#    x 1.961190 0.000000 -0.058140 
#    y 0.000000 2.391410 0.000000 
#    z -0.058140 0.000000 1.972520 
# 
# From -- ./inp_files/78693.got.cif
#   From: 2010.05.17/outbox.cif.g08.bks.cpg/sg14_40_cif.got.tgz:78693.got - 2010.06.03 17:49:19.
