data_PCOD9242519
_publ_section_title
;
Structure prediction by ZEFSAII (Michael W. Deem and Ramdas Pophale) SiO2 
 PCOD9242519
Probable space group: P 21/C
;
_chemical_formula_sum "Si O2"
_cell_formula_units_Z 32
_cell_length_a 15.234647
_cell_length_b 8.643777
_cell_length_c 27.614074
_cell_angle_alpha 90.000000
_cell_angle_beta 21.401407
_cell_angle_gamma 90.000000
_cell_volume 1326.905146
_symmetry_space_group_name_H-M "P 21/C"
_symmetry_group_IT_number 14
_symmetry_cell_setting 'monoclinic'
loop_
_space_group_symop_operation_xyz
x,y,z
-x,1/2+y,1/2-z
-x,-y,-z
x,1/2-y,1/2+z
loop_
_atom_site_type_symbol
_atom_site_label
_atom_site_fract_x
_atom_site_fract_y
_atom_site_fract_z
Si Si1 0.282552 0.203215 0.662646
Si Si2 0.835676 0.079817 0.146463
Si Si3 0.899724 0.506530 0.832532
Si Si4 0.976608 0.267695 0.405826
Si Si5 0.491650 0.103545 0.406022
Si Si6 0.327848 0.703093 0.597643
Si Si7 0.316239 0.365162 0.365674
Si Si8 0.537879 0.654290 0.291664
O O1 0.219902 0.127685 0.643896
O O2 0.057503 0.262936 0.809071
O O3 0.493150 0.318686 0.539626
O O4 0.393951 0.059421 0.634858
O O5 0.607780 0.135913 0.294341
O O6 0.969963 0.947197 0.109134
O O7 0.755513 0.987292 0.140042
O O8 0.059168 0.190972 0.018947
O O9 0.827735 0.347969 0.843198
O O10 0.172743 0.553245 0.687239
O O11 0.787328 0.562028 0.941563
O O12 0.195765 0.181653 0.322297
O O13 0.691220 0.256960 0.564807
O O14 0.570813 0.236348 0.402959
O O15 0.472860 0.473219 0.320567
O O16 0.448244 0.231599 0.268669
#
# Coordination Sequence:
#
# PCOD9242519 Si02
#       8
#     4   4   4   4   4   4   4   4
#     4   8  16  30  50  71  97 135 172 205 246 305
#     4   8  15  33  54  69  97 142 183 199 236 331
#     4   9  17  30  50  73  99 132 168 209 254 299
#     4   9  18  31  53  81 102 131 176 219 251 301
#     4   8  15  31  49  69  96 135 178 199 238 314
#     4   9  17  30  50  73  99 132 168 209 254 299
#     4   9  18  33  54  76 100 136 168 212 268 304
#     4  10  20  34  54  78 106 134 172 216 262 314
#
# _framework density 24.116267000000001
#
# number of rings (size 3 to 8) (size 9 to 14) (size 15 to 20)
#    0.000    3.250    0.000    2.250    1.750    0.500 
#    2.250    2.500    0.000    3.000    0.000    0.000 
#    0.000    0.000    0.000    0.000    0.000    0.000 
#
# Total GULP energy -178215.687116 kJ/mol
# GULP energy per Si atom -5569.240222 kJ/mol
# Density = 2.406138 g / cm^3
# Si number density = 24.116267 Si / 1000 Ang^3
#
#
#
# Elastic Constant Matrix: (Units=GPa)
#
#
# Indices 1 2 3 4 5 6 
#
# 1 39.9744 -2.0691 9.9935 0.0000 9.2443 0.0000
# 2 -2.0691 22.0555 36.4761 0.0000 -7.8024 0.0000
# 3 9.9935 36.4761 128.4482 0.0000 21.8657 0.0000
# 4 0.0000 0.0000 0.0000 29.0284 0.0000 4.2684
# 5 9.2443 -7.8024 21.8657 0.0000 30.5851 0.0000
# 6 0.0000 0.0000 0.0000 4.2684 0.0000 -22.9017
#
#
#
# Elastic Compliance Matrix: (Units=1/GPa)
#
#
# Indices 1 2 3 4 5 6 
#
# 1 0.027127 0.006011 -0.003055 0.000000 -0.004482 0.000000
# 2 0.006011 0.229191 -0.085615 0.000000 0.117859 0.000000
# 3 -0.003055 -0.085615 0.040870 0.000000 -0.050136 0.000000
# 4 0.000000 0.000000 0.000000 0.033530 0.000000 0.006249
# 5 -0.004482 0.117859 -0.050136 0.000000 0.099960 0.000000
# 6 0.000000 0.000000 0.000000 0.006249 0.000000 -0.042500
#
#
# Mechanical properties :
#
#
# Convention : Reuss Voigt Hill
#
# Bulk Modulus (GPa) = 7.58317 31.03105 19.30711
# Shear Modulus (GPa) = 8.36885 17.08087 12.72486
#
# Velocity S-wave (km/s) = 1.86487 2.66422 2.29955
# Velocity P-wave (km/s) = 2.79074 4.72856 3.88250
#
# Compressibility (1/GPa) = 0.13187095
#
# Stress axis : x y z
#
# Youngs Moduli (GPa) = 36.86334 4.36317 24.46766
#
# Poissons Ratio (x) = -0.02623 0.07474
# Poissons Ratio (y) = -0.22159 2.09481
# Poissons Ratio (z) = 0.11260 0.37355
#
# Static dielectric constant tensor:
#      x y z
#    x 1.988100 0.000000 -0.037980 
#    y 0.000000 1.945680 0.000000 
#    z -0.037980 0.000000 2.055990 
# 
# From -- ./inp_files/80224.got.cif
#   From: 2010.05.17/outbox.cif.g08.bks.cpg/sg14_41_cif.got.tgz:80224.got - 2010.06.03 17:49:19.
