data_PCOD9242034
_publ_section_title
;
Structure prediction by ZEFSAII (Michael W. Deem and Ramdas Pophale) SiO2 
 PCOD9242034
Probable space group: P 21/C
;
_chemical_formula_sum "Si O2"
_cell_formula_units_Z 32
_cell_length_a 6.098107
_cell_length_b 22.193698
_cell_length_c 9.884985
_cell_angle_alpha 90.000000
_cell_angle_beta 69.623087
_cell_angle_gamma 90.000000
_cell_volume 1254.111180
_symmetry_space_group_name_H-M "P 21/C"
_symmetry_group_IT_number 14
_symmetry_cell_setting 'monoclinic'
loop_
_space_group_symop_operation_xyz
x,y,z
-x,1/2+y,1/2-z
-x,-y,-z
x,1/2-y,1/2+z
loop_
_atom_site_type_symbol
_atom_site_label
_atom_site_fract_x
_atom_site_fract_y
_atom_site_fract_z
Si Si1 0.674924 0.472714 0.769684
Si Si2 0.407999 0.718232 0.036748
Si Si3 0.543468 0.850473 0.735014
Si Si4 0.985905 0.116095 0.316192
Si Si5 0.297731 0.161828 0.740074
Si Si6 0.607157 0.435991 0.320386
Si Si7 0.811167 0.160090 0.966834
Si Si8 0.906562 0.564047 0.912982
O O1 0.497449 0.416598 0.824208
O O2 0.584569 0.510957 0.660459
O O3 0.720227 0.517122 0.887142
O O4 0.910909 0.432992 0.719990
O O5 0.588986 0.699068 0.113128
O O6 0.300733 0.782980 0.085830
O O7 0.205452 0.666715 0.098054
O O8 0.551402 0.713008 0.866543
O O9 0.769026 0.855089 0.779948
O O10 0.304621 0.834621 0.861963
O O11 0.036413 0.080101 0.444876
O O12 0.488477 0.117798 0.762882
O O13 0.161265 0.125603 0.650158
O O14 0.087842 0.169063 0.892424
O O15 0.706940 0.403118 0.432747
O O16 0.841075 0.457491 0.196285
#
# Coordination Sequence:
#
# PCOD9242034 Si02
#       8
#     4   4   4   4   4   4   4   4
#     4  10  23  39  69 102 141 179 224 290 334 412
#     4  11  25  44  70 101 134 177 233 287 334 405
#     4  11  26  47  65 107 141 176 230 287 344 400
#     4  11  22  39  67 104 140 176 227 286 346 398
#     4  10  22  45  68 100 133 175 226 278 338 410
#     4  10  22  43  67 101 135 182 227 274 344 412
#     4  11  28  44  71  98 137 188 223 278 350 410
#     4  10  19  38  68 101 135 178 223 277 346 401
#
# _framework density 25.516076999999999
#
# number of rings (size 3 to 8) (size 9 to 14) (size 15 to 20)
#    0.000    1.500    2.500    1.125    3.500    3.500 
#    0.000    6.250    0.000    0.000    0.000    0.000 
#    0.000    0.000    0.000    0.000    0.000    0.000 
#
# Total GULP energy -178510.844105 kJ/mol
# GULP energy per Si atom -5578.463878 kJ/mol
# Density = 2.545800 g / cm^3
# Si number density = 25.516077 Si / 1000 Ang^3
#
#
#
# Elastic Constant Matrix: (Units=GPa)
#
#
# Indices 1 2 3 4 5 6 
#
# 1 110.9192 32.5202 24.6583 0.0000 -24.4359 0.0000
# 2 32.5202 111.7149 21.9791 0.0000 -4.5960 0.0000
# 3 24.6583 21.9791 76.1333 0.0000 -19.2473 0.0000
# 4 0.0000 0.0000 0.0000 29.8656 0.0000 4.1992
# 5 -24.4359 -4.5960 -19.2473 0.0000 34.5236 0.0000
# 6 0.0000 0.0000 0.0000 4.1992 0.0000 43.3578
#
#
#
# Elastic Compliance Matrix: (Units=1/GPa)
#
#
# Indices 1 2 3 4 5 6 
#
# 1 0.011717 -0.002891 -0.001119 0.000000 0.007285 0.000000
# 2 -0.002891 0.010207 -0.002542 0.000000 -0.002105 0.000000
# 3 -0.001119 -0.002542 0.016233 0.000000 0.007920 0.000000
# 4 0.000000 0.000000 0.000000 0.033946 0.000000 -0.003288
# 5 0.007285 -0.002105 0.007920 0.000000 0.038257 0.000000
# 6 0.000000 0.000000 0.000000 -0.003288 0.000000 0.023382
#
#
# Mechanical properties :
#
#
# Convention : Reuss Voigt Hill
#
# Bulk Modulus (GPa) = 39.91576 50.78696 45.35136
# Shear Modulus (GPa) = 32.21727 36.19005 34.20366
#
# Velocity S-wave (km/s) = 3.55720 3.77015 3.66522
# Velocity P-wave (km/s) = 5.70516 6.23692 5.97696
#
# Compressibility (1/GPa) = 0.02505276
#
# Stress axis : x y z
#
# Youngs Moduli (GPa) = 85.34852 97.97677 61.60142
#
# Poissons Ratio (x) = 0.28325 0.06891
# Poissons Ratio (y) = 0.24674 0.15661
# Poissons Ratio (z) = 0.09547 0.24909
#
# Static dielectric constant tensor:
#      x y z
#    x 2.045840 0.000000 0.005340 
#    y 0.000000 2.028060 0.000000 
#    z 0.005340 0.000000 2.014560 
# 
# From -- ./inp_files/22182.got.cif
#   From: 2010.05.17/outbox.cif.g08.bks.cpg/sg14_12_cif.got.tgz:22182.got - 2010.06.03 17:49:19.
