data_PCOD9242386
_publ_section_title
;
Structure prediction by ZEFSAII (Michael W. Deem and Ramdas Pophale) SiO2 
 PCOD9242386
Probable space group: P 21/C
;
_chemical_formula_sum "Si O2"
_cell_formula_units_Z 32
_cell_length_a 10.856411
_cell_length_b 16.252188
_cell_length_c 10.790966
_cell_angle_alpha 90.000000
_cell_angle_beta 140.119735
_cell_angle_gamma 90.000000
_cell_volume 1220.792997
_symmetry_space_group_name_H-M "P 21/C"
_symmetry_group_IT_number 14
_symmetry_cell_setting 'monoclinic'
loop_
_space_group_symop_operation_xyz
x,y,z
-x,1/2+y,1/2-z
-x,-y,-z
x,1/2-y,1/2+z
loop_
_atom_site_type_symbol
_atom_site_label
_atom_site_fract_x
_atom_site_fract_y
_atom_site_fract_z
Si Si1 0.330139 0.147091 0.310914
Si Si2 0.698626 0.110861 0.168479
Si Si3 0.533232 0.906399 0.336921
Si Si4 0.128415 0.207117 0.797631
Si Si5 0.465288 0.782138 0.751036
Si Si6 0.010150 0.599102 0.614390
Si Si7 0.734498 0.574546 0.766063
Si Si8 0.835695 0.437241 0.529325
O O1 0.420437 0.089103 0.484149
O O2 0.177927 0.209468 0.261093
O O3 0.500275 0.191287 0.364960
O O4 0.196370 0.101790 0.112004
O O5 0.685899 0.172482 0.275597
O O6 0.762898 0.020549 0.261500
O O7 0.475890 0.101467 0.950760
O O8 0.825640 0.122821 0.141203
O O9 0.447870 0.815341 0.247353
O O10 0.725584 0.909705 0.404782
O O11 0.386774 0.968162 0.156436
O O12 0.326223 0.201410 0.027686
O O13 0.973220 0.176752 0.780425
O O14 0.121774 0.135427 0.690533
O O15 0.989856 0.510462 0.665980
O O16 0.140278 0.595702 0.593070
#
# Coordination Sequence:
#
# PCOD9242386 Si02
#       8
#     4   4   4   4   4   4   4   4
#     4  10  20  34  53  81 112 139 169 225 275 318
#     4   9  17  30  53  75 104 139 180 220 259 321
#     4  10  20  32  53  83 111 133 173 234 274 313
#     4   9  16  32  54  75 103 137 179 216 256 314
#     4   9  18  31  51  78 108 138 173 219 276 316
#     4  10  21  38  56  77 108 146 185 214 261 322
#     4   9  15  28  51  81  96 131 182 223 258 310
#     4  10  21  37  57  79 105 144 185 224 257 318
#
# _framework density 26.212468999999999
#
# number of rings (size 3 to 8) (size 9 to 14) (size 15 to 20)
#    0.000    2.500    2.500    0.000    7.000    0.500 
#    2.250    0.000    0.000    2.250    0.000    0.000 
#    0.000    0.000    0.000    0.000    0.000    0.000 
#
# Total GULP energy -178406.642359 kJ/mol
# GULP energy per Si atom -5575.207574 kJ/mol
# Density = 2.615281 g / cm^3
# Si number density = 26.212469 Si / 1000 Ang^3
#
#
#
# Elastic Constant Matrix: (Units=GPa)
#
#
# Indices 1 2 3 4 5 6 
#
# 1 129.8973 43.9565 10.7121 0.0000 -36.7978 0.0000
# 2 43.9565 57.4872 19.4056 0.0000 -22.6729 0.0000
# 3 10.7121 19.4056 46.4935 0.0000 -7.4379 0.0000
# 4 0.0000 0.0000 0.0000 20.8546 0.0000 -15.3732
# 5 -36.7978 -22.6729 -7.4379 0.0000 42.6530 0.0000
# 6 0.0000 0.0000 0.0000 -15.3732 0.0000 32.9494
#
#
#
# Elastic Compliance Matrix: (Units=1/GPa)
#
#
# Indices 1 2 3 4 5 6 
#
# 1 0.011813 -0.006746 0.001184 0.000000 0.006812 0.000000
# 2 -0.006746 0.028757 -0.009190 0.000000 0.007864 0.000000
# 3 0.001184 -0.009190 0.025155 0.000000 0.000522 0.000000
# 4 0.000000 0.000000 0.000000 0.073089 0.000000 0.034101
# 5 0.006812 0.007864 0.000522 0.000000 0.033594 0.000000
# 6 0.000000 0.000000 0.000000 0.034101 0.000000 0.046260
#
#
# Mechanical properties :
#
#
# Convention : Reuss Voigt Hill
#
# Bulk Modulus (GPa) = 27.60866 42.44738 35.02802
# Shear Modulus (GPa) = 19.21255 29.94499 24.57877
#
# Velocity S-wave (km/s) = 2.71025 3.38360 3.06547
# Velocity P-wave (km/s) = 4.51104 5.61193 5.09133
#
# Compressibility (1/GPa) = 0.03622052
#
# Stress axis : x y z
#
# Youngs Moduli (GPa) = 84.65072 34.77417 39.75328
#
# Poissons Ratio (x) = 0.23457 -0.04705
# Poissons Ratio (y) = 0.57102 0.36535
# Poissons Ratio (z) = -0.10019 0.31959
#
# Static dielectric constant tensor:
#      x y z
#    x 2.250170 0.000000 0.011170 
#    y 0.000000 2.155510 0.000000 
#    z 0.011170 0.000000 2.075660 
# 
# From -- ./inp_files/30200.got.cif
#   From: 2010.05.17/outbox.cif.g08.bks.cpg/sg14_16_cif.got.tgz:30200.got - 2010.06.03 17:49:19.
