data_PCOD9242824
_publ_section_title
;
Structure prediction by ZEFSAII (Michael W. Deem and Ramdas Pophale) SiO2 
 PCOD9242824
Probable space group: P 21/C
;
_chemical_formula_sum "Si O2"
_cell_formula_units_Z 16
_cell_length_a 6.870537
_cell_length_b 5.890448
_cell_length_c 14.793674
_cell_angle_alpha 90.000000
_cell_angle_beta 105.934690
_cell_angle_gamma 90.000000
_cell_volume 575.702792
_symmetry_space_group_name_H-M "P 21/C"
_symmetry_group_IT_number 14
_symmetry_cell_setting 'monoclinic'
loop_
_space_group_symop_operation_xyz
x,y,z
-x,1/2+y,1/2-z
-x,-y,-z
x,1/2-y,1/2+z
loop_
_atom_site_type_symbol
_atom_site_label
_atom_site_fract_x
_atom_site_fract_y
_atom_site_fract_z
Si Si1 0.887237 0.407729 0.843499
Si Si2 0.618143 0.304453 0.970438
Si Si3 0.563003 0.051305 0.146686
Si Si4 0.924825 0.914464 0.891341
O O1 0.706144 0.405026 0.747932
O O2 0.975838 0.148208 0.842033
O O3 0.982528 0.663976 0.858558
O O4 0.802573 0.390532 0.935144
O O5 0.646097 0.140104 0.060267
O O6 0.500000 0.500000 0.000000
O O7 0.462044 0.212583 0.875880
O O8 0.323646 0.111429 0.131124
O O9 0.000000 0.000000 0.000000
#
# Coordination Sequence:
#
# PCOD9242824 Si02
#       4
#     4   4   4   4
#     4  11  23  40  66  94 118 166 213 250 306 366
#     4  10  20  35  62  93 124 150 208 268 296 350
#     4  10  22  38  63  97 116 164 211 256 304 364
#     4  11  22  38  61  93 127 163 199 251 315 372
#
# _framework density 27.792114000000002
#
# number of rings (size 3 to 8) (size 9 to 14) (size 15 to 20)
#    0.000    1.500    2.500    3.750    3.500    0.000 
#    0.000    0.000    0.000   45.000    0.000    0.000 
#    0.000    0.000    0.000    0.000    0.000    0.000 
#
# Total GULP energy -89166.706681 kJ/mol
# GULP energy per Si atom -5572.919168 kJ/mol
# Density = 2.772886 g / cm^3
# Si number density = 27.792114 Si / 1000 Ang^3
#
#
#
# Elastic Constant Matrix: (Units=GPa)
#
#
# Indices 1 2 3 4 5 6 
#
# 1 94.0535 23.6558 39.9863 0.0000 -11.5450 0.0000
# 2 23.6558 232.1186 61.0910 0.0000 10.5295 0.0000
# 3 39.9863 61.0910 215.9866 0.0000 20.6454 0.0000
# 4 0.0000 0.0000 0.0000 44.3679 0.0000 15.3737
# 5 -11.5450 10.5295 20.6454 0.0000 60.1186 0.0000
# 6 0.0000 0.0000 0.0000 15.3737 0.0000 21.2815
#
#
#
# Elastic Compliance Matrix: (Units=1/GPa)
#
#
# Indices 1 2 3 4 5 6 
#
# 1 0.012236 -0.000775 -0.002361 0.000000 0.003296 0.000000
# 2 -0.000775 0.004712 -0.001133 0.000000 -0.000585 0.000000
# 3 -0.002361 -0.001133 0.005596 0.000000 -0.002177 0.000000
# 4 0.000000 0.000000 0.000000 0.030064 0.000000 -0.021718
# 5 0.003296 -0.000585 -0.002177 0.000000 0.018117 0.000000
# 6 0.000000 0.000000 0.000000 -0.021718 0.000000 0.062678
#
#
# Mechanical properties :
#
#
# Convention : Reuss Voigt Hill
#
# Bulk Modulus (GPa) = 71.40722 87.95833 79.68277
# Shear Modulus (GPa) = 34.10416 52.98198 43.54307
#
# Velocity S-wave (km/s) = 3.50682 4.37093 3.96250
# Velocity P-wave (km/s) = 6.49201 7.56246 7.04759
#
# Compressibility (1/GPa) = 0.01400419
#
# Stress axis : x y z
#
# Youngs Moduli (GPa) = 81.72874 212.22624 178.71062
#
# Poissons Ratio (x) = 0.16449 0.42195
# Poissons Ratio (y) = 0.06335 0.20254
# Poissons Ratio (z) = 0.19297 0.24053
#
# Static dielectric constant tensor:
#      x y z
#    x 2.234530 0.000000 0.094590 
#    y 0.000000 2.234780 0.000000 
#    z 0.094590 0.000000 2.101350 
# 
# From -- ./inp_files/56374.got.cif
#   From: 2010.05.17/outbox.cif.g08.bks.cpg/sg14_29_cif.got.tgz:56374.got - 2010.06.03 17:49:19.
