data_PCOD9242888
_publ_section_title
;
Structure prediction by ZEFSAII (Michael W. Deem and Ramdas Pophale) SiO2 
 PCOD9242888
Probable space group: P 21/C
;
_chemical_formula_sum "Si O2"
_cell_formula_units_Z 32
_cell_length_a 9.463553
_cell_length_b 25.986794
_cell_length_c 5.455760
_cell_angle_alpha 90.000000
_cell_angle_beta 104.576111
_cell_angle_gamma 90.000000
_cell_volume 1298.536504
_symmetry_space_group_name_H-M "P 21/C"
_symmetry_group_IT_number 14
_symmetry_cell_setting 'monoclinic'
loop_
_space_group_symop_operation_xyz
x,y,z
-x,1/2+y,1/2-z
-x,-y,-z
x,1/2-y,1/2+z
loop_
_atom_site_type_symbol
_atom_site_label
_atom_site_fract_x
_atom_site_fract_y
_atom_site_fract_z
Si Si1 0.164764 0.514073 0.515264
Si Si2 0.680803 0.091872 0.588482
Si Si3 0.910027 0.276588 0.472952
Si Si4 0.855984 0.672153 0.702708
Si Si5 0.171580 0.090247 0.182055
Si Si6 0.084165 0.635713 0.178863
Si Si7 0.380874 0.007205 0.732864
Si Si8 0.607939 0.870898 0.375412
O O1 0.239322 0.465546 0.687511
O O2 0.219782 0.507428 0.265587
O O3 0.000000 0.500000 0.500000
O O4 0.223249 0.565993 0.656642
O O5 0.784652 0.117251 0.431468
O O6 0.596123 0.041134 0.442202
O O7 0.561599 0.132120 0.635798
O O8 0.857584 0.256773 0.185584
O O9 0.083089 0.287575 0.472751
O O10 0.868249 0.332671 0.560111
O O11 0.876675 0.615287 0.593722
O O12 0.690975 0.668681 0.731512
O O13 0.972850 0.672963 0.976957
O O14 0.292256 0.129060 0.338471
O O15 0.028769 0.091345 0.290270
O O16 0.376307 0.069067 0.699977
O O17 0.500000 0.000000 0.000000
#
# Coordination Sequence:
#
# PCOD9242888 Si02
#       8
#     4   4   4   4   4   4   4   4
#     4  12  23  34  56  82 123 178 235 285 322 369
#     4  12  25  38  57  92 134 185 234 277 332 391
#     4  11  22  45  77 106 130 164 211 275 349 434
#     4  10  21  40  67  99 127 163 219 277 343 400
#     4  10  20  36  56  83 124 170 224 282 324 370
#     4  10  23  40  63  99 133 164 218 282 342 408
#     4  12  23  39  54  82 127 192 245 277 320 380
#     4  11  22  38  59  84 129 181 228 280 323 380
#
# _framework density 24.643129999999999
#
# number of rings (size 3 to 8) (size 9 to 14) (size 15 to 20)
#    0.000    1.000    5.000    2.625    1.750    2.000 
#    0.000    0.000    0.000    1.500    0.000    0.000 
#    0.000    0.000    0.000    0.000    0.000    0.000 
#
# Total GULP energy -178448.156425 kJ/mol
# GULP energy per Si atom -5576.504888 kJ/mol
# Density = 2.458704 g / cm^3
# Si number density = 24.643130 Si / 1000 Ang^3
#
#
#
# Elastic Constant Matrix: (Units=GPa)
#
#
# Indices 1 2 3 4 5 6 
#
# 1 137.0190 6.0683 14.3596 0.0000 -29.6942 0.0000
# 2 6.0683 71.0392 24.5687 0.0000 -12.1067 0.0000
# 3 14.3596 24.5687 75.0238 0.0000 -13.6705 0.0000
# 4 0.0000 0.0000 0.0000 52.8528 0.0000 -15.9869
# 5 -29.6942 -12.1067 -13.6705 0.0000 46.4275 0.0000
# 6 0.0000 0.0000 0.0000 -15.9869 0.0000 29.1397
#
#
#
# Elastic Compliance Matrix: (Units=1/GPa)
#
#
# Indices 1 2 3 4 5 6 
#
# 1 0.008518 0.000461 -0.000810 0.000000 0.005329 0.000000
# 2 0.000461 0.016241 -0.004841 0.000000 0.003104 0.000000
# 3 -0.000810 -0.004841 0.015581 0.000000 0.002807 0.000000
# 4 0.000000 0.000000 0.000000 0.022685 0.000000 0.012446
# 5 0.005329 0.003104 0.002807 0.000000 0.026584 0.000000
# 6 0.000000 0.000000 0.000000 0.012446 0.000000 0.041146
#
#
# Mechanical properties :
#
#
# Convention : Reuss Voigt Hill
#
# Bulk Modulus (GPa) = 33.37916 41.45280 37.41598
# Shear Modulus (GPa) = 33.08616 41.55634 37.32125
#
# Velocity S-wave (km/s) = 3.66814 4.11094 3.89584
# Velocity P-wave (km/s) = 5.61380 6.27622 5.95423
#
# Compressibility (1/GPa) = 0.02995881
#
# Stress axis : x y z
#
# Youngs Moduli (GPa) = 117.40227 61.57377 64.18056
#
# Poissons Ratio (x) = -0.02837 0.05199
# Poissons Ratio (y) = -0.05410 0.31070
# Poissons Ratio (z) = 0.09511 0.29808
#
# Static dielectric constant tensor:
#      x y z
#    x 2.004650 0.000000 0.014190 
#    y 0.000000 2.130730 0.000000 
#    z 0.014190 0.000000 2.105690 
# 
# From -- ./inp_files/2235.got.cif
#   From: 2010.05.17/outbox.cif.g08.bks.cpg/sg14_2_cif.got.tgz:2235.got - 2010.06.03 17:49:19.
