data_PCOD9242895
_publ_section_title
;
Structure prediction by ZEFSAII (Michael W. Deem and Ramdas Pophale) SiO2 
 PCOD9242895
Probable space group: P 21/C
;
_chemical_formula_sum "Si O2"
_cell_formula_units_Z 32
_cell_length_a 32.008327
_cell_length_b 11.934286
_cell_length_c 8.148357
_cell_angle_alpha 90.000000
_cell_angle_beta 30.464831
_cell_angle_gamma 90.000000
_cell_volume 1578.139771
_symmetry_space_group_name_H-M "P 21/C"
_symmetry_group_IT_number 14
_symmetry_cell_setting 'monoclinic'
loop_
_space_group_symop_operation_xyz
x,y,z
-x,1/2+y,1/2-z
-x,-y,-z
x,1/2-y,1/2+z
loop_
_atom_site_type_symbol
_atom_site_label
_atom_site_fract_x
_atom_site_fract_y
_atom_site_fract_z
Si Si1 0.206772 0.367227 0.562020
Si Si2 0.452216 0.910863 0.544724
Si Si3 0.926386 0.221660 0.877332
Si Si4 0.965037 0.015449 0.935015
Si Si5 0.520058 0.791756 0.990300
Si Si6 0.124088 0.578473 0.751506
Si Si7 0.379801 0.381710 0.147356
Si Si8 0.110777 0.189878 0.702135
O O1 0.196284 0.489563 0.519519
O O2 0.181902 0.273561 0.516482
O O3 0.135631 0.354091 0.940315
O O4 0.293157 0.355023 0.358035
O O5 0.495012 0.866518 0.231582
O O6 0.450026 0.796108 0.660717
O O7 0.500000 0.000000 0.500000
O O8 0.380107 0.992759 0.722031
O O9 0.881056 0.150236 0.894079
O O10 0.021003 0.251823 0.510108
O O11 0.932413 0.138360 0.012396
O O12 0.879507 0.333622 0.087315
O O13 0.037742 0.988371 0.561686
O O14 0.897807 0.916910 0.148667
O O15 0.000000 0.000000 0.000000
O O16 0.592799 0.708797 0.808381
O O17 0.552523 0.865074 0.727504
#
# Coordination Sequence:
#
# PCOD9242895 Si02
#       8
#     4   4   4   4   4   4   4   4
#     4  12  24  37  54  83 123 150 186 228 303 361
#     4   9  18  34  63  92 117 147 192 234 272 324
#     4  11  22  38  59  78 104 143 206 251 287 330
#     4  11  19  37  58  81 103 141 198 252 293 329
#     4   9  18  36  62  89 116 150 191 236 273 320
#     4  11  23  36  56  78 107 145 192 247 288 339
#     4  10  20  36  56  88 120 153 184 229 285 348
#     4  11  22  36  56  82 109 149 190 250 294 342
#
# _framework density 20.277035999999999
#
# number of rings (size 3 to 8) (size 9 to 14) (size 15 to 20)
#    0.000    1.500    2.500    4.500    1.750    0.000 
#    0.000    1.250    0.000    0.000    0.000    0.000 
#    0.000    0.000    0.000    0.000    0.000    0.000 
#
# Total GULP energy -178467.677513 kJ/mol
# GULP energy per Si atom -5577.114922 kJ/mol
# Density = 2.023088 g / cm^3
# Si number density = 20.277036 Si / 1000 Ang^3
#
#
#
# Elastic Constant Matrix: (Units=GPa)
#
#
# Indices 1 2 3 4 5 6 
#
# 1 80.7543 26.9754 12.8615 0.0000 -5.6245 0.0000
# 2 26.9754 107.3645 14.7980 0.0000 -11.8140 0.0000
# 3 12.8615 14.7980 11.9306 0.0000 0.6104 0.0000
# 4 0.0000 0.0000 0.0000 10.4278 0.0000 9.1997
# 5 -5.6245 -11.8140 0.6104 0.0000 25.8602 0.0000
# 6 0.0000 0.0000 0.0000 9.1997 0.0000 43.3512
#
#
#
# Elastic Compliance Matrix: (Units=1/GPa)
#
#
# Indices 1 2 3 4 5 6 
#
# 1 0.015481 -0.001488 -0.015000 0.000000 0.003042 0.000000
# 2 -0.001488 0.012207 -0.013823 0.000000 0.005579 0.000000
# 3 -0.015000 -0.013823 0.117765 0.000000 -0.012357 0.000000
# 4 0.000000 0.000000 0.000000 0.117987 0.000000 -0.025038
# 5 0.003042 0.005579 -0.012357 0.000000 0.042172 0.000000
# 6 0.000000 0.000000 0.000000 -0.025038 0.000000 0.028381
#
#
# Mechanical properties :
#
#
# Convention : Reuss Voigt Hill
#
# Bulk Modulus (GPa) = 11.78775 34.36880 23.07827
# Shear Modulus (GPa) = 11.82339 25.62213 18.72276
#
# Velocity S-wave (km/s) = 2.41735 3.55858 3.04196
# Velocity P-wave (km/s) = 3.69018 5.81988 4.87280
#
# Compressibility (1/GPa) = 0.08483384
#
# Stress axis : x y z
#
# Youngs Moduli (GPa) = 64.59561 81.92080 8.49146
#
# Poissons Ratio (x) = 0.12186 0.12737
# Poissons Ratio (y) = 0.09609 0.11737
# Poissons Ratio (z) = 0.96890 1.13236
#
# Static dielectric constant tensor:
#      x y z
#    x 1.770210 0.000000 0.019860 
#    y 0.000000 1.786790 0.000000 
#    z 0.019860 0.000000 1.700240 
# 
# From -- ./inp_files/15778.got.cif
#   From: 2010.05.17/outbox.cif.g08.bks.cpg/sg14_8_cif.got.tgz:15778.got - 2010.06.03 17:49:19.
