data_PCOD9242810
_publ_section_title
;
Structure prediction by ZEFSAII (Michael W. Deem and Ramdas Pophale) SiO2 
 PCOD9242810
Probable space group: P 21/C
;
_chemical_formula_sum "Si O2"
_cell_formula_units_Z 24
_cell_length_a 12.957219
_cell_length_b 8.888677
_cell_length_c 15.518533
_cell_angle_alpha 90.000000
_cell_angle_beta 144.493686
_cell_angle_gamma 90.000000
_cell_volume 1038.055833
_symmetry_space_group_name_H-M "P 21/C"
_symmetry_group_IT_number 14
_symmetry_cell_setting 'monoclinic'
loop_
_space_group_symop_operation_xyz
x,y,z
-x,1/2+y,1/2-z
-x,-y,-z
x,1/2-y,1/2+z
loop_
_atom_site_type_symbol
_atom_site_label
_atom_site_fract_x
_atom_site_fract_y
_atom_site_fract_z
Si Si1 0.419049 0.160875 0.431544
Si Si2 0.646108 0.658915 0.917239
Si Si3 0.687317 0.981473 0.874893
Si Si4 0.346597 0.578366 0.450175
Si Si5 0.031406 0.955086 0.327389
Si Si6 0.964637 0.881522 0.847767
O O1 0.359031 0.215695 0.486594
O O2 0.581790 0.252941 0.503549
O O3 0.234310 0.150013 0.253529
O O4 0.500000 0.000000 0.500000
O O5 0.466790 0.565558 0.781056
O O6 0.668310 0.801427 0.869650
O O7 0.810169 0.544612 0.019227
O O8 0.657973 0.030497 0.954491
O O9 0.879910 0.053869 0.986713
O O10 0.500000 0.500000 0.500000
O O11 0.157829 0.534172 0.280871
O O12 0.055089 0.993305 0.241776
O O13 0.025893 0.779092 0.347753
#
# Coordination Sequence:
#
# PCOD9242810 Si02
#       6
#     4   4   4   4   4   4
#     4  11  24  37  64  91 122 150 205 248 294 344
#     4  11  24  42  60  91 117 163 198 244 298 362
#     4  11  24  40  64  84 125 157 203 240 304 356
#     4  11  20  41  62  89 116 158 196 246 292 354
#     4  10  20  35  62  84 120 156 204 234 297 358
#     4  10  20  37  58  89 116 160 198 241 289 364
#
# _framework density 23.120142000000001
#
# number of rings (size 3 to 8) (size 9 to 14) (size 15 to 20)
#    0.000    1.333    3.333    4.000   14.000    0.000 
#    0.000    3.333    0.000    0.000    0.000    0.000 
#    0.000    0.000    0.000    0.000    0.000    0.000 
#
# Total GULP energy -134158.084076 kJ/mol
# GULP energy per Si atom -5589.920170 kJ/mol
# Density = 2.306752 g / cm^3
# Si number density = 23.120142 Si / 1000 Ang^3
#
#
#
# Elastic Constant Matrix: (Units=GPa)
#
#
# Indices 1 2 3 4 5 6 
#
# 1 80.6266 10.3570 22.6979 0.0000 18.7710 0.0000
# 2 10.3570 116.1334 44.9286 0.0000 9.3660 0.0000
# 3 22.6979 44.9286 184.7536 0.0000 34.0340 0.0000
# 4 0.0000 0.0000 0.0000 40.5861 0.0000 9.6769
# 5 18.7710 9.3660 34.0340 0.0000 33.0651 0.0000
# 6 0.0000 0.0000 0.0000 9.6769 0.0000 34.5320
#
#
#
# Elastic Compliance Matrix: (Units=1/GPa)
#
#
# Indices 1 2 3 4 5 6 
#
# 1 0.014342 -0.000579 -0.000187 0.000000 -0.007786 0.000000
# 2 -0.000579 0.009532 -0.002234 0.000000 -0.000072 0.000000
# 3 -0.000187 -0.002234 0.007210 0.000000 -0.006682 0.000000
# 4 0.000000 0.000000 0.000000 0.026403 0.000000 -0.007399
# 5 -0.007786 -0.000072 -0.006682 0.000000 0.041562 0.000000
# 6 0.000000 0.000000 0.000000 -0.007399 0.000000 0.031032
#
#
# Mechanical properties :
#
#
# Convention : Reuss Voigt Hill
#
# Bulk Modulus (GPa) = 39.86362 59.72009 49.79185
# Shear Modulus (GPa) = 34.61591 41.87199 38.24395
#
# Velocity S-wave (km/s) = 3.87359 4.26027 4.07152
# Velocity P-wave (km/s) = 6.10620 7.07717 6.60954
#
# Compressibility (1/GPa) = 0.02508553
#
# Stress axis : x y z
#
# Youngs Moduli (GPa) = 69.72289 104.90560 138.70213
#
# Poissons Ratio (x) = 0.06072 0.02595
# Poissons Ratio (y) = 0.04036 0.30981
# Poissons Ratio (z) = 0.01304 0.23432
#
# Static dielectric constant tensor:
#      x y z
#    x 1.923480 0.000000 0.007460 
#    y 0.000000 2.145500 0.000000 
#    z 0.007460 0.000000 1.919940 
# 
# From -- ./inp_files/38919.got.cif
#   From: 2010.05.17/outbox.cif.g08.bks.cpg/sg14_20_cif.got.tgz:38919.got - 2010.06.03 17:49:19.
