data_PCOD9242153
_publ_section_title
;
Structure prediction by ZEFSAII (Michael W. Deem and Ramdas Pophale) SiO2 
 PCOD9242153
Probable space group: P 21/C
;
_chemical_formula_sum "Si O2"
_cell_formula_units_Z 28
_cell_length_a 23.274923
_cell_length_b 5.869781
_cell_length_c 18.023982
_cell_angle_alpha 90.000000
_cell_angle_beta 33.521736
_cell_angle_gamma 90.000000
_cell_volume 1359.875689
_symmetry_space_group_name_H-M "P 21/C"
_symmetry_group_IT_number 14
_symmetry_cell_setting 'monoclinic'
loop_
_space_group_symop_operation_xyz
x,y,z
-x,1/2+y,1/2-z
-x,-y,-z
x,1/2-y,1/2+z
loop_
_atom_site_type_symbol
_atom_site_label
_atom_site_fract_x
_atom_site_fract_y
_atom_site_fract_z
Si Si1 0.699014 0.347204 0.680629
Si Si2 0.740825 0.669031 0.770405
Si Si3 0.513194 0.753913 0.026790
Si Si4 0.118570 0.562340 0.935571
Si Si5 0.835096 0.455644 0.399213
Si Si6 0.124043 0.832222 0.785174
Si Si7 0.019198 0.207945 0.806770
O O1 0.710696 0.560753 0.723540
O O2 0.581789 0.256226 0.812642
O O3 0.781767 0.172290 0.628744
O O4 0.738599 0.415813 0.556967
O O5 0.784298 0.486297 0.780559
O O6 0.835013 0.836173 0.649617
O O7 0.634172 0.764913 0.918925
O O8 0.500000 0.500000 0.000000
O O9 0.500000 0.000000 0.000000
O O10 0.083393 0.708451 0.902442
O O11 0.027589 0.584516 0.093897
O O12 0.871639 0.714315 0.345476
O O13 0.934171 0.351490 0.337008
O O14 0.828017 0.332988 0.328178
O O15 0.038757 0.992411 0.838133
#
# Coordination Sequence:
#
# PCOD9242153 Si02
#       7
#     4   4   4   4   4   4   4
#     4   9  21  37  62  94 118 158 208 261 313 381
#     4  10  21  37  65  90 122 154 208 262 320 373
#     4  10  19  39  68  99 124 161 211 267 318 380
#     4  10  21  37  61  90 120 160 205 258 313 374
#     4  11  23  38  59  84 122 163 212 251 315 376
#     4  11  23  39  56  86 125 162 205 262 314 376
#     4  11  23  38  59  85 120 166 212 256 309 379
#
# _framework density 20.590115999999998
#
# number of rings (size 3 to 8) (size 9 to 14) (size 15 to 20)
#    0.000    1.714    2.857    1.286    2.000    3.429 
#    0.000    0.000    6.286    0.000    0.000    0.000 
#    0.000    0.000    0.000    0.000    0.000    0.000 
#
# Total GULP energy -156177.237365 kJ/mol
# GULP energy per Si atom -5577.758477 kJ/mol
# Density = 2.054325 g / cm^3
# Si number density = 20.590116 Si / 1000 Ang^3
#
#
#
# Elastic Constant Matrix: (Units=GPa)
#
#
# Indices 1 2 3 4 5 6 
#
# 1 48.4763 11.5076 24.9743 0.0000 10.8334 0.0000
# 2 11.5076 59.6663 18.7766 0.0000 -1.7038 0.0000
# 3 24.9743 18.7766 135.4741 0.0000 -2.2409 0.0000
# 4 0.0000 0.0000 0.0000 24.1723 0.0000 2.6794
# 5 10.8334 -1.7038 -2.2409 0.0000 29.5684 0.0000
# 6 0.0000 0.0000 0.0000 2.6794 0.0000 19.4914
#
#
#
# Elastic Compliance Matrix: (Units=1/GPa)
#
#
# Indices 1 2 3 4 5 6 
#
# 1 0.026111 -0.003929 -0.004436 0.000000 -0.010129 0.000000
# 2 -0.003929 0.018136 -0.001750 0.000000 0.002352 0.000000
# 3 -0.004436 -0.001750 0.008478 0.000000 0.002167 0.000000
# 4 0.000000 0.000000 0.000000 0.042010 0.000000 -0.005775
# 5 -0.010129 0.002352 0.002167 0.000000 0.037831 0.000000
# 6 0.000000 0.000000 0.000000 -0.005775 0.000000 0.052099
#
#
# Mechanical properties :
#
#
# Convention : Reuss Voigt Hill
#
# Bulk Modulus (GPa) = 30.77644 39.34820 35.06232
# Shear Modulus (GPa) = 23.17763 27.20364 25.19063
#
# Velocity S-wave (km/s) = 3.35874 3.63877 3.50156
# Velocity P-wave (km/s) = 5.47915 6.06679 5.78044
#
# Compressibility (1/GPa) = 0.03249238
#
# Stress axis : x y z
#
# Youngs Moduli (GPa) = 38.29877 55.14008 117.95551
#
# Poissons Ratio (x) = 0.21664 0.52330
# Poissons Ratio (y) = 0.15047 0.20647
# Poissons Ratio (z) = 0.16991 0.09652
#
# Static dielectric constant tensor:
#      x y z
#    x 1.714560 0.000000 -0.018100 
#    y 0.000000 1.835770 0.000000 
#    z -0.018100 0.000000 1.764910 
# 
# From -- ./inp_files/62146.got.cif
#   From: 2010.05.17/outbox.cif.g08.bks.cpg/sg14_32_cif.got.tgz:62146.got - 2010.06.03 17:49:19.
