data_PCOD9242342
_publ_section_title
;
Structure prediction by ZEFSAII (Michael W. Deem and Ramdas Pophale) SiO2 
 PCOD9242342
Probable space group: P 21/C
;
_chemical_formula_sum "Si O2"
_cell_formula_units_Z 24
_cell_length_a 7.207259
_cell_length_b 18.621849
_cell_length_c 10.220988
_cell_angle_alpha 90.000000
_cell_angle_beta 39.116808
_cell_angle_gamma 90.000000
_cell_volume 865.463391
_symmetry_space_group_name_H-M "P 21/C"
_symmetry_group_IT_number 14
_symmetry_cell_setting 'monoclinic'
loop_
_space_group_symop_operation_xyz
x,y,z
-x,1/2+y,1/2-z
-x,-y,-z
x,1/2-y,1/2+z
loop_
_atom_site_type_symbol
_atom_site_label
_atom_site_fract_x
_atom_site_fract_y
_atom_site_fract_z
Si Si1 0.017273 0.752312 0.743526
Si Si2 0.785942 0.379527 0.052185
Si Si3 0.167425 0.122093 0.014484
Si Si4 0.093650 0.499195 0.220825
Si Si5 0.711800 0.871034 0.521646
Si Si6 0.409780 0.883700 0.967169
O O1 0.085740 0.810201 0.593054
O O2 0.242065 0.690144 0.586107
O O3 0.013103 0.804026 0.873567
O O4 0.723403 0.704098 0.935725
O O5 0.434431 0.375422 0.267088
O O6 0.868939 0.451605 0.928835
O O7 0.961358 0.380721 0.092476
O O8 0.345692 0.112630 0.053619
O O9 0.939360 0.056574 0.143278
O O10 0.797622 0.452753 0.406200
O O11 0.325503 0.435454 0.061833
O O12 0.529304 0.877110 0.754276
#
# Coordination Sequence:
#
# PCOD9242342 Si02
#       6
#     4   4   4   4   4   4
#     4  10  22  34  48  76 108 150 178 202 264 314
#     4  11  20  33  53  78 112 140 172 213 263 316
#     4  11  20  33  53  78 112 140 172 213 263 316
#     4  10  20  30  54  84 106 140 164 210 286 324
#     4  11  20  33  53  78 112 140 172 213 263 316
#     4  11  20  33  53  78 112 140 172 213 263 316
#
# _framework density 27.730810000000002
#
# number of rings (size 3 to 8) (size 9 to 14) (size 15 to 20)
#    0.000    1.333    6.667    3.000    0.000    0.000 
#    0.000    0.000    0.000    0.000    0.000   37.333 
#    0.000    0.000    0.000    0.000    0.000    0.000 
#
# Total GULP energy -134118.536266 kJ/mol
# GULP energy per Si atom -5588.272344 kJ/mol
# Density = 2.766769 g / cm^3
# Si number density = 27.730810 Si / 1000 Ang^3
#
#
#
# Elastic Constant Matrix: (Units=GPa)
#
#
# Indices 1 2 3 4 5 6 
#
# 1 99.6144 22.2347 38.3271 0.0000 19.7634 0.0000
# 2 22.2347 227.9822 87.1433 0.0000 24.7311 0.0000
# 3 38.3271 87.1433 235.2615 0.0000 16.6772 0.0000
# 4 0.0000 0.0000 0.0000 65.0779 0.0000 8.7118
# 5 19.7634 24.7311 16.6772 0.0000 32.5408 0.0000
# 6 0.0000 0.0000 0.0000 8.7118 0.0000 28.0968
#
#
#
# Elastic Compliance Matrix: (Units=1/GPa)
#
#
# Indices 1 2 3 4 5 6 
#
# 1 0.011893 0.000132 -0.001523 0.000000 -0.006543 0.000000
# 2 0.000132 0.005415 -0.001795 0.000000 -0.003275 0.000000
# 3 -0.001523 -0.001795 0.005190 0.000000 -0.000371 0.000000
# 4 0.000000 0.000000 0.000000 0.016032 0.000000 -0.004971
# 5 -0.006543 -0.003275 -0.000371 0.000000 0.037384 0.000000
# 6 0.000000 0.000000 0.000000 -0.004971 0.000000 0.037133
#
#
# Mechanical properties :
#
#
# Convention : Reuss Voigt Hill
#
# Bulk Modulus (GPa) = 62.00983 95.36316 78.68650
# Shear Modulus (GPa) = 40.06628 52.81994 46.44311
#
# Velocity S-wave (km/s) = 3.80521 4.36907 4.09685
# Velocity P-wave (km/s) = 6.45880 7.74049 7.12851
#
# Compressibility (1/GPa) = 0.01612647
#
# Stress axis : x y z
#
# Youngs Moduli (GPa) = 84.08124 184.67601 192.68497
#
# Poissons Ratio (x) = -0.02435 0.29338
# Poissons Ratio (y) = -0.01109 0.34587
# Poissons Ratio (z) = 0.12802 0.33150
#
# Static dielectric constant tensor:
#      x y z
#    x 2.213980 0.000000 -0.093530 
#    y 0.000000 2.193320 0.000000 
#    z -0.093530 0.000000 2.262350 
# 
# From -- ./inp_files/44880.got.cif
#   From: 2010.05.17/outbox.cif.g08.bks.cpg/sg14_23_cif.got.tgz:44880.got - 2010.06.03 17:49:19.
