data_PCOD9242588
_publ_section_title
;
Structure prediction by ZEFSAII (Michael W. Deem and Ramdas Pophale) SiO2 
 PCOD9242588
Probable space group: P 21/C
;
_chemical_formula_sum "Si O2"
_cell_formula_units_Z 28
_cell_length_a 6.919295
_cell_length_b 16.266416
_cell_length_c 9.722026
_cell_angle_alpha 90.000000
_cell_angle_beta 85.506819
_cell_angle_gamma 90.000000
_cell_volume 1090.871792
_symmetry_space_group_name_H-M "P 21/C"
_symmetry_group_IT_number 14
_symmetry_cell_setting 'monoclinic'
loop_
_space_group_symop_operation_xyz
x,y,z
-x,1/2+y,1/2-z
-x,-y,-z
x,1/2-y,1/2+z
loop_
_atom_site_type_symbol
_atom_site_label
_atom_site_fract_x
_atom_site_fract_y
_atom_site_fract_z
Si Si1 0.671012 0.909751 0.546679
Si Si2 0.359012 0.584056 0.300008
Si Si3 0.833731 0.040201 0.714930
Si Si4 0.946384 0.610708 0.361504
Si Si5 0.886838 0.761867 0.663799
Si Si6 0.273216 0.093082 0.755183
Si Si7 0.775274 0.154830 0.933039
O O1 0.502242 0.899979 0.668280
O O2 0.813990 0.834615 0.571545
O O3 0.608555 0.904993 0.393552
O O4 0.770542 0.997320 0.578419
O O5 0.141248 0.601601 0.259658
O O6 0.346948 0.486458 0.334921
O O7 0.377034 0.641871 0.435006
O O8 0.716273 0.113365 0.794235
O O9 0.054294 0.072437 0.709408
O O10 0.812893 0.963312 0.823724
O O11 0.042344 0.604459 0.505242
O O12 0.873580 0.699334 0.318803
O O13 0.749386 0.681274 0.671556
O O14 0.106238 0.736395 0.609944
#
# Coordination Sequence:
#
# PCOD9242588 Si02
#       7
#     4   4   4   4   4   4   4
#     4  11  21  37  54  89 116 143 187 237 274 337
#     4   9  21  37  58  79 117 150 180 227 294 326
#     4   9  18  32  60  79 102 143 193 222 266 320
#     4   8  17  33  51  78 105 144 174 229 271 334
#     4  10  20  34  58  82 109 147 196 230 278 324
#     4  10  20  37  58  82 108 156 187 227 278 334
#     4   9  18  35  58  80 107 146 186 229 271 340
#
# _framework density 25.667545
#
# number of rings (size 3 to 8) (size 9 to 14) (size 15 to 20)
#    0.857    1.714    0.000    2.143    2.000    0.571 
#    2.571    2.857    0.000    0.000    0.000    0.000 
#    0.000    0.000    0.000    0.000    0.000    0.000 
#
# Total GULP energy -156099.522440 kJ/mol
# GULP energy per Si atom -5574.982944 kJ/mol
# Density = 2.560912 g / cm^3
# Si number density = 25.667545 Si / 1000 Ang^3
#
#
#
# Elastic Constant Matrix: (Units=GPa)
#
#
# Indices 1 2 3 4 5 6 
#
# 1 54.0914 23.3595 25.4297 0.0000 -4.6768 0.0000
# 2 23.3595 122.8075 32.2990 0.0000 -6.2109 0.0000
# 3 25.4297 32.2990 119.1154 0.0000 -9.1376 0.0000
# 4 0.0000 0.0000 0.0000 30.3312 0.0000 1.2822
# 5 -4.6768 -6.2109 -9.1376 0.0000 39.8707 0.0000
# 6 0.0000 0.0000 0.0000 1.2822 0.0000 33.7587
#
#
#
# Elastic Compliance Matrix: (Units=1/GPa)
#
#
# Indices 1 2 3 4 5 6 
#
# 1 0.021662 -0.003087 -0.003694 0.000000 0.001213 0.000000
# 2 -0.003087 0.009236 -0.001794 0.000000 0.000665 0.000000
# 3 -0.003694 -0.001794 0.009788 0.000000 0.001530 0.000000
# 4 0.000000 0.000000 0.000000 0.033022 0.000000 -0.001254
# 5 0.001213 0.000665 0.001530 0.000000 0.025678 0.000000
# 6 0.000000 0.000000 0.000000 -0.001254 0.000000 0.029670
#
#
# Mechanical properties :
#
#
# Convention : Reuss Voigt Hill
#
# Bulk Modulus (GPa) = 42.49205 50.91009 46.70107
# Shear Modulus (GPa) = 32.45659 35.12054 33.78856
#
# Velocity S-wave (km/s) = 3.55984 3.70305 3.63215
# Velocity P-wave (km/s) = 5.78682 6.17745 5.98532
#
# Compressibility (1/GPa) = 0.02353382
#
# Stress axis : x y z
#
# Youngs Moduli (GPa) = 46.16317 108.27664 102.16785
#
# Poissons Ratio (x) = 0.33430 0.37745
# Poissons Ratio (y) = 0.14253 0.18330
# Poissons Ratio (z) = 0.17054 0.19426
#
# Static dielectric constant tensor:
#      x y z
#    x 2.146700 0.000000 -0.049060 
#    y 0.000000 2.065110 0.000000 
#    z -0.049060 0.000000 2.074080 
# 
# From -- ./inp_files/25199.got.cif
#   From: 2010.05.17/outbox.cif.g08.bks.cpg/sg14_13_cif.got.tgz:25199.got - 2010.06.03 17:49:19.
