data_PCOD9242523
_publ_section_title
;
Structure prediction by ZEFSAII (Michael W. Deem and Ramdas Pophale) SiO2 
 PCOD9242523
Probable space group: P 21/C
;
_chemical_formula_sum "Si O2"
_cell_formula_units_Z 32
_cell_length_a 13.886498
_cell_length_b 13.881777
_cell_length_c 18.861492
_cell_angle_alpha 90.000000
_cell_angle_beta 160.664385
_cell_angle_gamma 90.000000
_cell_volume 1203.855409
_symmetry_space_group_name_H-M "P 21/C"
_symmetry_group_IT_number 14
_symmetry_cell_setting 'monoclinic'
loop_
_space_group_symop_operation_xyz
x,y,z
-x,1/2+y,1/2-z
-x,-y,-z
x,1/2-y,1/2+z
loop_
_atom_site_type_symbol
_atom_site_label
_atom_site_fract_x
_atom_site_fract_y
_atom_site_fract_z
Si Si1 0.411963 0.981466 0.313740
Si Si2 0.686382 0.080180 0.366848
Si Si3 0.063034 0.290162 0.211049
Si Si4 0.312430 0.848715 0.865839
Si Si5 0.908380 0.419748 0.227784
Si Si6 0.519295 0.518513 0.617389
Si Si7 0.155466 0.209845 0.007287
Si Si8 0.025792 0.651292 0.472545
O O1 0.538862 0.033254 0.331931
O O2 0.666152 0.000422 0.546324
O O3 0.319131 0.879623 0.216663
O O4 0.150960 0.051644 0.156779
O O5 0.989397 0.124806 0.602528
O O6 0.687001 0.000407 0.306728
O O7 0.471841 0.172191 0.201806
O O8 0.891842 0.327761 0.161745
O O9 0.408072 0.286039 0.465553
O O10 0.961973 0.198135 0.096097
O O11 0.325501 0.948358 0.831450
O O12 0.001129 0.801876 0.635428
O O13 0.409051 0.879646 0.011608
O O14 0.942225 0.375157 0.328911
O O15 0.211402 0.466650 0.418185
O O16 0.138282 0.213957 0.080646
#
# Coordination Sequence:
#
# PCOD9242523 Si02
#       8
#     4   4   4   4   4   4   4   4
#     4   9  19  35  53  76 106 138 177 219 264 315
#     4   9  19  36  54  76 107 139 173 221 269 312
#     4  10  20  35  55  77 106 140 176 218 265 314
#     4  10  20  34  54  79 105 139 180 218 260 316
#     4   9  19  36  54  76 107 139 173 221 269 312
#     4   9  19  35  53  76 106 138 177 219 264 315
#     4  10  20  35  55  77 106 140 176 218 265 314
#     4  10  20  34  54  79 105 139 180 218 260 316
#
# _framework density 26.581265999999999
#
# number of rings (size 3 to 8) (size 9 to 14) (size 15 to 20)
#    0.000    2.500    0.000    1.500    0.000    3.000 
#    0.000    5.000    0.000    0.000    0.000    0.000 
#    0.000    0.000    0.000    0.000    0.000    0.000 
#
# Total GULP energy -178741.893252 kJ/mol
# GULP energy per Si atom -5585.684164 kJ/mol
# Density = 2.652077 g / cm^3
# Si number density = 26.581266 Si / 1000 Ang^3
#
#
#
# Elastic Constant Matrix: (Units=GPa)
#
#
# Indices 1 2 3 4 5 6 
#
# 1 89.0835 16.3071 6.8468 0.0000 -21.2190 0.0000
# 2 16.3071 57.5943 16.5330 0.0000 -0.0446 0.0000
# 3 6.8468 16.5330 108.6066 0.0000 -2.9629 0.0000
# 4 0.0000 0.0000 0.0000 37.5452 0.0000 -10.4552
# 5 -21.2190 -0.0446 -2.9629 0.0000 26.6688 0.0000
# 6 0.0000 0.0000 0.0000 -10.4552 0.0000 29.1800
#
#
#
# Elastic Compliance Matrix: (Units=1/GPa)
#
#
# Indices 1 2 3 4 5 6 
#
# 1 0.014792 -0.004187 0.000026 0.000000 0.011765 0.000000
# 2 -0.004187 0.019343 -0.002779 0.000000 -0.003607 0.000000
# 3 0.000026 -0.002779 0.009659 0.000000 0.001089 0.000000
# 4 0.000000 0.000000 0.000000 0.029587 0.000000 0.010601
# 5 0.011765 -0.003607 0.001089 0.000000 0.046973 0.000000
# 6 0.000000 0.000000 0.000000 0.010601 0.000000 0.038068
#
#
# Mechanical properties :
#
#
# Convention : Reuss Voigt Hill
#
# Bulk Modulus (GPa) = 33.42875 37.18424 35.30650
# Shear Modulus (GPa) = 27.43135 33.05195 30.24165
#
# Velocity S-wave (km/s) = 3.21593 3.53006 3.37665
# Velocity P-wave (km/s) = 5.13741 5.53483 5.33982
#
# Compressibility (1/GPa) = 0.02991437
#
# Stress axis : x y z
#
# Youngs Moduli (GPa) = 67.60319 51.69785 103.53376
#
# Poissons Ratio (x) = 0.21643 -0.00267
# Poissons Ratio (y) = 0.28302 0.28773
# Poissons Ratio (z) = -0.00174 0.14367
#
# Static dielectric constant tensor:
#      x y z
#    x 2.129590 0.000000 -0.005790 
#    y 0.000000 2.099470 0.000000 
#    z -0.005790 0.000000 2.134410 
# 
# From -- ./inp_files/68734.got.cif
#   From: 2010.05.17/outbox.cif.g08.bks.cpg/sg14_35_cif.got.tgz:68734.got - 2010.06.03 17:49:19.
