data_PCOD9242902
_publ_section_title
;
Structure prediction by ZEFSAII (Michael W. Deem and Ramdas Pophale) SiO2 
 PCOD9242902
Probable space group: P 21/C
;
_chemical_formula_sum "Si O2"
_cell_formula_units_Z 32
_cell_length_a 12.324455
_cell_length_b 5.529030
_cell_length_c 30.403089
_cell_angle_alpha 90.000000
_cell_angle_beta 130.974193
_cell_angle_gamma 90.000000
_cell_volume 1564.170931
_symmetry_space_group_name_H-M "P 21/C"
_symmetry_group_IT_number 14
_symmetry_cell_setting 'monoclinic'
loop_
_space_group_symop_operation_xyz
x,y,z
-x,1/2+y,1/2-z
-x,-y,-z
x,1/2-y,1/2+z
loop_
_atom_site_type_symbol
_atom_site_label
_atom_site_fract_x
_atom_site_fract_y
_atom_site_fract_z
Si Si1 0.755339 0.535311 0.932846
Si Si2 0.199446 0.085391 0.782461
Si Si3 0.322885 0.690071 0.882134
Si Si4 0.985881 0.397285 0.062272
Si Si5 0.481022 0.298286 0.864419
Si Si6 0.608396 0.903381 0.963113
Si Si7 0.906408 0.912429 0.086880
Si Si8 0.071684 0.132348 0.325062
O O1 0.621003 0.391937 0.876941
O O2 0.682841 0.739891 0.944410
O O3 0.866834 0.618692 0.925872
O O4 0.854096 0.378254 0.992323
O O5 0.245394 0.893731 0.832356
O O6 0.085043 0.981899 0.718375
O O7 0.353607 0.165753 0.804703
O O8 0.116171 0.294444 0.787386
O O9 0.397212 0.512581 0.866527
O O10 0.463835 0.784654 0.944957
O O11 0.200112 0.544195 0.875125
O O12 0.965054 0.664563 0.078613
O O13 0.976273 0.162313 0.090129
O O14 0.545871 0.133884 0.920833
O O15 0.736838 0.937185 0.031229
O O16 0.929504 0.861504 0.143946
#
# Coordination Sequence:
#
# PCOD9242902 Si02
#       8
#     4   4   4   4   4   4   4   4
#     4   9  18  33  61  83 122 155 193 243 285 353
#     4  10  20  36  57  83 107 146 215 242 296 354
#     4   9  19  35  54  84 108 155 197 247 286 361
#     4  10  22  36  56  92 123 158 198 234 299 365
#     4   9  17  33  57  86 109 147 201 246 289 345
#     4   9  18  34  56  85 122 150 198 232 298 363
#     4  11  24  37  56  90 128 159 192 244 307 362
#     4  11  22  36  60  80 117 153 197 258 297 351
#
# _framework density 20.458121999999999
#
# number of rings (size 3 to 8) (size 9 to 14) (size 15 to 20)
#    0.000    2.250    2.500    0.000    3.500    2.000 
#    0.000    5.625    0.000    0.000    9.750    0.000 
#    0.000    0.000    0.000    0.000    0.000    0.000 
#
# Total GULP energy -178402.273619 kJ/mol
# GULP energy per Si atom -5575.071051 kJ/mol
# Density = 2.041156 g / cm^3
# Si number density = 20.458122 Si / 1000 Ang^3
#
#
#
# Elastic Constant Matrix: (Units=GPa)
#
#
# Indices 1 2 3 4 5 6 
#
# 1 107.4219 42.2601 50.0288 0.0000 32.3468 0.0000
# 2 42.2601 66.2108 15.7192 0.0000 14.7772 0.0000
# 3 50.0288 15.7192 67.6239 0.0000 30.0105 0.0000
# 4 0.0000 0.0000 0.0000 17.2651 0.0000 6.8651
# 5 32.3468 14.7772 30.0105 0.0000 31.4349 0.0000
# 6 0.0000 0.0000 0.0000 6.8651 0.0000 25.8938
#
#
#
# Elastic Compliance Matrix: (Units=1/GPa)
#
#
# Indices 1 2 3 4 5 6 
#
# 1 0.018840 -0.008358 -0.008911 0.000000 -0.006951 0.000000
# 2 -0.008358 0.020601 0.003255 0.000000 -0.004190 0.000000
# 3 -0.008911 0.003255 0.029902 0.000000 -0.020908 0.000000
# 4 0.000000 0.000000 0.000000 0.064746 0.000000 -0.017166
# 5 -0.006951 -0.004190 -0.020908 0.000000 0.060894 0.000000
# 6 0.000000 0.000000 0.000000 -0.017166 0.000000 0.043170
#
#
# Mechanical properties :
#
#
# Convention : Reuss Voigt Hill
#
# Bulk Modulus (GPa) = 24.20488 50.80810 37.50649
# Shear Modulus (GPa) = 17.86013 23.80200 20.83106
#
# Velocity S-wave (km/s) = 2.95788 3.41464 3.19443
# Velocity P-wave (km/s) = 4.85000 6.35889 5.65499
#
# Compressibility (1/GPa) = 0.04131399
#
# Stress axis : x y z
#
# Youngs Moduli (GPa) = 53.07830 48.54218 33.44281
#
# Poissons Ratio (x) = 0.40573 0.29799
# Poissons Ratio (y) = 0.44364 -0.10884
# Poissons Ratio (z) = 0.47296 -0.15798
#
# Static dielectric constant tensor:
#      x y z
#    x 1.721190 0.000000 0.022600 
#    y 0.000000 1.824290 0.000000 
#    z 0.022600 0.000000 1.723530 
# 
# From -- ./inp_files/74800.got.cif
#   From: 2010.05.17/outbox.cif.g08.bks.cpg/sg14_38_cif.got.tgz:74800.got - 2010.06.03 17:49:19.
