data_PCOD9242776
_publ_section_title
;
Structure prediction by ZEFSAII (Michael W. Deem and Ramdas Pophale) SiO2 
 PCOD9242776
Probable space group: P 21/C
;
_chemical_formula_sum "Si O2"
_cell_formula_units_Z 24
_cell_length_a 17.732664
_cell_length_b 17.864037
_cell_length_c 11.326475
_cell_angle_alpha 90.000000
_cell_angle_beta 20.105743
_cell_angle_gamma 90.000000
_cell_volume 1233.377159
_symmetry_space_group_name_H-M "P 21/C"
_symmetry_group_IT_number 14
_symmetry_cell_setting 'monoclinic'
loop_
_space_group_symop_operation_xyz
x,y,z
-x,1/2+y,1/2-z
-x,-y,-z
x,1/2-y,1/2+z
loop_
_atom_site_type_symbol
_atom_site_label
_atom_site_fract_x
_atom_site_fract_y
_atom_site_fract_z
Si Si1 0.411470 0.145418 0.258060
Si Si2 0.746457 0.236980 0.215165
Si Si3 0.406749 0.390424 0.213505
Si Si4 0.953752 0.860698 0.384615
Si Si5 0.612512 0.443723 0.673076
Si Si6 0.151965 0.284403 0.733112
O O1 0.216902 0.111717 0.464064
O O2 0.536050 0.088039 0.159793
O O3 0.296319 0.210089 0.507241
O O4 0.583257 0.194626 0.928695
O O5 0.607248 0.163878 0.453057
O O6 0.910781 0.208331 0.872523
O O7 0.898213 0.262372 0.099636
O O8 0.401477 0.467309 0.292810
O O9 0.200859 0.339404 0.551000
O O10 0.450098 0.410310 0.013167
O O11 0.812493 0.829835 0.700511
O O12 0.141188 0.917183 0.154533
#
# Coordination Sequence:
#
# PCOD9242776 Si02
#       6
#     4   4   4   4   4   4
#     4  10  21  35  59  84 114 149 195 239 287 346
#     4   9  19  36  55  86 109 149 191 233 290 337
#     4   9  21  37  61  83 117 160 190 230 301 343
#     4  10  21  34  58  85 113 145 196 238 286 343
#     4  10  20  41  60  80 122 156 186 242 289 347
#     4  10  20  35  60  87 110 149 194 241 281 343
#
# _framework density 19.458767000000002
#
# number of rings (size 3 to 8) (size 9 to 14) (size 15 to 20)
#    0.000    2.333    1.667    0.000    9.333    0.667 
#    0.000   14.167    0.000    0.000    0.000    0.000 
#    0.000    0.000    0.000    0.000    0.000    0.000 
#
# Total GULP energy -133734.939637 kJ/mol
# GULP energy per Si atom -5572.289152 kJ/mol
# Density = 1.941448 g / cm^3
# Si number density = 19.458767 Si / 1000 Ang^3
#
#
#
# Elastic Constant Matrix: (Units=GPa)
#
#
# Indices 1 2 3 4 5 6 
#
# 1 57.7826 22.0131 9.7311 0.0000 -33.7021 0.0000
# 2 22.0131 68.4213 2.9142 0.0000 -21.0519 0.0000
# 3 9.7311 2.9142 28.9120 0.0000 -30.0668 0.0000
# 4 0.0000 0.0000 0.0000 5.5297 0.0000 0.2027
# 5 -33.7021 -21.0519 -30.0668 0.0000 14.6658 0.0000
# 6 0.0000 0.0000 0.0000 0.2027 0.0000 19.8687
#
#
#
# Elastic Compliance Matrix: (Units=1/GPa)
#
#
# Indices 1 2 3 4 5 6 
#
# 1 0.015821 -0.008413 -0.018350 0.000000 -0.013340 0.000000
# 2 -0.008413 0.015878 -0.004265 0.000000 -0.005285 0.000000
# 3 -0.018350 -0.004265 0.007973 0.000000 -0.031945 0.000000
# 4 0.000000 0.000000 0.000000 0.180909 0.000000 -0.001846
# 5 -0.013340 -0.005285 -0.031945 0.000000 -0.035548 0.000000
# 6 0.000000 0.000000 0.000000 -0.001846 0.000000 0.050349
#
#
# Mechanical properties :
#
#
# Convention : Reuss Voigt Hill
#
# Bulk Modulus (GPa) = -44.67367 24.93696 -9.86835
# Shear Modulus (GPa) = 17.24284 16.04334 16.64309
#
# Velocity S-wave (km/s) = 2.98001 2.87449 2.92772
# Velocity P-wave (km/s) = 3.34176 4.88467 2.51919
#
# Compressibility (1/GPa) = -0.02238455
#
# Stress axis : x y z
#
# Youngs Moduli (GPa) = 63.20820 62.98162 125.42575
#
# Poissons Ratio (x) = 0.52987 2.30158
# Poissons Ratio (y) = 0.53177 0.53490
# Poissons Ratio (z) = 1.15988 0.26860
#
# Static dielectric constant tensor:
#      x y z
#    x 1.713230 0.000000 0.015620 
#    y 0.000000 1.676630 0.000000 
#    z 0.015620 0.000000 1.741030 
# 
# From -- ./inp_files/25968.got.cif
#   From: 2010.05.17/outbox.cif.g08.bks.cpg/sg14_13_cif.got.tgz:25968.got - 2010.06.03 17:49:19.
