data_PCOD9242949
_publ_section_title
;
Structure prediction by ZEFSAII (Michael W. Deem and Ramdas Pophale) SiO2 
 PCOD9242949
Probable space group: P 21/C
;
_chemical_formula_sum "Si O2"
_cell_formula_units_Z 32
_cell_length_a 20.843804
_cell_length_b 8.697156
_cell_length_c 12.420226
_cell_angle_alpha 90.000000
_cell_angle_beta 134.591925
_cell_angle_gamma 90.000000
_cell_volume 1603.392951
_symmetry_space_group_name_H-M "P 21/C"
_symmetry_group_IT_number 14
_symmetry_cell_setting 'monoclinic'
loop_
_space_group_symop_operation_xyz
x,y,z
-x,1/2+y,1/2-z
-x,-y,-z
x,1/2-y,1/2+z
loop_
_atom_site_type_symbol
_atom_site_label
_atom_site_fract_x
_atom_site_fract_y
_atom_site_fract_z
Si Si1 0.079436 0.995214 0.439888
Si Si2 0.405171 0.452832 0.836593
Si Si3 0.989484 0.750268 0.484837
Si Si4 0.696226 0.119268 0.594732
Si Si5 0.720239 0.414746 0.755428
Si Si6 0.410233 0.751047 0.721436
Si Si7 0.882295 0.003786 0.758974
Si Si8 0.431981 0.134915 0.956950
O O1 0.184828 0.975877 0.592033
O O2 0.072139 0.998831 0.303773
O O3 0.026546 0.854859 0.432285
O O4 0.038858 0.144655 0.448851
O O5 0.334373 0.509693 0.843756
O O6 0.394056 0.567506 0.721186
O O7 0.410919 0.267673 0.843153
O O8 0.500000 0.500000 0.000000
O O9 0.903983 0.654486 0.343859
O O10 0.067645 0.634142 0.612808
O O11 0.734637 0.276221 0.689816
O O12 0.614453 0.176524 0.422528
O O13 0.776794 0.038650 0.626142
O O14 0.657990 0.337967 0.775943
O O15 0.661130 0.548758 0.631449
O O16 0.512259 0.787206 0.879858
O O17 0.500000 0.000000 0.000000
#
# Coordination Sequence:
#
# PCOD9242949 Si02
#       8
#     4   4   4   4   4   4   4   4
#     4  11  21  41  64  89 128 161 203 259 318 372
#     4   9  20  38  59  84 120 160 208 250 301 366
#     4  10  24  40  64  91 122 163 203 260 314 382
#     4  11  21  36  62  91 121 164 204 255 307 373
#     4  10  20  36  58  86 123 155 197 257 308 361
#     4   9  19  38  58  84 118 160 202 251 308 363
#     4  11  22  41  64  93 122 161 211 251 317 380
#     4   9  19  36  59  83 119 163 200 254 307 352
#
# _framework density 19.957678999999999
#
# number of rings (size 3 to 8) (size 9 to 14) (size 15 to 20)
#    0.000    2.000    2.500    1.500    1.750    2.000 
#    0.000    3.750    0.000    0.000    0.000    0.000 
#    0.000    0.000    0.000    0.000    0.000    0.000 
#
# Total GULP energy -178449.292346 kJ/mol
# GULP energy per Si atom -5576.540386 kJ/mol
# Density = 1.991225 g / cm^3
# Si number density = 19.957679 Si / 1000 Ang^3
#
#
#
# Elastic Constant Matrix: (Units=GPa)
#
#
# Indices 1 2 3 4 5 6 
#
# 1 35.9288 21.6721 -17.5264 0.0000 0.3772 0.0000
# 2 21.6721 115.5144 17.9281 0.0000 0.7607 0.0000
# 3 -17.5264 17.9281 43.4763 0.0000 2.9810 0.0000
# 4 0.0000 0.0000 0.0000 19.5190 0.0000 10.6577
# 5 0.3772 0.7607 2.9810 0.0000 33.2955 0.0000
# 6 0.0000 0.0000 0.0000 10.6577 0.0000 21.3328
#
#
#
# Elastic Compliance Matrix: (Units=1/GPa)
#
#
# Indices 1 2 3 4 5 6 
#
# 1 0.047503 -0.012708 0.024558 0.000000 -0.002447 0.000000
# 2 -0.012708 0.012649 -0.010392 0.000000 0.000785 0.000000
# 3 0.024558 -0.010392 0.037419 0.000000 -0.003391 0.000000
# 4 0.000000 0.000000 0.000000 0.070450 0.000000 -0.035196
# 5 -0.002447 0.000785 -0.003391 0.000000 0.030347 0.000000
# 6 0.000000 0.000000 0.000000 -0.035196 0.000000 0.064460
#
#
# Mechanical properties :
#
#
# Convention : Reuss Voigt Hill
#
# Bulk Modulus (GPa) = 9.95167 26.56302 18.25734
# Shear Modulus (GPa) = 17.04112 26.35250 21.69681
#
# Velocity S-wave (km/s) = 2.92526 3.63770 3.30076
# Velocity P-wave (km/s) = 4.05053 5.56618 4.86771
#
# Compressibility (1/GPa) = 0.10048569
#
# Stress axis : x y z
#
# Youngs Moduli (GPa) = 21.05129 79.05883 26.72453
#
# Poissons Ratio (x) = 1.00464 -0.65629
# Poissons Ratio (y) = 0.26751 0.27773
# Poissons Ratio (z) = -0.51697 0.82162
#
# Static dielectric constant tensor:
#      x y z
#    x 1.703550 0.000000 -0.017120 
#    y 0.000000 1.739950 0.000000 
#    z -0.017120 0.000000 1.697060 
# 
# From -- ./inp_files/34976.got.cif
#   From: 2010.05.17/outbox.cif.g08.bks.cpg/sg14_18_cif.got.tgz:34976.got - 2010.06.03 17:49:19.
