data_PCOD9242425
_publ_section_title
;
Structure prediction by ZEFSAII (Michael W. Deem and Ramdas Pophale) SiO2 
 PCOD9242425
Probable space group: P 21/C
;
_chemical_formula_sum "Si O2"
_cell_formula_units_Z 24
_cell_length_a 14.262259
_cell_length_b 7.592400
_cell_length_c 16.625637
_cell_angle_alpha 90.000000
_cell_angle_beta 145.313362
_cell_angle_gamma 90.000000
_cell_volume 1024.530637
_symmetry_space_group_name_H-M "P 21/C"
_symmetry_group_IT_number 14
_symmetry_cell_setting 'monoclinic'
loop_
_space_group_symop_operation_xyz
x,y,z
-x,1/2+y,1/2-z
-x,-y,-z
x,1/2-y,1/2+z
loop_
_atom_site_type_symbol
_atom_site_label
_atom_site_fract_x
_atom_site_fract_y
_atom_site_fract_z
Si Si1 0.244617 0.482322 0.437023
Si Si2 0.451853 0.456940 0.726216
Si Si3 0.603118 0.717723 0.592009
Si Si4 0.263275 0.106435 0.651673
Si Si5 0.063993 0.377085 0.866298
Si Si6 0.353120 0.541440 0.984039
O O1 0.324822 0.552755 0.576203
O O2 0.386403 0.406482 0.477892
O O3 0.140973 0.307751 0.391153
O O4 0.115374 0.595244 0.295489
O O5 0.366096 0.271846 0.686299
O O6 0.620854 0.445214 0.794140
O O7 0.510689 0.526814 0.854670
O O8 0.724281 0.641014 0.745293
O O9 0.663514 0.907824 0.601764
O O10 0.427911 0.774462 0.506435
O O11 0.092787 0.107432 0.482698
O O12 0.183103 0.526073 0.911493
#
# Coordination Sequence:
#
# PCOD9242425 Si02
#       6
#     4   4   4   4   4   4
#     4  10  20  33  51  76 105 137 174 215 257 307
#     4   9  18  33  53  75 101 136 176 209 253 313
#     4   9  17  31  55  80 104 130 172 222 260 294
#     4   9  18  33  53  76 104 137 173 214 257 306
#     4   9  19  34  52  74 104 142 175 206 257 316
#     4   8  16  34  56  73 100 143 176 204 256 319
#
# _framework density 23.425362
#
# number of rings (size 3 to 8) (size 9 to 14) (size 15 to 20)
#    0.000    3.000    0.000    1.000    0.000    5.333 
#    0.000    0.000    0.000   57.000    0.000    0.000 
#    0.000    0.000    0.000    0.000    0.000    0.000 
#
# Total GULP energy -133797.418523 kJ/mol
# GULP energy per Si atom -5574.892438 kJ/mol
# Density = 2.337204 g / cm^3
# Si number density = 23.425362 Si / 1000 Ang^3
#
#
#
# Elastic Constant Matrix: (Units=GPa)
#
#
# Indices 1 2 3 4 5 6 
#
# 1 56.8011 9.3552 52.1068 0.0000 -24.4965 0.0000
# 2 9.3552 56.9644 28.1628 0.0000 -13.5805 0.0000
# 3 52.1068 28.1628 194.2997 0.0000 -12.2554 0.0000
# 4 0.0000 0.0000 0.0000 38.7641 0.0000 -0.8812
# 5 -24.4965 -13.5805 -12.2554 0.0000 35.9101 0.0000
# 6 0.0000 0.0000 0.0000 -0.8812 0.0000 29.6630
#
#
#
# Elastic Compliance Matrix: (Units=1/GPa)
#
#
# Indices 1 2 3 4 5 6 
#
# 1 0.033961 0.003695 -0.008272 0.000000 0.021742 0.000000
# 2 0.003695 0.020845 -0.003430 0.000000 0.009233 0.000000
# 3 -0.008272 -0.003430 0.007588 0.000000 -0.004350 0.000000
# 4 0.000000 0.000000 0.000000 0.025815 0.000000 0.000767
# 5 0.021742 0.009233 -0.004350 0.000000 0.044686 0.000000
# 6 0.000000 0.000000 0.000000 0.000767 0.000000 0.033735
#
#
# Mechanical properties :
#
#
# Convention : Reuss Voigt Hill
#
# Bulk Modulus (GPa) = 21.56048 54.14610 37.85329
# Shear Modulus (GPa) = 25.23940 35.43014 30.33477
#
# Velocity S-wave (km/s) = 3.28600 3.89327 3.60245
# Velocity P-wave (km/s) = 4.86014 6.58593 5.78772
#
# Compressibility (1/GPa) = 0.04638116
#
# Stress axis : x y z
#
# Youngs Moduli (GPa) = 29.44513 47.97317 131.79044
#
# Poissons Ratio (x) = -0.17728 1.09017
# Poissons Ratio (y) = -0.10881 0.45204
# Poissons Ratio (z) = 0.24357 0.16455
#
# Static dielectric constant tensor:
#      x y z
#    x 1.911990 0.000000 -0.006520 
#    y 0.000000 1.979030 0.000000 
#    z -0.006520 0.000000 1.865440 
# 
# From -- ./inp_files/60204.got.cif
#   From: 2010.05.17/outbox.cif.g08.bks.cpg/sg14_31_cif.got.tgz:60204.got - 2010.06.03 17:49:19.
