data_PCOD9242077
_publ_section_title
;
Structure prediction by ZEFSAII (Michael W. Deem and Ramdas Pophale) SiO2 
 PCOD9242077
Probable space group: P 21/C
;
_chemical_formula_sum "Si O2"
_cell_formula_units_Z 24
_cell_length_a 14.329479
_cell_length_b 11.687290
_cell_length_c 13.539601
_cell_angle_alpha 90.000000
_cell_angle_beta 151.505528
_cell_angle_gamma 90.000000
_cell_volume 1081.772176
_symmetry_space_group_name_H-M "P 21/C"
_symmetry_group_IT_number 14
_symmetry_cell_setting 'monoclinic'
loop_
_space_group_symop_operation_xyz
x,y,z
-x,1/2+y,1/2-z
-x,-y,-z
x,1/2-y,1/2+z
loop_
_atom_site_type_symbol
_atom_site_label
_atom_site_fract_x
_atom_site_fract_y
_atom_site_fract_z
Si Si1 0.676115 0.949580 0.909354
Si Si2 0.649475 0.272571 0.926971
Si Si3 0.571509 0.916611 0.478957
Si Si4 0.910571 0.437919 0.304057
Si Si5 0.339646 0.572184 0.411218
Si Si6 0.239266 0.763389 0.182561
O O1 0.546330 0.835645 0.790987
O O2 0.531710 0.038928 0.717680
O O3 0.741900 0.987131 0.080129
O O4 0.866648 0.937881 0.019865
O O5 0.593680 0.174202 0.952707
O O6 0.778411 0.240479 0.951328
O O7 0.783247 0.361064 0.110971
O O8 0.470866 0.796961 0.410743
O O9 0.500000 0.000000 0.500000
O O10 0.801450 0.939659 0.693338
O O11 0.876155 0.367645 0.373543
O O12 0.500000 0.500000 0.500000
O O13 0.208717 0.642910 0.210245
#
# Coordination Sequence:
#
# PCOD9242077 Si02
#       6
#     4   4   4   4   4   4
#     4  11  21  42  66  89 125 173 209 260 318 369
#     4  10  21  42  63  88 132 165 206 261 314 377
#     4   9  19  38  64  89 122 160 204 256 312 374
#     4   9  22  39  61  96 122 160 218 259 309 377
#     4  11  22  40  65  92 126 165 209 255 318 379
#     4  10  19  39  62  90 127 164 204 261 314 372
#
# _framework density 22.185817
#
# number of rings (size 3 to 8) (size 9 to 14) (size 15 to 20)
#    0.000    2.000    3.333    1.000    0.000    2.667 
#    9.000    0.833    0.000    0.000    0.000    0.000 
#    0.000    0.000    0.000    0.000    0.000    0.000 
#
# Total GULP energy -133728.098170 kJ/mol
# GULP energy per Si atom -5572.004090 kJ/mol
# Density = 2.213532 g / cm^3
# Si number density = 22.185817 Si / 1000 Ang^3
#
#
#
# Elastic Constant Matrix: (Units=GPa)
#
#
# Indices 1 2 3 4 5 6 
#
# 1 160.9985 28.0298 37.9501 0.0000 -8.9087 0.0000
# 2 28.0298 41.2744 14.9998 0.0000 1.4805 0.0000
# 3 37.9501 14.9998 77.1467 0.0000 11.7514 0.0000
# 4 0.0000 0.0000 0.0000 -1.3005 0.0000 0.3300
# 5 -8.9087 1.4805 11.7514 0.0000 40.1022 0.0000
# 6 0.0000 0.0000 0.0000 0.3300 0.0000 40.9878
#
#
#
# Elastic Compliance Matrix: (Units=1/GPa)
#
#
# Indices 1 2 3 4 5 6 
#
# 1 0.007943 -0.004214 -0.003538 0.000000 0.002957 0.000000
# 2 -0.004214 0.028318 -0.003277 0.000000 -0.001021 0.000000
# 3 -0.003538 -0.003277 0.016163 0.000000 -0.005401 0.000000
# 4 0.000000 0.000000 0.000000 -0.767364 0.000000 0.006178
# 5 0.002957 -0.001021 -0.005401 0.000000 0.027214 0.000000
# 6 0.000000 0.000000 0.000000 0.006178 0.000000 0.024348
#
#
# Mechanical properties :
#
#
# Convention : Reuss Voigt Hill
#
# Bulk Modulus (GPa) = 32.93392 49.04211 40.98802
# Shear Modulus (GPa) = -7.92143 29.18724 10.63291
#
# Velocity S-wave (km/s) = -1.89162 3.63103 2.19159
# Velocity P-wave (km/s) = 3.17897 6.30336 4.99190
#
# Compressibility (1/GPa) = 0.03036383
#
# Stress axis : x y z
#
# Youngs Moduli (GPa) = 125.90467 35.31378 61.87062
#
# Poissons Ratio (x) = 0.14881 0.21891
# Poissons Ratio (y) = 0.53057 0.20277
# Poissons Ratio (z) = 0.44547 0.11573
#
# Static dielectric constant tensor:
#      x y z
#    x 1.842480 0.000000 -0.043590 
#    y 0.000000 1.925820 0.000000 
#    z -0.043590 0.000000 1.803320 
# 
# From -- ./inp_files/47305.got.cif
#   From: 2010.05.17/outbox.cif.g08.bks.cpg/sg14_24_cif.got.tgz:47305.got - 2010.06.03 17:49:19.
