data_PCOD9242940
_publ_section_title
;
Structure prediction by ZEFSAII (Michael W. Deem and Ramdas Pophale) SiO2 
 PCOD9242940
Probable space group: P 21/C
;
_chemical_formula_sum "Si O2"
_cell_formula_units_Z 32
_cell_length_a 21.610424
_cell_length_b 9.482153
_cell_length_c 7.896988
_cell_angle_alpha 90.000000
_cell_angle_beta 134.301845
_cell_angle_gamma 90.000000
_cell_volume 1158.096329
_symmetry_space_group_name_H-M "P 21/C"
_symmetry_group_IT_number 14
_symmetry_cell_setting 'monoclinic'
loop_
_space_group_symop_operation_xyz
x,y,z
-x,1/2+y,1/2-z
-x,-y,-z
x,1/2-y,1/2+z
loop_
_atom_site_type_symbol
_atom_site_label
_atom_site_fract_x
_atom_site_fract_y
_atom_site_fract_z
Si Si1 0.501433 0.171615 0.725662
Si Si2 0.799739 0.213555 0.031466
Si Si3 0.373329 0.868300 0.758892
Si Si4 0.870978 0.973428 0.374779
Si Si5 0.960162 0.840033 0.239248
Si Si6 0.725654 0.887154 0.309628
Si Si7 0.626446 0.645907 0.289268
Si Si8 0.089649 0.591305 0.549164
O O1 0.567187 0.282394 0.760136
O O2 0.439794 0.085633 0.478642
O O3 0.437449 0.255579 0.725109
O O4 0.559282 0.085800 0.966993
O O5 0.701519 0.260468 0.824501
O O6 0.835748 0.128862 0.942258
O O7 0.867908 0.340467 0.201875
O O8 0.809470 0.103268 0.201946
O O9 0.312890 0.006715 0.621358
O O10 0.824917 0.896499 0.442925
O O11 0.892274 0.867680 0.260835
O O12 0.959156 0.057615 0.566789
O O13 0.007050 0.687881 0.333885
O O14 0.927235 0.924482 0.007527
O O15 0.695275 0.735377 0.313251
O O16 0.679683 0.923705 0.041646
#
# Coordination Sequence:
#
# PCOD9242940 Si02
#       8
#     4   4   4   4   4   4   4   4
#     4   9  20  38  60  89 117 145 197 252 297 365
#     4  10  20  37  58  89 122 149 198 263 307 352
#     4  11  20  36  64  89 114 155 201 247 309 366
#     4   9  19  37  60  84 119 160 197 248 305 358
#     4   9  19  36  58  88 121 160 204 253 308 363
#     4  11  22  40  61  82 119 162 198 243 304 362
#     4   9  22  40  55  83 122 156 196 245 292 356
#     4  10  20  36  58  84 124 162 203 257 310 367
#
# _framework density 27.631553
#
# number of rings (size 3 to 8) (size 9 to 14) (size 15 to 20)
#    0.000    2.250    0.000    3.750    0.000    6.500 
#    0.000   13.750    0.000    0.000    0.000    0.000 
#    0.000    0.000    0.000    0.000    0.000    0.000 
#
# Total GULP energy -178764.864463 kJ/mol
# GULP energy per Si atom -5586.402014 kJ/mol
# Density = 2.756866 g / cm^3
# Si number density = 27.631553 Si / 1000 Ang^3
#
#
#
# Elastic Constant Matrix: (Units=GPa)
#
#
# Indices 1 2 3 4 5 6 
#
# 1 159.7146 48.3004 22.7572 0.0000 28.6670 0.0000
# 2 48.3004 79.9265 7.3647 0.0000 5.0440 0.0000
# 3 22.7572 7.3647 95.1768 0.0000 11.0997 0.0000
# 4 0.0000 0.0000 0.0000 21.5604 0.0000 -1.3035
# 5 28.6670 5.0440 11.0997 0.0000 41.4412 0.0000
# 6 0.0000 0.0000 0.0000 -1.3035 0.0000 49.1605
#
#
#
# Elastic Compliance Matrix: (Units=1/GPa)
#
#
# Indices 1 2 3 4 5 6 
#
# 1 0.008843 -0.004911 -0.001126 0.000000 -0.005218 0.000000
# 2 -0.004911 0.015398 -0.000201 0.000000 0.001577 0.000000
# 3 -0.001126 -0.000201 0.011043 0.000000 -0.002154 0.000000
# 4 0.000000 0.000000 0.000000 0.046456 0.000000 0.001232
# 5 -0.005218 0.001577 -0.002154 0.000000 0.028125 0.000000
# 6 0.000000 0.000000 0.000000 0.001232 0.000000 0.020374
#
#
# Mechanical properties :
#
#
# Convention : Reuss Voigt Hill
#
# Bulk Modulus (GPa) = 43.84395 54.62918 49.23657
# Shear Modulus (GPa) = 33.26261 39.52546 36.39404
#
# Velocity S-wave (km/s) = 3.47333 3.78623 3.63315
# Velocity P-wave (km/s) = 5.65572 6.23919 5.95461
#
# Compressibility (1/GPa) = 0.02280816
#
# Stress axis : x y z
#
# Youngs Moduli (GPa) = 113.07876 64.94203 90.55679
#
# Poissons Ratio (x) = 0.31894 0.10196
# Poissons Ratio (y) = 0.55534 0.01822
# Poissons Ratio (z) = 0.12732 0.01306
#
# Static dielectric constant tensor:
#      x y z
#    x 2.114080 0.000000 -0.038130 
#    y 0.000000 2.162110 0.000000 
#    z -0.038130 0.000000 2.355630 
# 
# From -- ./inp_files/18961.got.cif
#   From: 2010.05.17/outbox.cif.g08.bks.cpg/sg14_10_cif.got.tgz:18961.got - 2010.06.03 17:49:19.
