data_PCOD9242728
_publ_section_title
;
Structure prediction by ZEFSAII (Michael W. Deem and Ramdas Pophale) SiO2 
 PCOD9242728
Probable space group: P 21/C
;
_chemical_formula_sum "Si O2"
_cell_formula_units_Z 24
_cell_length_a 11.461564
_cell_length_b 12.449129
_cell_length_c 19.297474
_cell_angle_alpha 90.000000
_cell_angle_beta 160.566821
_cell_angle_gamma 90.000000
_cell_volume 916.105772
_symmetry_space_group_name_H-M "P 21/C"
_symmetry_group_IT_number 14
_symmetry_cell_setting 'monoclinic'
loop_
_space_group_symop_operation_xyz
x,y,z
-x,1/2+y,1/2-z
-x,-y,-z
x,1/2-y,1/2+z
loop_
_atom_site_type_symbol
_atom_site_label
_atom_site_fract_x
_atom_site_fract_y
_atom_site_fract_z
Si Si1 0.524844 0.770989 0.000123
Si Si2 0.774200 0.025253 0.298322
Si Si3 0.186698 0.398251 0.912988
Si Si4 0.756894 0.334997 0.907511
Si Si5 0.816049 0.646037 0.297269
Si Si6 0.911330 0.536522 0.647838
O O1 0.688979 0.722149 0.162169
O O2 0.478605 0.668952 0.922422
O O3 0.790567 0.845924 0.105675
O O4 0.164847 0.833932 0.807876
O O5 0.109469 0.078038 0.448726
O O6 0.597135 0.118315 0.246310
O O7 0.904729 0.914241 0.403605
O O8 0.490816 0.990674 0.082670
O O9 0.156005 0.502186 0.848682
O O10 0.499549 0.364617 0.825557
O O11 0.886542 0.214357 0.994391
O O12 0.934286 0.531417 0.331615
#
# Coordination Sequence:
#
# PCOD9242728 Si02
#       6
#     4   4   4   4   4   4
#     4  10  20  35  58  86 113 148 192 244 297 349
#     4  10  22  40  58  82 116 156 198 240 290 347
#     4  10  20  35  58  82 114 149 189 246 297 343
#     4  11  23  38  59  85 118 157 197 239 288 358
#     4  11  22  39  63  89 119 157 198 242 299 353
#     4  10  21  39  62  86 117 153 196 248 297 350
#
# _framework density 26.197846999999999
#
# number of rings (size 3 to 8) (size 9 to 14) (size 15 to 20)
#    0.000    1.667    0.000    7.000    0.000    4.667 
#    0.000    5.833    0.000    0.000    0.000    0.000 
#    0.000    0.000    0.000    0.000    0.000    0.000 
#
# Total GULP energy -133876.526553 kJ/mol
# GULP energy per Si atom -5578.188606 kJ/mol
# Density = 2.613822 g / cm^3
# Si number density = 26.197847 Si / 1000 Ang^3
#
#
#
# Elastic Constant Matrix: (Units=GPa)
#
#
# Indices 1 2 3 4 5 6 
#
# 1 161.5556 39.1024 20.1904 0.0000 15.7990 0.0000
# 2 39.1024 110.1167 13.7738 0.0000 -1.1194 0.0000
# 3 20.1904 13.7738 49.0182 0.0000 11.9013 0.0000
# 4 0.0000 0.0000 0.0000 36.2181 0.0000 7.5544
# 5 15.7990 -1.1194 11.9013 0.0000 30.1749 0.0000
# 6 0.0000 0.0000 0.0000 7.5544 0.0000 50.2326
#
#
#
# Elastic Compliance Matrix: (Units=1/GPa)
#
#
# Indices 1 2 3 4 5 6 
#
# 1 0.007292 -0.002433 -0.001516 0.000000 -0.003310 0.000000
# 2 -0.002433 0.010289 -0.002534 0.000000 0.002655 0.000000
# 3 -0.001516 -0.002534 0.023851 0.000000 -0.008707 0.000000
# 4 0.000000 0.000000 0.000000 0.028505 0.000000 -0.004287
# 5 -0.003310 0.002655 -0.008707 0.000000 0.038406 0.000000
# 6 0.000000 0.000000 0.000000 -0.004287 0.000000 0.020552
#
#
# Mechanical properties :
#
#
# Convention : Reuss Voigt Hill
#
# Bulk Modulus (GPa) = 35.12928 51.86927 43.49927
# Shear Modulus (GPa) = 33.03605 39.83337 36.43471
#
# Velocity S-wave (km/s) = 3.55494 3.90357 3.73332
# Velocity P-wave (km/s) = 5.50349 6.33712 5.93496
#
# Compressibility (1/GPa) = 0.02846629
#
# Stress axis : x y z
#
# Youngs Moduli (GPa) = 137.13695 97.18863 41.92698
#
# Poissons Ratio (x) = 0.23650 0.06356
# Poissons Ratio (y) = 0.33371 0.10622
# Poissons Ratio (z) = 0.20791 0.24623
#
# Static dielectric constant tensor:
#      x y z
#    x 2.120620 0.000000 -0.057610 
#    y 0.000000 2.160660 0.000000 
#    z -0.057610 0.000000 2.153720 
# 
# From -- ./inp_files/16138.got.cif
#   From: 2010.05.17/outbox.cif.g08.bks.cpg/sg14_9_cif.got.tgz:16138.got - 2010.06.03 17:49:19.
