data_PCOD9242880
_publ_section_title
;
Structure prediction by ZEFSAII (Michael W. Deem and Ramdas Pophale) SiO2 
 PCOD9242880
Probable space group: P 21/C
;
_chemical_formula_sum "Si O2"
_cell_formula_units_Z 24
_cell_length_a 14.776421
_cell_length_b 8.350297
_cell_length_c 17.843522
_cell_angle_alpha 90.000000
_cell_angle_beta 149.569635
_cell_angle_gamma 90.000000
_cell_volume 1115.124402
_symmetry_space_group_name_H-M "P 21/C"
_symmetry_group_IT_number 14
_symmetry_cell_setting 'monoclinic'
loop_
_space_group_symop_operation_xyz
x,y,z
-x,1/2+y,1/2-z
-x,-y,-z
x,1/2-y,1/2+z
loop_
_atom_site_type_symbol
_atom_site_label
_atom_site_fract_x
_atom_site_fract_y
_atom_site_fract_z
Si Si1 0.130853 0.148297 0.427053
Si Si2 0.656996 0.896945 0.288872
Si Si3 0.615539 0.765554 0.610310
Si Si4 0.978150 0.690371 0.792424
Si Si5 0.519723 0.093504 0.624898
Si Si6 0.680792 0.244537 0.870860
O O1 0.172952 0.177722 0.544658
O O2 0.326017 0.102226 0.529041
O O3 0.048818 0.284121 0.315545
O O4 0.000613 0.997008 0.325536
O O5 0.635716 0.875445 0.185116
O O6 0.490049 0.801144 0.202667
O O7 0.659525 0.079946 0.318755
O O8 0.488307 0.772224 0.446452
O O9 0.811155 0.772591 0.713460
O O10 0.556227 0.923123 0.613480
O O11 0.153183 0.764437 0.955351
O O12 0.672142 0.126319 0.794332
#
# Coordination Sequence:
#
# PCOD9242880 Si02
#       6
#     4   4   4   4   4   4
#     4   9  20  37  55  76 110 147 179 215 267 327
#     4  10  20  37  57  79 110 145 180 220 265 325
#     4  10  20  36  56  79 112 141 176 228 271 308
#     4  10  21  36  56  82 107 139 181 226 267 314
#     4   9  20  39  55  77 112 147 178 217 270 324
#     4  10  21  36  57  80 107 146 184 215 264 327
#
# _framework density 21.522262999999999
#
# number of rings (size 3 to 8) (size 9 to 14) (size 15 to 20)
#    0.000    2.333    0.000    3.000    0.000    9.333 
#    0.000   10.000    0.000    0.000    0.000    0.000 
#    0.000    0.000    0.000    0.000    0.000    0.000 
#
# Total GULP energy -133731.582665 kJ/mol
# GULP energy per Si atom -5572.149278 kJ/mol
# Density = 2.147328 g / cm^3
# Si number density = 21.522263 Si / 1000 Ang^3
#
#
#
# Elastic Constant Matrix: (Units=GPa)
#
#
# Indices 1 2 3 4 5 6 
#
# 1 98.0497 -59.0917 -319.0821 0.0000 120.3939 0.0000
# 2 -59.0917 73.3188 299.5455 0.0000 -126.6155 0.0000
# 3 -319.0821 299.5455 1532.8349 0.0000 -652.3674 0.0000
# 4 0.0000 0.0000 0.0000 31.8420 0.0000 -20.1003
# 5 120.3939 -126.6155 -652.3674 0.0000 303.7329 0.0000
# 6 0.0000 0.0000 0.0000 -20.1003 0.0000 6.0616
#
#
#
# Elastic Compliance Matrix: (Units=1/GPa)
#
#
# Indices 1 2 3 4 5 6 
#
# 1 0.046374 -0.011872 0.023797 0.000000 0.027781 0.000000
# 2 -0.011872 0.070823 -0.020300 0.000000 -0.009372 0.000000
# 3 0.023797 -0.020300 0.022785 0.000000 0.031043 0.000000
# 4 0.000000 0.000000 0.000000 -0.028727 0.000000 -0.095258
# 5 0.027781 -0.009372 0.031043 0.000000 0.055049 0.000000
# 6 0.000000 0.000000 0.000000 -0.095258 0.000000 -0.150902
#
#
# Mechanical properties :
#
#
# Convention : Reuss Voigt Hill
#
# Bulk Modulus (GPa) = 8.11475 171.88301 89.99888
# Shear Modulus (GPa) = 68.27841 187.18274 127.73057
#
# Velocity S-wave (km/s) = 5.63857 9.33598 7.71213
# Velocity P-wave (km/s) = 6.79484 14.00893 11.00954
#
# Compressibility (1/GPa) = 0.12323240
#
# Stress axis : x y z
#
# Youngs Moduli (GPa) = 21.56360 14.11978 43.88863
#
# Poissons Ratio (x) = 0.16763 -1.04442
# Poissons Ratio (y) = 0.25600 0.89094
# Poissons Ratio (z) = -0.51315 0.28663
#
# Static dielectric constant tensor:
#      x y z
#    x 1.832670 0.000000 -0.040080 
#    y 0.000000 1.811810 0.000000 
#    z -0.040080 0.000000 1.820770 
# 
# From -- ./inp_files/59146.got.cif
#   From: 2010.05.17/outbox.cif.g08.bks.cpg/sg14_30_cif.got.tgz:59146.got - 2010.06.03 17:49:19.
