data_PCOD9242065
_publ_section_title
;
Structure prediction by ZEFSAII (Michael W. Deem and Ramdas Pophale) SiO2 
 PCOD9242065
Probable space group: P 21/C
;
_chemical_formula_sum "Si O2"
_cell_formula_units_Z 32
_cell_length_a 19.315147
_cell_length_b 10.088297
_cell_length_c 12.917672
_cell_angle_alpha 90.000000
_cell_angle_beta 142.755006
_cell_angle_gamma 90.000000
_cell_volume 1523.409242
_symmetry_space_group_name_H-M "P 21/C"
_symmetry_group_IT_number 14
_symmetry_cell_setting 'monoclinic'
loop_
_space_group_symop_operation_xyz
x,y,z
-x,1/2+y,1/2-z
-x,-y,-z
x,1/2-y,1/2+z
loop_
_atom_site_type_symbol
_atom_site_label
_atom_site_fract_x
_atom_site_fract_y
_atom_site_fract_z
Si Si1 0.292997 0.814480 0.252755
Si Si2 0.889304 0.673736 0.352167
Si Si3 0.919426 0.420631 0.254713
Si Si4 0.563710 0.201105 0.774573
Si Si5 0.913530 0.585596 0.733535
Si Si6 0.788054 0.171081 0.159902
Si Si7 0.488811 0.923694 0.635605
Si Si8 0.258533 0.402881 0.650266
O O1 0.368514 0.761431 0.248823
O O2 0.219936 0.708727 0.228839
O O3 0.382338 0.876330 0.441086
O O4 0.223044 0.942514 0.129955
O O5 0.876701 0.558865 0.251048
O O6 0.924269 0.807114 0.336313
O O7 0.777411 0.679635 0.291924
O O8 0.985943 0.630189 0.549737
O O9 0.825271 0.305865 0.145969
O O10 0.977675 0.431635 0.212080
O O11 0.509053 0.327545 0.763224
O O12 0.480751 0.078515 0.652458
O O13 0.661309 0.139885 0.966720
O O14 0.872545 0.446549 0.732034
O O15 0.813052 0.636077 0.536027
O O16 0.607529 0.904858 0.715093
#
# Coordination Sequence:
#
# PCOD9242065 Si02
#       8
#     4   4   4   4   4   4   4   4
#     4  10  20  38  63  87 113 170 201 231 307 369
#     4  10  22  39  60  92 115 160 207 243 302 360
#     4  10  22  40  63  84 122 164 201 243 302 375
#     4  10  21  40  59  90 118 156 201 248 297 361
#     4  11  22  37  63  92 120 153 202 259 297 340
#     4  11  21  39  62  90 122 160 201 249 302 359
#     4  10  21  38  62  89 116 159 204 242 301 361
#     4  10  19  39  61  83 124 160 196 242 299 364
#
# _framework density 21.005516
#
# number of rings (size 3 to 8) (size 9 to 14) (size 15 to 20)
#    0.000    1.750    3.750    2.250    0.000    3.500 
#    2.250    2.500    0.000    0.000    0.000    0.000 
#    0.000    0.000    0.000    0.000    0.000    0.000 
#
# Total GULP energy -178830.560255 kJ/mol
# GULP energy per Si atom -5588.455008 kJ/mol
# Density = 2.095771 g / cm^3
# Si number density = 21.005516 Si / 1000 Ang^3
#
#
#
# Elastic Constant Matrix: (Units=GPa)
#
#
# Indices 1 2 3 4 5 6 
#
# 1 154.3293 71.4547 5.0496 0.0000 -23.4370 0.0000
# 2 71.4547 75.1857 11.4526 0.0000 -14.4124 0.0000
# 3 5.0496 11.4526 32.1611 0.0000 -2.6641 0.0000
# 4 0.0000 0.0000 0.0000 26.2257 0.0000 -6.3242
# 5 -23.4370 -14.4124 -2.6641 0.0000 21.2459 0.0000
# 6 0.0000 0.0000 0.0000 -6.3242 0.0000 36.9390
#
#
#
# Elastic Compliance Matrix: (Units=1/GPa)
#
#
# Indices 1 2 3 4 5 6 
#
# 1 0.012489 -0.010976 0.002498 0.000000 0.006644 0.000000
# 2 -0.010976 0.025650 -0.007045 0.000000 0.004409 0.000000
# 3 0.002498 -0.007045 0.033389 0.000000 0.002163 0.000000
# 4 0.000000 0.000000 0.000000 0.039773 0.000000 0.006809
# 5 0.006644 0.004409 0.002163 0.000000 0.057659 0.000000
# 6 0.000000 0.000000 0.000000 0.006809 0.000000 0.028237
#
#
# Mechanical properties :
#
#
# Convention : Reuss Voigt Hill
#
# Bulk Modulus (GPa) = 24.70265 48.62110 36.66187
# Shear Modulus (GPa) = 20.68355 28.46340 24.57347
#
# Velocity S-wave (km/s) = 3.14135 3.68509 3.42403
# Velocity P-wave (km/s) = 4.99430 6.42678 5.75529
#
# Compressibility (1/GPa) = 0.04048149
#
# Stress axis : x y z
#
# Youngs Moduli (GPa) = 80.07152 38.98641 29.94967
#
# Poissons Ratio (x) = 0.42791 -0.07482
# Poissons Ratio (y) = 0.87886 0.21101
# Poissons Ratio (z) = -0.20003 0.27468
#
# Static dielectric constant tensor:
#      x y z
#    x 1.778370 0.000000 -0.001060 
#    y 0.000000 1.744900 0.000000 
#    z -0.001060 0.000000 1.806460 
# 
# From -- ./inp_files/49940.got.cif
#   From: 2010.05.17/outbox.cif.g08.bks.cpg/sg14_25_cif.got.tgz:49940.got - 2010.06.03 17:49:19.
