data_PCOD9242316
_publ_section_title
;
Structure prediction by ZEFSAII (Michael W. Deem and Ramdas Pophale) SiO2 
 PCOD9242316
Probable space group: P 21/C
;
_chemical_formula_sum "Si O2"
_cell_formula_units_Z 28
_cell_length_a 6.971849
_cell_length_b 9.649670
_cell_length_c 16.782542
_cell_angle_alpha 90.000000
_cell_angle_beta 112.706696
_cell_angle_gamma 90.000000
_cell_volume 1041.552698
_symmetry_space_group_name_H-M "P 21/C"
_symmetry_group_IT_number 14
_symmetry_cell_setting 'monoclinic'
loop_
_space_group_symop_operation_xyz
x,y,z
-x,1/2+y,1/2-z
-x,-y,-z
x,1/2-y,1/2+z
loop_
_atom_site_type_symbol
_atom_site_label
_atom_site_fract_x
_atom_site_fract_y
_atom_site_fract_z
Si Si1 0.812646 0.602578 0.568983
Si Si2 0.393846 0.444015 0.072168
Si Si3 0.547504 0.695732 0.767645
Si Si4 0.784971 0.129106 0.183342
Si Si5 0.210290 0.136495 0.325027
Si Si6 0.276803 0.551368 0.596018
Si Si7 0.723049 0.197513 0.529623
O O1 0.707381 0.500103 0.617018
O O2 0.828976 0.752173 0.611382
O O3 0.717407 0.575663 0.465925
O O4 0.047255 0.547472 0.596562
O O5 0.322393 0.377683 0.142080
O O6 0.607713 0.527734 0.127412
O O7 0.494378 0.330562 0.030178
O O8 0.235779 0.550621 0.006130
O O9 0.377245 0.794518 0.784115
O O10 0.694475 0.780715 0.733913
O O11 0.426573 0.583521 0.694008
O O12 0.844609 0.242767 0.124653
O O13 0.986138 0.079634 0.264004
O O14 0.286405 0.687008 0.540164
#
# Coordination Sequence:
#
# PCOD9242316 Si02
#       7
#     4   4   4   4   4   4   4
#     4  10  23  40  67  95 132 172 223 265 338 387
#     4  10  22  42  64  99 135 171 223 272 323 404
#     4  11  23  41  68  94 134 171 219 275 330 384
#     4  10  23  44  65  95 134 173 214 279 324 391
#     4  12  24  39  69  99 126 176 225 265 330 400
#     4  10  19  43  65  93 129 172 214 280 323 393
#     4   9  20  43  66  87 136 175 207 275 337 373
#
# _framework density 26.882942
#
# number of rings (size 3 to 8) (size 9 to 14) (size 15 to 20)
#    0.000    1.714    2.857    0.857    4.000    0.571 
#    0.000   14.286    0.000    0.000    0.000    0.000 
#    0.000    0.000    0.000    0.000    0.000    0.000 
#
# Total GULP energy -156806.718451 kJ/mol
# GULP energy per Si atom -5600.239945 kJ/mol
# Density = 2.682175 g / cm^3
# Si number density = 26.882942 Si / 1000 Ang^3
#
#
#
# Elastic Constant Matrix: (Units=GPa)
#
#
# Indices 1 2 3 4 5 6 
#
# 1 54.6278 19.0433 27.2654 0.0000 -4.1662 0.0000
# 2 19.0433 67.5049 7.0216 0.0000 -17.2861 0.0000
# 3 27.2654 7.0216 99.6446 0.0000 -26.3527 0.0000
# 4 0.0000 0.0000 0.0000 51.9956 0.0000 -4.8867
# 5 -4.1662 -17.2861 -26.3527 0.0000 37.5900 0.0000
# 6 0.0000 0.0000 0.0000 -4.8867 0.0000 25.1993
#
#
#
# Elastic Compliance Matrix: (Units=1/GPa)
#
#
# Indices 1 2 3 4 5 6 
#
# 1 0.024397 -0.007684 -0.007800 0.000000 -0.006298 0.000000
# 2 -0.007684 0.019302 0.003517 0.000000 0.010490 0.000000
# 3 -0.007800 0.003517 0.014880 0.000000 0.011184 0.000000
# 4 0.000000 0.000000 0.000000 0.019589 0.000000 0.003799
# 5 -0.006298 0.010490 0.011184 0.000000 0.038570 0.000000
# 6 0.000000 0.000000 0.000000 0.003799 0.000000 0.040420
#
#
# Mechanical properties :
#
#
# Convention : Reuss Voigt Hill
#
# Bulk Modulus (GPa) = 28.86435 36.49311 32.67873
# Shear Modulus (GPa) = 25.95516 34.18679 30.07097
#
# Velocity S-wave (km/s) = 3.11060 3.56995 3.34816
# Velocity P-wave (km/s) = 4.86431 5.53145 5.20857
#
# Compressibility (1/GPa) = 0.03464482
#
# Stress axis : x y z
#
# Youngs Moduli (GPa) = 40.98878 51.80892 67.20444
#
# Poissons Ratio (x) = 0.39809 0.52417
# Poissons Ratio (y) = 0.31495 -0.23633
# Poissons Ratio (z) = 0.31970 -0.18219
#
# Static dielectric constant tensor:
#      x y z
#    x 2.051960 0.000000 0.022680 
#    y 0.000000 2.132520 0.000000 
#    z 0.022680 0.000000 2.122490 
# 
# From -- ./inp_files/54933.got.cif
#   From: 2010.05.17/outbox.cif.g08.bks.cpg/sg14_28_cif.got.tgz:54933.got - 2010.06.03 17:49:19.
