data_PCOD9242570
_publ_section_title
;
Structure prediction by ZEFSAII (Michael W. Deem and Ramdas Pophale) SiO2 
 PCOD9242570
Probable space group: P 21/C
;
_chemical_formula_sum "Si O2"
_cell_formula_units_Z 32
_cell_length_a 17.494997
_cell_length_b 9.198401
_cell_length_c 8.836845
_cell_angle_alpha 90.000000
_cell_angle_beta 125.236171
_cell_angle_gamma 90.000000
_cell_volume 1161.526134
_symmetry_space_group_name_H-M "P 21/C"
_symmetry_group_IT_number 14
_symmetry_cell_setting 'monoclinic'
loop_
_space_group_symop_operation_xyz
x,y,z
-x,1/2+y,1/2-z
-x,-y,-z
x,1/2-y,1/2+z
loop_
_atom_site_type_symbol
_atom_site_label
_atom_site_fract_x
_atom_site_fract_y
_atom_site_fract_z
Si Si1 0.225481 0.862041 0.767733
Si Si2 0.892711 0.449408 0.159551
Si Si3 0.632188 0.377802 0.118767
Si Si4 0.474514 0.678634 0.289795
Si Si5 0.143886 0.387054 0.318329
Si Si6 0.723340 0.856955 0.584626
Si Si7 0.377857 0.085634 0.833689
Si Si8 0.968149 0.716199 0.083990
O O1 0.157552 0.881985 0.546027
O O2 0.173980 0.945286 0.845911
O O3 0.315393 0.961411 0.836173
O O4 0.275237 0.707908 0.833151
O O5 0.966026 0.574334 0.189567
O O6 0.943092 0.321803 0.308892
O O7 0.814306 0.541152 0.155580
O O8 0.545475 0.335326 0.909463
O O9 0.661725 0.544909 0.129866
O O10 0.595639 0.305784 0.231949
O O11 0.574617 0.687221 0.485675
O O12 0.447979 0.516583 0.316431
O O13 0.228353 0.298122 0.334249
O O14 0.115206 0.318913 0.444561
O O15 0.057895 0.346177 0.109094
O O16 0.676161 0.839320 0.365109
#
# Coordination Sequence:
#
# PCOD9242570 Si02
#       8
#     4   4   4   4   4   4   4   4
#     4   9  19  35  56  80 109 145 184 223 275 331
#     4   9  20  37  55  80 111 148 184 223 276 332
#     4  10  20  34  56  86 108 138 188 230 268 322
#     4   9  18  33  54  81 111 139 176 227 276 317
#     4  10  22  38  54  78 112 150 180 218 282 336
#     4   9  19  35  56  80 109 145 184 223 275 331
#     4   8  16  35  56  72 107 155 178 205 274 347
#     4  10  22  37  55  80 109 141 186 228 274 327
#
# _framework density 27.549963000000002
#
# number of rings (size 3 to 8) (size 9 to 14) (size 15 to 20)
#    0.000    2.750    0.000    1.500    0.000    9.000 
#    0.000    0.000    0.000   13.500    0.000    0.000 
#    0.000    0.000    0.000    0.000    0.000    0.000 
#
# Total GULP energy -178994.113172 kJ/mol
# GULP energy per Si atom -5593.566037 kJ/mol
# Density = 2.748726 g / cm^3
# Si number density = 27.549963 Si / 1000 Ang^3
#
#
#
# Elastic Constant Matrix: (Units=GPa)
#
#
# Indices 1 2 3 4 5 6 
#
# 1 48.0278 9.4205 7.1302 0.0000 2.2002 0.0000
# 2 9.4205 134.2961 23.7652 0.0000 13.3345 0.0000
# 3 7.1302 23.7652 67.0665 0.0000 19.3296 0.0000
# 4 0.0000 0.0000 0.0000 29.0945 0.0000 10.9065
# 5 2.2002 13.3345 19.3296 0.0000 34.7226 0.0000
# 6 0.0000 0.0000 0.0000 10.9065 0.0000 39.8481
#
#
#
# Elastic Compliance Matrix: (Units=1/GPa)
#
#
# Indices 1 2 3 4 5 6 
#
# 1 0.021326 -0.001176 -0.001895 0.000000 0.000155 0.000000
# 2 -0.001176 0.008101 -0.002228 0.000000 -0.001796 0.000000
# 3 -0.001895 -0.002228 0.018606 0.000000 -0.009382 0.000000
# 4 0.000000 0.000000 0.000000 0.038300 0.000000 -0.010483
# 5 0.000155 -0.001796 -0.009382 0.000000 0.034702 0.000000
# 6 0.000000 0.000000 0.000000 -0.010483 0.000000 0.027964
#
#
# Mechanical properties :
#
#
# Convention : Reuss Voigt Hill
#
# Bulk Modulus (GPa) = 26.71343 36.66914 31.69128
# Shear Modulus (GPa) = 29.05673 34.67134 31.86403
#
# Velocity S-wave (km/s) = 3.25113 3.55137 3.40456
# Velocity P-wave (km/s) = 4.87960 5.49138 5.19450
#
# Compressibility (1/GPa) = 0.03743436
#
# Stress axis : x y z
#
# Youngs Moduli (GPa) = 46.89068 123.43613 53.74742
#
# Poissons Ratio (x) = 0.14516 0.10187
# Poissons Ratio (y) = 0.05514 0.11975
# Poissons Ratio (z) = 0.08888 0.27501
#
# Static dielectric constant tensor:
#      x y z
#    x 2.255840 0.000000 0.144390 
#    y 0.000000 2.078680 0.000000 
#    z 0.144390 0.000000 2.200730 
# 
# From -- ./inp_files/35854.got.cif
#   From: 2010.05.17/outbox.cif.g08.bks.cpg/sg14_18_cif.got.tgz:35854.got - 2010.06.03 17:49:19.
