data_PCOD9242781
_publ_section_title
;
Structure prediction by ZEFSAII (Michael W. Deem and Ramdas Pophale) SiO2 
 PCOD9242781
Probable space group: P 21/C
;
_chemical_formula_sum "Si O2"
_cell_formula_units_Z 32
_cell_length_a 20.146819
_cell_length_b 6.162143
_cell_length_c 25.734173
_cell_angle_alpha 90.000000
_cell_angle_beta 30.353780
_cell_angle_gamma 90.000000
_cell_volume 1614.471094
_symmetry_space_group_name_H-M "P 21/C"
_symmetry_group_IT_number 14
_symmetry_cell_setting 'monoclinic'
loop_
_space_group_symop_operation_xyz
x,y,z
-x,1/2+y,1/2-z
-x,-y,-z
x,1/2-y,1/2+z
loop_
_atom_site_type_symbol
_atom_site_label
_atom_site_fract_x
_atom_site_fract_y
_atom_site_fract_z
Si Si1 0.860734 0.651874 0.044692
Si Si2 0.715767 0.331096 0.207603
Si Si3 0.970157 0.302251 0.893820
Si Si4 0.610885 0.543463 0.707015
Si Si5 0.178904 0.524250 0.584266
Si Si6 0.961012 0.183451 0.721626
Si Si7 0.897331 0.414238 0.657481
Si Si8 0.532400 0.093942 0.145103
O O1 0.829821 0.503079 0.115387
O O2 0.727950 0.782191 0.122901
O O3 0.892203 0.475839 0.979685
O O4 0.981521 0.818289 0.958668
O O5 0.768136 0.174760 0.217199
O O6 0.587318 0.475826 0.302943
O O7 0.676037 0.171079 0.187246
O O8 0.872628 0.128877 0.934654
O O9 0.030937 0.441528 0.806364
O O10 0.077198 0.169695 0.854365
O O11 0.506387 0.655027 0.817119
O O12 0.549240 0.498869 0.692507
O O13 0.125407 0.666982 0.668426
O O14 0.334457 0.539058 0.474962
O O15 0.102892 0.292929 0.638043
O O16 0.904450 0.321921 0.711495
#
# Coordination Sequence:
#
# PCOD9242781 Si02
#       8
#     4   4   4   4   4   4   4   4
#     4  10  21  36  62  88 120 159 202 250 298 359
#     4  11  23  39  56  84 127 163 203 243 295 366
#     4  10  20  35  60  89 122 149 193 256 304 361
#     4  11  22  38  57  89 121 163 198 248 296 365
#     4  11  21  38  63  95 115 155 195 261 314 348
#     4  10  21  39  63  91 121 144 200 258 310 357
#     4  10  22  38  58  87 120 166 198 249 303 353
#     4  11  23  37  60  85 124 160 201 242 306 365
#
# _framework density 19.820730999999999
#
# number of rings (size 3 to 8) (size 9 to 14) (size 15 to 20)
#    0.000    1.500    2.500    4.125    1.750    7.000 
#    0.000    0.625    0.000    1.500    0.000    0.000 
#    0.000    0.000    0.000    0.000    0.000    0.000 
#
# Total GULP energy -178589.609600 kJ/mol
# GULP energy per Si atom -5580.925300 kJ/mol
# Density = 1.977562 g / cm^3
# Si number density = 19.820731 Si / 1000 Ang^3
#
#
#
# Elastic Constant Matrix: (Units=GPa)
#
#
# Indices 1 2 3 4 5 6 
#
# 1 58.6058 12.4972 25.9325 0.0000 -2.4892 0.0000
# 2 12.4972 78.4648 25.3842 0.0000 3.5954 0.0000
# 3 25.9325 25.3842 106.2252 0.0000 0.8778 0.0000
# 4 0.0000 0.0000 0.0000 24.3048 0.0000 -1.7236
# 5 -2.4892 3.5954 0.8778 0.0000 15.9403 0.0000
# 6 0.0000 0.0000 0.0000 -1.7236 0.0000 31.4707
#
#
#
# Elastic Compliance Matrix: (Units=1/GPa)
#
#
# Indices 1 2 3 4 5 6 
#
# 1 0.019548 -0.001875 -0.004355 0.000000 0.003715 0.000000
# 2 -0.001875 0.014131 -0.002892 0.000000 -0.003321 0.000000
# 3 -0.004355 -0.002892 0.011173 0.000000 -0.000643 0.000000
# 4 0.000000 0.000000 0.000000 0.041305 0.000000 0.002262
# 5 0.003715 -0.003321 -0.000643 0.000000 0.064099 0.000000
# 6 0.000000 0.000000 0.000000 0.002262 0.000000 0.031899
#
#
# Mechanical properties :
#
#
# Convention : Reuss Voigt Hill
#
# Bulk Modulus (GPa) = 37.58071 41.21372 39.39722
# Shear Modulus (GPa) = 23.89289 26.30860 25.10074
#
# Velocity S-wave (km/s) = 3.47572 3.64720 3.56250
# Velocity P-wave (km/s) = 5.92529 6.21084 6.06974
#
# Compressibility (1/GPa) = 0.02660940
#
# Stress axis : x y z
#
# Youngs Moduli (GPa) = 51.15684 70.76728 89.49817
#
# Poissons Ratio (x) = 0.13268 0.38975
# Poissons Ratio (y) = 0.09591 0.25880
# Poissons Ratio (z) = 0.22278 0.20463
#
# Static dielectric constant tensor:
#      x y z
#    x 1.724840 0.000000 0.008100 
#    y 0.000000 1.757500 0.000000 
#    z 0.008100 0.000000 1.707510 
# 
# From -- ./inp_files/77868.got.cif
#   From: 2010.05.17/outbox.cif.g08.bks.cpg/sg14_39_cif.got.tgz:77868.got - 2010.06.03 17:49:19.
