data_PCOD9242994
_publ_section_title
;
Structure prediction by ZEFSAII (Michael W. Deem and Ramdas Pophale) SiO2 
 PCOD9242994
Probable space group: P 21/C
;
_chemical_formula_sum "Si O2"
_cell_formula_units_Z 28
_cell_length_a 12.494201
_cell_length_b 4.984374
_cell_length_c 21.362178
_cell_angle_alpha 90.000000
_cell_angle_beta 75.738299
_cell_angle_gamma 90.000000
_cell_volume 1289.345655
_symmetry_space_group_name_H-M "P 21/C"
_symmetry_group_IT_number 14
_symmetry_cell_setting 'monoclinic'
loop_
_space_group_symop_operation_xyz
x,y,z
-x,1/2+y,1/2-z
-x,-y,-z
x,1/2-y,1/2+z
loop_
_atom_site_type_symbol
_atom_site_label
_atom_site_fract_x
_atom_site_fract_y
_atom_site_fract_z
Si Si1 0.681887 0.495635 0.504243
Si Si2 0.593308 0.485898 0.085424
Si Si3 0.358050 0.623980 0.101076
Si Si4 0.430655 0.220685 0.273806
Si Si5 0.258817 0.547324 0.716672
Si Si6 0.965178 0.262111 0.714812
Si Si7 0.838927 0.729447 0.392854
O O1 0.631002 0.773273 0.534696
O O2 0.623326 0.356957 0.452629
O O3 0.803278 0.567383 0.459576
O O4 0.666041 0.274343 0.560267
O O5 0.464028 0.432983 0.089096
O O6 0.598825 0.602304 0.154198
O O7 0.343410 0.747565 0.172026
O O8 0.243144 0.483816 0.098398
O O9 0.525098 0.022687 0.232042
O O10 0.324997 0.173859 0.245077
O O11 0.199294 0.429427 0.663864
O O12 0.163145 0.687218 0.770261
O O13 0.033169 0.225692 0.640702
O O14 0.978758 0.554985 0.743618
#
# Coordination Sequence:
#
# PCOD9242994 Si02
#       7
#     4   4   4   4   4   4   4
#     4  11  24  37  57  87 117 158 197 241 298 347
#     4  12  24  37  57  85 121 158 200 233 288 363
#     4  11  20  37  60  86 123 150 193 249 299 353
#     4  12  25  42  61  85 123 165 199 240 290 359
#     4  10  22  37  61  91 121 157 197 247 303 356
#     4  10  20  36  59  90 119 151 193 250 311 353
#     4  10  21  37  62  89 121 150 195 254 304 351
#
# _framework density 21.716442000000001
#
# number of rings (size 3 to 8) (size 9 to 14) (size 15 to 20)
#    0.000    1.143    4.286    2.571    4.000    0.000 
#    0.000    0.000    0.000    1.714    0.000    0.000 
#    0.000    0.000    0.000    0.000    0.000    0.000 
#
# Total GULP energy -156450.375390 kJ/mol
# GULP energy per Si atom -5587.513407 kJ/mol
# Density = 2.166701 g / cm^3
# Si number density = 21.716442 Si / 1000 Ang^3
#
#
#
# Elastic Constant Matrix: (Units=GPa)
#
#
# Indices 1 2 3 4 5 6 
#
# 1 23.7298 -4.3296 24.8790 0.0000 -18.0962 0.0000
# 2 -4.3296 74.8634 10.7365 0.0000 -10.0669 0.0000
# 3 24.8790 10.7365 91.9818 0.0000 -30.6021 0.0000
# 4 0.0000 0.0000 0.0000 35.4543 0.0000 -6.3470
# 5 -18.0962 -10.0669 -30.6021 0.0000 30.4273 0.0000
# 6 0.0000 0.0000 0.0000 -6.3470 0.0000 17.0600
#
#
#
# Elastic Compliance Matrix: (Units=1/GPa)
#
#
# Indices 1 2 3 4 5 6 
#
# 1 0.093186 0.013528 -0.010304 0.000000 0.049534 0.000000
# 2 0.013528 0.015945 -0.001636 0.000000 0.011676 0.000000
# 3 -0.010304 -0.001636 0.017480 0.000000 0.010911 0.000000
# 4 0.000000 0.000000 0.000000 0.030218 0.000000 0.011242
# 5 0.049534 0.011676 0.010911 0.000000 0.077161 0.000000
# 6 0.000000 0.000000 0.000000 0.011242 0.000000 0.062799
#
#
# Mechanical properties :
#
#
# Convention : Reuss Voigt Hill
#
# Bulk Modulus (GPa) = 7.70495 28.12744 17.91620
# Shear Modulus (GPa) = 14.84230 27.20757 21.02493
#
# Velocity S-wave (km/s) = 2.61714 3.54341 3.11490
# Velocity P-wave (km/s) = 3.56206 5.45172 4.60486
#
# Compressibility (1/GPa) = 0.12978665
#
# Stress axis : x y z
#
# Youngs Moduli (GPa) = 10.73117 62.71714 57.20940
#
# Poissons Ratio (x) = -0.84842 0.58950
# Poissons Ratio (y) = -0.14517 0.09357
# Poissons Ratio (z) = 0.11058 0.10258
#
# Static dielectric constant tensor:
#      x y z
#    x 1.796200 0.000000 -0.057160 
#    y 0.000000 1.838510 0.000000 
#    z -0.057160 0.000000 1.854500 
# 
# From -- ./inp_files/66449.got.cif
#   From: 2010.05.17/outbox.cif.g08.bks.cpg/sg14_34_cif.got.tgz:66449.got - 2010.06.03 17:49:19.
