data_PCOD9242819
_publ_section_title
;
Structure prediction by ZEFSAII (Michael W. Deem and Ramdas Pophale) SiO2 
 PCOD9242819
Probable space group: P 21/C
;
_chemical_formula_sum "Si O2"
_cell_formula_units_Z 28
_cell_length_a 23.228776
_cell_length_b 7.328379
_cell_length_c 18.951295
_cell_angle_alpha 90.000000
_cell_angle_beta 24.922072
_cell_angle_gamma 90.000000
_cell_volume 1359.416133
_symmetry_space_group_name_H-M "P 21/C"
_symmetry_group_IT_number 14
_symmetry_cell_setting 'monoclinic'
loop_
_space_group_symop_operation_xyz
x,y,z
-x,1/2+y,1/2-z
-x,-y,-z
x,1/2-y,1/2+z
loop_
_atom_site_type_symbol
_atom_site_label
_atom_site_fract_x
_atom_site_fract_y
_atom_site_fract_z
Si Si1 0.386859 0.491913 0.419633
Si Si2 0.839782 0.023560 0.938009
Si Si3 0.148801 0.093778 0.568179
Si Si4 0.438374 0.116937 0.504462
Si Si5 0.726191 0.297555 0.168406
Si Si6 0.359785 0.498268 0.611140
Si Si7 0.657839 0.560538 0.031126
O O1 0.277000 0.580180 0.488469
O O2 0.380001 0.557620 0.507875
O O3 0.534249 0.505583 0.219853
O O4 0.348294 0.279692 0.466856
O O5 0.823642 0.808506 0.970282
O O6 0.988730 0.056026 0.740072
O O7 0.822022 0.142242 0.028584
O O8 0.200674 0.022982 0.587055
O O9 0.236919 0.979495 0.415068
O O10 0.573551 0.220692 0.324414
O O11 0.332567 0.278885 0.642714
O O12 0.374097 0.999023 0.512780
O O13 0.500000 0.000000 0.500000
O O14 0.734455 0.362175 0.240446
O O15 0.500000 0.500000 0.500000
#
# Coordination Sequence:
#
# PCOD9242819 Si02
#       7
#     4   4   4   4   4   4   4
#     4  10  21  37  62  90 121 159 210 255 318 367
#     4  11  23  41  65  93 121 169 212 257 307 377
#     4  11  23  40  66  90 126 162 214 258 306 367
#     4  10  21  37  61  98 128 163 208 256 320 374
#     4  11  22  41  61  90 126 164 204 253 318 363
#     4   9  20  37  57  88 129 159 196 257 313 365
#     4  10  20  35  62  92 120 159 208 262 306 370
#
# _framework density 20.597079000000001
#
# number of rings (size 3 to 8) (size 9 to 14) (size 15 to 20)
#    0.000    1.714    2.857    2.571    2.000    2.286 
#    0.000    0.714    0.000    1.714    0.000    0.000 
#    0.000    0.000    0.000    0.000    0.000    0.000 
#
# Total GULP energy -156132.404240 kJ/mol
# GULP energy per Si atom -5576.157294 kJ/mol
# Density = 2.055020 g / cm^3
# Si number density = 20.597079 Si / 1000 Ang^3
#
#
#
# Elastic Constant Matrix: (Units=GPa)
#
#
# Indices 1 2 3 4 5 6 
#
# 1 92.5108 20.0875 37.2940 0.0000 10.1560 0.0000
# 2 20.0875 88.1785 13.1859 0.0000 22.6713 0.0000
# 3 37.2940 13.1859 51.8728 0.0000 8.3594 0.0000
# 4 0.0000 0.0000 0.0000 32.2310 0.0000 2.0115
# 5 10.1560 22.6713 8.3594 0.0000 28.3488 0.0000
# 6 0.0000 0.0000 0.0000 2.0115 0.0000 13.1011
#
#
#
# Elastic Compliance Matrix: (Units=1/GPa)
#
#
# Indices 1 2 3 4 5 6 
#
# 1 0.015562 -0.001676 -0.010583 0.000000 -0.001114 0.000000
# 2 -0.001676 0.014633 -0.000762 0.000000 -0.010877 0.000000
# 3 -0.010583 -0.000762 0.027687 0.000000 -0.003764 0.000000
# 4 0.000000 0.000000 0.000000 0.031326 0.000000 -0.004810
# 5 -0.001114 -0.010877 -0.003764 0.000000 0.045483 0.000000
# 6 0.000000 0.000000 0.000000 -0.004810 0.000000 0.077068
#
#
# Mechanical properties :
#
#
# Convention : Reuss Voigt Hill
#
# Bulk Modulus (GPa) = 31.40666 41.52189 36.46428
# Shear Modulus (GPa) = 20.12779 25.53584 22.83182
#
# Velocity S-wave (km/s) = 3.12944 3.52487 3.33302
# Velocity P-wave (km/s) = 5.32344 6.06376 5.70562
#
# Compressibility (1/GPa) = 0.03184038
#
# Stress axis : x y z
#
# Youngs Moduli (GPa) = 64.25896 68.33874 36.11864
#
# Poissons Ratio (x) = 0.11455 0.38223
# Poissons Ratio (y) = 0.10771 0.02751
# Poissons Ratio (z) = 0.68004 0.05205
#
# Static dielectric constant tensor:
#      x y z
#    x 1.790990 0.000000 0.024890 
#    y 0.000000 1.818940 0.000000 
#    z 0.024890 0.000000 1.761580 
# 
# From -- ./inp_files/50194.got.cif
#   From: 2010.05.17/outbox.cif.g08.bks.cpg/sg14_26_cif.got.tgz:50194.got - 2010.06.03 17:49:19.
