data_PCOD9242730
_publ_section_title
;
Structure prediction by ZEFSAII (Michael W. Deem and Ramdas Pophale) SiO2 
 PCOD9242730
Probable space group: P 21/C
;
_chemical_formula_sum "Si O2"
_cell_formula_units_Z 28
_cell_length_a 9.033466
_cell_length_b 17.525235
_cell_length_c 13.172833
_cell_angle_alpha 90.000000
_cell_angle_beta 43.188535
_cell_angle_gamma 90.000000
_cell_volume 1427.276871
_symmetry_space_group_name_H-M "P 21/C"
_symmetry_group_IT_number 14
_symmetry_cell_setting 'monoclinic'
loop_
_space_group_symop_operation_xyz
x,y,z
-x,1/2+y,1/2-z
-x,-y,-z
x,1/2-y,1/2+z
loop_
_atom_site_type_symbol
_atom_site_label
_atom_site_fract_x
_atom_site_fract_y
_atom_site_fract_z
Si Si1 0.228190 0.138437 0.463077
Si Si2 0.499992 0.500000 0.222149
Si Si3 0.752155 0.408470 0.260477
Si Si4 0.247841 0.908471 0.012627
Si Si5 0.664639 0.807566 0.805352
Si Si6 0.771804 0.638439 0.691271
Si Si7 0.664632 0.692437 0.530010
O O1 0.211143 0.153519 0.350133
O O2 0.319953 0.217012 0.462310
O O3 0.994515 0.119874 0.623844
O O4 0.391618 0.068094 0.394422
O O5 0.681177 0.465842 0.207558
O O6 0.318793 0.534156 0.388741
O O7 0.391615 0.431905 0.213955
O O8 0.729149 0.442006 0.385429
O O9 0.580179 0.338991 0.339742
O O10 0.005486 0.880119 0.118357
O O11 0.419833 0.838997 0.919904
O O12 0.680040 0.717015 0.782266
O O13 0.746096 0.827675 0.876952
O O14 0.788836 0.653519 0.561286
#
# Coordination Sequence:
#
# PCOD9242730 Si02
#       7
#     4   4   4   4   4   4   4
#     4  10  20  35  58  83 110 141 183 230 271 316
#     4  10  21  36  53  80 112 148 183 222 265 322
#     4  10  20  37  59  81 110 146 181 221 273 329
#     4  10  20  37  59  81 110 146 181 221 273 329
#     4   9  20  37  57  81 108 141 182 225 272 327
#     4  10  20  35  58  83 110 141 183 230 271 316
#     4   9  20  37  57  81 108 141 182 225 272 327
#
# _framework density 19.617775999999999
#
# number of rings (size 3 to 8) (size 9 to 14) (size 15 to 20)
#    0.000    2.286    0.000    2.143    0.000   10.286 
#    0.000    2.857    0.000   10.286    0.000    0.000 
#    0.000    0.000    0.000    0.000    0.000    0.000 
#
# Total GULP energy -156266.114985 kJ/mol
# GULP energy per Si atom -5580.932678 kJ/mol
# Density = 1.957312 g / cm^3
# Si number density = 19.617776 Si / 1000 Ang^3
#
#
#
# Elastic Constant Matrix: (Units=GPa)
#
#
# Indices 1 2 3 4 5 6 
#
# 1 54.0168 -9.5931 7.8103 0.0000 5.2048 0.0000
# 2 -9.5931 68.2124 -2.8745 0.0000 -12.1641 0.0000
# 3 7.8103 -2.8745 48.1071 0.0000 5.5709 0.0000
# 4 0.0000 0.0000 0.0000 11.0891 0.0000 -3.4039
# 5 5.2048 -12.1641 5.5709 0.0000 21.0024 0.0000
# 6 0.0000 0.0000 0.0000 -3.4039 0.0000 9.2131
#
#
#
# Elastic Compliance Matrix: (Units=1/GPa)
#
#
# Indices 1 2 3 4 5 6 
#
# 1 0.019561 0.002119 -0.002713 0.000000 -0.002900 0.000000
# 2 0.002119 0.016579 -0.000417 0.000000 0.009188 0.000000
# 3 -0.002713 -0.000417 0.021823 0.000000 -0.005358 0.000000
# 4 0.000000 0.000000 0.000000 0.101714 0.000000 0.037579
# 5 -0.002900 0.009188 -0.005358 0.000000 0.055075 0.000000
# 6 0.000000 0.000000 0.000000 0.037579 0.000000 0.122424
#
#
# Mechanical properties :
#
#
# Convention : Reuss Voigt Hill
#
# Bulk Modulus (GPa) = 17.87617 17.89130 17.88374
# Shear Modulus (GPa) = 13.97251 19.92717 16.94984
#
# Velocity S-wave (km/s) = 2.67167 3.19057 2.94258
# Velocity P-wave (km/s) = 4.31846 4.76579 4.54763
#
# Compressibility (1/GPa) = 0.05594038
#
# Stress axis : x y z
#
# Youngs Moduli (GPa) = 51.12233 60.31740 45.82329
#
# Poissons Ratio (x) = -0.12784 0.12433
# Poissons Ratio (y) = -0.10835 0.01913
# Poissons Ratio (z) = 0.13871 0.02518
#
# Static dielectric constant tensor:
#      x y z
#    x 1.695600 0.000000 0.044540 
#    y 0.000000 1.688250 0.000000 
#    z 0.044540 0.000000 1.671050 
# 
# From -- ./inp_files/41770.got.cif
#   From: 2010.05.17/outbox.cif.g08.bks.cpg/sg14_21_cif.got.tgz:41770.got - 2010.06.03 17:49:19.
