data_PCOD9242297
_publ_section_title
;
Structure prediction by ZEFSAII (Michael W. Deem and Ramdas Pophale) SiO2 
 PCOD9242297
Probable space group: P 21/C
;
_chemical_formula_sum "Si O2"
_cell_formula_units_Z 32
_cell_length_a 11.417497
_cell_length_b 22.268195
_cell_length_c 10.116995
_cell_angle_alpha 90.000000
_cell_angle_beta 145.506895
_cell_angle_gamma 90.000000
_cell_volume 1456.664147
_symmetry_space_group_name_H-M "P 21/C"
_symmetry_group_IT_number 14
_symmetry_cell_setting 'monoclinic'
loop_
_space_group_symop_operation_xyz
x,y,z
-x,1/2+y,1/2-z
-x,-y,-z
x,1/2-y,1/2+z
loop_
_atom_site_type_symbol
_atom_site_label
_atom_site_fract_x
_atom_site_fract_y
_atom_site_fract_z
Si Si1 0.086780 0.309863 0.712639
Si Si2 0.078331 0.014188 0.866735
Si Si3 0.587220 0.581360 0.473662
Si Si4 0.449262 0.221741 0.032742
Si Si5 0.678955 0.207467 0.978607
Si Si6 0.741519 0.987606 0.369021
Si Si7 0.453844 0.104229 0.634390
Si Si8 0.833677 0.409379 0.338653
O O1 0.233500 0.255849 0.801182
O O2 0.919858 0.289124 0.666354
O O3 0.955638 0.347775 0.483116
O O4 0.247963 0.357478 0.922956
O O5 0.280184 0.052153 0.020711
O O6 0.914742 0.059080 0.783118
O O7 0.974625 0.991258 0.635356
O O8 0.118064 0.958264 0.000525
O O9 0.586188 0.652334 0.469268
O O10 0.360949 0.551102 0.261908
O O11 0.696089 0.558133 0.708786
O O12 0.605793 0.225739 0.055016
O O13 0.554893 0.253285 0.256096
O O14 0.600169 0.139538 0.874396
O O15 0.614784 0.959379 0.374502
O O16 0.589443 0.101670 0.627292
#
# Coordination Sequence:
#
# PCOD9242297 Si02
#       8
#     4   4   4   4   4   4   4   4
#     4  10  23  43  71  93 134 184 221 282 346 408
#     4  11  23  39  63 105 136 174 222 281 341 407
#     4  11  25  43  65  96 138 173 231 282 340 411
#     4  11  25  46  69 100 134 180 233 287 339 411
#     4  10  24  45  69  98 129 177 231 283 340 414
#     4  11  22  41  66  94 131 181 215 280 342 403
#     4  10  19  42  66  93 129 178 222 269 341 406
#     4  10  22  39  67 100 137 174 226 275 339 421
#
# _framework density 21.968001000000001
#
# number of rings (size 3 to 8) (size 9 to 14) (size 15 to 20)
#    0.000    1.500    3.750    0.375    1.750    4.500 
#   11.250    0.000    0.000    0.000    0.000    0.000 
#    0.000    0.000    0.000    0.000    0.000    0.000 
#
# Total GULP energy -178898.469536 kJ/mol
# GULP energy per Si atom -5590.577173 kJ/mol
# Density = 2.191800 g / cm^3
# Si number density = 21.968001 Si / 1000 Ang^3
#
#
#
# Elastic Constant Matrix: (Units=GPa)
#
#
# Indices 1 2 3 4 5 6 
#
# 1 45.9284 26.3898 16.3543 0.0000 18.3314 0.0000
# 2 26.3898 127.2418 26.0387 0.0000 14.6128 0.0000
# 3 16.3543 26.0387 62.0178 0.0000 18.1707 0.0000
# 4 0.0000 0.0000 0.0000 10.6737 0.0000 5.8240
# 5 18.3314 14.6128 18.1707 0.0000 36.5851 0.0000
# 6 0.0000 0.0000 0.0000 5.8240 0.0000 29.7109
#
#
#
# Elastic Compliance Matrix: (Units=1/GPa)
#
#
# Indices 1 2 3 4 5 6 
#
# 1 0.029959 -0.004307 -0.002572 0.000000 -0.012013 0.000000
# 2 -0.004307 0.009334 -0.002719 0.000000 -0.000220 0.000000
# 3 -0.002572 -0.002719 0.020186 0.000000 -0.007651 0.000000
# 4 0.000000 0.000000 0.000000 0.104909 0.000000 -0.020565
# 5 -0.012013 -0.000220 -0.007651 0.000000 0.037241 0.000000
# 6 0.000000 0.000000 0.000000 -0.020565 0.000000 0.037689
#
#
# Mechanical properties :
#
#
# Convention : Reuss Voigt Hill
#
# Bulk Modulus (GPa) = 24.82475 41.41704 33.12089
# Shear Modulus (GPa) = 18.38634 26.48762 22.43698
#
# Velocity S-wave (km/s) = 2.89616 3.47614 3.19932
# Velocity P-wave (km/s) = 4.74433 5.91656 5.36257
#
# Compressibility (1/GPa) = 0.04028239
#
# Stress axis : x y z
#
# Youngs Moduli (GPa) = 33.37932 107.13535 49.53978
#
# Poissons Ratio (x) = 0.46148 0.12741
# Poissons Ratio (y) = 0.14378 0.13469
# Poissons Ratio (z) = 0.08585 0.29127
#
# Static dielectric constant tensor:
#      x y z
#    x 1.827380 0.000000 0.013600 
#    y 0.000000 1.781940 0.000000 
#    z 0.013600 0.000000 1.817410 
# 
# From -- ./inp_files/30825.got.cif
#   From: 2010.05.17/outbox.cif.g08.bks.cpg/sg14_16_cif.got.tgz:30825.got - 2010.06.03 17:49:19.
