data_PCOD9242200
_publ_section_title
;
Structure prediction by ZEFSAII (Michael W. Deem and Ramdas Pophale) SiO2 
 PCOD9242200
Probable space group: P 21/C
;
_chemical_formula_sum "Si O2"
_cell_formula_units_Z 24
_cell_length_a 11.004277
_cell_length_b 14.580208
_cell_length_c 13.912202
_cell_angle_alpha 90.000000
_cell_angle_beta 29.488774
_cell_angle_gamma 90.000000
_cell_volume 1098.776845
_symmetry_space_group_name_H-M "P 21/C"
_symmetry_group_IT_number 14
_symmetry_cell_setting 'monoclinic'
loop_
_space_group_symop_operation_xyz
x,y,z
-x,1/2+y,1/2-z
-x,-y,-z
x,1/2-y,1/2+z
loop_
_atom_site_type_symbol
_atom_site_label
_atom_site_fract_x
_atom_site_fract_y
_atom_site_fract_z
Si Si1 0.479295 0.357540 0.647385
Si Si2 0.457394 0.659499 0.855431
Si Si3 0.280575 0.974286 0.868636
Si Si4 0.001130 0.062157 0.403547
Si Si5 0.541086 0.395429 0.936592
Si Si6 0.990309 0.915120 0.241300
O O1 0.438287 0.261007 0.727750
O O2 0.500431 0.437084 0.713156
O O3 0.262213 0.384386 0.725143
O O4 0.758113 0.358888 0.412523
O O5 0.653271 0.578022 0.702938
O O6 0.380686 0.655459 0.021162
O O7 0.222332 0.634446 0.951998
O O8 0.284440 0.906192 0.775320
O O9 0.046752 0.959658 0.097697
O O10 0.000000 0.000000 0.500000
O O11 0.975984 0.994826 0.329823
O O12 0.500000 0.500000 0.000000
O O13 0.269177 0.363573 0.088470
#
# Coordination Sequence:
#
# PCOD9242200 Si02
#       6
#     4   4   4   4   4   4
#     4  10  24  39  64 102 129 170 232 265 328 403
#     4  11  23  41  65  98 135 174 216 278 327 392
#     4   9  21  43  66  91 130 172 218 270 332 387
#     4  12  21  45  69  88 134 181 214 275 338 389
#     4  10  19  40  64  89 126 167 214 268 330 380
#     4  10  21  42  66  92 123 174 221 265 325 390
#
# _framework density 21.842468
#
# number of rings (size 3 to 8) (size 9 to 14) (size 15 to 20)
#    1.000    0.667    5.000    0.500    2.333    2.667 
#    6.000    1.667    0.000    0.000    0.000    0.000 
#    0.000    0.000    0.000    0.000    0.000    0.000 
#
# Total GULP energy -133778.775985 kJ/mol
# GULP energy per Si atom -5574.115666 kJ/mol
# Density = 2.179275 g / cm^3
# Si number density = 21.842468 Si / 1000 Ang^3
#
#
#
# Elastic Constant Matrix: (Units=GPa)
#
#
# Indices 1 2 3 4 5 6 
#
# 1 102.9689 7.8658 33.9079 0.0000 -19.4419 0.0000
# 2 7.8658 74.7228 7.5647 0.0000 -9.8754 0.0000
# 3 33.9079 7.5647 79.9217 0.0000 6.1553 0.0000
# 4 0.0000 0.0000 0.0000 14.3145 0.0000 -0.2831
# 5 -19.4419 -9.8754 6.1553 0.0000 45.2020 0.0000
# 6 0.0000 0.0000 0.0000 -0.2831 0.0000 11.6908
#
#
#
# Elastic Compliance Matrix: (Units=1/GPa)
#
#
# Indices 1 2 3 4 5 6 
#
# 1 0.012869 0.000090 -0.005959 0.000000 0.006366 0.000000
# 2 0.000090 0.013975 -0.001616 0.000000 0.003312 0.000000
# 3 -0.005959 -0.001616 0.015581 0.000000 -0.005038 0.000000
# 4 0.000000 0.000000 0.000000 0.069893 0.000000 0.001692
# 5 0.006366 0.003312 -0.005038 0.000000 0.026271 0.000000
# 6 0.000000 0.000000 0.000000 0.001692 0.000000 0.085579
#
#
# Mechanical properties :
#
#
# Convention : Reuss Voigt Hill
#
# Bulk Modulus (GPa) = 36.42257 39.58779 38.00518
# Shear Modulus (GPa) = 20.13792 28.12647 24.13219
#
# Velocity S-wave (km/s) = 3.03968 3.59234 3.32750
# Velocity P-wave (km/s) = 5.38803 5.94728 5.67455
#
# Compressibility (1/GPa) = 0.02745551
#
# Stress axis : x y z
#
# Youngs Moduli (GPa) = 77.70602 71.55831 64.17981
#
# Poissons Ratio (x) = -0.00643 0.38243
# Poissons Ratio (y) = -0.00699 0.10371
# Poissons Ratio (z) = 0.46302 0.11563
#
# Static dielectric constant tensor:
#      x y z
#    x 1.854230 0.000000 -0.026870 
#    y 0.000000 1.829240 0.000000 
#    z -0.026870 0.000000 1.861510 
# 
# From -- ./inp_files/45032.got.cif
#   From: 2010.05.17/outbox.cif.g08.bks.cpg/sg14_23_cif.got.tgz:45032.got - 2010.06.03 17:49:19.
