data_PCOD9242665
_publ_section_title
;
Structure prediction by ZEFSAII (Michael W. Deem and Ramdas Pophale) SiO2 
 PCOD9242665
Probable space group: P 21/C
;
_chemical_formula_sum "Si O2"
_cell_formula_units_Z 28
_cell_length_a 11.416970
_cell_length_b 9.249213
_cell_length_c 13.254136
_cell_angle_alpha 90.000000
_cell_angle_beta 56.977972
_cell_angle_gamma 90.000000
_cell_volume 1173.518631
_symmetry_space_group_name_H-M "P 21/C"
_symmetry_group_IT_number 14
_symmetry_cell_setting 'monoclinic'
loop_
_space_group_symop_operation_xyz
x,y,z
-x,1/2+y,1/2-z
-x,-y,-z
x,1/2-y,1/2+z
loop_
_atom_site_type_symbol
_atom_site_label
_atom_site_fract_x
_atom_site_fract_y
_atom_site_fract_z
Si Si1 0.411764 0.482457 0.390801
Si Si2 0.882896 0.230381 0.300950
Si Si3 0.962746 0.532880 0.632739
Si Si4 0.645158 0.018628 0.495815
Si Si5 0.273461 0.203893 0.679309
Si Si6 0.524491 0.216476 0.694953
Si Si7 0.277453 0.987285 0.165190
O O1 0.402567 0.629386 0.327888
O O2 0.413214 0.332433 0.329906
O O3 0.567738 0.469939 0.364103
O O4 0.303302 0.500664 0.532117
O O5 0.749058 0.143930 0.407510
O O6 0.815806 0.352416 0.260624
O O7 0.959119 0.331611 0.348880
O O8 0.970458 0.112147 0.197431
O O9 0.802009 0.585236 0.717208
O O10 0.000000 0.500000 0.500000
O O11 0.613740 0.073909 0.623497
O O12 0.500000 0.000000 0.500000
O O13 0.724052 0.868786 0.432454
O O14 0.432548 0.233460 0.636968
O O15 0.210315 0.360854 0.725631
#
# Coordination Sequence:
#
# PCOD9242665 Si02
#       7
#     4   4   4   4   4   4   4
#     4  10  22  33  57  91 130 168 213 265 347 426
#     4  11  23  45  70  97 138 183 233 298 350 414
#     4  11  26  46  72 101 132 186 244 292 352 417
#     4   9  19  36  61  92 132 167 213 275 358 422
#     4   9  21  39  60  91 126 171 221 277 338 415
#     4  10  20  35  55  95 125 166 220 268 342 418
#     4  10  21  40  60  87 132 174 210 275 350 412
#
# _framework density 23.859867999999999
#
# number of rings (size 3 to 8) (size 9 to 14) (size 15 to 20)
#    0.000    2.000    1.429    0.857    6.000    3.429 
#    0.000    4.286    0.000    0.000    0.000    0.000 
#    0.000    0.000    0.000    0.000    0.000    0.000 
#
# Total GULP energy -155941.541503 kJ/mol
# GULP energy per Si atom -5569.340768 kJ/mol
# Density = 2.380556 g / cm^3
# Si number density = 23.859868 Si / 1000 Ang^3
#
#
#
# Elastic Constant Matrix: (Units=GPa)
#
#
# Indices 1 2 3 4 5 6 
#
# 1 54.5210 25.6044 9.6406 0.0000 -6.1664 0.0000
# 2 25.6044 137.8809 37.1965 0.0000 7.4665 0.0000
# 3 9.6406 37.1965 102.6945 0.0000 9.0943 0.0000
# 4 0.0000 0.0000 0.0000 35.3652 0.0000 -9.6433
# 5 -6.1664 7.4665 9.0943 0.0000 19.0980 0.0000
# 6 0.0000 0.0000 0.0000 -9.6433 0.0000 35.1758
#
#
#
# Elastic Compliance Matrix: (Units=1/GPa)
#
#
# Indices 1 2 3 4 5 6 
#
# 1 0.021567 -0.004143 -0.001341 0.000000 0.009222 0.000000
# 2 -0.004143 0.008896 -0.002513 0.000000 -0.003619 0.000000
# 3 -0.001341 -0.002513 0.011197 0.000000 -0.004783 0.000000
# 4 0.000000 0.000000 0.000000 0.030561 0.000000 0.008378
# 5 0.009222 -0.003619 -0.004783 0.000000 0.059031 0.000000
# 6 0.000000 0.000000 0.000000 0.008378 0.000000 0.030725
#
#
# Mechanical properties :
#
#
# Convention : Reuss Voigt Hill
#
# Bulk Modulus (GPa) = 38.95950 48.88657 43.92304
# Shear Modulus (GPa) = 26.80592 32.77147 29.78869
#
# Velocity S-wave (km/s) = 3.35546 3.71009 3.53722
# Velocity P-wave (km/s) = 5.60143 6.23591 5.92717
#
# Compressibility (1/GPa) = 0.02566768
#
# Stress axis : x y z
#
# Youngs Moduli (GPa) = 46.36684 112.41313 89.30857
#
# Poissons Ratio (x) = 0.46569 0.11974
# Poissons Ratio (y) = 0.19208 0.22441
# Poissons Ratio (z) = 0.06217 0.28246
#
# Static dielectric constant tensor:
#      x y z
#    x 2.110970 0.000000 0.002350 
#    y 0.000000 1.985500 0.000000 
#    z 0.002350 0.000000 1.925380 
# 
# From -- ./inp_files/43561.got.cif
#   From: 2010.05.17/outbox.cif.g08.bks.cpg/sg14_22_cif.got.tgz:43561.got - 2010.06.03 17:49:19.
