data_PCOD9242317
_publ_section_title
;
Structure prediction by ZEFSAII (Michael W. Deem and Ramdas Pophale) SiO2 
 PCOD9242317
Probable space group: P 21/C
;
_chemical_formula_sum "Si O2"
_cell_formula_units_Z 26
_cell_length_a 11.200908
_cell_length_b 11.210632
_cell_length_c 17.446032
_cell_angle_alpha 90.000000
_cell_angle_beta 30.567234
_cell_angle_gamma 90.000000
_cell_volume 1114.071023
_symmetry_space_group_name_H-M "P 21/C"
_symmetry_group_IT_number 14
_symmetry_cell_setting 'monoclinic'
loop_
_space_group_symop_operation_xyz
x,y,z
-x,1/2+y,1/2-z
-x,-y,-z
x,1/2-y,1/2+z
loop_
_atom_site_type_symbol
_atom_site_label
_atom_site_fract_x
_atom_site_fract_y
_atom_site_fract_z
Si Si1 0.986259 0.565322 0.816292
Si Si2 0.801012 0.124097 0.958670
Si Si3 0.841268 0.753323 0.024678
Si Si4 0.490031 0.547189 0.723182
Si Si5 0.208062 0.957094 0.800583
Si Si6 0.500000 0.500000 0.000000
Si Si7 0.036903 0.864476 0.555731
O O1 0.912291 0.666920 0.916965
O O2 0.065400 0.453683 0.824418
O O3 0.162493 0.611378 0.652920
O O4 0.753697 0.522020 0.901581
O O5 0.820494 0.259443 0.978319
O O6 0.026748 0.058595 0.872557
O O7 0.579564 0.047839 0.110947
O O8 0.049187 0.849597 0.915904
O O9 0.603526 0.824790 0.139166
O O10 0.843468 0.690175 0.105829
O O11 0.625964 0.505611 0.724769
O O12 0.224849 0.569535 0.896220
O O13 0.368453 0.924388 0.640771
#
# Coordination Sequence:
#
# PCOD9242317 Si02
#       7
#     4   4   4   4   4   2   4
#     4  11  26  41  68  98 136 175 220 276 346 399
#     4  10  23  43  63  95 133 173 224 281 332 397
#     4  11  24  42  67  99 139 171 224 289 339 393
#     4  11  22  41  70  95 127 184 234 268 336 408
#     4  10  19  43  65  93 129 178 228 274 331 405
#     4  10  22  40  66  94 126 172 232 256 326 410
#     4  12  24  42  71  98 135 177 223 285 333 404
#
# _framework density 23.33783
#
# number of rings (size 3 to 8) (size 9 to 14) (size 15 to 20)
#    0.000    1.231    4.615    1.385   10.769    0.000 
#    0.000    0.769    0.000    0.000    0.000    0.000 
#    0.000    0.000    0.000    0.000    0.000    0.000 
#
# Total GULP energy -144970.207011 kJ/mol
# GULP energy per Si atom -5575.777193 kJ/mol
# Density = 2.328471 g / cm^3
# Si number density = 23.337830 Si / 1000 Ang^3
#
#
#
# Elastic Constant Matrix: (Units=GPa)
#
#
# Indices 1 2 3 4 5 6 
#
# 1 78.3785 33.1155 42.2341 0.0000 20.4099 0.0000
# 2 33.1155 105.9398 28.8043 0.0000 28.8854 0.0000
# 3 42.2341 28.8043 103.4470 0.0000 21.7313 0.0000
# 4 0.0000 0.0000 0.0000 22.5812 0.0000 7.9154
# 5 20.4099 28.8854 21.7313 0.0000 42.4450 0.0000
# 6 0.0000 0.0000 0.0000 7.9154 0.0000 16.2234
#
#
#
# Elastic Compliance Matrix: (Units=1/GPa)
#
#
# Indices 1 2 3 4 5 6 
#
# 1 0.018130 -0.003102 -0.005771 0.000000 -0.003652 0.000000
# 2 -0.003102 0.012414 -0.000816 0.000000 -0.006538 0.000000
# 3 -0.005771 -0.000816 0.012943 0.000000 -0.003296 0.000000
# 4 0.000000 0.000000 0.000000 0.053421 0.000000 -0.026064
# 5 -0.003652 -0.006538 -0.003296 0.000000 0.031453 0.000000
# 6 0.000000 0.000000 0.000000 -0.026064 0.000000 0.074356
#
#
# Mechanical properties :
#
#
# Convention : Reuss Voigt Hill
#
# Bulk Modulus (GPa) = 41.48191 55.11922 48.30057
# Shear Modulus (GPa) = 21.72674 28.49068 25.10871
#
# Velocity S-wave (km/s) = 3.05448 3.49778 3.28362
# Velocity P-wave (km/s) = 5.50027 6.32312 5.92599
#
# Compressibility (1/GPa) = 0.02410689
#
# Stress axis : x y z
#
# Youngs Moduli (GPa) = 55.15715 80.55561 77.26454
#
# Poissons Ratio (x) = 0.24992 0.44588
# Poissons Ratio (y) = 0.17112 0.06308
# Poissons Ratio (z) = 0.31830 0.06577
#
# Static dielectric constant tensor:
#      x y z
#    x 1.890070 0.000000 0.010620 
#    y 0.000000 1.935780 0.000000 
#    z 0.010620 0.000000 1.879260 
# 
# From -- ./inp_files/57670.got.cif
#   From: 2010.05.17/outbox.cif.g08.bks.cpg/sg14_29_cif.got.tgz:57670.got - 2010.06.03 17:49:19.
