data_PCOD9242391
_publ_section_title
;
Structure prediction by ZEFSAII (Michael W. Deem and Ramdas Pophale) SiO2 
 PCOD9242391
Probable space group: P 21/C
;
_chemical_formula_sum "Si O2"
_cell_formula_units_Z 28
_cell_length_a 5.214351
_cell_length_b 9.139551
_cell_length_c 22.600728
_cell_angle_alpha 90.000000
_cell_angle_beta 65.794214
_cell_angle_gamma 90.000000
_cell_volume 982.380814
_symmetry_space_group_name_H-M "P 21/C"
_symmetry_group_IT_number 14
_symmetry_cell_setting 'monoclinic'
loop_
_space_group_symop_operation_xyz
x,y,z
-x,1/2+y,1/2-z
-x,-y,-z
x,1/2-y,1/2+z
loop_
_atom_site_type_symbol
_atom_site_label
_atom_site_fract_x
_atom_site_fract_y
_atom_site_fract_z
Si Si1 0.277465 0.191038 0.619690
Si Si2 0.577145 0.746696 0.203501
Si Si3 0.818889 0.178527 0.497593
Si Si4 0.646109 0.032584 0.066402
Si Si5 0.559067 0.692583 0.070063
Si Si6 0.001073 0.590870 0.737192
Si Si7 0.185718 0.869051 0.829625
O O1 0.549343 0.124784 0.561738
O O2 0.377914 0.361762 0.603560
O O3 0.210997 0.114393 0.687931
O O4 0.953776 0.220609 0.630501
O O5 0.575030 0.674109 0.139215
O O6 0.873545 0.812852 0.195466
O O7 0.483103 0.657451 0.270291
O O8 0.314087 0.859975 0.222932
O O9 0.819154 0.357333 0.507890
O O10 0.715420 0.145125 0.440673
O O11 0.137713 0.136439 0.482295
O O12 0.568378 0.869554 0.056619
O O13 0.791781 0.027839 0.116439
O O14 0.970402 0.429757 0.713825
#
# Coordination Sequence:
#
# PCOD9242391 Si02
#       7
#     4   4   4   4   4   4   4
#     4   9  22  36  56  83 112 151 187 229 277 341
#     4  11  23  37  57  86 115 150 189 232 290 336
#     4  10  23  35  54  80 118 149 189 222 280 346
#     4  10  20  32  56  82 113 145 181 228 283 344
#     4  12  21  35  54  83 117 151 180 231 283 339
#     4  11  22  39  59  83 115 151 187 237 287 334
#     4  11  21  38  60  85 118 145 194 239 285 340
#
# _framework density 28.502182999999999
#
# number of rings (size 3 to 8) (size 9 to 14) (size 15 to 20)
#    0.857    0.571    2.857    3.429    2.000    0.000 
#    0.000    0.000    0.000    1.714    0.000    0.000 
#    0.000    0.000    0.000    0.000    0.000    0.000 
#
# Total GULP energy -156309.000601 kJ/mol
# GULP energy per Si atom -5582.464307 kJ/mol
# Density = 2.843731 g / cm^3
# Si number density = 28.502183 Si / 1000 Ang^3
#
#
#
# Elastic Constant Matrix: (Units=GPa)
#
#
# Indices 1 2 3 4 5 6 
#
# 1 126.3539 20.2297 24.9205 0.0000 14.3697 0.0000
# 2 20.2297 59.1263 2.6096 0.0000 -4.8748 0.0000
# 3 24.9205 2.6096 132.8971 0.0000 -14.0456 0.0000
# 4 0.0000 0.0000 0.0000 38.4608 0.0000 -1.7865
# 5 14.3697 -4.8748 -14.0456 0.0000 49.0945 0.0000
# 6 0.0000 0.0000 0.0000 -1.7865 0.0000 44.0640
#
#
#
# Elastic Compliance Matrix: (Units=1/GPa)
#
#
# Indices 1 2 3 4 5 6 
#
# 1 0.009276 -0.003383 -0.002058 0.000000 -0.003639 0.000000
# 2 -0.003383 0.018290 0.000590 0.000000 0.002975 0.000000
# 3 -0.002058 0.000590 0.008217 0.000000 0.003012 0.000000
# 4 0.000000 0.000000 0.000000 0.026050 0.000000 0.001056
# 5 -0.003639 0.002975 0.003012 0.000000 0.022591 0.000000
# 6 0.000000 0.000000 0.000000 0.001056 0.000000 0.022737
#
#
# Mechanical properties :
#
#
# Convention : Reuss Voigt Hill
#
# Bulk Modulus (GPa) = 38.34238 45.98855 42.16547
# Shear Modulus (GPa) = 39.82308 44.36502 42.09405
#
# Velocity S-wave (km/s) = 3.74196 3.94959 3.84718
# Velocity P-wave (km/s) = 5.67021 6.08023 5.87880
#
# Compressibility (1/GPa) = 0.02608080
#
# Stress axis : x y z
#
# Youngs Moduli (GPa) = 107.80983 54.67584 121.69651
#
# Poissons Ratio (x) = 0.18496 0.25040
# Poissons Ratio (y) = 0.36470 -0.07175
# Poissons Ratio (z) = 0.22182 -0.03224
#
# Static dielectric constant tensor:
#      x y z
#    x 2.286720 0.000000 -0.073610 
#    y 0.000000 2.495460 0.000000 
#    z -0.073610 0.000000 2.189260 
# 
# From -- ./inp_files/71348.got.cif
#   From: 2010.05.17/outbox.cif.g08.bks.cpg/sg14_36_cif.got.tgz:71348.got - 2010.06.03 17:49:19.
