data_PCOD9242498
_publ_section_title
;
Structure prediction by ZEFSAII (Michael W. Deem and Ramdas Pophale) SiO2 
 PCOD9242498
Probable space group: P 21/C
;
_chemical_formula_sum "Si O2"
_cell_formula_units_Z 32
_cell_length_a 26.985659
_cell_length_b 6.962279
_cell_length_c 16.978903
_cell_angle_alpha 90.000000
_cell_angle_beta 21.688010
_cell_angle_gamma 90.000000
_cell_volume 1178.881099
_symmetry_space_group_name_H-M "P 21/C"
_symmetry_group_IT_number 14
_symmetry_cell_setting 'monoclinic'
loop_
_space_group_symop_operation_xyz
x,y,z
-x,1/2+y,1/2-z
-x,-y,-z
x,1/2-y,1/2+z
loop_
_atom_site_type_symbol
_atom_site_label
_atom_site_fract_x
_atom_site_fract_y
_atom_site_fract_z
Si Si1 0.597136 0.257676 0.301818
Si Si2 0.546619 0.680852 0.335221
Si Si3 0.958773 0.315433 0.914914
Si Si4 0.832929 0.267963 0.849948
Si Si5 0.337937 0.133126 0.598583
Si Si6 0.915180 0.627010 0.441260
Si Si7 0.704088 0.316762 0.379095
Si Si8 0.785234 0.725397 0.881158
O O1 0.601962 0.489519 0.294178
O O2 0.539718 0.206280 0.472112
O O3 0.488054 0.187748 0.399636
O O4 0.745124 0.205598 0.055253
O O5 0.443580 0.605569 0.420392
O O6 0.669682 0.786146 0.113053
O O7 0.022788 0.369612 0.737018
O O8 0.074661 0.328654 0.809227
O O9 0.930564 0.088204 0.949399
O O10 0.813778 0.391538 0.154429
O O11 0.770904 0.166638 0.865478
O O12 0.810605 0.496644 0.863204
O O13 0.987548 0.247501 0.645891
O O14 0.275072 0.242231 0.616511
O O15 0.323741 0.911372 0.593624
O O16 0.240134 0.174951 0.817273
#
# Coordination Sequence:
#
# PCOD9242498 Si02
#       8
#     4   4   4   4   4   4   4   4
#     4  10  20  34  53  76 104 138 170 204 251 304
#     4  10  20  34  53  76 104 138 170 204 251 304
#     4  10  20  35  55  77 102 133 170 211 254 301
#     4   9  18  34  54  75 102 137 173 206 247 302
#     4  10  20  34  54  78 102 132 171 213 253 295
#     4  10  20  35  55  77 102 133 170 211 254 301
#     4  10  20  34  54  78 102 132 171 213 253 295
#     4   9  18  34  54  75 102 137 173 206 247 302
#
# _framework density 27.144382
#
# number of rings (size 3 to 8) (size 9 to 14) (size 15 to 20)
#    0.000    2.250    0.000    3.000    0.000    6.500 
#    0.000    2.500    0.000    3.000    0.000    0.000 
#    0.000    0.000    0.000    0.000    0.000    0.000 
#
# Total GULP energy -179310.532068 kJ/mol
# GULP energy per Si atom -5603.454127 kJ/mol
# Density = 2.708260 g / cm^3
# Si number density = 27.144382 Si / 1000 Ang^3
#
#
#
# Elastic Constant Matrix: (Units=GPa)
#
#
# Indices 1 2 3 4 5 6 
#
# 1 82.4256 5.2914 -16.9548 0.0000 -8.1632 0.0000
# 2 5.2914 87.5083 1.6728 0.0000 -3.7439 0.0000
# 3 -16.9548 1.6728 100.2051 0.0000 -10.7786 0.0000
# 4 0.0000 0.0000 0.0000 21.7840 0.0000 -6.5623
# 5 -8.1632 -3.7439 -10.7786 0.0000 46.3856 0.0000
# 6 0.0000 0.0000 0.0000 -6.5623 0.0000 38.2537
#
#
#
# Elastic Compliance Matrix: (Units=1/GPa)
#
#
# Indices 1 2 3 4 5 6 
#
# 1 0.012972 -0.000712 0.002509 0.000000 0.002808 0.000000
# 2 -0.000712 0.011507 -0.000232 0.000000 0.000750 0.000000
# 3 0.002509 -0.000232 0.010721 0.000000 0.002914 0.000000
# 4 0.000000 0.000000 0.000000 0.048407 0.000000 0.008304
# 5 0.002808 0.000750 0.002914 0.000000 0.022790 0.000000
# 6 0.000000 0.000000 0.000000 0.008304 0.000000 0.027566
#
#
# Mechanical properties :
#
#
# Convention : Reuss Voigt Hill
#
# Bulk Modulus (GPa) = 26.08932 27.79533 26.94232
# Shear Modulus (GPa) = 34.81633 39.95995 37.38814
#
# Velocity S-wave (km/s) = 3.58527 3.84099 3.71533
# Velocity P-wave (km/s) = 5.17408 5.47111 5.32466
#
# Compressibility (1/GPa) = 0.03832986
#
# Stress axis : x y z
#
# Youngs Moduli (GPa) = 77.08864 86.90325 93.27172
#
# Poissons Ratio (x) = 0.06189 -0.23401
# Poissons Ratio (y) = 0.05490 0.02164
# Poissons Ratio (z) = -0.19340 0.02016
#
# Static dielectric constant tensor:
#      x y z
#    x 2.076260 0.000000 0.025940 
#    y 0.000000 2.176410 0.000000 
#    z 0.025940 0.000000 2.081090 
# 
# From -- ./inp_files/62669.got.cif
#   From: 2010.05.17/outbox.cif.g08.bks.cpg/sg14_32_cif.got.tgz:62669.got - 2010.06.03 17:49:19.
