data_PCOD9242012
_publ_section_title
;
Structure prediction by ZEFSAII (Michael W. Deem and Ramdas Pophale) SiO2 
 PCOD9242012
Probable space group: P 21/C
;
_chemical_formula_sum "Si O2"
_cell_formula_units_Z 28
_cell_length_a 5.401044
_cell_length_b 14.056096
_cell_length_c 16.152647
_cell_angle_alpha 90.000000
_cell_angle_beta 76.057269
_cell_angle_gamma 90.000000
_cell_volume 1190.140547
_symmetry_space_group_name_H-M "P 21/C"
_symmetry_group_IT_number 14
_symmetry_cell_setting 'monoclinic'
loop_
_space_group_symop_operation_xyz
x,y,z
-x,1/2+y,1/2-z
-x,-y,-z
x,1/2-y,1/2+z
loop_
_atom_site_type_symbol
_atom_site_label
_atom_site_fract_x
_atom_site_fract_y
_atom_site_fract_z
Si Si1 0.560455 0.608875 0.923017
Si Si2 0.200684 0.575345 0.114274
Si Si3 0.606421 0.673709 0.670375
Si Si4 0.291886 0.990098 0.944012
Si Si5 0.774929 0.279822 0.592445
Si Si6 0.143468 0.180114 0.458176
Si Si7 0.074004 0.749690 0.242673
O O1 0.668201 0.520172 0.862633
O O2 0.433567 0.696133 0.886292
O O3 0.366155 0.587549 0.015605
O O4 0.804874 0.639095 0.956339
O O5 0.174325 0.656206 0.185499
O O6 0.920835 0.590864 0.095357
O O7 0.668883 0.572359 0.626438
O O8 0.637000 0.754445 0.595954
O O9 0.311681 0.677726 0.719639
O O10 0.823653 0.708507 0.718012
O O11 0.332929 0.885044 0.904402
O O12 0.500000 0.000000 0.000000
O O13 0.000000 0.000000 0.000000
O O14 0.952029 0.277603 0.659382
O O15 0.919513 0.256129 0.494370
#
# Coordination Sequence:
#
# PCOD9242012 Si02
#       7
#     4   4   4   4   4   4   4
#     4  10  19  38  65  91 123 165 224 267 319 390
#     4   9  20  36  63  92 122 167 215 264 329 393
#     4  11  23  44  69  92 135 177 223 270 349 402
#     4  12  25  43  74 102 130 179 238 286 334 405
#     4  11  26  40  63  99 133 171 227 281 331 407
#     4  10  19  38  66  91 124 168 221 276 318 400
#     4  11  25  44  63  98 137 180 212 282 348 401
#
# _framework density 23.526631999999999
#
# number of rings (size 3 to 8) (size 9 to 14) (size 15 to 20)
#    0.000    1.429    2.857    2.143    4.000    1.143 
#    0.000    0.000    0.000    0.000    0.000    0.000 
#    0.000    0.000    0.000    0.000    0.000    0.000 
#
# Total GULP energy -156123.395970 kJ/mol
# GULP energy per Si atom -5575.835570 kJ/mol
# Density = 2.347308 g / cm^3
# Si number density = 23.526632 Si / 1000 Ang^3
#
#
#
# Elastic Constant Matrix: (Units=GPa)
#
#
# Indices 1 2 3 4 5 6 
#
# 1 65.3620 24.9420 14.8236 0.0000 13.1962 0.0000
# 2 24.9420 90.9741 18.5084 0.0000 21.6577 0.0000
# 3 14.8236 18.5084 61.1265 0.0000 17.7816 0.0000
# 4 0.0000 0.0000 0.0000 3.7068 0.0000 9.2222
# 5 13.1962 21.6577 17.7816 0.0000 42.7118 0.0000
# 6 0.0000 0.0000 0.0000 9.2222 0.0000 26.0377
#
#
#
# Elastic Compliance Matrix: (Units=1/GPa)
#
#
# Indices 1 2 3 4 5 6 
#
# 1 0.017811 -0.003776 -0.002426 0.000000 -0.002578 0.000000
# 2 -0.003776 0.013569 -0.001742 0.000000 -0.004989 0.000000
# 3 -0.002426 -0.001742 0.019343 0.000000 -0.006420 0.000000
# 4 0.000000 0.000000 0.000000 2.270754 0.000000 -0.804276
# 5 -0.002578 -0.004989 -0.006420 0.000000 0.029412 0.000000
# 6 0.000000 0.000000 0.000000 -0.804276 0.000000 0.323271
#
#
# Mechanical properties :
#
#
# Convention : Reuss Voigt Hill
#
# Bulk Modulus (GPa) = 28.70589 37.11229 32.90909
# Shear Modulus (GPa) = 1.85071 25.10382 13.47727
#
# Velocity S-wave (km/s) = 0.88789 3.27010 2.39603
# Velocity P-wave (km/s) = 3.64405 5.48333 4.65543
#
# Compressibility (1/GPa) = 0.03483606
#
# Stress axis : x y z
#
# Youngs Moduli (GPa) = 56.14513 73.69542 51.69894
#
# Poissons Ratio (x) = 0.27826 0.12542
# Poissons Ratio (y) = 0.21199 0.09005
# Poissons Ratio (z) = 0.13621 0.12836
#
# Static dielectric constant tensor:
#      x y z
#    x 1.977910 0.000000 -0.011430 
#    y 0.000000 2.007250 0.000000 
#    z -0.011430 0.000000 1.895330 
# 
# From -- ./inp_files/53188.got.cif
#   From: 2010.05.17/outbox.cif.g08.bks.cpg/sg14_27_cif.got.tgz:53188.got - 2010.06.03 17:49:19.
