data_PCOD9242687
_publ_section_title
;
Structure prediction by ZEFSAII (Michael W. Deem and Ramdas Pophale) SiO2 
 PCOD9242687
Probable space group: P 21/C
;
_chemical_formula_sum "Si O2"
_cell_formula_units_Z 30
_cell_length_a 9.405697
_cell_length_b 22.738791
_cell_length_c 5.457158
_cell_angle_alpha 90.000000
_cell_angle_beta 96.105540
_cell_angle_gamma 90.000000
_cell_volume 1160.524744
_symmetry_space_group_name_H-M "P 21/C"
_symmetry_group_IT_number 14
_symmetry_cell_setting 'monoclinic'
loop_
_space_group_symop_operation_xyz
x,y,z
-x,1/2+y,1/2-z
-x,-y,-z
x,1/2-y,1/2+z
loop_
_atom_site_type_symbol
_atom_site_label
_atom_site_fract_x
_atom_site_fract_y
_atom_site_fract_z
Si Si1 0.877549 0.096338 0.322003
Si Si2 0.000000 0.000000 0.500000
Si Si3 0.239808 0.225847 0.356648
Si Si4 0.152217 0.781545 0.911858
Si Si5 0.220814 0.506807 0.580441
Si Si6 0.646518 0.893316 0.763614
Si Si7 0.476639 0.803292 0.067245
Si Si8 0.400490 0.903614 0.395704
O O1 0.897169 0.151503 0.150684
O O2 0.732349 0.105082 0.444905
O O3 0.006563 0.074611 0.511363
O O4 0.858760 0.032776 0.174881
O O5 0.874783 0.002772 0.694559
O O6 0.172760 0.249463 0.594445
O O7 0.254292 0.155863 0.344152
O O8 0.398729 0.255956 0.374166
O O9 0.111663 0.742197 0.670820
O O10 0.325980 0.782214 0.937616
O O11 0.278078 0.441567 0.555592
O O12 0.343578 0.554119 0.669797
O O13 0.543060 0.926487 0.553496
O O14 0.543146 0.853196 0.906883
O O15 0.440308 0.839709 0.303713
#
# Coordination Sequence:
#
# PCOD9242687 Si02
#       8
#     4   2   4   4   4   4   4   4
#     4  11  24  43  68  97 129 175 230 279 349 410
#     4  10  26  48  72  84 122 176 236 306 344 412
#     4  10  20  35  56  85 134 182 219 250 316 402
#     4  12  24  38  67 103 142 178 218 275 342 416
#     4  11  24  42  65  94 123 176 230 284 339 401
#     4  11  22  35  58  95 135 174 216 271 327 407
#     4  11  21  34  58  92 142 183 212 255 333 417
#     4  11  20  38  57  95 140 173 210 265 328 417
#
# _framework density 25.850375
#
# number of rings (size 3 to 8) (size 9 to 14) (size 15 to 20)
#    0.000    1.067    4.000    3.200    1.867    4.267 
#    0.000    0.000    0.000    3.200    0.000    0.000 
#    0.000    0.000    0.000    0.000    0.000    0.000 
#
# Total GULP energy -167542.945556 kJ/mol
# GULP energy per Si atom -5584.764852 kJ/mol
# Density = 2.579154 g / cm^3
# Si number density = 25.850375 Si / 1000 Ang^3
#
#
#
# Elastic Constant Matrix: (Units=GPa)
#
#
# Indices 1 2 3 4 5 6 
#
# 1 72.4593 19.3069 22.2669 0.0000 4.9676 0.0000
# 2 19.3069 111.1870 15.3720 0.0000 6.6165 0.0000
# 3 22.2669 15.3720 89.5503 0.0000 -20.4834 0.0000
# 4 0.0000 0.0000 0.0000 47.7982 0.0000 -4.5220
# 5 4.9676 6.6165 -20.4834 0.0000 32.8407 0.0000
# 6 0.0000 0.0000 0.0000 -4.5220 0.0000 16.4769
#
#
#
# Elastic Compliance Matrix: (Units=1/GPa)
#
#
# Indices 1 2 3 4 5 6 
#
# 1 0.016133 -0.001825 -0.004867 0.000000 -0.005108 0.000000
# 2 -0.001825 0.009739 -0.001871 0.000000 -0.002853 0.000000
# 3 -0.004867 -0.001871 0.015108 0.000000 0.010536 0.000000
# 4 0.000000 0.000000 0.000000 0.021479 0.000000 0.005895
# 5 -0.005108 -0.002853 0.010536 0.000000 0.038369 0.000000
# 6 0.000000 0.000000 0.000000 0.005895 0.000000 0.062309
#
#
# Mechanical properties :
#
#
# Convention : Reuss Voigt Hill
#
# Bulk Modulus (GPa) = 41.91780 43.00979 42.46380
# Shear Modulus (GPa) = 26.56565 33.83987 30.20276
#
# Velocity S-wave (km/s) = 3.20921 3.62203 3.42185
# Velocity P-wave (km/s) = 5.47565 5.84519 5.66343
#
# Compressibility (1/GPa) = 0.02385621
#
# Stress axis : x y z
#
# Youngs Moduli (GPa) = 61.98581 102.67904 66.18930
#
# Poissons Ratio (x) = 0.18734 0.32212
# Poissons Ratio (y) = 0.11310 0.12382
# Poissons Ratio (z) = 0.30166 0.19208
#
# Static dielectric constant tensor:
#      x y z
#    x 1.788350 0.000000 -0.266740 
#    y 0.000000 1.958230 0.000000 
#    z -0.266740 0.000000 1.787120 
# 
# From -- ./inp_files/2966.got.cif
#   From: 2010.05.17/outbox.cif.g08.bks.cpg/sg14_2_cif.got.tgz:2966.got - 2010.06.03 17:49:19.
