data_PCOD9242060
_publ_section_title
;
Structure prediction by ZEFSAII (Michael W. Deem and Ramdas Pophale) SiO2 
 PCOD9242060
Probable space group: P 21/C
;
_chemical_formula_sum "Si O2"
_cell_formula_units_Z 28
_cell_length_a 11.185416
_cell_length_b 17.488226
_cell_length_c 7.565374
_cell_angle_alpha 90.000000
_cell_angle_beta 51.633940
_cell_angle_gamma 90.000000
_cell_volume 1160.321394
_symmetry_space_group_name_H-M "P 21/C"
_symmetry_group_IT_number 14
_symmetry_cell_setting 'monoclinic'
loop_
_space_group_symop_operation_xyz
x,y,z
-x,1/2+y,1/2-z
-x,-y,-z
x,1/2-y,1/2+z
loop_
_atom_site_type_symbol
_atom_site_label
_atom_site_fract_x
_atom_site_fract_y
_atom_site_fract_z
Si Si1 0.778476 0.256191 0.628488
Si Si2 0.610560 0.348182 0.498769
Si Si3 0.396633 0.490279 0.369656
Si Si4 0.734860 0.992863 0.403099
Si Si5 0.672631 0.828211 0.481140
Si Si6 0.071117 0.637311 0.219904
Si Si7 0.276853 0.161536 0.953912
O O1 0.743913 0.309465 0.493171
O O2 0.902930 0.190656 0.475359
O O3 0.831019 0.316524 0.725374
O O4 0.627402 0.204781 0.810974
O O5 0.633625 0.438928 0.473101
O O6 0.462733 0.336051 0.755014
O O7 0.298344 0.500883 0.278031
O O8 0.352268 0.408177 0.490966
O O9 0.570905 0.490977 0.143728
O O10 0.857995 0.053423 0.354724
O O11 0.773556 0.904583 0.411837
O O12 0.737895 0.744088 0.445873
O O13 0.626917 0.833513 0.316498
O O14 0.895256 0.636881 0.430318
#
# Coordination Sequence:
#
# PCOD9242060 Si02
#       7
#     4   4   4   4   4   4   4
#     4  10  22  35  63  83 118 153 194 241 289 346
#     4  10  19  39  60  91 111 150 199 246 288 338
#     4   9  19  36  60  86 114 150 198 242 286 340
#     4   9  19  38  60  85 116 151 199 238 286 346
#     4  10  22  38  62  86 116 152 194 243 293 340
#     4  11  22  40  57  88 119 155 194 235 291 356
#     4  11  23  39  60  86 120 156 191 238 296 349
#
# _framework density 24.131243999999999
#
# number of rings (size 3 to 8) (size 9 to 14) (size 15 to 20)
#    0.000    2.000    1.429    2.571    4.000    2.286 
#    7.714    2.143    0.000    0.000    0.000    0.000 
#    0.000    0.000    0.000    0.000    0.000    0.000 
#
# Total GULP energy -156502.961241 kJ/mol
# GULP energy per Si atom -5589.391473 kJ/mol
# Density = 2.407632 g / cm^3
# Si number density = 24.131244 Si / 1000 Ang^3
#
#
#
# Elastic Constant Matrix: (Units=GPa)
#
#
# Indices 1 2 3 4 5 6 
#
# 1 18.3128 39.8344 6.5827 0.0000 -3.1006 0.0000
# 2 39.8344 241.2809 32.4235 0.0000 -8.7947 0.0000
# 3 6.5827 32.4235 74.3527 0.0000 -0.3222 0.0000
# 4 0.0000 0.0000 0.0000 24.7114 0.0000 4.1242
# 5 -3.1006 -8.7947 -0.3222 0.0000 27.9450 0.0000
# 6 0.0000 0.0000 0.0000 4.1242 0.0000 29.9347
#
#
#
# Elastic Compliance Matrix: (Units=1/GPa)
#
#
# Indices 1 2 3 4 5 6 
#
# 1 0.086100 -0.013814 -0.001576 0.000000 0.005188 0.000000
# 2 -0.013814 0.006671 -0.001684 0.000000 0.000547 0.000000
# 3 -0.001576 -0.001684 0.014321 0.000000 -0.000540 0.000000
# 4 0.000000 0.000000 0.000000 0.041420 0.000000 -0.005707
# 5 0.005188 0.000547 -0.000540 0.000000 0.036526 0.000000
# 6 0.000000 0.000000 0.000000 -0.005707 0.000000 0.034192
#
#
# Mechanical properties :
#
#
# Convention : Reuss Voigt Hill
#
# Bulk Modulus (GPa) = 13.70912 54.62529 34.16721
# Shear Modulus (GPa) = 18.00550 33.52528 25.76539
#
# Velocity S-wave (km/s) = 2.73454 3.73136 3.27114
# Velocity P-wave (km/s) = 3.95773 6.42261 5.33449
#
# Compressibility (1/GPa) = 0.07294416
#
# Stress axis : x y z
#
# Youngs Moduli (GPa) = 11.61442 149.89395 69.82787
#
# Poissons Ratio (x) = 2.07061 0.11007
# Poissons Ratio (y) = 0.16044 0.11758
# Poissons Ratio (z) = 0.01831 0.25240
#
# Static dielectric constant tensor:
#      x y z
#    x 1.943210 0.000000 0.060370 
#    y 0.000000 1.949930 0.000000 
#    z 0.060370 0.000000 1.993750 
# 
# From -- ./inp_files/13011.got.cif
#   From: 2010.05.17/outbox.cif.g08.bks.cpg/sg14_7_cif.got.tgz:13011.got - 2010.06.03 17:49:19.
