data_PCOD9242147
_publ_section_title
;
Structure prediction by ZEFSAII (Michael W. Deem and Ramdas Pophale) SiO2 
 PCOD9242147
Probable space group: P 21/C
;
_chemical_formula_sum "Si O2"
_cell_formula_units_Z 16
_cell_length_a 9.008093
_cell_length_b 14.832643
_cell_length_c 5.609181
_cell_angle_alpha 90.000000
_cell_angle_beta 128.512300
_cell_angle_gamma 90.000000
_cell_volume 586.436581
_symmetry_space_group_name_H-M "P 21/C"
_symmetry_group_IT_number 14
_symmetry_cell_setting 'monoclinic'
loop_
_space_group_symop_operation_xyz
x,y,z
-x,1/2+y,1/2-z
-x,-y,-z
x,1/2-y,1/2+z
loop_
_atom_site_type_symbol
_atom_site_label
_atom_site_fract_x
_atom_site_fract_y
_atom_site_fract_z
Si Si1 0.462237 0.049697 0.212237
Si Si2 0.494217 0.759895 0.744217
Si Si3 0.039944 0.367134 0.289944
Si Si4 0.901007 0.339336 0.651007
O O1 0.588236 0.140035 0.338236
O O2 0.500000 0.000000 0.500000
O O3 0.250195 0.090863 0.000195
O O4 0.500000 0.000000 0.000000
O O5 0.599260 0.750000 0.599260
O O6 0.319575 0.690556 0.569575
O O7 0.953217 0.391303 0.462171
O O8 0.010451 0.257384 0.260451
O O9 0.953217 0.391303 0.944263
#
# Coordination Sequence:
#
# PCOD9242147 Si02
#       4
#     4   4   4   4
#     4  12  28  46  64 102 148 184 214 272 360 418
#     4  12  23  43  73 102 130 174 238 288 327 395
#     4  10  20  38  67  93 132 168 221 277 322 396
#     4  10  19  39  68 101 120 160 233 287 317 369
#
# _framework density 27.283425000000001
#
# number of rings (size 3 to 8) (size 9 to 14) (size 15 to 20)
#    0.000    1.000    5.000    3.000    7.000    0.000 
#    0.000    2.500    0.000    0.000    0.000    0.000 
#    0.000    0.000    0.000    0.000    0.000    0.000 
#
# Total GULP energy -89538.154735 kJ/mol
# GULP energy per Si atom -5596.134671 kJ/mol
# Density = 2.722133 g / cm^3
# Si number density = 27.283425 Si / 1000 Ang^3
#
#
#
# Elastic Constant Matrix: (Units=GPa)
#
#
# Indices 1 2 3 4 5 6 
#
# 1 129.4441 14.4763 90.0868 0.0000 -47.8708 0.0000
# 2 14.4763 92.8964 37.5015 0.0000 -33.7679 0.0000
# 3 90.0868 37.5015 218.4378 0.0000 -82.6439 0.0000
# 4 0.0000 0.0000 0.0000 48.3645 0.0000 4.9997
# 5 -47.8708 -33.7679 -82.6439 0.0000 86.9968 0.0000
# 6 0.0000 0.0000 0.0000 4.9997 0.0000 51.7735
#
#
#
# Elastic Compliance Matrix: (Units=1/GPa)
#
#
# Indices 1 2 3 4 5 6 
#
# 1 0.011306 0.000829 -0.003636 0.000000 0.003088 0.000000
# 2 0.000829 0.012627 -0.000754 0.000000 0.004641 0.000000
# 3 -0.003636 -0.000754 0.008335 0.000000 0.005624 0.000000
# 4 0.000000 0.000000 0.000000 0.020885 0.000000 -0.002017
# 5 0.003088 0.004641 0.005624 0.000000 0.020339 0.000000
# 6 0.000000 0.000000 0.000000 -0.002017 0.000000 0.019510
#
#
# Mechanical properties :
#
#
# Convention : Reuss Voigt Hill
#
# Bulk Modulus (GPa) = 39.76958 80.54528 60.15743
# Shear Modulus (GPa) = 46.08101 57.34122 51.71112
#
# Velocity S-wave (km/s) = 4.11417 4.58939 4.35826
# Velocity P-wave (km/s) = 6.09727 7.59402 6.88643
#
# Compressibility (1/GPa) = 0.02514485
#
# Stress axis : x y z
#
# Youngs Moduli (GPa) = 88.45243 79.19624 119.97549
#
# Poissons Ratio (x) = -0.06564 0.43629
# Poissons Ratio (y) = -0.07331 0.09041
# Poissons Ratio (z) = 0.32165 0.05968
#
# Static dielectric constant tensor:
#      x y z
#    x 2.135940 0.000000 -0.019000 
#    y 0.000000 2.165640 0.000000 
#    z -0.019000 0.000000 2.148890 
# 
# From -- ./inp_files/916.got.cif
#   From: 2010.05.17/outbox.cif.g08.bks.cpg/sg14_1_cif.got.tgz:916.got - 2010.06.03 17:49:19.
