data_PCOD9242841
_publ_section_title
;
Structure prediction by ZEFSAII (Michael W. Deem and Ramdas Pophale) SiO2 
 PCOD9242841
Probable space group: P 21/C
;
_chemical_formula_sum "Si O2"
_cell_formula_units_Z 32
_cell_length_a 14.196553
_cell_length_b 8.527552
_cell_length_c 16.499124
_cell_angle_alpha 90.000000
_cell_angle_beta 41.325110
_cell_angle_gamma 90.000000
_cell_volume 1318.954327
_symmetry_space_group_name_H-M "P 21/C"
_symmetry_group_IT_number 14
_symmetry_cell_setting 'monoclinic'
loop_
_space_group_symop_operation_xyz
x,y,z
-x,1/2+y,1/2-z
-x,-y,-z
x,1/2-y,1/2+z
loop_
_atom_site_type_symbol
_atom_site_label
_atom_site_fract_x
_atom_site_fract_y
_atom_site_fract_z
Si Si1 0.811023 0.169812 0.245682
Si Si2 0.210674 0.979867 0.576214
Si Si3 0.464154 0.768982 0.660611
Si Si4 0.862643 0.665716 0.644179
Si Si5 0.835956 0.274597 0.504721
Si Si6 0.291748 0.205913 0.097684
Si Si7 0.621379 0.949307 0.189824
Si Si8 0.096154 0.573444 0.706421
O O1 0.730754 0.103486 0.379433
O O2 0.702386 0.246858 0.252365
O O3 0.908616 0.305700 0.216819
O O4 0.879215 0.016934 0.160815
O O5 0.234215 0.889250 0.477439
O O6 0.040880 0.967166 0.699440
O O7 0.239549 0.164288 0.565557
O O8 0.541757 0.725838 0.525955
O O9 0.473302 0.953793 0.682026
O O10 0.530921 0.652035 0.684437
O O11 0.776971 0.747114 0.772902
O O12 0.746536 0.658449 0.647406
O O13 0.022174 0.734220 0.530604
O O14 0.712275 0.402654 0.597807
O O15 0.906706 0.338692 0.376117
O O16 0.236070 0.033122 0.117250
#
# Coordination Sequence:
#
# PCOD9242841 Si02
#       8
#     4   4   4   4   4   4   4   4
#     4   9  21  37  60  91 129 158 204 257 311 367
#     4  10  20  35  64  99 123 154 204 273 319 365
#     4  11  26  45  59  88 130 177 210 252 304 386
#     4  10  21  41  66  93 121 161 212 269 319 367
#     4  11  20  39  63  92 125 161 204 264 324 370
#     4  11  21  38  66  93 123 161 213 258 310 367
#     4  11  26  43  62  85 129 177 210 252 316 385
#     4  11  18  36  65  98 122 150 205 269 321 361
#
# _framework density 24.261644
#
# number of rings (size 3 to 8) (size 9 to 14) (size 15 to 20)
#    0.000    1.500    5.000    1.125    1.750    6.000 
#    2.250    0.000    0.000    2.250    0.000    0.000 
#    0.000    0.000    0.000    0.000    0.000    0.000 
#
# Total GULP energy -178534.868755 kJ/mol
# GULP energy per Si atom -5579.214649 kJ/mol
# Density = 2.420642 g / cm^3
# Si number density = 24.261644 Si / 1000 Ang^3
#
#
#
# Elastic Constant Matrix: (Units=GPa)
#
#
# Indices 1 2 3 4 5 6 
#
# 1 101.1930 13.7237 -6.7503 0.0000 -13.5138 0.0000
# 2 13.7237 39.9809 -6.2778 0.0000 -4.9335 0.0000
# 3 -6.7503 -6.2778 47.9868 0.0000 -8.9838 0.0000
# 4 0.0000 0.0000 0.0000 31.6023 0.0000 2.9081
# 5 -13.5138 -4.9335 -8.9838 0.0000 27.9568 0.0000
# 6 0.0000 0.0000 0.0000 2.9081 0.0000 39.5559
#
#
#
# Elastic Compliance Matrix: (Units=1/GPa)
#
#
# Indices 1 2 3 4 5 6 
#
# 1 0.011162 -0.002782 0.002260 0.000000 0.005631 0.000000
# 2 -0.002782 0.027191 0.004057 0.000000 0.004757 0.000000
# 3 0.002260 0.004057 0.023436 0.000000 0.009340 0.000000
# 4 0.000000 0.000000 0.000000 0.031859 0.000000 -0.002342
# 5 0.005631 0.004757 0.009340 0.000000 0.042332 0.000000
# 6 0.000000 0.000000 0.000000 -0.002342 0.000000 0.025453
#
#
# Mechanical properties :
#
#
# Convention : Reuss Voigt Hill
#
# Bulk Modulus (GPa) = 14.52227 21.17244 17.84735
# Shear Modulus (GPa) = 28.19829 32.38734 30.29282
#
# Velocity S-wave (km/s) = 3.41289 3.65762 3.53737
# Velocity P-wave (km/s) = 4.63995 5.15589 4.90471
#
# Compressibility (1/GPa) = 0.06885977
#
# Stress axis : x y z
#
# Youngs Moduli (GPa) = 89.58847 36.77723 42.66897
#
# Poissons Ratio (x) = 0.10230 -0.09645
# Poissons Ratio (y) = 0.24921 -0.17309
# Poissons Ratio (z) = -0.20251 -0.14919
#
# Static dielectric constant tensor:
#      x y z
#    x 1.970590 0.000000 0.034080 
#    y 0.000000 1.958970 0.000000 
#    z 0.034080 0.000000 2.053430 
# 
# From -- ./inp_files/68078.got.cif
#   From: 2010.05.17/outbox.cif.g08.bks.cpg/sg14_35_cif.got.tgz:68078.got - 2010.06.03 17:49:19.
