data_PCOD9242627
_publ_section_title
;
Structure prediction by ZEFSAII (Michael W. Deem and Ramdas Pophale) SiO2 
 PCOD9242627
Probable space group: P 21/C
;
_chemical_formula_sum "Si O2"
_cell_formula_units_Z 24
_cell_length_a 21.999031
_cell_length_b 4.949680
_cell_length_c 14.464602
_cell_angle_alpha 90.000000
_cell_angle_beta 143.149277
_cell_angle_gamma 90.000000
_cell_volume 944.592639
_symmetry_space_group_name_H-M "P 21/C"
_symmetry_group_IT_number 14
_symmetry_cell_setting 'monoclinic'
loop_
_space_group_symop_operation_xyz
x,y,z
-x,1/2+y,1/2-z
-x,-y,-z
x,1/2-y,1/2+z
loop_
_atom_site_type_symbol
_atom_site_label
_atom_site_fract_x
_atom_site_fract_y
_atom_site_fract_z
Si Si1 0.726547 0.694972 0.581592
Si Si2 0.519819 0.426095 0.338309
Si Si3 0.337299 0.197812 0.210814
Si Si4 0.050069 0.917622 0.268536
Si Si5 0.221495 0.693744 0.111460
Si Si6 0.149789 0.696684 0.713750
O O1 0.624662 0.558561 0.497153
O O2 0.703267 0.708779 0.444246
O O3 0.818218 0.493812 0.714053
O O4 0.758244 0.987852 0.655277
O O5 0.533954 0.173027 0.284247
O O6 0.450607 0.307259 0.335671
O O7 0.267460 0.399814 0.183560
O O8 0.314908 0.899165 0.217985
O O9 0.157498 0.815379 0.439765
O O10 0.059493 0.899537 0.169861
O O11 0.968731 0.711993 0.212152
O O12 0.143975 0.780955 0.096768
#
# Coordination Sequence:
#
# PCOD9242627 Si02
#       6
#     4   4   4   4   4   4
#     4  11  20  41  66  95 136 181 221 266 320 388
#     4  10  20  34  63 102 131 180 234 268 311 378
#     4  11  20  41  66  95 136 181 221 266 320 388
#     4  12  26  46  72  96 128 170 218 276 342 404
#     4  12  25  43  68 100 133 172 217 273 333 397
#     4  12  25  43  68 100 133 172 217 273 333 397
#
# _framework density 25.407775999999998
#
# number of rings (size 3 to 8) (size 9 to 14) (size 15 to 20)
#    0.000    0.667    3.333    7.000    0.000    1.333 
#    0.000    5.000    0.000    0.000    0.000    0.000 
#    0.000    0.000    0.000    0.000    0.000    0.000 
#
# Total GULP energy -134418.013440 kJ/mol
# GULP energy per Si atom -5600.750560 kJ/mol
# Density = 2.534995 g / cm^3
# Si number density = 25.407776 Si / 1000 Ang^3
#
#
#
# Elastic Constant Matrix: (Units=GPa)
#
#
# Indices 1 2 3 4 5 6 
#
# 1 116.5661 1.2991 15.9588 0.0000 4.6626 0.0000
# 2 1.2991 106.5599 5.8940 0.0000 6.5682 0.0000
# 3 15.9588 5.8940 25.3135 0.0000 0.2129 0.0000
# 4 0.0000 0.0000 0.0000 22.5231 0.0000 9.1926
# 5 4.6626 6.5682 0.2129 0.0000 37.1989 0.0000
# 6 0.0000 0.0000 0.0000 9.1926 0.0000 40.2709
#
#
#
# Elastic Compliance Matrix: (Units=1/GPa)
#
#
# Indices 1 2 3 4 5 6 
#
# 1 0.009447 0.000291 -0.006014 0.000000 -0.001201 0.000000
# 2 0.000291 0.009620 -0.002409 0.000000 -0.001721 0.000000
# 3 -0.006014 -0.002409 0.043849 0.000000 0.000928 0.000000
# 4 0.000000 0.000000 0.000000 0.048960 0.000000 -0.011176
# 5 -0.001201 -0.001721 0.000928 0.000000 0.027332 0.000000
# 6 0.000000 0.000000 0.000000 -0.011176 0.000000 0.027383
#
#
# Mechanical properties :
#
#
# Convention : Reuss Voigt Hill
#
# Bulk Modulus (GPa) = 21.43462 32.74925 27.09193
# Shear Modulus (GPa) = 25.20099 35.01775 30.10937
#
# Velocity S-wave (km/s) = 3.15280 3.71648 3.44618
# Velocity P-wave (km/s) = 4.65919 5.59765 5.14985
#
# Compressibility (1/GPa) = 0.04665351
#
# Stress axis : x y z
#
# Youngs Moduli (GPa) = 105.85462 103.94793 22.80553
#
# Poissons Ratio (x) = -0.03030 0.13714
# Poissons Ratio (y) = -0.03086 0.05494
# Poissons Ratio (z) = 0.63656 0.25044
#
# Static dielectric constant tensor:
#      x y z
#    x 2.028250 0.000000 0.024370 
#    y 0.000000 1.933070 0.000000 
#    z 0.024370 0.000000 1.980880 
# 
# From -- ./inp_files/49744.got.cif
#   From: 2010.05.17/outbox.cif.g08.bks.cpg/sg14_25_cif.got.tgz:49744.got - 2010.06.03 17:49:19.
