data_PCOD9242702
_publ_section_title
;
Structure prediction by ZEFSAII (Michael W. Deem and Ramdas Pophale) SiO2 
 PCOD9242702
Probable space group: P 21/C
;
_chemical_formula_sum "Si O2"
_cell_formula_units_Z 24
_cell_length_a 18.441276
_cell_length_b 7.846243
_cell_length_c 8.870213
_cell_angle_alpha 90.000000
_cell_angle_beta 139.101263
_cell_angle_gamma 90.000000
_cell_volume 840.320836
_symmetry_space_group_name_H-M "P 21/C"
_symmetry_group_IT_number 14
_symmetry_cell_setting 'monoclinic'
loop_
_space_group_symop_operation_xyz
x,y,z
-x,1/2+y,1/2-z
-x,-y,-z
x,1/2-y,1/2+z
loop_
_atom_site_type_symbol
_atom_site_label
_atom_site_fract_x
_atom_site_fract_y
_atom_site_fract_z
Si Si1 0.933230 0.293205 0.972807
Si Si2 0.677816 0.425239 0.240816
Si Si3 0.161307 0.390002 0.336549
Si Si4 0.348207 0.107150 0.873352
Si Si5 0.509439 0.566242 0.806688
Si Si6 0.197578 0.908183 0.450896
O O1 0.905476 0.432915 0.800255
O O2 0.855259 0.137783 0.794049
O O3 0.899953 0.384923 0.076952
O O4 0.063533 0.252557 0.183362
O O5 0.769594 0.572659 0.404776
O O6 0.586024 0.470401 0.222134
O O7 0.727288 0.249692 0.374420
O O8 0.608541 0.427720 0.978616
O O9 0.248795 0.385780 0.338892
O O10 0.278158 0.069641 0.610472
O O11 0.426224 0.266122 0.037568
O O12 0.437779 0.953731 0.043487
#
# Coordination Sequence:
#
# PCOD9242702 Si02
#       6
#     4   4   4   4   4   4
#     4   9  18  35  60  85 115 154 196 243 297 355
#     4   9  19  36  56  82 116 157 200 246 301 355
#     4   8  17  35  57  79 112 160 197 230 293 365
#     4  10  20  35  58  86 116 153 200 247 295 354
#     4  10  20  35  57  83 117 159 201 244 298 358
#     4  10  20  36  60  89 118 152 198 248 302 357
#
# _framework density 28.56052
#
# number of rings (size 3 to 8) (size 9 to 14) (size 15 to 20)
#    0.000    2.667    0.000    2.000    0.000    2.000 
#    0.000    5.000    0.000   18.000    0.000    0.000 
#    0.000    0.000    0.000    0.000    0.000    0.000 
#
# Total GULP energy -134092.245555 kJ/mol
# GULP energy per Si atom -5587.176898 kJ/mol
# Density = 2.849551 g / cm^3
# Si number density = 28.560520 Si / 1000 Ang^3
#
#
#
# Elastic Constant Matrix: (Units=GPa)
#
#
# Indices 1 2 3 4 5 6 
#
# 1 92.4291 11.1235 60.9310 0.0000 -8.7747 0.0000
# 2 11.1235 106.5062 34.2462 0.0000 20.4204 0.0000
# 3 60.9310 34.2462 200.4272 0.0000 38.9651 0.0000
# 4 0.0000 0.0000 0.0000 42.3074 0.0000 -0.8717
# 5 -8.7747 20.4204 38.9651 0.0000 34.9909 0.0000
# 6 0.0000 0.0000 0.0000 -0.8717 0.0000 33.1009
#
#
#
# Elastic Compliance Matrix: (Units=1/GPa)
#
#
# Indices 1 2 3 4 5 6 
#
# 1 0.017516 -0.002067 -0.007735 0.000000 0.014212 0.000000
# 2 -0.002067 0.010911 0.000131 0.000000 -0.007032 0.000000
# 3 -0.007735 0.000131 0.009841 0.000000 -0.012975 0.000000
# 4 0.000000 0.000000 0.000000 0.023649 0.000000 0.000623
# 5 0.014212 -0.007032 -0.012975 0.000000 0.050695 0.000000
# 6 0.000000 0.000000 0.000000 0.000623 0.000000 0.030227
#
#
# Mechanical properties :
#
#
# Convention : Reuss Voigt Hill
#
# Bulk Modulus (GPa) = 52.83626 67.99598 60.41612
# Shear Modulus (GPa) = 29.67541 41.61727 35.64634
#
# Velocity S-wave (km/s) = 3.22691 3.82142 3.53668
# Velocity P-wave (km/s) = 5.69419 6.58258 6.15444
#
# Compressibility (1/GPa) = 0.01892640
#
# Stress axis : x y z
#
# Youngs Moduli (GPa) = 57.09064 91.64967 101.61850
#
# Poissons Ratio (x) = 0.18946 0.78599
# Poissons Ratio (y) = 0.11802 -0.01334
# Poissons Ratio (z) = 0.44158 -0.01203
#
# Static dielectric constant tensor:
#      x y z
#    x 2.226110 0.000000 -0.014250 
#    y 0.000000 2.436720 0.000000 
#    z -0.014250 0.000000 2.254890 
# 
# From -- ./inp_files/35682.got.cif
#   From: 2010.05.17/outbox.cif.g08.bks.cpg/sg14_18_cif.got.tgz:35682.got - 2010.06.03 17:49:19.
