data_PCOD9242279
_publ_section_title
;
Structure prediction by ZEFSAII (Michael W. Deem and Ramdas Pophale) SiO2 
 PCOD9242279
Probable space group: P 21/C
;
_chemical_formula_sum "Si O2"
_cell_formula_units_Z 20
_cell_length_a 7.357017
_cell_length_b 19.068354
_cell_length_c 7.170514
_cell_angle_alpha 90.000000
_cell_angle_beta 57.586145
_cell_angle_gamma 90.000000
_cell_volume 849.199524
_symmetry_space_group_name_H-M "P 21/C"
_symmetry_group_IT_number 14
_symmetry_cell_setting 'monoclinic'
loop_
_space_group_symop_operation_xyz
x,y,z
-x,1/2+y,1/2-z
-x,-y,-z
x,1/2-y,1/2+z
loop_
_atom_site_type_symbol
_atom_site_label
_atom_site_fract_x
_atom_site_fract_y
_atom_site_fract_z
Si Si1 0.820875 0.984879 0.856756
Si Si2 0.369846 0.609347 0.314819
Si Si3 0.921985 0.841136 0.911075
Si Si4 0.244570 0.053346 0.544708
Si Si5 0.791553 0.810038 0.592746
O O1 0.074676 0.004386 0.740266
O O2 0.777158 0.970045 0.662559
O O3 0.687672 0.050714 0.001726
O O4 0.787511 0.913634 0.991917
O O5 0.154117 0.646757 0.370860
O O6 0.500735 0.568384 0.076868
O O7 0.549108 0.665873 0.279819
O O8 0.949042 0.828043 0.674972
O O9 0.806305 0.771024 0.041263
O O10 0.153542 0.134052 0.600568
#
# Coordination Sequence:
#
# PCOD9242279 Si02
#       5
#     4   4   4   4   4
#     4  10  19  41  70  95 131 164 214 277 316 386
#     4  10  22  41  68  93 127 173 211 267 330 375
#     4  11  23  41  65  98 126 174 219 269 318 387
#     4   8  20  40  65  96 126 163 214 263 325 384
#     4   9  24  43  60  93 136 167 219 263 327 390
#
# _framework density 23.551589
#
# number of rings (size 3 to 8) (size 9 to 14) (size 15 to 20)
#    1.200    1.200    0.000    1.200    2.800    2.400 
#    0.000    2.000    0.000    0.000    0.000    0.000 
#    0.000    0.000    0.000    0.000    0.000    0.000 
#
# Total GULP energy -111531.444696 kJ/mol
# GULP energy per Si atom -5576.572235 kJ/mol
# Density = 2.349798 g / cm^3
# Si number density = 23.551589 Si / 1000 Ang^3
#
#
#
# Elastic Constant Matrix: (Units=GPa)
#
#
# Indices 1 2 3 4 5 6 
#
# 1 87.7793 40.2703 24.5355 0.0000 -25.1481 0.0000
# 2 40.2703 183.9497 51.9356 0.0000 -20.4765 0.0000
# 3 24.5355 51.9356 55.1960 0.0000 -21.5816 0.0000
# 4 0.0000 0.0000 0.0000 46.2925 0.0000 -4.5054
# 5 -25.1481 -20.4765 -21.5816 0.0000 33.1932 0.0000
# 6 0.0000 0.0000 0.0000 -4.5054 0.0000 33.1807
#
#
#
# Elastic Compliance Matrix: (Units=1/GPa)
#
#
# Indices 1 2 3 4 5 6 
#
# 1 0.015399 -0.001947 -0.001235 0.000000 0.009663 0.000000
# 2 -0.001947 0.007649 -0.006790 0.000000 -0.001171 0.000000
# 3 -0.001235 -0.006790 0.030909 0.000000 0.014972 0.000000
# 4 0.000000 0.000000 0.000000 0.021891 0.000000 0.002972
# 5 0.009663 -0.001171 0.014972 0.000000 0.046460 0.000000
# 6 0.000000 0.000000 0.000000 0.002972 0.000000 0.030542
#
#
# Mechanical properties :
#
#
# Convention : Reuss Voigt Hill
#
# Bulk Modulus (GPa) = 29.39994 62.26754 45.83374
# Shear Modulus (GPa) = 27.15465 36.54552 31.85009
#
# Velocity S-wave (km/s) = 3.39925 3.94346 3.68143
# Velocity P-wave (km/s) = 5.28364 6.87246 6.12975
#
# Compressibility (1/GPa) = 0.03401367
#
# Stress axis : x y z
#
# Youngs Moduli (GPa) = 64.94003 130.73437 32.35300
#
# Poissons Ratio (x) = 0.25451 0.03996
# Poissons Ratio (y) = 0.12642 0.21967
# Poissons Ratio (z) = 0.08021 0.88764
#
# Static dielectric constant tensor:
#      x y z
#    x 1.933300 0.000000 0.038270 
#    y 0.000000 1.939520 0.000000 
#    z 0.038270 0.000000 1.955420 
# 
# From -- ./inp_files/8756.got.cif
#   From: 2010.05.17/outbox.cif.g08.bks.cpg/sg14_5_cif.got.tgz:8756.got - 2010.06.03 17:49:19.
