data_PCOD9242306
_publ_section_title
;
Structure prediction by ZEFSAII (Michael W. Deem and Ramdas Pophale) SiO2 
 PCOD9242306
Probable space group: P 21/C
;
_chemical_formula_sum "Si O2"
_cell_formula_units_Z 20
_cell_length_a 7.867243
_cell_length_b 11.502789
_cell_length_c 14.139510
_cell_angle_alpha 90.000000
_cell_angle_beta 36.594906
_cell_angle_gamma 90.000000
_cell_volume 762.813153
_symmetry_space_group_name_H-M "P 21/C"
_symmetry_group_IT_number 14
_symmetry_cell_setting 'monoclinic'
loop_
_space_group_symop_operation_xyz
x,y,z
-x,1/2+y,1/2-z
-x,-y,-z
x,1/2-y,1/2+z
loop_
_atom_site_type_symbol
_atom_site_label
_atom_site_fract_x
_atom_site_fract_y
_atom_site_fract_z
Si Si1 0.952939 0.856468 0.074044
Si Si2 0.202552 0.279164 0.031025
Si Si3 0.410114 0.003265 0.317213
Si Si4 0.039410 0.121757 0.355604
Si Si5 0.755956 0.201769 0.878564
O O1 0.980433 0.803108 0.957206
O O2 0.732882 0.961524 0.169471
O O3 0.803916 0.744658 0.192470
O O4 0.206919 0.863167 0.037094
O O5 0.356168 0.380869 0.902629
O O6 0.444550 0.203455 0.974411
O O7 0.999859 0.339262 0.198164
O O8 0.208295 0.907273 0.456817
O O9 0.273537 0.026960 0.275486
O O10 0.852540 0.161271 0.350196
#
# Coordination Sequence:
#
# PCOD9242306 Si02
#       5
#     4   4   4   4   4
#     4   9  22  39  62  94 131 157 216 285 293 384
#     4  11  24  40  72  92 129 180 213 257 341 377
#     4  10  19  42  70  87 123 188 211 246 339 399
#     4   8  20  36  63  93 122 161 219 267 294 393
#     4  10  23  41  61 103 129 162 220 277 309 382
#
# _framework density 26.21874
#
# number of rings (size 3 to 8) (size 9 to 14) (size 15 to 20)
#    1.200    1.200    0.000    1.200    8.400    3.200 
#    0.000    2.000    0.000    0.000    0.000    0.000 
#    0.000    0.000    0.000    0.000    0.000    0.000 
#
# Total GULP energy -111456.360554 kJ/mol
# GULP energy per Si atom -5572.818028 kJ/mol
# Density = 2.615906 g / cm^3
# Si number density = 26.218740 Si / 1000 Ang^3
#
#
#
# Elastic Constant Matrix: (Units=GPa)
#
#
# Indices 1 2 3 4 5 6 
#
# 1 161.2091 21.0904 35.3277 0.0000 -1.0238 0.0000
# 2 21.0904 61.1210 5.8249 0.0000 -3.1945 0.0000
# 3 35.3277 5.8249 102.7680 0.0000 -19.1392 0.0000
# 4 0.0000 0.0000 0.0000 40.5771 0.0000 -12.1112
# 5 -1.0238 -3.1945 -19.1392 0.0000 26.6475 0.0000
# 6 0.0000 0.0000 0.0000 -12.1112 0.0000 40.6098
#
#
#
# Elastic Compliance Matrix: (Units=1/GPa)
#
#
# Indices 1 2 3 4 5 6 
#
# 1 0.007073 -0.002287 -0.002658 0.000000 -0.001911 0.000000
# 2 -0.002287 0.017242 0.000205 0.000000 0.002126 0.000000
# 3 -0.002658 0.000205 0.012258 0.000000 0.008726 0.000000
# 4 0.000000 0.000000 0.000000 0.027053 0.000000 0.008068
# 5 -0.001911 0.002126 0.008726 0.000000 0.043976 0.000000
# 6 0.000000 0.000000 0.000000 0.008068 0.000000 0.027031
#
#
# Mechanical properties :
#
#
# Convention : Reuss Voigt Hill
#
# Bulk Modulus (GPa) = 36.91031 49.95378 43.43205
# Shear Modulus (GPa) = 32.64945 39.09055 35.87000
#
# Velocity S-wave (km/s) = 3.53267 3.86546 3.70280
# Velocity P-wave (km/s) = 5.54509 6.24631 5.90612
#
# Compressibility (1/GPa) = 0.02709270
#
# Stress axis : x y z
#
# Youngs Moduli (GPa) = 141.39088 57.99863 81.58055
#
# Poissons Ratio (x) = 0.13265 0.21681
# Poissons Ratio (y) = 0.32337 -0.01672
# Poissons Ratio (z) = 0.37576 -0.01189
#
# Static dielectric constant tensor:
#      x y z
#    x 2.128330 0.000000 0.048810 
#    y 0.000000 2.147710 0.000000 
#    z 0.048810 0.000000 2.035130 
# 
# From -- ./inp_files/23951.got.cif
#   From: 2010.05.17/outbox.cif.g08.bks.cpg/sg14_12_cif.got.tgz:23951.got - 2010.06.03 17:49:19.
