data_PCOD9242397
_publ_section_title
;
Structure prediction by ZEFSAII (Michael W. Deem and Ramdas Pophale) SiO2 
 PCOD9242397
Probable space group: P 21/C
;
_chemical_formula_sum "Si O2"
_cell_formula_units_Z 32
_cell_length_a 17.286615
_cell_length_b 16.344772
_cell_length_c 5.265551
_cell_angle_alpha 90.000000
_cell_angle_beta 103.115760
_cell_angle_gamma 90.000000
_cell_volume 1448.948917
_symmetry_space_group_name_H-M "P 21/C"
_symmetry_group_IT_number 14
_symmetry_cell_setting 'monoclinic'
loop_
_space_group_symop_operation_xyz
x,y,z
-x,1/2+y,1/2-z
-x,-y,-z
x,1/2-y,1/2+z
loop_
_atom_site_type_symbol
_atom_site_label
_atom_site_fract_x
_atom_site_fract_y
_atom_site_fract_z
Si Si1 0.810262 0.426302 0.408519
Si Si2 0.794293 0.786857 0.871809
Si Si3 0.672355 0.987997 0.095673
Si Si4 0.684523 0.303618 0.239716
Si Si5 0.409686 0.970536 0.452160
Si Si6 0.063388 0.038300 0.736093
Si Si7 0.205280 0.433635 0.979889
Si Si8 0.019744 0.209122 0.927941
O O1 0.745883 0.453768 0.572269
O O2 0.776493 0.336920 0.317268
O O3 0.892165 0.465599 0.575712
O O4 0.796643 0.476045 0.137958
O O5 0.758287 0.763077 0.111468
O O6 0.794680 0.878492 0.770301
O O7 0.887413 0.733741 0.478390
O O8 0.632823 0.971878 0.794381
O O9 0.717667 0.919646 0.292517
O O10 0.614906 0.023399 0.269817
O O11 0.671597 0.255342 0.490980
O O12 0.623573 0.381097 0.161629
O O13 0.500000 0.000000 0.500000
O O14 0.129787 0.079284 0.602777
O O15 0.024582 0.112266 0.869364
O O16 0.000000 0.000000 0.500000
O O17 0.983870 0.260579 0.667022
#
# Coordination Sequence:
#
# PCOD9242397 Si02
#       8
#     4   4   4   4   4   4   4   4
#     4  10  22  40  63  92 128 170 225 282 327 395
#     4  10  20  32  56  87 113 149 202 256 314 378
#     4  10  20  36  63  94 124 162 213 258 320 385
#     4  11  23  41  69  99 132 176 228 271 326 395
#     4  11  22  40  67 102 132 169 218 269 324 389
#     4  11  24  39  61  94 126 174 229 290 349 409
#     4  11  20  38  64  85 128 167 221 272 327 400
#     4  10  20  38  58  82 115 155 203 267 334 400
#
# _framework density 22.084976000000001
#
# number of rings (size 3 to 8) (size 9 to 14) (size 15 to 20)
#    0.000    1.500    3.750    4.125    3.500    0.500 
#    0.000    1.250    0.000    4.500    0.000    0.000 
#    0.000    0.000    0.000    0.000    0.000    0.000 
#
# Total GULP energy -178310.602117 kJ/mol
# GULP energy per Si atom -5572.206316 kJ/mol
# Density = 2.203471 g / cm^3
# Si number density = 22.084976 Si / 1000 Ang^3
#
#
#
# Elastic Constant Matrix: (Units=GPa)
#
#
# Indices 1 2 3 4 5 6 
#
# 1 60.8924 41.8477 38.9794 0.0000 -0.5270 0.0000
# 2 41.8477 65.6106 28.5906 0.0000 2.9918 0.0000
# 3 38.9794 28.5906 154.3500 0.0000 -3.7661 0.0000
# 4 0.0000 0.0000 0.0000 44.4723 0.0000 2.8657
# 5 -0.5270 2.9918 -3.7661 0.0000 34.8901 0.0000
# 6 0.0000 0.0000 0.0000 2.8657 0.0000 15.0690
#
#
#
# Elastic Compliance Matrix: (Units=1/GPa)
#
#
# Indices 1 2 3 4 5 6 
#
# 1 0.032169 -0.018565 -0.004647 0.000000 0.001576 0.000000
# 2 -0.018565 0.027402 -0.000453 0.000000 -0.002679 0.000000
# 3 -0.004647 -0.000453 0.007756 0.000000 0.000806 0.000000
# 4 0.000000 0.000000 0.000000 0.022765 0.000000 -0.004329
# 5 0.001576 -0.002679 0.000806 0.000000 0.029002 0.000000
# 6 0.000000 0.000000 0.000000 -0.004329 0.000000 0.067184
#
#
# Mechanical properties :
#
#
# Convention : Reuss Voigt Hill
#
# Bulk Modulus (GPa) = 50.00493 55.52094 52.76293
# Shear Modulus (GPa) = 20.80959 30.31530 25.56244
#
# Velocity S-wave (km/s) = 3.07294 3.70897 3.40584
# Velocity P-wave (km/s) = 5.93985 6.59820 6.27766
#
# Compressibility (1/GPa) = 0.01999803
#
# Stress axis : x y z
#
# Youngs Moduli (GPa) = 31.08550 36.49344 128.93646
#
# Poissons Ratio (x) = 0.67751 0.59912
# Poissons Ratio (y) = 0.57711 0.05837
# Poissons Ratio (z) = 0.14444 0.01652
#
# Static dielectric constant tensor:
#      x y z
#    x 1.841870 0.000000 -0.002160 
#    y 0.000000 1.931120 0.000000 
#    z -0.002160 0.000000 1.888960 
# 
# From -- ./inp_files/4193.got.cif
#   From: 2010.05.17/outbox.cif.g08.bks.cpg/sg14_3_cif.got.tgz:4193.got - 2010.06.03 17:49:19.
