data_PCOD9242844
_publ_section_title
;
Structure prediction by ZEFSAII (Michael W. Deem and Ramdas Pophale) SiO2 
 PCOD9242844
Probable space group: P 21/C
;
_chemical_formula_sum "Si O2"
_cell_formula_units_Z 28
_cell_length_a 19.593024
_cell_length_b 9.947953
_cell_length_c 15.145983
_cell_angle_alpha 90.000000
_cell_angle_beta 152.016536
_cell_angle_gamma 90.000000
_cell_volume 1385.179761
_symmetry_space_group_name_H-M "P 21/C"
_symmetry_group_IT_number 14
_symmetry_cell_setting 'monoclinic'
loop_
_space_group_symop_operation_xyz
x,y,z
-x,1/2+y,1/2-z
-x,-y,-z
x,1/2-y,1/2+z
loop_
_atom_site_type_symbol
_atom_site_label
_atom_site_fract_x
_atom_site_fract_y
_atom_site_fract_z
Si Si1 0.801251 0.146495 0.110204
Si Si2 0.319588 0.342247 0.011546
Si Si3 0.144900 0.144297 0.544753
Si Si4 0.536722 0.121669 0.919872
Si Si5 0.823249 0.072804 0.562829
Si Si6 0.163115 0.124952 0.936053
Si Si7 0.601505 0.669369 0.551097
O O1 0.776366 0.273825 0.017984
O O2 0.970256 0.141515 0.335561
O O3 0.761790 0.011222 0.011113
O O4 0.699301 0.160677 0.078443
O O5 0.245871 0.487612 0.936115
O O6 0.194415 0.234111 0.895024
O O7 0.392650 0.298510 0.004267
O O8 0.438108 0.332951 0.225087
O O9 0.196452 0.286169 0.560574
O O10 0.229427 0.135171 0.732573
O O11 0.205278 0.019605 0.555362
O O12 0.482831 0.177553 0.952206
O O13 0.535649 0.959229 0.925841
O O14 0.997439 0.081556 0.762421
#
# Coordination Sequence:
#
# PCOD9242844 Si02
#       7
#     4   4   4   4   4   4   4
#     4  10  20  35  65  97 129 163 214 260 312 378
#     4  11  22  41  65  91 129 173 206 261 322 373
#     4   9  19  40  65  92 125 164 221 259 310 375
#     4  11  24  38  64  94 127 165 217 251 320 378
#     4   9  19  36  65  92 126 166 208 258 314 371
#     4   9  17  38  62  92 125 169 208 257 312 371
#     4  11  23  42  67  89 125 173 211 261 316 376
#
# _framework density 20.213984
#
# number of rings (size 3 to 8) (size 9 to 14) (size 15 to 20)
#    0.000    2.000    4.286    0.857    2.000    0.571 
#    0.000    3.571    9.429    0.000    0.000    0.000 
#    0.000    0.000    0.000    0.000    0.000    0.000 
#
# Total GULP energy -155949.802603 kJ/mol
# GULP energy per Si atom -5569.635807 kJ/mol
# Density = 2.016798 g / cm^3
# Si number density = 20.213984 Si / 1000 Ang^3
#
#
#
# Elastic Constant Matrix: (Units=GPa)
#
#
# Indices 1 2 3 4 5 6 
#
# 1 85.3113 8.7557 32.3204 0.0000 16.3022 0.0000
# 2 8.7557 76.6624 16.2140 0.0000 4.3493 0.0000
# 3 32.3204 16.2140 66.6264 0.0000 3.1391 0.0000
# 4 0.0000 0.0000 0.0000 20.2450 0.0000 1.8748
# 5 16.3022 4.3493 3.1391 0.0000 25.4350 0.0000
# 6 0.0000 0.0000 0.0000 1.8748 0.0000 21.3192
#
#
#
# Elastic Compliance Matrix: (Units=1/GPa)
#
#
# Indices 1 2 3 4 5 6 
#
# 1 0.016400 0.000274 -0.007569 0.000000 -0.009624 0.000000
# 2 0.000274 0.013853 -0.003404 0.000000 -0.002124 0.000000
# 3 -0.007569 -0.003404 0.019366 0.000000 0.003043 0.000000
# 4 0.000000 0.000000 0.000000 0.049800 0.000000 -0.004379
# 5 -0.009624 -0.002124 0.003043 0.000000 0.045472 0.000000
# 6 0.000000 0.000000 0.000000 -0.004379 0.000000 0.047291
#
#
# Mechanical properties :
#
#
# Convention : Reuss Voigt Hill
#
# Bulk Modulus (GPa) = 35.43459 38.13114 36.78286
# Shear Modulus (GPa) = 22.42267 24.82051 23.62159
#
# Velocity S-wave (km/s) = 3.33418 3.50793 3.42215
# Velocity P-wave (km/s) = 5.69123 5.94240 5.81817
#
# Compressibility (1/GPa) = 0.02822101
#
# Stress axis : x y z
#
# Youngs Moduli (GPa) = 60.97441 72.18442 51.63748
#
# Poissons Ratio (x) = -0.01976 0.39084
# Poissons Ratio (y) = -0.01669 0.17578
# Poissons Ratio (z) = 0.46151 0.24572
#
# Static dielectric constant tensor:
#      x y z
#    x 1.762400 0.000000 0.035520 
#    y 0.000000 1.739590 0.000000 
#    z 0.035520 0.000000 1.731310 
# 
# From -- ./inp_files/50113.got.cif
#   From: 2010.05.17/outbox.cif.g08.bks.cpg/sg14_26_cif.got.tgz:50113.got - 2010.06.03 17:49:19.
