data_PCOD9242651
_publ_section_title
;
Structure prediction by ZEFSAII (Michael W. Deem and Ramdas Pophale) SiO2 
 PCOD9242651
Probable space group: P 21/C
;
_chemical_formula_sum "Si O2"
_cell_formula_units_Z 32
_cell_length_a 15.157001
_cell_length_b 10.464172
_cell_length_c 9.305332
_cell_angle_alpha 90.000000
_cell_angle_beta 76.246499
_cell_angle_gamma 90.000000
_cell_volume 1433.559509
_symmetry_space_group_name_H-M "P 21/C"
_symmetry_group_IT_number 14
_symmetry_cell_setting 'monoclinic'
loop_
_space_group_symop_operation_xyz
x,y,z
-x,1/2+y,1/2-z
-x,-y,-z
x,1/2-y,1/2+z
loop_
_atom_site_type_symbol
_atom_site_label
_atom_site_fract_x
_atom_site_fract_y
_atom_site_fract_z
Si Si1 0.524304 0.375302 0.400349
Si Si2 0.234806 0.133889 0.714345
Si Si3 0.981410 0.600257 0.708033
Si Si4 0.009481 0.328091 0.609503
Si Si5 0.776693 0.625473 0.457696
Si Si6 0.520471 0.370153 0.075126
Si Si7 0.744863 0.132458 0.800437
Si Si8 0.264286 0.620772 0.022927
O O1 0.500000 0.500000 0.500000
O O2 0.488184 0.377575 0.251572
O O3 0.487670 0.251652 0.498309
O O4 0.634342 0.370030 0.347632
O O5 0.125129 0.131933 0.760526
O O6 0.264889 0.266114 0.629344
O O7 0.258939 0.013692 0.606288
O O8 0.266002 0.119848 0.866999
O O9 0.019446 0.691954 0.816708
O O10 0.024803 0.638059 0.536912
O O11 0.986955 0.447908 0.721290
O O12 0.118863 0.332468 0.560287
O O13 0.775856 0.488898 0.381032
O O14 0.500000 0.500000 0.000000
O O15 0.628948 0.353165 0.038419
O O16 0.774904 0.120059 0.623020
O O17 0.773533 0.265534 0.862978
#
# Coordination Sequence:
#
# PCOD9242651 Si02
#       8
#     4   4   4   4   4   4   4   4
#     4  10  21  37  57  80 107 139 175 216 261 310
#     4  10  20  35  55  78 106 140 177 218 262 310
#     4   9  19  35  53  76 105 136 173 215 259 308
#     4   9  19  35  53  76 105 136 173 215 259 308
#     4  10  20  35  55  78 106 140 177 218 262 310
#     4  10  21  37  57  80 107 139 175 216 261 310
#     4  10  21  37  56  79 107 139 175 216 262 311
#     4  10  21  37  56  79 107 139 175 216 262 311
#
# _framework density 22.32206
#
# number of rings (size 3 to 8) (size 9 to 14) (size 15 to 20)
#    0.000    2.250    0.000    2.250    0.000    6.500 
#    0.000    2.500    0.000    0.000    0.000    0.000 
#    0.000    0.000    0.000    0.000    0.000    0.000 
#
# Total GULP energy -178806.866160 kJ/mol
# GULP energy per Si atom -5587.714568 kJ/mol
# Density = 2.227125 g / cm^3
# Si number density = 22.322060 Si / 1000 Ang^3
#
#
#
# Elastic Constant Matrix: (Units=GPa)
#
#
# Indices 1 2 3 4 5 6 
#
# 1 35.5866 -20.5411 0.3701 0.0000 -3.9343 0.0000
# 2 -20.5411 137.6745 65.5136 0.0000 7.0705 0.0000
# 3 0.3701 65.5136 153.5388 0.0000 23.0746 0.0000
# 4 0.0000 0.0000 0.0000 25.2114 0.0000 4.3353
# 5 -3.9343 7.0705 23.0746 0.0000 17.3586 0.0000
# 6 0.0000 0.0000 0.0000 4.3353 0.0000 26.7308
#
#
#
# Elastic Compliance Matrix: (Units=1/GPa)
#
#
# Indices 1 2 3 4 5 6 
#
# 1 0.033105 0.006519 -0.004486 0.000000 0.010811 0.000000
# 2 0.006519 0.010444 -0.005067 0.000000 0.003959 0.000000
# 3 -0.004486 -0.005067 0.010658 0.000000 -0.013120 0.000000
# 4 0.000000 0.000000 0.000000 0.040803 0.000000 -0.006617
# 5 0.010811 0.003959 -0.013120 0.000000 0.075887 0.000000
# 6 0.000000 0.000000 0.000000 -0.006617 0.000000 0.038483
#
#
# Mechanical properties :
#
#
# Convention : Reuss Voigt Hill
#
# Bulk Modulus (GPa) = 20.77356 46.38724 33.58040
# Shear Modulus (GPa) = 21.59884 32.62397 27.11141
#
# Velocity S-wave (km/s) = 3.11400 3.82712 3.48883
# Velocity P-wave (km/s) = 4.71761 6.35257 5.59513
#
# Compressibility (1/GPa) = 0.04813811
#
# Stress axis : x y z
#
# Youngs Moduli (GPa) = 30.20676 95.74870 93.82946
#
# Poissons Ratio (x) = -0.62417 0.42093
# Poissons Ratio (y) = -0.19691 0.47544
# Poissons Ratio (z) = 0.13551 0.48516
#
# Static dielectric constant tensor:
#      x y z
#    x 1.873920 0.000000 -0.007920 
#    y 0.000000 1.779230 0.000000 
#    z -0.007920 0.000000 1.822730 
# 
# From -- ./inp_files/18598.got.cif
#   From: 2010.05.17/outbox.cif.g08.bks.cpg/sg14_10_cif.got.tgz:18598.got - 2010.06.03 17:49:19.
