data_PCOD9242019
_publ_section_title
;
Structure prediction by ZEFSAII (Michael W. Deem and Ramdas Pophale) SiO2 
 PCOD9242019
Probable space group: P 21/C
;
_chemical_formula_sum "Si O2"
_cell_formula_units_Z 32
_cell_length_a 13.945980
_cell_length_b 12.793200
_cell_length_c 15.606942
_cell_angle_alpha 90.000000
_cell_angle_beta 149.910892
_cell_angle_gamma 90.000000
_cell_volume 1395.994878
_symmetry_space_group_name_H-M "P 21/C"
_symmetry_group_IT_number 14
_symmetry_cell_setting 'monoclinic'
loop_
_space_group_symop_operation_xyz
x,y,z
-x,1/2+y,1/2-z
-x,-y,-z
x,1/2-y,1/2+z
loop_
_atom_site_type_symbol
_atom_site_label
_atom_site_fract_x
_atom_site_fract_y
_atom_site_fract_z
Si Si1 0.868426 0.463991 0.478969
Si Si2 0.929841 0.657083 0.970731
Si Si3 0.707548 0.032491 0.262418
Si Si4 0.974862 0.248512 0.629789
Si Si5 0.506274 0.926377 0.422605
Si Si6 0.702198 0.826625 0.892472
Si Si7 0.323574 0.584870 0.057483
Si Si8 0.405823 0.300189 0.506066
O O1 0.946088 0.372881 0.601165
O O2 0.673725 0.427752 0.281280
O O3 0.819752 0.566835 0.496557
O O4 0.000000 0.500000 0.500000
O O5 0.751800 0.590662 0.794790
O O6 0.842209 0.738171 0.968147
O O7 0.038074 0.720096 0.980597
O O8 0.098255 0.579517 0.130070
O O9 0.692941 0.051866 0.354667
O O10 0.528984 0.095609 0.084838
O O11 0.827664 0.178198 0.569355
O O12 0.182357 0.206505 0.814722
O O13 0.515511 0.809241 0.466446
O O14 0.500000 0.000000 0.500000
O O15 0.678825 0.978587 0.499919
O O16 0.530522 0.862968 0.697761
O O17 0.590681 0.787336 0.888577
#
# Coordination Sequence:
#
# PCOD9242019 Si02
#       8
#     4   4   4   4   4   4   4   4
#     4  11  21  38  64  94 121 168 214 266 328 395
#     4  10  19  38  66  87 116 166 210 261 321 395
#     4   9  20  39  62  88 121 162 211 259 321 387
#     4  11  23  40  60  90 133 164 215 267 322 400
#     4  11  23  39  64  90 127 165 216 272 327 389
#     4  10  21  38  66  89 121 167 218 260 328 392
#     4   9  21  40  59  86 119 162 206 264 320 381
#     4  11  24  39  57  92 129 165 209 271 322 389
#
# _framework density 22.922720000000002
#
# number of rings (size 3 to 8) (size 9 to 14) (size 15 to 20)
#    0.000    1.750    1.250    3.750    1.750    4.500 
#    0.000    0.000    0.000    0.000    0.000    0.000 
#    0.000    0.000    0.000    0.000    0.000    0.000 
#
# Total GULP energy -178342.081573 kJ/mol
# GULP energy per Si atom -5573.190049 kJ/mol
# Density = 2.287055 g / cm^3
# Si number density = 22.922720 Si / 1000 Ang^3
#
#
#
# Elastic Constant Matrix: (Units=GPa)
#
#
# Indices 1 2 3 4 5 6 
#
# 1 48.2456 24.1546 5.2740 0.0000 11.5272 0.0000
# 2 24.1546 142.3719 35.5125 0.0000 17.0068 0.0000
# 3 5.2740 35.5125 74.1305 0.0000 15.5701 0.0000
# 4 0.0000 0.0000 0.0000 33.6671 0.0000 9.8811
# 5 11.5272 17.0068 15.5701 0.0000 27.5703 0.0000
# 6 0.0000 0.0000 0.0000 9.8811 0.0000 43.5962
#
#
#
# Elastic Compliance Matrix: (Units=1/GPa)
#
#
# Indices 1 2 3 4 5 6 
#
# 1 0.024465 -0.003527 0.001862 0.000000 -0.009104 0.000000
# 2 -0.003527 0.008732 -0.003529 0.000000 -0.001918 0.000000
# 3 0.001862 -0.003529 0.016740 0.000000 -0.008055 0.000000
# 4 0.000000 0.000000 0.000000 0.031819 0.000000 -0.007212
# 5 -0.009104 -0.001918 -0.008055 0.000000 0.045810 0.000000
# 6 0.000000 0.000000 0.000000 -0.007212 0.000000 0.024572
#
#
# Mechanical properties :
#
#
# Convention : Reuss Voigt Hill
#
# Bulk Modulus (GPa) = 25.28675 43.84779 34.56727
# Shear Modulus (GPa) = 28.45595 34.28718 31.37157
#
# Velocity S-wave (km/s) = 3.52715 3.87172 3.70345
# Velocity P-wave (km/s) = 5.25766 6.25755 5.77927
#
# Compressibility (1/GPa) = 0.03954641
#
# Stress axis : x y z
#
# Youngs Moduli (GPa) = 40.87458 114.52447 59.73805
#
# Poissons Ratio (x) = 0.40398 -0.11120
# Poissons Ratio (y) = 0.14418 0.21082
# Poissons Ratio (z) = -0.07609 0.40417
#
# Static dielectric constant tensor:
#      x y z
#    x 1.855210 0.000000 -0.037280 
#    y 0.000000 1.881190 0.000000 
#    z -0.037280 0.000000 1.958630 
# 
# From -- ./inp_files/59488.got.cif
#   From: 2010.05.17/outbox.cif.g08.bks.cpg/sg14_30_cif.got.tgz:59488.got - 2010.06.03 17:49:19.
