data_PCOD9242228
_publ_section_title
;
Structure prediction by ZEFSAII (Michael W. Deem and Ramdas Pophale) SiO2 
 PCOD9242228
Probable space group: P 21/C
;
_chemical_formula_sum "Si O2"
_cell_formula_units_Z 32
_cell_length_a 15.024472
_cell_length_b 11.074012
_cell_length_c 8.365821
_cell_angle_alpha 90.000000
_cell_angle_beta 70.712489
_cell_angle_gamma 90.000000
_cell_volume 1313.791134
_symmetry_space_group_name_H-M "P 21/C"
_symmetry_group_IT_number 14
_symmetry_cell_setting 'monoclinic'
loop_
_space_group_symop_operation_xyz
x,y,z
-x,1/2+y,1/2-z
-x,-y,-z
x,1/2-y,1/2+z
loop_
_atom_site_type_symbol
_atom_site_label
_atom_site_fract_x
_atom_site_fract_y
_atom_site_fract_z
Si Si1 0.860284 0.646556 0.945847
Si Si2 0.166183 0.606499 0.204189
Si Si3 0.704152 0.671190 0.603898
Si Si4 0.299700 0.684472 0.622477
Si Si5 0.432547 0.803969 0.781855
Si Si6 0.427994 0.186574 0.546421
Si Si7 0.847810 0.462741 0.427019
Si Si8 0.970379 0.644932 0.197977
O O1 0.831828 0.527996 0.866466
O O2 0.909674 0.742511 0.799043
O O3 0.768138 0.707748 0.082235
O O4 0.935524 0.621686 0.040308
O O5 0.261679 0.679842 0.116196
O O6 0.146347 0.605342 0.406858
O O7 0.079498 0.669262 0.163311
O O8 0.652990 0.629167 0.796597
O O9 0.625513 0.708557 0.521293
O O10 0.777119 0.573315 0.501505
O O11 0.374134 0.701952 0.719241
O O12 0.354470 0.631585 0.436274
O O13 0.203166 0.609541 0.686790
O O14 0.500859 0.743586 0.869124
O O15 0.501862 0.876656 0.622188
O O16 0.944112 0.525653 0.316676
#
# Coordination Sequence:
#
# PCOD9242228 Si02
#       8
#     4   4   4   4   4   4   4   4
#     4  11  24  43  66 100 133 169 224 271 326 386
#     4  12  26  41  69  93 134 182 217 271 321 396
#     4  10  19  40  68  94 126 166 213 271 331 383
#     4  11  23  41  65  89 137 177 214 262 337 386
#     4   9  20  40  62  92 131 166 213 269 313 403
#     4   9  18  37  70  90 124 166 212 267 323 386
#     4  11  24  42  65  98 131 175 218 275 326 390
#     4  11  26  42  68  97 135 168 223 279 316 386
#
# _framework density 24.356992999999999
#
# number of rings (size 3 to 8) (size 9 to 14) (size 15 to 20)
#    0.000    1.500    1.250    4.500    5.250    0.000 
#    0.000    6.250   11.000    0.000    0.000    0.000 
#    0.000    0.000    0.000    0.000    0.000    0.000 
#
# Total GULP energy -178865.912465 kJ/mol
# GULP energy per Si atom -5589.559765 kJ/mol
# Density = 2.430156 g / cm^3
# Si number density = 24.356993 Si / 1000 Ang^3
#
#
#
# Elastic Constant Matrix: (Units=GPa)
#
#
# Indices 1 2 3 4 5 6 
#
# 1 141.3168 14.4080 45.9898 0.0000 19.8334 0.0000
# 2 14.4080 49.9156 15.4961 0.0000 -6.4339 0.0000
# 3 45.9898 15.4961 83.6743 0.0000 6.9823 0.0000
# 4 0.0000 0.0000 0.0000 30.9330 0.0000 -0.8356
# 5 19.8334 -6.4339 6.9823 0.0000 40.7741 0.0000
# 6 0.0000 0.0000 0.0000 -0.8356 0.0000 24.7620
#
#
#
# Elastic Compliance Matrix: (Units=1/GPa)
#
#
# Indices 1 2 3 4 5 6 
#
# 1 0.009267 -0.001824 -0.004419 0.000000 -0.004039 0.000000
# 2 -0.001824 0.022308 -0.003547 0.000000 0.005015 0.000000
# 3 -0.004419 -0.003547 0.015120 0.000000 -0.001000 0.000000
# 4 0.000000 0.000000 0.000000 0.032357 0.000000 0.001092
# 5 -0.004039 0.005015 -0.001000 0.000000 0.027452 0.000000
# 6 0.000000 0.000000 0.000000 0.001092 0.000000 0.040421
#
#
# Mechanical properties :
#
#
# Convention : Reuss Voigt Hill
#
# Bulk Modulus (GPa) = 36.87935 47.41049 42.14492
# Shear Modulus (GPa) = 28.48286 32.56136 30.52211
#
# Velocity S-wave (km/s) = 3.42335 3.66025 3.54378
# Velocity P-wave (km/s) = 5.54975 6.11313 5.83824
#
# Compressibility (1/GPa) = 0.02711545
#
# Stress axis : x y z
#
# Youngs Moduli (GPa) = 107.90893 44.82725 66.13707
#
# Poissons Ratio (x) = 0.08175 0.29224
# Poissons Ratio (y) = 0.19680 0.23461
# Poissons Ratio (z) = 0.47681 0.15902
#
# Static dielectric constant tensor:
#      x y z
#    x 1.902450 0.000000 -0.035520 
#    y 0.000000 1.919510 0.000000 
#    z -0.035520 0.000000 1.990010 
# 
# From -- ./inp_files/15736.got.cif
#   From: 2010.05.17/outbox.cif.g08.bks.cpg/sg14_8_cif.got.tgz:15736.got - 2010.06.03 17:49:19.
