data_PCOD9242242
_publ_section_title
;
Structure prediction by ZEFSAII (Michael W. Deem and Ramdas Pophale) SiO2 
 PCOD9242242
Probable space group: P 21/C
;
_chemical_formula_sum "Si O2"
_cell_formula_units_Z 24
_cell_length_a 9.070730
_cell_length_b 15.630539
_cell_length_c 9.530504
_cell_angle_alpha 90.000000
_cell_angle_beta 74.068942
_cell_angle_gamma 90.000000
_cell_volume 1299.341184
_symmetry_space_group_name_H-M "P 21/C"
_symmetry_group_IT_number 14
_symmetry_cell_setting 'monoclinic'
loop_
_space_group_symop_operation_xyz
x,y,z
-x,1/2+y,1/2-z
-x,-y,-z
x,1/2-y,1/2+z
loop_
_atom_site_type_symbol
_atom_site_label
_atom_site_fract_x
_atom_site_fract_y
_atom_site_fract_z
Si Si1 0.371709 0.177693 0.969126
Si Si2 0.563098 0.081417 0.152341
Si Si3 0.556373 0.093971 0.702403
Si Si4 0.600794 0.872439 0.544063
Si Si5 0.158600 0.500644 0.875954
Si Si6 0.156338 0.017258 0.041267
O O1 0.486792 0.171514 0.806967
O O2 0.337364 0.277041 0.996698
O O3 0.466356 0.141115 0.075499
O O4 0.232090 0.110406 0.986490
O O5 0.543791 0.122233 0.311078
O O6 0.482334 0.988499 0.190742
O O7 0.725294 0.055674 0.044505
O O8 0.460085 0.088841 0.585182
O O9 0.737455 0.086338 0.631548
O O10 0.734001 0.927783 0.581882
O O11 0.136148 0.487304 0.715033
O O12 0.000000 0.500000 0.000000
O O13 0.000000 0.000000 0.000000
#
# Coordination Sequence:
#
# PCOD9242242 Si02
#       6
#     4   4   4   4   4   4
#     4  11  20  41  63  88 122 158 209 260 303 349
#     4  10  19  41  62  85 116 157 209 246 288 369
#     4  10  20  37  64  88 114 160 204 249 299 362
#     4  11  23  36  65  93 121 156 204 265 307 343
#     4  11  23  40  60  90 123 159 204 247 296 372
#     4  11  23  39  65  85 119 169 201 239 301 374
#
# _framework density 18.470898999999999
#
# number of rings (size 3 to 8) (size 9 to 14) (size 15 to 20)
#    0.000    1.333    5.000    4.000    7.000    0.000 
#    0.000    3.333    0.000    0.000    0.000    0.000 
#    0.000    0.000    0.000    0.000    0.000    0.000 
#
# Total GULP energy -133749.987916 kJ/mol
# GULP energy per Si atom -5572.916163 kJ/mol
# Density = 1.842886 g / cm^3
# Si number density = 18.470899 Si / 1000 Ang^3
#
#
#
# Elastic Constant Matrix: (Units=GPa)
#
#
# Indices 1 2 3 4 5 6 
#
# 1 127.9597 24.8807 62.0807 0.0000 -4.3578 0.0000
# 2 24.8807 58.7791 17.5163 0.0000 -2.4503 0.0000
# 3 62.0807 17.5163 124.8573 0.0000 1.4526 0.0000
# 4 0.0000 0.0000 0.0000 22.2376 0.0000 3.2506
# 5 -4.3578 -2.4503 1.4526 0.0000 38.3907 0.0000
# 6 0.0000 0.0000 0.0000 3.2506 0.0000 16.3937
#
#
#
# Elastic Compliance Matrix: (Units=1/GPa)
#
#
# Indices 1 2 3 4 5 6 
#
# 1 0.010874 -0.003064 -0.004991 0.000000 0.001228 0.000000
# 2 -0.003064 0.018677 -0.001107 0.000000 0.000886 0.000000
# 3 -0.004991 -0.001107 0.010658 0.000000 -0.001040 0.000000
# 4 0.000000 0.000000 0.000000 0.046311 0.000000 -0.009183
# 5 0.001228 0.000886 -0.001040 0.000000 0.026283 0.000000
# 6 0.000000 0.000000 0.000000 -0.009183 0.000000 0.062820
#
#
# Mechanical properties :
#
#
# Convention : Reuss Voigt Hill
#
# Bulk Modulus (GPa) = 45.69470 57.83904 51.76687
# Shear Modulus (GPa) = 24.84562 29.21230 27.02896
#
# Velocity S-wave (km/s) = 3.67157 3.98116 3.82950
# Velocity P-wave (km/s) = 6.53960 7.24668 6.90220
#
# Compressibility (1/GPa) = 0.02188437
#
# Stress axis : x y z
#
# Youngs Moduli (GPa) = 91.96173 53.54250 93.82465
#
# Poissons Ratio (x) = 0.16407 0.46829
# Poissons Ratio (y) = 0.28180 0.10385
# Poissons Ratio (z) = 0.45899 0.05926
#
# Static dielectric constant tensor:
#      x y z
#    x 1.637500 0.000000 -0.027410 
#    y 0.000000 1.668650 0.000000 
#    z -0.027410 0.000000 1.700120 
# 
# From -- ./inp_files/9070.got.cif
#   From: 2010.05.17/outbox.cif.g08.bks.cpg/sg14_5_cif.got.tgz:9070.got - 2010.06.03 17:49:19.
