data_PCOD9242624
_publ_section_title
;
Structure prediction by ZEFSAII (Michael W. Deem and Ramdas Pophale) SiO2 
 PCOD9242624
Probable space group: P 21/C
;
_chemical_formula_sum "Si O2"
_cell_formula_units_Z 32
_cell_length_a 28.075773
_cell_length_b 10.376739
_cell_length_c 18.154689
_cell_angle_alpha 90.000000
_cell_angle_beta 15.925462
_cell_angle_gamma 90.000000
_cell_volume 1451.256923
_symmetry_space_group_name_H-M "P 21/C"
_symmetry_group_IT_number 14
_symmetry_cell_setting 'monoclinic'
loop_
_space_group_symop_operation_xyz
x,y,z
-x,1/2+y,1/2-z
-x,-y,-z
x,1/2-y,1/2+z
loop_
_atom_site_type_symbol
_atom_site_label
_atom_site_fract_x
_atom_site_fract_y
_atom_site_fract_z
Si Si1 0.891422 0.136696 0.209371
Si Si2 0.635999 0.170793 0.326439
Si Si3 0.550854 0.669849 0.498214
Si Si4 0.581463 0.560346 0.210161
Si Si5 0.380012 0.642763 0.366619
Si Si6 0.808114 0.698589 0.989830
Si Si7 0.090008 0.570029 0.480379
Si Si8 0.278003 0.455986 0.405630
O O1 0.738044 0.028369 0.445005
O O2 0.791659 0.267708 0.376331
O O3 0.952487 0.137120 0.034288
O O4 0.050245 0.080727 0.022267
O O5 0.600313 0.307233 0.339689
O O6 0.443201 0.112848 0.621581
O O7 0.742358 0.086506 0.109170
O O8 0.729028 0.133048 0.263808
O O9 0.526405 0.539289 0.579265
O O10 0.513493 0.786402 0.611399
O O11 0.728932 0.674741 0.187869
O O12 0.470962 0.623833 0.309690
O O13 0.662794 0.665688 0.143713
O O14 0.326923 0.503577 0.413628
O O15 0.864354 0.846588 0.892970
O O16 0.960669 0.607036 0.737760
#
# Coordination Sequence:
#
# PCOD9242624 Si02
#       8
#     4   4   4   4   4   4   4   4
#     4   9  21  37  56  91 120 156 218 247 295 398
#     4   9  18  36  63  79 114 161 200 253 303 360
#     4   9  20  37  58  92 118 150 214 261 297 375
#     4  10  20  34  62  86 120 159 202 262 313 355
#     4  10  20  35  62  87 117 162 203 261 312 355
#     4  10  21  36  55  90 123 148 202 257 307 376
#     4  10  20  39  60  84 121 168 197 251 321 369
#     4   9  19  36  57  88 112 145 212 250 291 376
#
# _framework density 22.049851
#
# number of rings (size 3 to 8) (size 9 to 14) (size 15 to 20)
#    0.000    2.500    0.000    1.875    7.000    0.000 
#    9.000    0.625    0.000    0.000    0.000    0.000 
#    0.000    0.000    0.000    0.000    0.000    0.000 
#
# Total GULP energy -178234.918548 kJ/mol
# GULP energy per Si atom -5569.841205 kJ/mol
# Density = 2.199966 g / cm^3
# Si number density = 22.049851 Si / 1000 Ang^3
#
#
#
# Elastic Constant Matrix: (Units=GPa)
#
#
# Indices 1 2 3 4 5 6 
#
# 1 88.1289 19.9706 27.4895 0.0000 7.1560 0.0000
# 2 19.9706 47.7076 4.2709 0.0000 14.4904 0.0000
# 3 27.4895 4.2709 46.6338 0.0000 22.6496 0.0000
# 4 0.0000 0.0000 0.0000 9.7630 0.0000 9.8435
# 5 7.1560 14.4904 22.6496 0.0000 24.4892 0.0000
# 6 0.0000 0.0000 0.0000 9.8435 0.0000 32.0071
#
#
#
# Elastic Compliance Matrix: (Units=1/GPa)
#
#
# Indices 1 2 3 4 5 6 
#
# 1 0.018471 -0.011918 -0.019246 0.000000 0.019455 0.000000
# 2 -0.011918 0.035555 0.022324 0.000000 -0.038202 0.000000
# 3 -0.019246 0.022324 0.062507 0.000000 -0.065397 0.000000
# 4 0.000000 0.000000 0.000000 0.148461 0.000000 -0.045658
# 5 0.019455 -0.038202 -0.065397 0.000000 0.118238 0.000000
# 6 0.000000 0.000000 0.000000 -0.045658 0.000000 0.045285
#
#
# Mechanical properties :
#
#
# Convention : Reuss Voigt Hill
#
# Bulk Modulus (GPa) = 10.11613 31.77024 20.94319
# Shear Modulus (GPa) = 10.43518 21.96783 16.20150
#
# Velocity S-wave (km/s) = 2.17780 3.15981 2.71360
# Velocity P-wave (km/s) = 3.30478 5.26804 4.39737
#
# Compressibility (1/GPa) = 0.09885207
#
# Stress axis : x y z
#
# Youngs Moduli (GPa) = 54.13784 28.12551 15.99826
#
# Poissons Ratio (x) = 0.33521 0.30790
# Poissons Ratio (y) = 0.64523 -0.35714
# Poissons Ratio (z) = 1.04194 -0.62787
#
# Static dielectric constant tensor:
#      x y z
#    x 1.865590 0.000000 -0.036800 
#    y 0.000000 1.919350 0.000000 
#    z -0.036800 0.000000 1.876960 
# 
# From -- ./inp_files/62353.got.cif
#   From: 2010.05.17/outbox.cif.g08.bks.cpg/sg14_32_cif.got.tgz:62353.got - 2010.06.03 17:49:19.
