data_PCOD9242365
_publ_section_title
;
Structure prediction by ZEFSAII (Michael W. Deem and Ramdas Pophale) SiO2 
 PCOD9242365
Probable space group: P 21/C
;
_chemical_formula_sum "Si O2"
_cell_formula_units_Z 32
_cell_length_a 15.663475
_cell_length_b 7.388840
_cell_length_c 23.930061
_cell_angle_alpha 90.000000
_cell_angle_beta 25.659378
_cell_angle_gamma 90.000000
_cell_volume 1199.268055
_symmetry_space_group_name_H-M "P 21/C"
_symmetry_group_IT_number 14
_symmetry_cell_setting 'monoclinic'
loop_
_space_group_symop_operation_xyz
x,y,z
-x,1/2+y,1/2-z
-x,-y,-z
x,1/2-y,1/2+z
loop_
_atom_site_type_symbol
_atom_site_label
_atom_site_fract_x
_atom_site_fract_y
_atom_site_fract_z
Si Si1 0.606318 0.638502 0.758066
Si Si2 0.872441 0.767587 0.751448
Si Si3 0.664657 0.346724 0.357803
Si Si4 0.770424 0.143358 0.677873
Si Si5 0.746559 0.766971 0.437835
Si Si6 0.458729 0.846952 0.459342
Si Si7 0.379125 0.236705 0.373703
Si Si8 0.990914 0.740012 0.066883
O O1 0.494340 0.734470 0.876242
O O2 0.656988 0.734515 0.669724
O O3 0.480516 0.459698 0.820206
O O4 0.825420 0.611518 0.652626
O O5 0.684291 0.638414 0.849398
O O6 0.035100 0.745768 0.606985
O O7 0.778151 0.965606 0.798236
O O8 0.915952 0.748706 0.791378
O O9 0.759043 0.263205 0.245548
O O10 0.433154 0.363420 0.476179
O O11 0.652855 0.250072 0.424291
O O12 0.543709 0.118204 0.794398
O O13 0.851029 0.244044 0.575213
O O14 0.888130 0.957245 0.618033
O O15 0.786187 0.746772 0.480425
O O16 0.647627 0.963921 0.489199
#
# Coordination Sequence:
#
# PCOD9242365 Si02
#       8
#     4   4   4   4   4   4   4   4
#     4  10  20  32  48  70  95 124 156 192 233 276
#     4   9  15  24  42  66  89 116 150 186 224 267
#     4   9  15  24  42  66  89 116 150 186 224 267
#     4   9  18  32  49  70  97 126 154 188 231 276
#     4   9  16  26  41  63  90 117 147 187 231 268
#     4   9  16  26  41  63  90 117 147 187 231 268
#     4  10  20  32  48  70  95 124 156 192 233 276
#     4   9  18  32  49  70  97 126 154 188 231 276
#
# _framework density 26.682942000000001
#
# number of rings (size 3 to 8) (size 9 to 14) (size 15 to 20)
#    0.000    2.750    0.000    3.750    0.000    4.500 
#    0.000    0.000    0.000    1.500    0.000    0.000 
#    0.000    0.000    0.000    0.000    0.000    0.000 
#
# Total GULP energy -178535.644098 kJ/mol
# GULP energy per Si atom -5579.238878 kJ/mol
# Density = 2.662221 g / cm^3
# Si number density = 26.682942 Si / 1000 Ang^3
#
#
#
# Elastic Constant Matrix: (Units=GPa)
#
#
# Indices 1 2 3 4 5 6 
#
# 1 100.3447 10.1659 96.6977 0.0000 60.9294 0.0000
# 2 10.1659 64.6487 23.8442 0.0000 27.5774 0.0000
# 3 96.6977 23.8442 177.8047 0.0000 96.9899 0.0000
# 4 0.0000 0.0000 0.0000 30.8288 0.0000 16.1449
# 5 60.9294 27.5774 96.9899 0.0000 89.8991 0.0000
# 6 0.0000 0.0000 0.0000 16.1449 0.0000 24.0711
#
#
#
# Elastic Compliance Matrix: (Units=1/GPa)
#
#
# Indices 1 2 3 4 5 6 
#
# 1 0.022077 0.002387 -0.009150 0.000000 -0.005824 0.000000
# 2 0.002387 0.018208 0.000460 0.000000 -0.007700 0.000000
# 3 -0.009150 0.000460 0.017577 0.000000 -0.012903 0.000000
# 4 0.000000 0.000000 0.000000 0.050000 0.000000 -0.033536
# 5 -0.005824 -0.007700 -0.012903 0.000000 0.031353 0.000000
# 6 0.000000 0.000000 0.000000 -0.033536 0.000000 0.064037
#
#
# Mechanical properties :
#
#
# Convention : Reuss Voigt Hill
#
# Bulk Modulus (GPa) = 22.09615 67.13488 44.61551
# Shear Modulus (GPa) = 21.65033 43.09915 32.37474
#
# Velocity S-wave (km/s) = 2.85159 4.02336 3.48704
# Velocity P-wave (km/s) = 4.37505 6.84091 5.74191
#
# Compressibility (1/GPa) = 0.04525675
#
# Stress axis : x y z
#
# Youngs Moduli (GPa) = 45.29510 54.92201 56.89201
#
# Poissons Ratio (x) = -0.13112 0.52057
# Poissons Ratio (y) = -0.10813 -0.02617
# Poissons Ratio (z) = 0.41446 -0.02527
#
# Static dielectric constant tensor:
#      x y z
#    x 2.101700 0.000000 0.030520 
#    y 0.000000 2.128650 0.000000 
#    z 0.030520 0.000000 2.131710 
# 
# From -- ./inp_files/74177.got.cif
#   From: 2010.05.17/outbox.cif.g08.bks.cpg/sg14_38_cif.got.tgz:74177.got - 2010.06.03 17:49:19.
