data_PCOD9242682
_publ_section_title
;
Structure prediction by ZEFSAII (Michael W. Deem and Ramdas Pophale) SiO2 
 PCOD9242682
Probable space group: P 21/C
;
_chemical_formula_sum "Si O2"
_cell_formula_units_Z 24
_cell_length_a 18.301541
_cell_length_b 8.983825
_cell_length_c 23.250053
_cell_angle_alpha 90.000000
_cell_angle_beta 161.655817
_cell_angle_gamma 90.000000
_cell_volume 1203.104757
_symmetry_space_group_name_H-M "P 21/C"
_symmetry_group_IT_number 14
_symmetry_cell_setting 'monoclinic'
loop_
_space_group_symop_operation_xyz
x,y,z
-x,1/2+y,1/2-z
-x,-y,-z
x,1/2-y,1/2+z
loop_
_atom_site_type_symbol
_atom_site_label
_atom_site_fract_x
_atom_site_fract_y
_atom_site_fract_z
Si Si1 0.678702 0.802673 0.393475
Si Si2 0.145557 0.627803 0.473719
Si Si3 0.282577 0.058481 0.978344
Si Si4 0.983382 0.616641 0.540251
Si Si5 0.783416 0.423368 0.806171
Si Si6 0.938913 0.942148 0.311758
O O1 0.412392 0.856308 0.194568
O O2 0.731174 0.693609 0.486322
O O3 0.755784 0.712118 0.392664
O O4 0.845665 0.943962 0.524955
O O5 0.173299 0.584511 0.427959
O O6 0.997225 0.496799 0.392055
O O7 0.025289 0.782242 0.396297
O O8 0.162915 0.077364 0.827657
O O9 0.555310 0.041835 0.171244
O O10 0.000000 0.500000 0.500000
O O11 0.166558 0.747447 0.664336
O O12 0.764237 0.492300 0.728318
O O13 0.000000 0.500000 0.000000
#
# Coordination Sequence:
#
# PCOD9242682 Si02
#       6
#     4   4   4   4   4   4
#     4  10  21  37  59  85 114 153 199 239 286 352
#     4  11  22  38  61  85 114 154 196 240 289 349
#     4  11  22  38  58  86 118 152 193 245 295 342
#     4  10  20  35  56  84 112 144 191 242 283 335
#     4  11  22  38  60  84 115 155 197 239 289 353
#     4  11  22  38  58  86 119 152 191 245 298 341
#
# _framework density 19.948387
#
# number of rings (size 3 to 8) (size 9 to 14) (size 15 to 20)
#    0.000    1.333    0.000    8.500    0.000    0.000 
#    0.000    0.833    0.000    0.000    0.000    0.000 
#    0.000    0.000    0.000    0.000    0.000    0.000 
#
# Total GULP energy -133867.540769 kJ/mol
# GULP energy per Si atom -5577.814199 kJ/mol
# Density = 1.990298 g / cm^3
# Si number density = 19.948387 Si / 1000 Ang^3
#
#
#
# Elastic Constant Matrix: (Units=GPa)
#
#
# Indices 1 2 3 4 5 6 
#
# 1 104.1305 29.5582 8.9011 0.0000 2.2698 0.0000
# 2 29.5582 114.9371 12.9047 0.0000 13.1627 0.0000
# 3 8.9011 12.9047 38.2539 0.0000 -5.6682 0.0000
# 4 0.0000 0.0000 0.0000 13.9901 0.0000 -0.5815
# 5 2.2698 13.1627 -5.6682 0.0000 24.2233 0.0000
# 6 0.0000 0.0000 0.0000 -0.5815 0.0000 38.1220
#
#
#
# Elastic Compliance Matrix: (Units=1/GPa)
#
#
# Indices 1 2 3 4 5 6 
#
# 1 0.010451 -0.002512 -0.001582 0.000000 0.000015 0.000000
# 2 -0.002512 0.010518 -0.003911 0.000000 -0.006395 0.000000
# 3 -0.001582 -0.003911 0.029177 0.000000 0.009101 0.000000
# 4 0.000000 0.000000 0.000000 0.071524 0.000000 0.001091
# 5 0.000015 -0.006395 0.009101 0.000000 0.046886 0.000000
# 6 0.000000 0.000000 0.000000 0.001091 0.000000 0.026248
#
#
# Mechanical properties :
#
#
# Convention : Reuss Voigt Hill
#
# Bulk Modulus (GPa) = 29.29482 40.00551 34.65017
# Shear Modulus (GPa) = 22.50286 28.99760 25.75023
#
# Velocity S-wave (km/s) = 3.36230 3.81679 3.59673
# Velocity P-wave (km/s) = 5.45807 6.28664 5.88695
#
# Compressibility (1/GPa) = 0.03413572
#
# Stress axis : x y z
#
# Youngs Moduli (GPa) = 95.68233 95.07597 34.27329
#
# Poissons Ratio (x) = 0.23882 0.05423
# Poissons Ratio (y) = 0.24034 0.13405
# Poissons Ratio (z) = 0.15139 0.37187
#
# Static dielectric constant tensor:
#      x y z
#    x 1.740860 0.000000 -0.001730 
#    y 0.000000 1.699940 0.000000 
#    z -0.001730 0.000000 1.676410 
# 
# From -- ./inp_files/48662.got.cif
#   From: 2010.05.17/outbox.cif.g08.bks.cpg/sg14_25_cif.got.tgz:48662.got - 2010.06.03 17:49:19.
