data_PCOD9242636
_publ_section_title
;
Structure prediction by ZEFSAII (Michael W. Deem and Ramdas Pophale) SiO2 
 PCOD9242636
Probable space group: P 21/C
;
_chemical_formula_sum "Si O2"
_cell_formula_units_Z 32
_cell_length_a 20.311417
_cell_length_b 8.838571
_cell_length_c 8.187435
_cell_angle_alpha 90.000000
_cell_angle_beta 91.373477
_cell_angle_gamma 90.000000
_cell_volume 1469.417977
_symmetry_space_group_name_H-M "P 21/C"
_symmetry_group_IT_number 14
_symmetry_cell_setting 'monoclinic'
loop_
_space_group_symop_operation_xyz
x,y,z
-x,1/2+y,1/2-z
-x,-y,-z
x,1/2-y,1/2+z
loop_
_atom_site_type_symbol
_atom_site_label
_atom_site_fract_x
_atom_site_fract_y
_atom_site_fract_z
Si Si1 0.947169 0.663078 0.841017
Si Si2 0.811128 0.149416 0.578746
Si Si3 0.330387 0.806725 0.512257
Si Si4 0.526888 0.245568 0.066652
Si Si5 0.314302 0.509556 0.349512
Si Si6 0.072352 0.024666 0.297714
Si Si7 0.170419 0.526864 0.287372
Si Si8 0.548604 0.572073 0.712216
O O1 0.939653 0.842392 0.830344
O O2 0.891036 0.584406 0.726201
O O3 0.018250 0.607210 0.783565
O O4 0.938291 0.602506 0.024767
O O5 0.732567 0.138419 0.596221
O O6 0.823994 0.095111 0.395344
O O7 0.833493 0.323351 0.601691
O O8 0.855258 0.046637 0.698425
O O9 0.403595 0.830130 0.448676
O O10 0.322734 0.623963 0.502380
O O11 0.322594 0.884500 0.687501
O O12 0.469200 0.357651 0.115966
O O13 0.537141 0.106646 0.194345
O O14 0.504056 0.153851 0.906892
O O15 0.240157 0.448656 0.336515
O O16 0.376672 0.399863 0.341922
#
# Coordination Sequence:
#
# PCOD9242636 Si02
#       8
#     4   4   4   4   4   4   4   4
#     4  10  21  36  54  78 111 142 174 215 257 306
#     4   9  18  33  55  80 102 132 176 217 258 309
#     4   9  17  32  54  74 101 135 172 213 259 310
#     4  10  20  35  53  76 102 134 172 216 262 314
#     4   9  18  33  52  76 104 135 173 218 262 312
#     4  10  21  36  54  80 109 140 176 214 256 305
#     4   9  18  34  54  77 105 136 173 218 262 308
#     4  10  21  35  52  75 104 134 174 217 262 313
#
# _framework density 21.777331
#
# number of rings (size 3 to 8) (size 9 to 14) (size 15 to 20)
#    0.000    2.500    0.000    2.250    0.000    3.500 
#    0.000    5.000    0.000    0.000    0.000    0.000 
#    0.000    0.000    0.000    0.000    0.000    0.000 
#
# Total GULP energy -178548.740862 kJ/mol
# GULP energy per Si atom -5579.648152 kJ/mol
# Density = 2.172776 g / cm^3
# Si number density = 21.777331 Si / 1000 Ang^3
#
#
#
# Elastic Constant Matrix: (Units=GPa)
#
#
# Indices 1 2 3 4 5 6 
#
# 1 122.8851 28.8552 16.3289 0.0000 19.5375 0.0000
# 2 28.8552 39.8322 13.3815 0.0000 -5.5029 0.0000
# 3 16.3289 13.3815 18.4784 0.0000 3.0194 0.0000
# 4 0.0000 0.0000 0.0000 24.4942 0.0000 -0.4059
# 5 19.5375 -5.5029 3.0194 0.0000 15.6261 0.0000
# 6 0.0000 0.0000 0.0000 -0.4059 0.0000 38.7481
#
#
#
# Elastic Compliance Matrix: (Units=1/GPa)
#
#
# Indices 1 2 3 4 5 6 
#
# 1 0.015464 -0.015092 0.001333 0.000000 -0.024907 0.000000
# 2 -0.015092 0.052846 -0.032070 0.000000 0.043676 0.000000
# 3 0.001333 -0.032070 0.080833 0.000000 -0.028580 0.000000
# 4 0.000000 0.000000 0.000000 0.040833 0.000000 0.000428
# 5 -0.024907 0.043676 -0.028580 0.000000 0.116041 0.000000
# 6 0.000000 0.000000 0.000000 0.000428 0.000000 0.025812
#
#
# Mechanical properties :
#
#
# Convention : Reuss Voigt Hill
#
# Bulk Modulus (GPa) = 17.39534 33.14743 25.27139
# Shear Modulus (GPa) = 11.29569 23.94902 17.62235
#
# Velocity S-wave (km/s) = 2.27995 3.31980 2.84774
# Velocity P-wave (km/s) = 3.86472 5.47256 4.73735
#
# Compressibility (1/GPa) = 0.05748665
#
# Stress axis : x y z
#
# Youngs Moduli (GPa) = 64.66519 18.92305 12.37123
#
# Poissons Ratio (x) = 0.28558 -0.01650
# Poissons Ratio (y) = 0.97590 0.39674
# Poissons Ratio (z) = -0.08622 0.60686
#
# Static dielectric constant tensor:
#      x y z
#    x 1.817100 0.000000 0.003440 
#    y 0.000000 1.775520 0.000000 
#    z 0.003440 0.000000 1.839670 
# 
# From -- ./inp_files/18626.got.cif
#   From: 2010.05.17/outbox.cif.g08.bks.cpg/sg14_10_cif.got.tgz:18626.got - 2010.06.03 17:49:19.
