data_PCOD9242961
_publ_section_title
;
Structure prediction by ZEFSAII (Michael W. Deem and Ramdas Pophale) SiO2 
 PCOD9242961
Probable space group: P 21/C
;
_chemical_formula_sum "Si O2"
_cell_formula_units_Z 28
_cell_length_a 9.374232
_cell_length_b 15.202063
_cell_length_c 13.349885
_cell_angle_alpha 90.000000
_cell_angle_beta 41.707086
_cell_angle_gamma 90.000000
_cell_volume 1265.750432
_symmetry_space_group_name_H-M "P 21/C"
_symmetry_group_IT_number 14
_symmetry_cell_setting 'monoclinic'
loop_
_space_group_symop_operation_xyz
x,y,z
-x,1/2+y,1/2-z
-x,-y,-z
x,1/2-y,1/2+z
loop_
_atom_site_type_symbol
_atom_site_label
_atom_site_fract_x
_atom_site_fract_y
_atom_site_fract_z
Si Si1 0.436027 0.218692 0.535026
Si Si2 0.180675 0.878918 0.846577
Si Si3 0.957545 0.872356 0.523669
Si Si4 0.829864 0.380820 0.877290
Si Si5 0.209609 0.314867 0.350368
Si Si6 0.394801 0.814586 0.227051
Si Si7 0.393148 0.453181 0.918630
O O1 0.667385 0.201691 0.465685
O O2 0.255549 0.213545 0.713034
O O3 0.476608 0.302853 0.444184
O O4 0.390777 0.134541 0.488301
O O5 0.091031 0.881567 0.779004
O O6 0.303504 0.784613 0.797006
O O7 0.367509 0.951640 0.751907
O O8 0.986660 0.880160 0.026140
O O9 0.009404 0.879705 0.614287
O O10 0.181872 0.872904 0.345605
O O11 0.855710 0.775766 0.560227
O O12 0.785993 0.940391 0.572319
O O13 0.678635 0.464997 0.977363
O O14 0.432916 0.344401 0.281721
#
# Coordination Sequence:
#
# PCOD9242961 Si02
#       7
#     4   4   4   4   4   4   4
#     4  10  20  36  60  80 111 148 181 234 279 330
#     4   9  20  36  56  80 110 144 186 230 270 336
#     4  11  20  34  59  85 112 142 184 234 286 322
#     4  10  20  36  59  79 111 156 191 220 277 332
#     4  11  20  35  59  86 112 138 187 236 288 327
#     4   9  19  36  53  85 112 135 181 235 279 333
#     4  10  20  39  54  83 113 150 193 228 264 341
#
# _framework density 22.121265999999999
#
# number of rings (size 3 to 8) (size 9 to 14) (size 15 to 20)
#    0.000    2.286    4.286    2.143    2.000    1.143 
#    0.000    2.857    0.000    0.857    0.000    0.000 
#    0.000    0.000    0.000    0.000    0.000    0.000 
#
# Total GULP energy -156222.933324 kJ/mol
# GULP energy per Si atom -5579.390476 kJ/mol
# Density = 2.207092 g / cm^3
# Si number density = 22.121266 Si / 1000 Ang^3
#
#
#
# Elastic Constant Matrix: (Units=GPa)
#
#
# Indices 1 2 3 4 5 6 
#
# 1 110.0911 8.1695 36.8253 0.0000 2.5781 0.0000
# 2 8.1695 37.6501 8.0133 0.0000 4.8694 0.0000
# 3 36.8253 8.0133 161.4588 0.0000 -2.4092 0.0000
# 4 0.0000 0.0000 0.0000 22.0666 0.0000 3.1987
# 5 2.5781 4.8694 -2.4092 0.0000 19.9006 0.0000
# 6 0.0000 0.0000 0.0000 3.1987 0.0000 21.2227
#
#
#
# Elastic Compliance Matrix: (Units=1/GPa)
#
#
# Indices 1 2 3 4 5 6 
#
# 1 0.009966 -0.001538 -0.002214 0.000000 -0.001183 0.000000
# 2 -0.001538 0.028016 -0.001141 0.000000 -0.006794 0.000000
# 3 -0.002214 -0.001141 0.006776 0.000000 0.001386 0.000000
# 4 0.000000 0.000000 0.000000 0.046330 0.000000 -0.006983
# 5 -0.001183 -0.006794 0.001386 0.000000 0.052233 0.000000
# 6 0.000000 0.000000 0.000000 -0.006983 0.000000 0.048172
#
#
# Mechanical properties :
#
#
# Convention : Reuss Voigt Hill
#
# Bulk Modulus (GPa) = 28.59561 46.13514 37.36538
# Shear Modulus (GPa) = 23.48128 29.71745 26.59936
#
# Velocity S-wave (km/s) = 3.26157 3.66920 3.47138
# Velocity P-wave (km/s) = 5.20947 6.23310 5.74413
#
# Compressibility (1/GPa) = 0.03497040
#
# Stress axis : x y z
#
# Youngs Moduli (GPa) = 100.34194 35.69442 147.58223
#
# Poissons Ratio (x) = 0.05491 0.32679
# Poissons Ratio (y) = 0.15435 0.16839
# Poissons Ratio (z) = 0.22219 0.04073
#
# Static dielectric constant tensor:
#      x y z
#    x 1.854890 0.000000 -0.015700 
#    y 0.000000 1.822980 0.000000 
#    z -0.015700 0.000000 1.868360 
# 
# From -- ./inp_files/26602.got.cif
#   From: 2010.05.17/outbox.cif.g08.bks.cpg/sg14_14_cif.got.tgz:26602.got - 2010.06.03 17:49:19.
