data_PCOD9242063
_publ_section_title
;
Structure prediction by ZEFSAII (Michael W. Deem and Ramdas Pophale) SiO2 
 PCOD9242063
Probable space group: P 21/C
;
_chemical_formula_sum "Si O2"
_cell_formula_units_Z 24
_cell_length_a 8.880750
_cell_length_b 9.953745
_cell_length_c 28.774634
_cell_angle_alpha 90.000000
_cell_angle_beta 30.067444
_cell_angle_gamma 90.000000
_cell_volume 1274.383733
_symmetry_space_group_name_H-M "P 21/C"
_symmetry_group_IT_number 14
_symmetry_cell_setting 'monoclinic'
loop_
_space_group_symop_operation_xyz
x,y,z
-x,1/2+y,1/2-z
-x,-y,-z
x,1/2-y,1/2+z
loop_
_atom_site_type_symbol
_atom_site_label
_atom_site_fract_x
_atom_site_fract_y
_atom_site_fract_z
Si Si1 0.820527 0.624320 0.993881
Si Si2 0.275709 0.122716 0.376405
Si Si3 0.841059 0.507593 0.841209
Si Si4 0.293422 0.227876 0.066931
Si Si5 0.931947 0.495734 0.710285
Si Si6 0.000733 0.735090 0.137928
O O1 0.815206 0.675847 0.048221
O O2 0.504233 0.545415 0.070651
O O3 0.830350 0.736620 0.951466
O O4 0.082920 0.514017 0.920181
O O5 0.193644 0.220242 0.356432
O O6 0.623692 0.085002 0.284674
O O7 0.829053 0.654127 0.866882
O O8 0.978459 0.506561 0.753124
O O9 0.004700 0.403088 0.831448
O O10 0.652423 0.240974 0.968725
O O11 0.188770 0.086898 0.115336
O O12 0.902796 0.642878 0.696491
#
# Coordination Sequence:
#
# PCOD9242063 Si02
#       6
#     4   4   4   4   4   4
#     4   9  18  36  60  79 103 149 198 228 260 342
#     4  10  20  36  57  83 109 147 194 230 274 333
#     4  10  19  39  61  82 107 157 196 223 270 348
#     4  11  20  39  59  83 114 155 188 230 282 342
#     4  11  25  34  56  90 124 138 184 249 291 317
#     4  11  21  39  60  85 113 154 190 230 284 341
#
# _framework density 18.832633000000001
#
# number of rings (size 3 to 8) (size 9 to 14) (size 15 to 20)
#    0.000    1.667    3.333    2.500    2.333    0.000 
#    0.000    0.833    0.000    0.000    0.000    0.000 
#    0.000    0.000    0.000    0.000    0.000    0.000 
#
# Total GULP energy -134059.190100 kJ/mol
# GULP energy per Si atom -5585.799588 kJ/mol
# Density = 1.878977 g / cm^3
# Si number density = 18.832633 Si / 1000 Ang^3
#
#
#
# Elastic Constant Matrix: (Units=GPa)
#
#
# Indices 1 2 3 4 5 6 
#
# 1 113.5343 15.0680 19.3668 0.0000 25.0838 0.0000
# 2 15.0680 32.7413 6.9846 0.0000 11.6886 0.0000
# 3 19.3668 6.9846 39.7418 0.0000 20.0368 0.0000
# 4 0.0000 0.0000 0.0000 13.7260 0.0000 5.9267
# 5 25.0838 11.6886 20.0368 0.0000 21.1967 0.0000
# 6 0.0000 0.0000 0.0000 5.9267 0.0000 3.3535
#
#
#
# Elastic Compliance Matrix: (Units=1/GPa)
#
#
# Indices 1 2 3 4 5 6 
#
# 1 0.012057 -0.000183 0.002482 0.000000 -0.016514 0.000000
# 2 -0.000183 0.039216 0.007624 0.000000 -0.028615 0.000000
# 3 0.002482 0.007624 0.050081 0.000000 -0.054482 0.000000
# 4 0.000000 0.000000 0.000000 0.307545 0.000000 -0.543531
# 5 -0.016514 -0.028615 -0.054482 0.000000 0.133999 0.000000
# 6 0.000000 0.000000 0.000000 -0.543531 0.000000 1.258793
#
#
# Mechanical properties :
#
#
# Convention : Reuss Voigt Hill
#
# Bulk Modulus (GPa) = 8.25076 29.87292 19.06184
# Shear Modulus (GPa) = 2.74387 17.29510 10.01948
#
# Velocity S-wave (km/s) = 1.20836 3.03373 2.30907
# Velocity P-wave (km/s) = 2.51743 5.30736 4.15365
#
# Compressibility (1/GPa) = 0.12120092
#
# Stress axis : x y z
#
# Youngs Moduli (GPa) = 82.93731 25.49994 19.96751
#
# Poissons Ratio (x) = 0.00467 -0.04957
# Poissons Ratio (y) = 0.01518 -0.15223
# Poissons Ratio (z) = -0.20588 -0.19441
#
# Static dielectric constant tensor:
#      x y z
#    x 1.648160 0.000000 0.012870 
#    y 0.000000 1.618840 0.000000 
#    z 0.012870 0.000000 1.648670 
# 
# From -- ./inp_files/39047.got.cif
#   From: 2010.05.17/outbox.cif.g08.bks.cpg/sg14_20_cif.got.tgz:39047.got - 2010.06.03 17:49:19.
