data_PCOD9242270
_publ_section_title
;
Structure prediction by ZEFSAII (Michael W. Deem and Ramdas Pophale) SiO2 
 PCOD9242270
Probable space group: P 21/C
;
_chemical_formula_sum "Si O2"
_cell_formula_units_Z 32
_cell_length_a 12.130170
_cell_length_b 15.705346
_cell_length_c 16.353740
_cell_angle_alpha 90.000000
_cell_angle_beta 152.852224
_cell_angle_gamma 90.000000
_cell_volume 1421.574516
_symmetry_space_group_name_H-M "P 21/C"
_symmetry_group_IT_number 14
_symmetry_cell_setting 'monoclinic'
loop_
_space_group_symop_operation_xyz
x,y,z
-x,1/2+y,1/2-z
-x,-y,-z
x,1/2-y,1/2+z
loop_
_atom_site_type_symbol
_atom_site_label
_atom_site_fract_x
_atom_site_fract_y
_atom_site_fract_z
Si Si1 0.790978 0.091395 0.314198
Si Si2 0.848282 0.892750 0.324345
Si Si3 0.016156 0.907152 0.968238
Si Si4 0.061478 0.656929 0.672933
Si Si5 0.581718 0.901268 0.553123
Si Si6 0.737921 0.935242 0.070524
Si Si7 0.066176 0.171737 0.345501
Si Si8 0.658061 0.376210 0.467035
O O1 0.900537 0.131500 0.468647
O O2 0.964366 0.119518 0.355192
O O3 0.798127 0.988980 0.323372
O O4 0.514091 0.111795 0.113344
O O5 0.846009 0.899550 0.225677
O O6 0.613480 0.843481 0.202085
O O7 0.774520 0.889980 0.754492
O O8 0.052637 0.845686 0.069648
O O9 0.246207 0.897780 0.059777
O O10 0.000000 0.000000 0.000000
O O11 0.929178 0.575501 0.624711
O O12 0.898675 0.734259 0.597575
O O13 0.335721 0.653983 0.887230
O O14 0.724005 0.876581 0.563927
O O15 0.500000 0.000000 0.500000
O O16 0.680853 0.035979 0.035689
O O17 0.853520 0.182948 0.138462
#
# Coordination Sequence:
#
# PCOD9242270 Si02
#       8
#     4   4   4   4   4   4   4   4
#     4  10  21  37  62  98 127 171 223 277 352 412
#     4  10  20  35  67  97 122 170 226 280 338 409
#     4  11  22  44  70 103 133 178 242 297 344 422
#     4  12  27  44  67 100 142 186 230 297 361 419
#     4  11  25  46  78 104 136 197 250 289 354 448
#     4  11  20  41  65  92 138 175 223 290 339 414
#     4  11  24  44  66  96 146 179 230 302 363 413
#     4  10  19  41  68  93 134 176 225 286 343 415
#
# _framework density 22.510251
#
# number of rings (size 3 to 8) (size 9 to 14) (size 15 to 20)
#    0.000    1.250    5.000    1.500    3.500    1.000 
#    6.750    0.000    0.000    0.000    0.000    0.000 
#    0.000    0.000    0.000    0.000    0.000    0.000 
#
# Total GULP energy -178687.913252 kJ/mol
# GULP energy per Si atom -5583.997289 kJ/mol
# Density = 2.245902 g / cm^3
# Si number density = 22.510251 Si / 1000 Ang^3
#
#
#
# Elastic Constant Matrix: (Units=GPa)
#
#
# Indices 1 2 3 4 5 6 
#
# 1 117.6688 11.2052 53.3912 0.0000 -14.1589 0.0000
# 2 11.2052 42.1150 6.1393 0.0000 1.4806 0.0000
# 3 53.3912 6.1393 121.8889 0.0000 -18.1157 0.0000
# 4 0.0000 0.0000 0.0000 10.8597 0.0000 2.9898
# 5 -14.1589 1.4806 -18.1157 0.0000 34.6125 0.0000
# 6 0.0000 0.0000 0.0000 2.9898 0.0000 23.1917
#
#
#
# Elastic Compliance Matrix: (Units=1/GPa)
#
#
# Indices 1 2 3 4 5 6 
#
# 1 0.010973 -0.002368 -0.004343 0.000000 0.002317 0.000000
# 2 -0.002368 0.024534 -0.000541 0.000000 -0.002301 0.000000
# 3 -0.004343 -0.000541 0.010706 0.000000 0.003850 0.000000
# 4 0.000000 0.000000 0.000000 0.095472 0.000000 -0.012308
# 5 0.002317 -0.002301 0.003850 0.000000 0.031953 0.000000
# 6 0.000000 0.000000 0.000000 -0.012308 0.000000 0.044706
#
#
# Mechanical properties :
#
#
# Convention : Reuss Voigt Hill
#
# Bulk Modulus (GPa) = 31.53519 47.01602 39.27561
# Shear Modulus (GPa) = 20.54087 27.79523 24.16805
#
# Velocity S-wave (km/s) = 3.02406 3.51776 3.28021
# Velocity P-wave (km/s) = 5.12181 6.11811 5.64200
#
# Compressibility (1/GPa) = 0.03171060
#
# Stress axis : x y z
#
# Youngs Moduli (GPa) = 91.12994 40.75937 93.40564
#
# Poissons Ratio (x) = 0.09652 0.40566
# Poissons Ratio (y) = 0.21579 0.05049
# Poissons Ratio (z) = 0.39578 0.02203
#
# Static dielectric constant tensor:
#      x y z
#    x 1.829920 0.000000 0.016950 
#    y 0.000000 1.926690 0.000000 
#    z 0.016950 0.000000 1.899430 
# 
# From -- ./inp_files/45460.got.cif
#   From: 2010.05.17/outbox.cif.g08.bks.cpg/sg14_23_cif.got.tgz:45460.got - 2010.06.03 17:49:19.
