data_PCOD9242054
_publ_section_title
;
Structure prediction by ZEFSAII (Michael W. Deem and Ramdas Pophale) SiO2 
 PCOD9242054
Probable space group: P 21/C
;
_chemical_formula_sum "Si O2"
_cell_formula_units_Z 20
_cell_length_a 7.163598
_cell_length_b 11.539043
_cell_length_c 12.674090
_cell_angle_alpha 90.000000
_cell_angle_beta 124.654866
_cell_angle_gamma 90.000000
_cell_volume 861.791859
_symmetry_space_group_name_H-M "P 21/C"
_symmetry_group_IT_number 14
_symmetry_cell_setting 'monoclinic'
loop_
_space_group_symop_operation_xyz
x,y,z
-x,1/2+y,1/2-z
-x,-y,-z
x,1/2-y,1/2+z
loop_
_atom_site_type_symbol
_atom_site_label
_atom_site_fract_x
_atom_site_fract_y
_atom_site_fract_z
Si Si1 0.055470 0.618673 0.708424
Si Si2 0.252526 0.390518 0.582276
Si Si3 0.581898 0.868530 0.416491
Si Si4 0.238553 0.315145 0.810802
Si Si5 0.657515 0.933814 0.218385
O O1 0.968694 0.599177 0.561877
O O2 0.984819 0.750321 0.718661
O O3 0.888836 0.542222 0.729017
O O4 0.318309 0.611304 0.812129
O O5 0.357996 0.266494 0.582922
O O6 0.203025 0.381123 0.690528
O O7 0.446143 0.485543 0.623388
O O8 0.654219 0.887509 0.560022
O O9 0.700466 0.936587 0.358062
O O10 0.391900 0.200777 0.830392
#
# Coordination Sequence:
#
# PCOD9242054 Si02
#       5
#     4   4   4   4   4
#     4   9  20  36  57  81 108 145 187 221 273 330
#     4  10  19  39  59  80 115 146 181 236 267 326
#     4  10  20  38  56  80 115 144 179 233 279 321
#     4   8  20  36  55  80 113 144 177 234 269 326
#     4   9  20  37  57  85 110 141 194 223 271 330
#
# _framework density 23.207460999999999
#
# number of rings (size 3 to 8) (size 9 to 14) (size 15 to 20)
#    1.200    1.600    0.000    0.600    0.000    4.800 
#    3.600    1.000    0.000    0.000    0.000    0.000 
#    0.000    0.000    0.000    0.000    0.000    0.000 
#
# Total GULP energy -111710.780627 kJ/mol
# GULP energy per Si atom -5585.539031 kJ/mol
# Density = 2.315464 g / cm^3
# Si number density = 23.207461 Si / 1000 Ang^3
#
#
#
# Elastic Constant Matrix: (Units=GPa)
#
#
# Indices 1 2 3 4 5 6 
#
# 1 99.0274 3.9168 82.9786 0.0000 -18.9214 0.0000
# 2 3.9168 70.9843 31.4947 0.0000 6.2704 0.0000
# 3 82.9786 31.4947 198.0040 0.0000 -37.8930 0.0000
# 4 0.0000 0.0000 0.0000 28.3402 0.0000 5.4245
# 5 -18.9214 6.2704 -37.8930 0.0000 31.1217 0.0000
# 6 0.0000 0.0000 0.0000 5.4245 0.0000 25.7219
#
#
#
# Elastic Compliance Matrix: (Units=1/GPa)
#
#
# Indices 1 2 3 4 5 6 
#
# 1 0.015906 0.002058 -0.006808 0.000000 0.000967 0.000000
# 2 0.002058 0.017034 -0.005201 0.000000 -0.008514 0.000000
# 3 -0.006808 -0.005201 0.010612 0.000000 0.009829 0.000000
# 4 0.000000 0.000000 0.000000 0.036770 0.000000 -0.007754
# 5 0.000967 -0.008514 0.009829 0.000000 0.046403 0.000000
# 6 0.000000 0.000000 0.000000 -0.007754 0.000000 0.040513
#
#
# Mechanical properties :
#
#
# Convention : Reuss Voigt Hill
#
# Bulk Modulus (GPa) = 42.28530 67.19954 54.74242
# Shear Modulus (GPa) = 25.63787 33.67846 29.65817
#
# Velocity S-wave (km/s) = 3.32735 3.81358 3.57873
# Velocity P-wave (km/s) = 5.74646 6.95774 6.38090
#
# Compressibility (1/GPa) = 0.02364888
#
# Stress axis : x y z
#
# Youngs Moduli (GPa) = 62.86760 58.70702 94.23307
#
# Poissons Ratio (x) = -0.12080 0.64157
# Poissons Ratio (y) = -0.12936 0.49011
# Poissons Ratio (z) = 0.42802 0.30534
#
# Static dielectric constant tensor:
#      x y z
#    x 1.855490 0.000000 -0.072730 
#    y 0.000000 1.940820 0.000000 
#    z -0.072730 0.000000 1.837130 
# 
# From -- ./inp_files/25073.got.cif
#   From: 2010.05.17/outbox.cif.g08.bks.cpg/sg14_13_cif.got.tgz:25073.got - 2010.06.03 17:49:19.
