data_PCOD9242114
_publ_section_title
;
Structure prediction by ZEFSAII (Michael W. Deem and Ramdas Pophale) SiO2 
 PCOD9242114
Probable space group: P 21/C
;
_chemical_formula_sum "Si O2"
_cell_formula_units_Z 26
_cell_length_a 5.133225
_cell_length_b 7.926755
_cell_length_c 26.247894
_cell_angle_alpha 90.000000
_cell_angle_beta 90.251087
_cell_angle_gamma 90.000000
_cell_volume 1068.011746
_symmetry_space_group_name_H-M "P 21/C"
_symmetry_group_IT_number 14
_symmetry_cell_setting 'monoclinic'
loop_
_space_group_symop_operation_xyz
x,y,z
-x,1/2+y,1/2-z
-x,-y,-z
x,1/2-y,1/2+z
loop_
_atom_site_type_symbol
_atom_site_label
_atom_site_fract_x
_atom_site_fract_y
_atom_site_fract_z
Si Si1 0.000000 0.500000 0.500000
Si Si2 0.999792 0.083770 0.661490
Si Si3 0.326242 0.212833 0.492832
Si Si4 0.023676 0.965487 0.882889
Si Si5 0.499454 0.338296 0.217699
Si Si6 0.796095 0.411570 0.936488
Si Si7 0.518157 0.041688 0.825626
O O1 0.255580 0.389768 0.515904
O O2 0.898465 0.484308 0.558847
O O3 0.983104 0.267634 0.633542
O O4 0.210870 0.093068 0.706654
O O5 0.714699 0.059159 0.685178
O O6 0.113876 0.954533 0.620027
O O7 0.574201 0.215258 0.456303
O O8 0.060612 0.149894 0.464424
O O9 0.337156 0.080763 0.539697
O O10 0.748258 0.043421 0.866530
O O11 0.240341 0.065517 0.850938
O O12 0.494461 0.147827 0.197432
O O13 0.567245 0.342508 0.276996
#
# Coordination Sequence:
#
# PCOD9242114 Si02
#       7
#     2   4   4   4   4   4   4
#     4  12  24  46  62 100 126 182 206 274 332 396
#     4  10  19  39  65  91 117 171 204 253 318 396
#     4  10  23  36  64  83 130 164 210 262 314 373
#     4  10  23  39  66  88 130 162 213 252 330 391
#     4  10  21  38  67  86 122 158 206 257 325 375
#     4  10  20  41  57  93 120 164 211 261 303 387
#     4  10  22  43  60  94 118 166 206 267 313 387
#
# _framework density 24.344301999999999
#
# number of rings (size 3 to 8) (size 9 to 14) (size 15 to 20)
#    0.000    1.846    1.538    1.846    0.000    3.692 
#    8.308    0.000    0.000    0.000    0.000    0.000 
#    0.000    0.000    0.000    0.000    0.000    0.000 
#
# Total GULP energy -144927.763667 kJ/mol
# GULP energy per Si atom -5574.144756 kJ/mol
# Density = 2.428889 g / cm^3
# Si number density = 24.344302 Si / 1000 Ang^3
#
#
#
# Elastic Constant Matrix: (Units=GPa)
#
#
# Indices 1 2 3 4 5 6 
#
# 1 187.4978 23.5685 -10.0961 0.0000 -37.1320 0.0000
# 2 23.5685 35.7977 -9.6770 0.0000 -21.8532 0.0000
# 3 -10.0961 -9.6770 100.1757 0.0000 -15.5596 0.0000
# 4 0.0000 0.0000 0.0000 29.4688 0.0000 -5.6560
# 5 -37.1320 -21.8532 -15.5596 0.0000 35.8138 0.0000
# 6 0.0000 0.0000 0.0000 -5.6560 0.0000 20.0313
#
#
#
# Elastic Compliance Matrix: (Units=1/GPa)
#
#
# Indices 1 2 3 4 5 6 
#
# 1 0.007115 0.001717 0.002350 0.000000 0.009445 0.000000
# 2 0.001717 0.054385 0.011643 0.000000 0.040024 0.000000
# 3 0.002350 0.011643 0.013754 0.000000 0.015517 0.000000
# 4 0.000000 0.000000 0.000000 0.035879 0.000000 0.010131
# 5 0.009445 0.040024 0.015517 0.000000 0.068879 0.000000
# 6 0.000000 0.000000 0.000000 0.010131 0.000000 0.052782
#
#
# Mechanical properties :
#
#
# Convention : Reuss Voigt Hill
#
# Bulk Modulus (GPa) = 9.37433 36.78468 23.07951
# Shear Modulus (GPa) = 21.10323 38.37449 29.73886
#
# Velocity S-wave (km/s) = 2.94745 3.97460 3.49892
# Velocity P-wave (km/s) = 3.92968 6.01716 5.08176
#
# Compressibility (1/GPa) = 0.10667434
#
# Stress axis : x y z
#
# Youngs Moduli (GPa) = 140.55566 18.38746 72.70532
#
# Poissons Ratio (x) = -0.03157 -0.17086
# Poissons Ratio (y) = -0.24135 -0.84653
# Poissons Ratio (z) = -0.33030 -0.21409
#
# Static dielectric constant tensor:
#      x y z
#    x 1.849220 0.000000 -0.010520 
#    y 0.000000 2.162140 0.000000 
#    z -0.010520 0.000000 1.903600 
# 
# From -- ./inp_files/71059.got.cif
#   From: 2010.05.17/outbox.cif.g08.bks.cpg/sg14_36_cif.got.tgz:71059.got - 2010.06.03 17:49:19.
