data_PCOD9242676
_publ_section_title
;
Structure prediction by ZEFSAII (Michael W. Deem and Ramdas Pophale) SiO2 
 PCOD9242676
Probable space group: P 21/C
;
_chemical_formula_sum "Si O2"
_cell_formula_units_Z 32
_cell_length_a 7.758171
_cell_length_b 19.879748
_cell_length_c 12.147921
_cell_angle_alpha 90.000000
_cell_angle_beta 125.694951
_cell_angle_gamma 90.000000
_cell_volume 1521.599582
_symmetry_space_group_name_H-M "P 21/C"
_symmetry_group_IT_number 14
_symmetry_cell_setting 'monoclinic'
loop_
_space_group_symop_operation_xyz
x,y,z
-x,1/2+y,1/2-z
-x,-y,-z
x,1/2-y,1/2+z
loop_
_atom_site_type_symbol
_atom_site_label
_atom_site_fract_x
_atom_site_fract_y
_atom_site_fract_z
Si Si1 0.151697 0.646451 0.639529
Si Si2 0.445183 0.234699 0.743674
Si Si3 0.675151 0.138657 0.243089
Si Si4 0.942415 0.102758 0.137709
Si Si5 0.827593 0.028364 0.694339
Si Si6 0.923088 0.785947 0.520125
Si Si7 0.405442 0.544666 0.097502
Si Si8 0.355106 0.173288 0.385970
O O1 0.388053 0.677533 0.723292
O O2 0.113567 0.606915 0.511074
O O3 0.114678 0.599319 0.730451
O O4 0.001771 0.711893 0.581229
O O5 0.501604 0.302156 0.692960
O O6 0.200268 0.214244 0.640097
O O7 0.470329 0.262913 0.876084
O O8 0.755658 0.127294 0.149653
O O9 0.614828 0.070648 0.285409
O O10 0.877132 0.166426 0.387826
O O11 0.148481 0.149764 0.238393
O O12 0.014139 0.029035 0.203928
O O13 0.797748 0.023803 0.550796
O O14 0.594150 0.008757 0.655446
O O15 0.737836 0.810548 0.531431
O O16 0.488422 0.610741 0.062878
#
# Coordination Sequence:
#
# PCOD9242676 Si02
#       8
#     4   4   4   4   4   4   4   4
#     4  11  22  36  55  88 116 149 190 225 283 349
#     4  10  20  35  56  83 113 145 181 235 286 333
#     4   9  21  37  59  83 108 151 185 239 284 329
#     4  10  20  38  56  79 118 149 186 226 284 333
#     4  10  21  37  59  81 110 156 188 237 273 327
#     4  10  20  35  57  86 113 143 186 233 286 332
#     4   9  19  39  61  82 108 145 204 231 275 333
#     4   9  18  35  58  81 109 147 180 237 285 326
#
# _framework density 21.0305
#
# number of rings (size 3 to 8) (size 9 to 14) (size 15 to 20)
#    0.000    2.250    1.250    1.125    1.750    2.500 
#    6.750    1.875    0.000    0.000    0.000    0.000 
#    0.000    0.000    0.000    0.000    0.000    0.000 
#
# Total GULP energy -178505.010764 kJ/mol
# GULP energy per Si atom -5578.281586 kJ/mol
# Density = 2.098263 g / cm^3
# Si number density = 21.030500 Si / 1000 Ang^3
#
#
#
# Elastic Constant Matrix: (Units=GPa)
#
#
# Indices 1 2 3 4 5 6 
#
# 1 35.3216 -11.2096 -12.3669 0.0000 -4.0539 0.0000
# 2 -11.2096 30.5485 -4.5180 0.0000 3.4626 0.0000
# 3 -12.3669 -4.5180 49.3697 0.0000 10.7501 0.0000
# 4 0.0000 0.0000 0.0000 24.0308 0.0000 -5.2360
# 5 -4.0539 3.4626 10.7501 0.0000 19.9985 0.0000
# 6 0.0000 0.0000 0.0000 -5.2360 0.0000 18.3349
#
#
#
# Elastic Compliance Matrix: (Units=1/GPa)
#
#
# Indices 1 2 3 4 5 6 
#
# 1 0.036823 0.015227 0.010834 0.000000 -0.000996 0.000000
# 2 0.015227 0.040761 0.009524 0.000000 -0.009091 0.000000
# 3 0.010834 0.009524 0.026866 0.000000 -0.013895 0.000000
# 4 0.000000 0.000000 0.000000 0.044374 0.000000 0.012672
# 5 -0.000996 -0.009091 -0.013895 0.000000 0.058845 0.000000
# 6 0.000000 0.000000 0.000000 0.012672 0.000000 0.058160
#
#
# Mechanical properties :
#
#
# Convention : Reuss Voigt Hill
#
# Bulk Modulus (GPa) = 5.69404 6.56119 6.12762
# Shear Modulus (GPa) = 19.74730 22.02845 20.88788
#
# Velocity S-wave (km/s) = 3.06761 3.23995 3.15496
# Velocity P-wave (km/s) = 3.90645 4.13799 4.02389
#
# Compressibility (1/GPa) = 0.17562212
#
# Stress axis : x y z
#
# Youngs Moduli (GPa) = 27.15708 24.53299 37.22116
#
# Poissons Ratio (x) = -0.37357 -0.40327
# Poissons Ratio (y) = -0.41353 -0.35450
# Poissons Ratio (z) = -0.29423 -0.23365
#
# Static dielectric constant tensor:
#      x y z
#    x 1.739240 0.000000 0.007120 
#    y 0.000000 1.760120 0.000000 
#    z 0.007120 0.000000 1.802470 
# 
# From -- ./inp_files/26784.got.cif
#   From: 2010.05.17/outbox.cif.g08.bks.cpg/sg14_14_cif.got.tgz:26784.got - 2010.06.03 17:49:19.
