data_PCOD9242760
_publ_section_title
;
Structure prediction by ZEFSAII (Michael W. Deem and Ramdas Pophale) SiO2 
 PCOD9242760
Probable space group: P 21/C
;
_chemical_formula_sum "Si O2"
_cell_formula_units_Z 32
_cell_length_a 21.254696
_cell_length_b 8.352924
_cell_length_c 17.355144
_cell_angle_alpha 90.000000
_cell_angle_beta 154.445029
_cell_angle_gamma 90.000000
_cell_volume 1329.163772
_symmetry_space_group_name_H-M "P 21/C"
_symmetry_group_IT_number 14
_symmetry_cell_setting 'monoclinic'
loop_
_space_group_symop_operation_xyz
x,y,z
-x,1/2+y,1/2-z
-x,-y,-z
x,1/2-y,1/2+z
loop_
_atom_site_type_symbol
_atom_site_label
_atom_site_fract_x
_atom_site_fract_y
_atom_site_fract_z
Si Si1 0.412593 0.648533 0.501714
Si Si2 0.040889 0.510369 0.352653
Si Si3 0.590055 0.323948 0.685061
Si Si4 0.848684 0.314207 0.246524
Si Si5 0.689484 0.834492 0.801288
Si Si6 0.034046 0.271933 0.100098
Si Si7 0.132491 0.491298 0.992307
Si Si8 0.670614 0.619961 0.102377
O O1 0.485027 0.475468 0.583868
O O2 0.384442 0.684352 0.379442
O O3 0.262243 0.667381 0.380530
O O4 0.535616 0.775633 0.664327
O O5 0.948300 0.362913 0.286050
O O6 0.971788 0.540406 0.194235
O O7 0.208194 0.454471 0.538822
O O8 0.009798 0.654883 0.377306
O O9 0.491323 0.173877 0.600727
O O10 0.744784 0.373267 0.891168
O O11 0.954567 0.295611 0.436690
O O12 0.739950 0.463162 0.142117
O O13 0.667661 0.901953 0.691330
O O14 0.777399 0.667014 0.887941
O O15 0.965316 0.441524 0.046554
O O16 0.207121 0.255795 0.280208
#
# Coordination Sequence:
#
# PCOD9242760 Si02
#       8
#     4   4   4   4   4   4   4   4
#     4   9  19  34  58  84 112 142 187 239 275 327
#     4  11  22  40  55  82 119 150 185 232 285 337
#     4   9  19  36  53  84 115 144 183 229 287 330
#     4  11  20  37  59  87 109 148 193 233 276 328
#     4  10  20  37  57  86 113 146 187 235 283 328
#     4  11  21  38  59  86 111 148 192 231 278 333
#     4  11  23  37  58  81 117 154 183 228 289 344
#     4  10  20  35  59  85 114 140 189 243 272 327
#
# _framework density 24.075286999999999
#
# number of rings (size 3 to 8) (size 9 to 14) (size 15 to 20)
#    0.000    1.750    3.750    2.250    0.000    4.500 
#    0.000    6.250    0.000    0.000    0.000    0.000 
#    0.000    0.000    0.000    0.000    0.000    0.000 
#
# Total GULP energy -179114.298385 kJ/mol
# GULP energy per Si atom -5597.321825 kJ/mol
# Density = 2.402049 g / cm^3
# Si number density = 24.075287 Si / 1000 Ang^3
#
#
#
# Elastic Constant Matrix: (Units=GPa)
#
#
# Indices 1 2 3 4 5 6 
#
# 1 32.7133 19.3222 22.1573 0.0000 9.3065 0.0000
# 2 19.3222 51.3879 36.5855 0.0000 6.8486 0.0000
# 3 22.1573 36.5855 114.4912 0.0000 20.9223 0.0000
# 4 0.0000 0.0000 0.0000 32.0670 0.0000 35.5598
# 5 9.3065 6.8486 20.9223 0.0000 37.8661 0.0000
# 6 0.0000 0.0000 0.0000 35.5598 0.0000 14.2948
#
#
#
# Elastic Compliance Matrix: (Units=1/GPa)
#
#
# Indices 1 2 3 4 5 6 
#
# 1 0.041923 -0.012902 -0.002819 0.000000 -0.006413 0.000000
# 2 -0.012902 0.029162 -0.007160 0.000000 0.001853 0.000000
# 3 -0.002819 -0.007160 0.012463 0.000000 -0.004898 0.000000
# 4 0.000000 0.000000 0.000000 -0.017733 0.000000 0.044113
# 5 -0.006413 0.001853 -0.004898 0.000000 0.030356 0.000000
# 6 0.000000 0.000000 0.000000 0.044113 0.000000 -0.039780
#
#
# Mechanical properties :
#
#
# Convention : Reuss Voigt Hill
#
# Bulk Modulus (GPa) = 26.46497 39.41359 32.93928
# Shear Modulus (GPa) = 43.57401 24.88075 34.22738
#
# Velocity S-wave (km/s) = 4.25891 3.21823 3.77461
# Velocity P-wave (km/s) = 5.93304 5.49689 5.71912
#
# Compressibility (1/GPa) = 0.03778580
#
# Stress axis : x y z
#
# Youngs Moduli (GPa) = 23.85352 34.29132 80.23742
#
# Poissons Ratio (x) = 0.44242 0.22615
# Poissons Ratio (y) = 0.30776 0.57453
# Poissons Ratio (z) = 0.06723 0.24554
#
# Static dielectric constant tensor:
#      x y z
#    x 1.867360 0.000000 0.033000 
#    y 0.000000 2.025620 0.000000 
#    z 0.033000 0.000000 1.900870 
# 
# From -- ./inp_files/70527.got.cif
#   From: 2010.05.17/outbox.cif.g08.bks.cpg/sg14_36_cif.got.tgz:70527.got - 2010.06.03 17:49:19.
