data_PCOD9242673
_publ_section_title
;
Structure prediction by ZEFSAII (Michael W. Deem and Ramdas Pophale) SiO2 
 PCOD9242673
Probable space group: P 21/C
;
_chemical_formula_sum "Si O2"
_cell_formula_units_Z 20
_cell_length_a 13.858230
_cell_length_b 8.186848
_cell_length_c 19.359647
_cell_angle_alpha 90.000000
_cell_angle_beta 155.242363
_cell_angle_gamma 90.000000
_cell_volume 919.832327
_symmetry_space_group_name_H-M "P 21/C"
_symmetry_group_IT_number 14
_symmetry_cell_setting 'monoclinic'
loop_
_space_group_symop_operation_xyz
x,y,z
-x,1/2+y,1/2-z
-x,-y,-z
x,1/2-y,1/2+z
loop_
_atom_site_type_symbol
_atom_site_label
_atom_site_fract_x
_atom_site_fract_y
_atom_site_fract_z
Si Si1 0.748111 0.241095 0.505265
Si Si2 0.744851 0.778403 0.647585
Si Si3 0.592202 0.464419 0.158987
Si Si4 0.673286 0.921410 0.232499
Si Si5 0.109052 0.738548 0.061264
O O1 0.586564 0.397935 0.411737
O O2 0.807042 0.221015 0.463133
O O3 0.990941 0.257607 0.702451
O O4 0.596444 0.089506 0.433199
O O5 0.557542 0.812756 0.467614
O O6 0.686587 0.629021 0.660958
O O7 0.719792 0.940149 0.679825
O O8 0.781157 0.398959 0.334681
O O9 0.834691 0.788107 0.377879
O O10 0.790301 0.090069 0.328060
#
# Coordination Sequence:
#
# PCOD9242673 Si02
#       5
#     4   4   4   4   4
#     4  10  20  36  56  82 112 143 185 229 272 325
#     4   9  21  39  55  80 114 145 184 227 272 329
#     4  10  21  38  59  81 110 150 185 222 277 329
#     4   9  20  36  54  81 113 144 182 229 273 322
#     4  10  20  35  56  82 111 144 184 227 274 326
#
# _framework density 21.743091
#
# number of rings (size 3 to 8) (size 9 to 14) (size 15 to 20)
#    0.000    2.400    0.000    1.200    0.000   11.200 
#    0.000   20.000    0.000    0.000    0.000    0.000 
#    0.000    0.000    0.000    0.000    0.000    0.000 
#
# Total GULP energy -111684.098441 kJ/mol
# GULP energy per Si atom -5584.204922 kJ/mol
# Density = 2.169360 g / cm^3
# Si number density = 21.743091 Si / 1000 Ang^3
#
#
#
# Elastic Constant Matrix: (Units=GPa)
#
#
# Indices 1 2 3 4 5 6 
#
# 1 26.4000 -6.5851 22.9903 0.0000 9.5314 0.0000
# 2 -6.5851 44.6743 28.5658 0.0000 -1.0751 0.0000
# 3 22.9903 28.5658 132.4374 0.0000 8.7771 0.0000
# 4 0.0000 0.0000 0.0000 42.5475 0.0000 -7.1044
# 5 9.5314 -1.0751 8.7771 0.0000 34.4571 0.0000
# 6 0.0000 0.0000 0.0000 -7.1044 0.0000 15.8864
#
#
#
# Elastic Compliance Matrix: (Units=1/GPa)
#
#
# Indices 1 2 3 4 5 6 
#
# 1 0.057329 0.016249 -0.012653 0.000000 -0.012128 0.000000
# 2 0.016249 0.030748 -0.009377 0.000000 -0.001147 0.000000
# 3 -0.012653 -0.009377 0.011756 0.000000 0.000213 0.000000
# 4 0.000000 0.000000 0.000000 0.025400 0.000000 0.011359
# 5 -0.012128 -0.001147 0.000213 0.000000 0.032286 0.000000
# 6 0.000000 0.000000 0.000000 0.011359 0.000000 0.068027
#
#
# Mechanical properties :
#
#
# Convention : Reuss Voigt Hill
#
# Bulk Modulus (GPa) = 11.32869 32.60596 21.96732
# Shear Modulus (GPa) = 18.75958 29.14759 23.95359
#
# Velocity S-wave (km/s) = 2.94050 3.66532 3.32273
# Velocity P-wave (km/s) = 4.09271 5.73945 4.98456
#
# Compressibility (1/GPa) = 0.08827149
#
# Stress axis : x y z
#
# Youngs Moduli (GPa) = 17.44304 32.52289 85.06570
#
# Poissons Ratio (x) = -0.52847 1.07635
# Poissons Ratio (y) = -0.28344 0.79764
# Poissons Ratio (z) = 0.22071 0.30496
#
# Static dielectric constant tensor:
#      x y z
#    x 1.770960 0.000000 -0.016590 
#    y 0.000000 1.846000 0.000000 
#    z -0.016590 0.000000 1.795230 
# 
# From -- ./inp_files/23041.got.cif
#   From: 2010.05.17/outbox.cif.g08.bks.cpg/sg14_12_cif.got.tgz:23041.got - 2010.06.03 17:49:19.
