data_PCOD9242031
_publ_section_title
;
Structure prediction by ZEFSAII (Michael W. Deem and Ramdas Pophale) SiO2 
 PCOD9242031
Probable space group: P 21/C
;
_chemical_formula_sum "Si O2"
_cell_formula_units_Z 32
_cell_length_a 12.669386
_cell_length_b 11.486796
_cell_length_c 9.409959
_cell_angle_alpha 90.000000
_cell_angle_beta 97.373434
_cell_angle_gamma 90.000000
_cell_volume 1358.113284
_symmetry_space_group_name_H-M "P 21/C"
_symmetry_group_IT_number 14
_symmetry_cell_setting 'monoclinic'
loop_
_space_group_symop_operation_xyz
x,y,z
-x,1/2+y,1/2-z
-x,-y,-z
x,1/2-y,1/2+z
loop_
_atom_site_type_symbol
_atom_site_label
_atom_site_fract_x
_atom_site_fract_y
_atom_site_fract_z
Si Si1 0.112233 0.645258 0.501132
Si Si2 0.339228 0.766369 0.088923
Si Si3 0.823106 0.697653 0.287480
Si Si4 0.763143 0.031004 0.329045
Si Si5 0.555028 0.147469 0.638855
Si Si6 0.654139 0.595963 0.056189
Si Si7 0.170737 0.094463 0.904308
Si Si8 0.036522 0.824499 0.697836
O O1 0.231013 0.659939 0.581460
O O2 0.100143 0.511376 0.453521
O O3 0.033854 0.713998 0.592268
O O4 0.099439 0.713710 0.350791
O O5 0.311002 0.641015 0.150699
O O6 0.433240 0.823765 0.194579
O O7 0.371172 0.737327 0.934734
O O8 0.808220 0.671180 0.451391
O O9 0.923758 0.628184 0.235863
O O10 0.715272 0.667606 0.186476
O O11 0.858427 0.824826 0.236500
O O12 0.884551 0.079080 0.354366
O O13 0.738662 0.943727 0.452139
O O14 0.740325 0.980223 0.167706
O O15 0.439782 0.156379 0.548212
O O16 0.601225 0.018566 0.617510
#
# Coordination Sequence:
#
# PCOD9242031 Si02
#       8
#     4   4   4   4   4   4   4   4
#     4  10  21  41  66  93 124 157 203 257 306 362
#     4  10  19  38  67  95 119 153 205 258 309 363
#     4  12  25  39  58  87 125 168 207 243 298 368
#     4   9  21  41  63  90 123 154 202 262 306 363
#     4  10  21  39  64  90 119 158 203 256 312 360
#     4  10  23  42  61  88 125 162 204 253 305 364
#     4  11  24  41  61  86 126 168 204 248 300 357
#     4  10  22  38  62  93 121 157 202 251 308 366
#
# _framework density 23.562100000000001
#
# number of rings (size 3 to 8) (size 9 to 14) (size 15 to 20)
#    0.000    1.750    0.000    4.500    0.000    9.000 
#    0.000    1.250    0.000    9.000    0.000    0.000 
#    0.000    0.000    0.000    0.000    0.000    0.000 
#
# Total GULP energy -178500.206812 kJ/mol
# GULP energy per Si atom -5578.131463 kJ/mol
# Density = 2.350847 g / cm^3
# Si number density = 23.562100 Si / 1000 Ang^3
#
#
#
# Elastic Constant Matrix: (Units=GPa)
#
#
# Indices 1 2 3 4 5 6 
#
# 1 24.6425 10.9156 4.4670 0.0000 13.9148 0.0000
# 2 10.9156 71.5502 34.5260 0.0000 -13.0533 0.0000
# 3 4.4670 34.5260 96.7006 0.0000 -10.4609 0.0000
# 4 0.0000 0.0000 0.0000 37.9622 0.0000 -3.6148
# 5 13.9148 -13.0533 -10.4609 0.0000 40.4947 0.0000
# 6 0.0000 0.0000 0.0000 -3.6148 0.0000 17.1544
#
#
#
# Elastic Compliance Matrix: (Units=1/GPa)
#
#
# Indices 1 2 3 4 5 6 
#
# 1 0.061245 -0.013673 -0.000721 0.000000 -0.025639 0.000000
# 2 -0.013673 0.020591 -0.005652 0.000000 0.009876 0.000000
# 3 -0.000721 -0.005652 0.012574 0.000000 0.001674 0.000000
# 4 0.000000 0.000000 0.000000 0.026881 0.000000 0.005664
# 5 -0.025639 0.009876 0.001674 0.000000 0.037120 0.000000
# 6 0.000000 0.000000 0.000000 0.005664 0.000000 0.059488
#
#
# Mechanical properties :
#
#
# Convention : Reuss Voigt Hill
#
# Bulk Modulus (GPa) = 18.41017 32.52340 25.46679
# Shear Modulus (GPa) = 18.10964 28.65458 23.38211
#
# Velocity S-wave (km/s) = 2.77536 3.49109 3.15359
# Velocity P-wave (km/s) = 4.25448 5.48484 4.90836
#
# Compressibility (1/GPa) = 0.05431779
#
# Stress axis : x y z
#
# Youngs Moduli (GPa) = 16.32797 48.56470 79.53204
#
# Poissons Ratio (x) = 0.66402 0.05734
# Poissons Ratio (y) = 0.22325 0.44951
# Poissons Ratio (z) = 0.01177 0.27448
#
# Static dielectric constant tensor:
#      x y z
#    x 1.938510 0.000000 -0.005160 
#    y 0.000000 1.987800 0.000000 
#    z -0.005160 0.000000 1.878950 
# 
# From -- ./inp_files/15844.got.cif
#   From: 2010.05.17/outbox.cif.g08.bks.cpg/sg14_8_cif.got.tgz:15844.got - 2010.06.03 17:49:19.
