data_PCOD9242982
_publ_section_title
;
Structure prediction by ZEFSAII (Michael W. Deem and Ramdas Pophale) SiO2 
 PCOD9242982
Probable space group: P 21/C
;
_chemical_formula_sum "Si O2"
_cell_formula_units_Z 32
_cell_length_a 12.190065
_cell_length_b 26.397461
_cell_length_c 5.063958
_cell_angle_alpha 90.000000
_cell_angle_beta 96.710497
_cell_angle_gamma 90.000000
_cell_volume 1618.351280
_symmetry_space_group_name_H-M "P 21/C"
_symmetry_group_IT_number 14
_symmetry_cell_setting 'monoclinic'
loop_
_space_group_symop_operation_xyz
x,y,z
-x,1/2+y,1/2-z
-x,-y,-z
x,1/2-y,1/2+z
loop_
_atom_site_type_symbol
_atom_site_label
_atom_site_fract_x
_atom_site_fract_y
_atom_site_fract_z
Si Si1 0.492752 0.063620 0.258078
Si Si2 0.961712 0.395738 0.094196
Si Si3 0.149811 0.940987 0.926479
Si Si4 0.294900 0.281953 0.333199
Si Si5 0.969216 0.783135 0.260006
Si Si6 0.388707 0.390482 0.245775
Si Si7 0.329623 0.975512 0.320069
Si Si8 0.177996 0.042515 0.635326
O O1 0.428359 0.095970 0.463836
O O2 0.611178 0.051588 0.417385
O O3 0.424538 0.010866 0.223449
O O4 0.480618 0.091577 0.979026
O O5 0.928618 0.423039 0.358017
O O6 0.975950 0.336470 0.155395
O O7 0.076950 0.421211 0.033747
O O8 0.874559 0.407462 0.838271
O O9 0.136580 0.998805 0.821595
O O10 0.270728 0.939938 0.093083
O O11 0.319449 0.262752 0.633328
O O12 0.163374 0.291842 0.271848
O O13 0.358844 0.332381 0.275408
O O14 0.996269 0.740243 0.483517
O O15 0.278199 0.423447 0.274588
O O16 0.233825 0.011776 0.410514
#
# Coordination Sequence:
#
# PCOD9242982 Si02
#       8
#     4   4   4   4   4   4   4   4
#     4  10  23  36  60  81 116 157 199 238 280 345
#     4  12  25  37  59  88 118 163 197 229 300 353
#     4  12  24  38  55  86 123 162 197 235 276 347
#     4  10  20  36  59  85 117 147 187 243 303 356
#     4  10  21  40  59  84 114 150 194 248 290 344
#     4  11  21  37  59  88 115 158 194 234 297 352
#     4  10  23  39  56  83 119 160 200 237 279 326
#     4  11  23  38  56  84 130 160 194 229 280 352
#
# _framework density 19.773211
#
# number of rings (size 3 to 8) (size 9 to 14) (size 15 to 20)
#    0.000    1.250    3.750    2.250    3.500    1.500 
#    0.000    0.000    0.000    0.000    0.000   17.500 
#    0.000    0.000    0.000    0.000    0.000    0.000 
#
# Total GULP energy -178893.916156 kJ/mol
# GULP energy per Si atom -5590.434880 kJ/mol
# Density = 1.972821 g / cm^3
# Si number density = 19.773211 Si / 1000 Ang^3
#
#
#
# Elastic Constant Matrix: (Units=GPa)
#
#
# Indices 1 2 3 4 5 6 
#
# 1 40.5987 21.8048 16.5146 0.0000 0.7782 0.0000
# 2 21.8048 69.1119 3.0388 0.0000 10.6472 0.0000
# 3 16.5146 3.0388 78.3739 0.0000 8.1715 0.0000
# 4 0.0000 0.0000 0.0000 18.9321 0.0000 2.4824
# 5 0.7782 10.6472 8.1715 0.0000 33.4531 0.0000
# 6 0.0000 0.0000 0.0000 2.4824 0.0000 24.1294
#
#
#
# Elastic Compliance Matrix: (Units=1/GPa)
#
#
# Indices 1 2 3 4 5 6 
#
# 1 0.033243 -0.010857 -0.007043 0.000000 0.004402 0.000000
# 2 -0.010857 0.018762 0.002213 0.000000 -0.006259 0.000000
# 3 -0.007043 0.002213 0.014585 0.000000 -0.004103 0.000000
# 4 0.000000 0.000000 0.000000 0.053542 0.000000 -0.005508
# 5 0.004402 -0.006259 -0.004103 0.000000 0.032785 0.000000
# 6 0.000000 0.000000 0.000000 -0.005508 0.000000 0.042010
#
#
# Mechanical properties :
#
#
# Convention : Reuss Voigt Hill
#
# Bulk Modulus (GPa) = 28.39586 30.08900 29.24243
# Shear Modulus (GPa) = 21.00499 25.08468 23.04483
#
# Velocity S-wave (km/s) = 3.26282 3.56563 3.41758
# Velocity P-wave (km/s) = 5.34665 5.67466 5.51309
#
# Compressibility (1/GPa) = 0.03521640
#
# Stress axis : x y z
#
# Youngs Moduli (GPa) = 30.08177 53.30052 68.56181
#
# Poissons Ratio (x) = 0.57866 0.48287
# Poissons Ratio (y) = 0.32659 -0.15172
# Poissons Ratio (z) = 0.21186 -0.11794
#
# Static dielectric constant tensor:
#      x y z
#    x 1.726550 0.000000 -0.011140 
#    y 0.000000 1.666770 0.000000 
#    z -0.011140 0.000000 1.718050 
# 
# From -- ./inp_files/3228.got.cif
#   From: 2010.05.17/outbox.cif.g08.bks.cpg/sg14_2_cif.got.tgz:3228.got - 2010.06.03 17:49:19.
