data_PCOD9242662
_publ_section_title
;
Structure prediction by ZEFSAII (Michael W. Deem and Ramdas Pophale) SiO2 
 PCOD9242662
Probable space group: P 21/C
;
_chemical_formula_sum "Si O2"
_cell_formula_units_Z 28
_cell_length_a 21.148391
_cell_length_b 12.073345
_cell_length_c 11.298274
_cell_angle_alpha 90.000000
_cell_angle_beta 157.914774
_cell_angle_gamma 90.000000
_cell_volume 1084.645846
_symmetry_space_group_name_H-M "P 21/C"
_symmetry_group_IT_number 14
_symmetry_cell_setting 'monoclinic'
loop_
_space_group_symop_operation_xyz
x,y,z
-x,1/2+y,1/2-z
-x,-y,-z
x,1/2-y,1/2+z
loop_
_atom_site_type_symbol
_atom_site_label
_atom_site_fract_x
_atom_site_fract_y
_atom_site_fract_z
Si Si1 0.003480 0.681808 0.595937
Si Si2 0.929631 0.680392 0.743204
Si Si3 0.434823 0.868144 0.254800
Si Si4 0.606079 0.047999 0.053538
Si Si5 0.769117 0.477594 0.145807
Si Si6 0.750291 0.031904 0.864444
Si Si7 0.608346 0.675492 0.639412
O O1 0.000998 0.706553 0.732751
O O2 0.007302 0.777542 0.502430
O O3 0.842589 0.601692 0.288404
O O4 0.149796 0.595783 0.815322
O O5 0.884746 0.549862 0.657781
O O6 0.749096 0.742744 0.431953
O O7 0.318145 0.876598 0.166352
O O8 0.518026 0.748673 0.382300
O O9 0.331791 0.903997 0.961018
O O10 0.588353 0.954177 0.547682
O O11 0.427430 0.987286 0.715269
O O12 0.534372 0.143188 0.013225
O O13 0.699631 0.939297 0.262384
O O14 0.812851 0.423108 0.347690
#
# Coordination Sequence:
#
# PCOD9242662 Si02
#       7
#     4   4   4   4   4   4   4
#     4  10  20  36  62  81 111 155 204 250 283 352
#     4  10  20  35  61  89 109 156 206 245 295 351
#     4   9  18  32  54  81 114 151 186 237 293 353
#     4  10  20  35  55  87 117 156 187 246 302 357
#     4   9  18  37  56  77 114 155 196 236 300 349
#     4   8  17  32  53  83 111 147 192 241 288 352
#     4  10  21  33  55  85 121 147 196 239 303 363
#
# _framework density 25.814878
#
# number of rings (size 3 to 8) (size 9 to 14) (size 15 to 20)
#    0.000    2.571    1.429    0.857    2.000    3.429 
#    2.571    0.000    0.000    7.714    0.000    0.000 
#    0.000    0.000    0.000    0.000    0.000    0.000 
#
# Total GULP energy -156321.962009 kJ/mol
# GULP energy per Si atom -5582.927215 kJ/mol
# Density = 2.575612 g / cm^3
# Si number density = 25.814878 Si / 1000 Ang^3
#
#
#
# Elastic Constant Matrix: (Units=GPa)
#
#
# Indices 1 2 3 4 5 6 
#
# 1 129.3841 25.9393 1.6286 0.0000 -6.4271 0.0000
# 2 25.9393 77.5768 17.8519 0.0000 -8.5059 0.0000
# 3 1.6286 17.8519 43.9598 0.0000 -7.1439 0.0000
# 4 0.0000 0.0000 0.0000 26.9821 0.0000 -0.0301
# 5 -6.4271 -8.5059 -7.1439 0.0000 23.6536 0.0000
# 6 0.0000 0.0000 0.0000 -0.0301 0.0000 37.4235
#
#
#
# Elastic Compliance Matrix: (Units=1/GPa)
#
#
# Indices 1 2 3 4 5 6 
#
# 1 0.008371 -0.002883 0.001117 0.000000 0.001575 0.000000
# 2 -0.002883 0.015500 -0.005689 0.000000 0.003072 0.000000
# 3 0.001117 -0.005689 0.026010 0.000000 0.006114 0.000000
# 4 0.000000 0.000000 0.000000 0.037062 0.000000 0.000030
# 5 0.001575 0.003072 0.006114 0.000000 0.045656 0.000000
# 6 0.000000 0.000000 0.000000 0.000030 0.000000 0.026721
#
#
# Mechanical properties :
#
#
# Convention : Reuss Voigt Hill
#
# Bulk Modulus (GPa) = 28.59462 37.97338 33.28400
# Shear Modulus (GPa) = 26.89785 31.31190 29.10488
#
# Velocity S-wave (km/s) = 3.23143 3.48651 3.36139
# Velocity P-wave (km/s) = 5.00237 5.56322 5.29023
#
# Compressibility (1/GPa) = 0.03497162
#
# Stress axis : x y z
#
# Youngs Moduli (GPa) = 119.45757 64.51412 38.44636
#
# Poissons Ratio (x) = 0.18602 -0.04294
# Poissons Ratio (y) = 0.34444 0.21870
# Poissons Ratio (z) = -0.13340 0.36699
#
# Static dielectric constant tensor:
#      x y z
#    x 2.086010 0.000000 -0.040360 
#    y 0.000000 2.016010 0.000000 
#    z -0.040360 0.000000 2.129530 
# 
# From -- ./inp_files/29588.got.cif
#   From: 2010.05.17/outbox.cif.g08.bks.cpg/sg14_15_cif.got.tgz:29588.got - 2010.06.03 17:49:19.
