data_PCOD9242589
_publ_section_title
;
Structure prediction by ZEFSAII (Michael W. Deem and Ramdas Pophale) SiO2 
 PCOD9242589
Probable space group: P 21/C
;
_chemical_formula_sum "Si O2"
_cell_formula_units_Z 28
_cell_length_a 11.237536
_cell_length_b 9.704195
_cell_length_c 13.423381
_cell_angle_alpha 90.000000
_cell_angle_beta 112.779006
_cell_angle_gamma 90.000000
_cell_volume 1349.664554
_symmetry_space_group_name_H-M "P 21/C"
_symmetry_group_IT_number 14
_symmetry_cell_setting 'monoclinic'
loop_
_space_group_symop_operation_xyz
x,y,z
-x,1/2+y,1/2-z
-x,-y,-z
x,1/2-y,1/2+z
loop_
_atom_site_type_symbol
_atom_site_label
_atom_site_fract_x
_atom_site_fract_y
_atom_site_fract_z
Si Si1 0.837769 0.845309 0.300748
Si Si2 0.870810 0.531596 0.298432
Si Si3 0.257722 0.770322 0.182622
Si Si4 0.000743 0.409817 0.873679
Si Si5 0.670250 0.432574 0.471835
Si Si6 0.605283 0.462551 0.681247
Si Si7 0.886728 0.860758 0.077312
O O1 0.839375 0.684412 0.325772
O O2 0.867881 0.852101 0.191186
O O3 0.946903 0.941307 0.388197
O O4 0.701042 0.924207 0.260931
O O5 0.756944 0.418880 0.268602
O O6 0.926997 0.554812 0.206164
O O7 0.986905 0.455348 0.393979
O O8 0.132907 0.680009 0.176216
O O9 0.266147 0.806563 0.068075
O O10 0.379337 0.677015 0.251056
O O11 0.093767 0.295254 0.951412
O O12 0.650318 0.417954 0.583851
O O13 0.534599 0.471704 0.378099
O O14 0.766359 0.560615 0.493963
#
# Coordination Sequence:
#
# PCOD9242589 Si02
#       7
#     4   4   4   4   4   4   4
#     4   8  14  28  51  74 105 147 178 218 278 325
#     4   9  16  28  53  83 112 145 181 229 285 333
#     4  10  20  34  58  84 108 147 193 231 278 341
#     4   8  15  28  48  77 112 144 178 223 274 328
#     4  10  20  35  59  81 108 150 194 236 282 338
#     4   9  20  38  57  79 110 149 193 237 279 327
#     4   8  15  28  48  75 103 136 183 225 272 332
#
# _framework density 20.745895000000001
#
# number of rings (size 3 to 8) (size 9 to 14) (size 15 to 20)
#    0.000    3.143    0.000    1.714    0.000    3.429 
#    0.000    0.000    0.000   47.143    0.000    0.000 
#    0.000    0.000    0.000    0.000    0.000    0.000 
#
# Total GULP energy -155912.259672 kJ/mol
# GULP energy per Si atom -5568.294988 kJ/mol
# Density = 2.069868 g / cm^3
# Si number density = 20.745895 Si / 1000 Ang^3
#
#
#
# Elastic Constant Matrix: (Units=GPa)
#
#
# Indices 1 2 3 4 5 6 
#
# 1 36.5803 11.4957 2.2657 0.0000 -5.4541 0.0000
# 2 11.4957 29.5912 -156.3686 0.0000 -157.3712 0.0000
# 3 2.2657 -156.3686 -224.9913 0.0000 -234.8948 0.0000
# 4 0.0000 0.0000 0.0000 23.6650 0.0000 -3.4001
# 5 -5.4541 -157.3712 -234.8948 0.0000 -169.5406 0.0000
# 6 0.0000 0.0000 0.0000 -3.4001 0.0000 19.0362
#
#
#
# Elastic Compliance Matrix: (Units=1/GPa)
#
#
# Indices 1 2 3 4 5 6 
#
# 1 0.028579 -0.002183 -0.001454 0.000000 0.003122 0.000000
# 2 -0.002183 0.007423 -0.004344 0.000000 -0.000802 0.000000
# 3 -0.001454 -0.004344 0.012764 0.000000 -0.013605 0.000000
# 4 0.000000 0.000000 0.000000 0.043369 0.000000 0.007746
# 5 0.003122 -0.000802 -0.013605 0.000000 0.013596 0.000000
# 6 0.000000 0.000000 0.000000 0.007746 0.000000 0.053915
#
#
# Mechanical properties :
#
#
# Convention : Reuss Voigt Hill
#
# Bulk Modulus (GPa) = 30.48436 -49.33711 -9.42637
# Shear Modulus (GPa) = 26.80349 -26.44870 0.17739
#
# Velocity S-wave (km/s) = 3.59833 -3.57443 0.29273
# Velocity P-wave (km/s) = 5.65597 6.39286 2.10697
#
# Compressibility (1/GPa) = 0.03280370
#
# Stress axis : x y z
#
# Youngs Moduli (GPa) = 34.99093 134.71354 78.34642
#
# Poissons Ratio (x) = 0.29413 0.11393
# Poissons Ratio (y) = 0.07640 0.34030
# Poissons Ratio (z) = 0.05088 0.58513
#
# Static dielectric constant tensor:
#      x y z
#    x 1.771360 0.000000 -0.038130 
#    y 0.000000 1.740580 0.000000 
#    z -0.038130 0.000000 1.813840 
# 
# From -- ./inp_files/43480.got.cif
#   From: 2010.05.17/outbox.cif.g08.bks.cpg/sg14_22_cif.got.tgz:43480.got - 2010.06.03 17:49:19.
