data_PCOD9242554
_publ_section_title
;
Structure prediction by ZEFSAII (Michael W. Deem and Ramdas Pophale) SiO2 
 PCOD9242554
Probable space group: P 21/C
;
_chemical_formula_sum "Si O2"
_cell_formula_units_Z 32
_cell_length_a 18.052508
_cell_length_b 13.788497
_cell_length_c 19.396965
_cell_angle_alpha 90.000000
_cell_angle_beta 161.921125
_cell_angle_gamma 90.000000
_cell_volume 1498.326133
_symmetry_space_group_name_H-M "P 21/C"
_symmetry_group_IT_number 14
_symmetry_cell_setting 'monoclinic'
loop_
_space_group_symop_operation_xyz
x,y,z
-x,1/2+y,1/2-z
-x,-y,-z
x,1/2-y,1/2+z
loop_
_atom_site_type_symbol
_atom_site_label
_atom_site_fract_x
_atom_site_fract_y
_atom_site_fract_z
Si Si1 0.830104 0.207603 0.030834
Si Si2 0.831482 0.773871 0.883602
Si Si3 0.555171 0.549449 0.810376
Si Si4 0.542422 0.067289 0.431884
Si Si5 0.734099 0.102436 0.741460
Si Si6 0.915568 0.726603 0.108746
Si Si7 0.543744 0.636835 0.354067
Si Si8 0.315149 0.239392 0.888318
O O1 0.864746 0.217423 0.144107
O O2 0.091541 0.210755 0.229060
O O3 0.683590 0.110663 0.884722
O O4 0.680540 0.297179 0.867634
O O5 0.020420 0.850067 0.019449
O O6 0.597131 0.832195 0.700515
O O7 0.954184 0.733613 0.061085
O O8 0.759360 0.708265 0.754731
O O9 0.628843 0.480281 0.938544
O O10 0.752376 0.631163 0.973368
O O11 0.503200 0.474861 0.703201
O O12 0.741051 0.078369 0.666201
O O13 0.349751 0.992403 0.293141
O O14 0.523625 0.181068 0.565308
O O15 0.762708 0.818529 0.002450
O O16 0.599275 0.657896 0.482913
#
# Coordination Sequence:
#
# PCOD9242554 Si02
#       8
#     4   4   4   4   4   4   4   4
#     4  10  22  39  62  84 123 155 197 248 302 352
#     4  11  21  36  59  85 122 156 195 246 301 352
#     4  11  22  38  61  87 123 155 202 251 293 357
#     4  10  20  34  55  89 118 152 196 240 300 368
#     4  10  21  34  57  88 123 155 191 243 303 360
#     4  10  23  38  57  92 120 158 202 242 305 351
#     4  10  21  40  61  86 117 160 200 246 297 358
#     4  10  21  39  60  86 118 161 200 239 301 356
#
# _framework density 21.357167
#
# number of rings (size 3 to 8) (size 9 to 14) (size 15 to 20)
#    0.000    1.750    1.250    4.125    1.750    6.000 
#    0.000    0.625    0.000    3.750    0.000    0.000 
#    0.000    0.000    0.000    0.000    0.000    0.000 
#
# Total GULP energy -178826.215745 kJ/mol
# GULP energy per Si atom -5588.319242 kJ/mol
# Density = 2.130856 g / cm^3
# Si number density = 21.357167 Si / 1000 Ang^3
#
#
#
# Elastic Constant Matrix: (Units=GPa)
#
#
# Indices 1 2 3 4 5 6 
#
# 1 76.3783 7.9516 20.8938 0.0000 -31.4058 0.0000
# 2 7.9516 40.2891 14.7864 0.0000 3.1021 0.0000
# 3 20.8938 14.7864 58.4915 0.0000 -16.0279 0.0000
# 4 0.0000 0.0000 0.0000 21.8086 0.0000 -11.0419
# 5 -31.4058 3.1021 -16.0279 0.0000 46.2868 0.0000
# 6 0.0000 0.0000 0.0000 -11.0419 0.0000 23.7574
#
#
#
# Elastic Compliance Matrix: (Units=1/GPa)
#
#
# Indices 1 2 3 4 5 6 
#
# 1 0.019318 -0.003858 -0.002500 0.000000 0.012500 0.000000
# 2 -0.003858 0.029075 -0.007981 0.000000 -0.007329 0.000000
# 3 -0.002500 -0.007981 0.021753 0.000000 0.006371 0.000000
# 4 0.000000 0.000000 0.000000 0.059964 0.000000 0.027870
# 5 0.012500 -0.007329 0.006371 0.000000 0.032783 0.000000
# 6 0.000000 0.000000 0.000000 0.027870 0.000000 0.055046
#
#
# Mechanical properties :
#
#
# Convention : Reuss Voigt Hill
#
# Bulk Modulus (GPa) = 24.11401 29.15806 26.63604
# Shear Modulus (GPa) = 19.19834 27.13903 23.16869
#
# Velocity S-wave (km/s) = 3.00145 3.56859 3.29723
# Velocity P-wave (km/s) = 4.82980 5.53733 5.19562
#
# Compressibility (1/GPa) = 0.04146966
#
# Stress axis : x y z
#
# Youngs Moduli (GPa) = 51.76455 34.39352 45.97109
#
# Poissons Ratio (x) = 0.13268 0.11493
# Poissons Ratio (y) = 0.19969 0.36687
# Poissons Ratio (z) = 0.12942 0.27448
#
# Static dielectric constant tensor:
#      x y z
#    x 1.811820 0.000000 -0.031270 
#    y 0.000000 1.727630 0.000000 
#    z -0.031270 0.000000 1.786480 
# 
# From -- ./inp_files/60746.got.cif
#   From: 2010.05.17/outbox.cif.g08.bks.cpg/sg14_31_cif.got.tgz:60746.got - 2010.06.03 17:49:19.
