data_PCOD9242361
_publ_section_title
;
Structure prediction by ZEFSAII (Michael W. Deem and Ramdas Pophale) SiO2 
 PCOD9242361
Probable space group: P 21/C
;
_chemical_formula_sum "Si O2"
_cell_formula_units_Z 32
_cell_length_a 23.328376
_cell_length_b 16.610668
_cell_length_c 23.992347
_cell_angle_alpha 90.000000
_cell_angle_beta 167.990931
_cell_angle_gamma 90.000000
_cell_volume 1934.401088
_symmetry_space_group_name_H-M "P 21/C"
_symmetry_group_IT_number 14
_symmetry_cell_setting 'monoclinic'
loop_
_space_group_symop_operation_xyz
x,y,z
-x,1/2+y,1/2-z
-x,-y,-z
x,1/2-y,1/2+z
loop_
_atom_site_type_symbol
_atom_site_label
_atom_site_fract_x
_atom_site_fract_y
_atom_site_fract_z
Si Si1 0.699606 0.726284 0.409048
Si Si2 0.994813 0.356288 0.864656
Si Si3 0.382946 0.092838 0.952610
Si Si4 0.573439 0.591916 0.636936
Si Si5 0.117406 0.780199 0.898784
Si Si6 0.963212 0.551336 0.212267
Si Si7 0.525391 0.558014 0.272035
Si Si8 0.792583 0.351927 0.930219
O O1 0.869071 0.771345 0.522390
O O2 0.621520 0.633544 0.326425
O O3 0.894054 0.732290 0.648834
O O4 0.415027 0.773531 0.151442
O O5 0.672417 0.355158 0.571055
O O6 0.043017 0.411330 0.855863
O O7 0.152202 0.393562 0.066920
O O8 0.388034 0.109152 0.891576
O O9 0.078032 0.106439 0.685650
O O10 0.592972 0.147490 0.187396
O O11 0.479616 0.000860 0.053259
O O12 0.018569 0.872001 0.804329
O O13 0.149223 0.735064 0.987465
O O14 0.213877 0.489834 0.456880
O O15 0.680980 0.503963 0.953565
O O16 0.358803 0.597829 0.164989
#
# Coordination Sequence:
#
# PCOD9242361 Si02
#       8
#     4   4   4   4   4   4   4   4
#     4  10  20  32  47  70  97 126 160 196 232 284
#     4  11  20  33  49  66  96 132 159 188 237 280
#     4  11  22  33  47  69  95 125 165 203 228 265
#     4  11  22  33  47  69  95 125 165 203 228 265
#     4  10  20  32  47  70  97 126 160 196 232 284
#     4  11  20  31  49  72  98 127 161 193 232 288
#     4  11  20  31  49  72  98 127 161 193 232 288
#     4  11  20  33  49  66  96 132 159 188 237 280
#
# _framework density 16.542587999999999
#
# number of rings (size 3 to 8) (size 9 to 14) (size 15 to 20)
#    0.000    1.250    0.000   11.250    0.000    2.000 
#    0.000    0.000    0.000    0.000    0.000    0.000 
#    0.000   20.000    0.000    0.000    0.000    0.000 
#
# Total GULP energy -178839.922888 kJ/mol
# GULP energy per Si atom -5588.747590 kJ/mol
# Density = 1.650494 g / cm^3
# Si number density = 16.542588 Si / 1000 Ang^3
#
#
#
# Elastic Constant Matrix: (Units=GPa)
#
#
# Indices 1 2 3 4 5 6 
#
# 1 43.7786 26.5737 -0.0116 0.0000 -12.0475 0.0000
# 2 26.5737 74.3318 9.1237 0.0000 -13.1676 0.0000
# 3 -0.0116 9.1237 78.7698 0.0000 -14.9644 0.0000
# 4 0.0000 0.0000 0.0000 33.7592 0.0000 1.1620
# 5 -12.0475 -13.1676 -14.9644 0.0000 19.1825 0.0000
# 6 0.0000 0.0000 0.0000 1.1620 0.0000 11.8211
#
#
#
# Elastic Compliance Matrix: (Units=1/GPa)
#
#
# Indices 1 2 3 4 5 6 
#
# 1 0.033501 -0.009312 0.004539 0.000000 0.018189 0.000000
# 2 -0.009312 0.017908 -0.000999 0.000000 0.005665 0.000000
# 3 0.004539 -0.000999 0.015523 0.000000 0.014275 0.000000
# 4 0.000000 0.000000 0.000000 0.029722 0.000000 -0.002922
# 5 0.018189 0.005665 0.014275 0.000000 0.078579 0.000000
# 6 0.000000 0.000000 0.000000 -0.002922 0.000000 0.084882
#
#
# Mechanical properties :
#
#
# Convention : Reuss Voigt Hill
#
# Bulk Modulus (GPa) = 18.05416 29.80577 23.92997
# Shear Modulus (GPa) = 17.23406 23.69886 20.46646
#
# Velocity S-wave (km/s) = 3.23119 3.78907 3.52120
# Velocity P-wave (km/s) = 4.98580 6.09914 5.57036
#
# Compressibility (1/GPa) = 0.05538890
#
# Stress axis : x y z
#
# Youngs Moduli (GPa) = 29.84969 55.83979 64.41848
#
# Poissons Ratio (x) = 0.51996 -0.29240
# Poissons Ratio (y) = 0.27795 0.06438
# Poissons Ratio (z) = -0.13549 0.05581
#
# Static dielectric constant tensor:
#      x y z
#    x 1.538960 0.000000 -0.001950 
#    y 0.000000 1.577220 0.000000 
#    z -0.001950 0.000000 1.583770 
# 
# From -- ./inp_files/47702.got.cif
#   From: 2010.05.17/outbox.cif.g08.bks.cpg/sg14_24_cif.got.tgz:47702.got - 2010.06.03 17:49:19.
