data_PCOD9242176
_publ_section_title
;
Structure prediction by ZEFSAII (Michael W. Deem and Ramdas Pophale) SiO2 
 PCOD9242176
Probable space group: P 21/C
;
_chemical_formula_sum "Si O2"
_cell_formula_units_Z 24
_cell_length_a 9.064128
_cell_length_b 9.799746
_cell_length_c 12.950021
_cell_angle_alpha 90.000000
_cell_angle_beta 50.823705
_cell_angle_gamma 90.000000
_cell_volume 891.719776
_symmetry_space_group_name_H-M "P 21/C"
_symmetry_group_IT_number 14
_symmetry_cell_setting 'monoclinic'
loop_
_space_group_symop_operation_xyz
x,y,z
-x,1/2+y,1/2-z
-x,-y,-z
x,1/2-y,1/2+z
loop_
_atom_site_type_symbol
_atom_site_label
_atom_site_fract_x
_atom_site_fract_y
_atom_site_fract_z
Si Si1 0.898883 0.186921 0.548533
Si Si2 0.316094 0.091985 0.699055
Si Si3 0.731600 0.344973 0.930231
Si Si4 0.791177 0.766207 0.935140
Si Si5 0.266396 0.521940 0.446685
Si Si6 0.607992 0.378347 0.349653
O O1 0.899049 0.120282 0.436039
O O2 0.825462 0.339199 0.550406
O O3 0.738250 0.125494 0.692926
O O4 0.086404 0.190379 0.533539
O O5 0.536632 0.130654 0.580749
O O6 0.201489 0.202772 0.681485
O O7 0.276735 0.069347 0.836407
O O8 0.484327 0.981739 0.896148
O O9 0.724573 0.449298 0.839656
O O10 0.735064 0.190943 0.883391
O O11 0.845456 0.926015 0.922451
O O12 0.569460 0.770861 0.067453
#
# Coordination Sequence:
#
# PCOD9242176 Si02
#       6
#     4   4   4   4   4   4
#     4  12  21  39  66  89 124 158 205 254 306 358
#     4  10  19  40  62  82 127 157 200 245 307 360
#     4  10  20  36  64  88 113 165 197 248 301 366
#     4   9  23  38  62  93 119 159 204 247 305 366
#     4  10  21  40  62  87 125 159 196 255 305 357
#     4   9  21  38  57  94 114 161 205 237 311 364
#
# _framework density 26.914283000000001
#
# number of rings (size 3 to 8) (size 9 to 14) (size 15 to 20)
#    1.000    1.000    3.333    0.500    0.000    2.667 
#    0.000    0.000    0.000    0.000    0.000    0.000 
#    0.000    0.000    0.000    0.000    0.000    0.000 
#
# Total GULP energy -134105.456239 kJ/mol
# GULP energy per Si atom -5587.727343 kJ/mol
# Density = 2.685302 g / cm^3
# Si number density = 26.914283 Si / 1000 Ang^3
#
#
#
# Elastic Constant Matrix: (Units=GPa)
#
#
# Indices 1 2 3 4 5 6 
#
# 1 108.0314 -14.5366 18.0820 0.0000 7.7228 0.0000
# 2 -14.5366 121.6148 10.5199 0.0000 2.8133 0.0000
# 3 18.0820 10.5199 68.2980 0.0000 7.3414 0.0000
# 4 0.0000 0.0000 0.0000 27.7101 0.0000 10.8629
# 5 7.7228 2.8133 7.3414 0.0000 39.3155 0.0000
# 6 0.0000 0.0000 0.0000 10.8629 0.0000 22.0586
#
#
#
# Elastic Compliance Matrix: (Units=1/GPa)
#
#
# Indices 1 2 3 4 5 6 
#
# 1 0.010020 0.001468 -0.002711 0.000000 -0.001567 0.000000
# 2 0.001468 0.008554 -0.001642 0.000000 -0.000594 0.000000
# 3 -0.002711 -0.001642 0.015861 0.000000 -0.002312 0.000000
# 4 0.000000 0.000000 0.000000 0.044722 0.000000 -0.022023
# 5 -0.001567 -0.000594 -0.002312 0.000000 0.026217 0.000000
# 6 0.000000 0.000000 0.000000 -0.022023 0.000000 0.056179
#
#
# Mechanical properties :
#
#
# Convention : Reuss Voigt Hill
#
# Bulk Modulus (GPa) = 34.88517 36.23053 35.55785
# Shear Modulus (GPa) = 28.26819 36.74209 32.50514
#
# Velocity S-wave (km/s) = 3.24436 3.69881 3.47901
# Velocity P-wave (km/s) = 5.19848 5.63314 5.42017
#
# Compressibility (1/GPa) = 0.02866548
#
# Stress axis : x y z
#
# Youngs Moduli (GPa) = 99.80175 116.90417 63.04847
#
# Poissons Ratio (x) = -0.17166 0.17089
# Poissons Ratio (y) = -0.14655 0.10356
# Poissons Ratio (z) = 0.27051 0.19201
#
# Static dielectric constant tensor:
#      x y z
#    x 2.210290 0.000000 0.007440 
#    y 0.000000 2.217290 0.000000 
#    z 0.007440 0.000000 2.057570 
# 
# From -- ./inp_files/24086.got.cif
#   From: 2010.05.17/outbox.cif.g08.bks.cpg/sg14_13_cif.got.tgz:24086.got - 2010.06.03 17:49:19.
