data_PCOD9242451
_publ_section_title
;
Structure prediction by ZEFSAII (Michael W. Deem and Ramdas Pophale) SiO2 
 PCOD9242451
Probable space group: P 21/C
;
_chemical_formula_sum "Si O2"
_cell_formula_units_Z 28
_cell_length_a 6.400334
_cell_length_b 11.857775
_cell_length_c 17.730112
_cell_angle_alpha 90.000000
_cell_angle_beta 121.280869
_cell_angle_gamma 90.000000
_cell_volume 1149.996714
_symmetry_space_group_name_H-M "P 21/C"
_symmetry_group_IT_number 14
_symmetry_cell_setting 'monoclinic'
loop_
_space_group_symop_operation_xyz
x,y,z
-x,1/2+y,1/2-z
-x,-y,-z
x,1/2-y,1/2+z
loop_
_atom_site_type_symbol
_atom_site_label
_atom_site_fract_x
_atom_site_fract_y
_atom_site_fract_z
Si Si1 0.112449 0.439506 0.948208
Si Si2 0.280646 0.983916 0.731310
Si Si3 0.549366 0.745296 0.151611
Si Si4 0.014098 0.788040 0.305361
Si Si5 0.762941 0.096662 0.799812
Si Si6 0.710201 0.529908 0.598105
Si Si7 0.593218 0.347038 0.023495
O O1 0.276107 0.533687 0.935635
O O2 0.896910 0.405950 0.850769
O O3 0.318579 0.346540 0.004957
O O4 0.000000 0.500000 0.000000
O O5 0.551598 0.002760 0.751303
O O6 0.291464 0.960380 0.822755
O O7 0.156843 0.107728 0.698723
O O8 0.358432 0.810136 0.168604
O O9 0.645900 0.844066 0.114033
O O10 0.800012 0.704450 0.238368
O O11 0.427140 0.661595 0.070224
O O12 0.165905 0.840452 0.264139
O O13 0.213981 0.758372 0.405791
O O14 0.010833 0.039714 0.877442
O O15 0.500000 0.500000 0.500000
#
# Coordination Sequence:
#
# PCOD9242451 Si02
#       7
#     4   4   4   4   4   4   4
#     4  10  20  33  55  79 106 142 185 222 275 325
#     4   8  16  30  49  76  99 131 178 217 262 321
#     4   9  19  33  51  77 105 141 181 216 265 326
#     4   8  16  32  52  71  98 142 172 214 267 316
#     4   8  15  31  55  73 102 139 179 215 265 320
#     4   9  18  33  54  77 105 141 177 219 269 318
#     4  10  20  35  53  78 112 142 179 229 270 318
#
# _framework density 24.347895999999999
#
# number of rings (size 3 to 8) (size 9 to 14) (size 15 to 20)
#    0.000    3.714    0.000    0.857    0.000    5.714 
#    2.571    0.000    3.143    0.000    0.000    0.000 
#    0.000    0.000    0.000    0.000    0.000    0.000 
#
# Total GULP energy -156193.942234 kJ/mol
# GULP energy per Si atom -5578.355080 kJ/mol
# Density = 2.429248 g / cm^3
# Si number density = 24.347896 Si / 1000 Ang^3
#
#
#
# Elastic Constant Matrix: (Units=GPa)
#
#
# Indices 1 2 3 4 5 6 
#
# 1 175.9700 29.6882 85.5283 0.0000 34.9743 0.0000
# 2 29.6882 33.8475 27.0191 0.0000 10.8686 0.0000
# 3 85.5283 27.0191 211.6450 0.0000 51.1960 0.0000
# 4 0.0000 0.0000 0.0000 18.8523 0.0000 -9.5336
# 5 34.9743 10.8686 51.1960 0.0000 41.8329 0.0000
# 6 0.0000 0.0000 0.0000 -9.5336 0.0000 30.4392
#
#
#
# Elastic Compliance Matrix: (Units=1/GPa)
#
#
# Indices 1 2 3 4 5 6 
#
# 1 0.007991 -0.004475 -0.001879 0.000000 -0.003218 0.000000
# 2 -0.004475 0.036108 -0.002041 0.000000 -0.003142 0.000000
# 3 -0.001879 -0.002041 0.007439 0.000000 -0.007002 0.000000
# 4 0.000000 0.000000 0.000000 0.063026 0.000000 0.019740
# 5 -0.003218 -0.003142 -0.007002 0.000000 0.035980 0.000000
# 6 0.000000 0.000000 0.000000 0.019740 0.000000 0.039035
#
#
# Mechanical properties :
#
#
# Convention : Reuss Voigt Hill
#
# Bulk Modulus (GPa) = 28.78068 78.43706 53.60887
# Shear Modulus (GPa) = 22.94071 36.84002 29.89037
#
# Velocity S-wave (km/s) = 3.07287 3.89404 3.50757
# Velocity P-wave (km/s) = 4.94331 7.24590 6.20239
#
# Compressibility (1/GPa) = 0.03474553
#
# Stress axis : x y z
#
# Youngs Moduli (GPa) = 125.14246 27.69482 134.43091
#
# Poissons Ratio (x) = 0.12394 0.25266
# Poissons Ratio (y) = 0.56006 0.27439
# Poissons Ratio (z) = 0.23520 0.05653
#
# Static dielectric constant tensor:
#      x y z
#    x 1.951680 0.000000 0.058570 
#    y 0.000000 2.086440 0.000000 
#    z 0.058570 0.000000 2.071130 
# 
# From -- ./inp_files/53359.got.cif
#   From: 2010.05.17/outbox.cif.g08.bks.cpg/sg14_27_cif.got.tgz:53359.got - 2010.06.03 17:49:19.
