data_PCOD9242409
_publ_section_title
;
Structure prediction by ZEFSAII (Michael W. Deem and Ramdas Pophale) SiO2 
 PCOD9242409
Probable space group: P 21/C
;
_chemical_formula_sum "Si O2"
_cell_formula_units_Z 28
_cell_length_a 17.129424
_cell_length_b 16.741273
_cell_length_c 8.646165
_cell_angle_alpha 90.000000
_cell_angle_beta 31.002520
_cell_angle_gamma 90.000000
_cell_volume 1277.102872
_symmetry_space_group_name_H-M "P 21/C"
_symmetry_group_IT_number 14
_symmetry_cell_setting 'monoclinic'
loop_
_space_group_symop_operation_xyz
x,y,z
-x,1/2+y,1/2-z
-x,-y,-z
x,1/2-y,1/2+z
loop_
_atom_site_type_symbol
_atom_site_label
_atom_site_fract_x
_atom_site_fract_y
_atom_site_fract_z
Si Si1 0.756738 0.635885 0.800750
Si Si2 0.415305 0.140019 0.939198
Si Si3 0.783518 0.010162 0.739413
Si Si4 0.120509 0.983103 0.064017
Si Si5 0.274747 0.250819 0.408491
Si Si6 0.698611 0.163883 0.290731
Si Si7 0.391639 0.834638 0.916337
O O1 0.805634 0.546996 0.678223
O O2 0.809262 0.693527 0.570974
O O3 0.816000 0.680445 0.852848
O O4 0.572546 0.646846 0.120921
O O5 0.338291 0.189069 0.928957
O O6 0.578187 0.115948 0.600817
O O7 0.406716 0.203059 0.092925
O O8 0.318497 0.063198 0.140435
O O9 0.807033 0.004256 0.886754
O O10 0.698346 0.092530 0.853992
O O11 0.945221 0.003221 0.384267
O O12 0.152380 0.891334 0.962210
O O13 0.675171 0.252788 0.398182
O O14 0.646883 0.165374 0.200471
#
# Coordination Sequence:
#
# PCOD9242409 Si02
#       7
#     4   4   4   4   4   4   4
#     4  11  18  38  59  87 112 146 186 238 276 337
#     4  11  18  38  59  87 112 146 186 238 276 337
#     4  10  22  39  57  82 116 154 190 225 278 341
#     4  10  22  39  57  82 116 154 190 225 278 341
#     4  10  20  32  62  88 116 136 190 234 288 322
#     4  11  20  37  60  87 111 145 187 237 280 329
#     4  11  20  37  60  87 111 145 187 237 280 329
#
# _framework density 21.924623
#
# number of rings (size 3 to 8) (size 9 to 14) (size 15 to 20)
#    0.000    1.429    5.714    0.857    0.000    2.286 
#    7.714    2.143    0.000    0.000    0.000    0.000 
#    0.000    0.000    0.000    0.000    0.000    0.000 
#
# Total GULP energy -156276.683632 kJ/mol
# GULP energy per Si atom -5581.310130 kJ/mol
# Density = 2.187472 g / cm^3
# Si number density = 21.924623 Si / 1000 Ang^3
#
#
#
# Elastic Constant Matrix: (Units=GPa)
#
#
# Indices 1 2 3 4 5 6 
#
# 1 18.1391 22.5212 14.3007 0.0000 3.7116 0.0000
# 2 22.5212 164.7083 67.1575 0.0000 -18.3745 0.0000
# 3 14.3007 67.1575 64.8791 0.0000 1.3386 0.0000
# 4 0.0000 0.0000 0.0000 24.4458 0.0000 20.4039
# 5 3.7116 -18.3745 1.3386 0.0000 27.3517 0.0000
# 6 0.0000 0.0000 0.0000 20.4039 0.0000 9.8081
#
#
#
# Elastic Compliance Matrix: (Units=1/GPa)
#
#
# Indices 1 2 3 4 5 6 
#
# 1 0.075321 -0.009486 -0.006447 0.000000 -0.016278 0.000000
# 2 -0.009486 0.013555 -0.012167 0.000000 0.010989 0.000000
# 3 -0.006447 -0.012167 0.029609 0.000000 -0.008748 0.000000
# 4 0.000000 0.000000 0.000000 -0.055554 0.000000 0.115569
# 5 -0.016278 0.010989 -0.008748 0.000000 0.046580 0.000000
# 6 0.000000 0.000000 0.000000 0.115569 0.000000 -0.138463
#
#
# Mechanical properties :
#
#
# Convention : Reuss Voigt Hill
#
# Bulk Modulus (GPa) = 16.05534 50.63169 33.34352
# Shear Modulus (GPa) = 104.14308 21.90426 63.02367
#
# Velocity S-wave (km/s) = 6.89954 3.16424 5.36731
# Velocity P-wave (km/s) = 8.41489 6.04099 7.32475
#
# Compressibility (1/GPa) = 0.06228458
#
# Stress axis : x y z
#
# Youngs Moduli (GPa) = 13.27651 73.77209 33.77322
#
# Poissons Ratio (x) = 0.69981 0.21775
# Poissons Ratio (y) = 0.12594 0.41092
# Poissons Ratio (z) = 0.08560 0.89759
#
# Static dielectric constant tensor:
#      x y z
#    x 1.833800 0.000000 0.027440 
#    y 0.000000 1.798640 0.000000 
#    z 0.027440 0.000000 1.813230 
# 
# From -- ./inp_files/19115.got.cif
#   From: 2010.05.17/outbox.cif.g08.bks.cpg/sg14_10_cif.got.tgz:19115.got - 2010.06.03 17:49:19.
