data_PCOD9242152
_publ_section_title
;
Structure prediction by ZEFSAII (Michael W. Deem and Ramdas Pophale) SiO2 
 PCOD9242152
Probable space group: P 21/C
;
_chemical_formula_sum "Si O2"
_cell_formula_units_Z 28
_cell_length_a 7.713624
_cell_length_b 25.378942
_cell_length_c 5.743957
_cell_angle_alpha 90.000000
_cell_angle_beta 93.264054
_cell_angle_gamma 90.000000
_cell_volume 1122.633624
_symmetry_space_group_name_H-M "P 21/C"
_symmetry_group_IT_number 14
_symmetry_cell_setting 'monoclinic'
loop_
_space_group_symop_operation_xyz
x,y,z
-x,1/2+y,1/2-z
-x,-y,-z
x,1/2-y,1/2+z
loop_
_atom_site_type_symbol
_atom_site_label
_atom_site_fract_x
_atom_site_fract_y
_atom_site_fract_z
Si Si1 0.276516 0.244641 0.537025
Si Si2 0.963934 0.049163 0.323064
Si Si3 0.174886 0.892824 0.099547
Si Si4 0.592015 0.033628 0.315869
Si Si5 0.568087 0.574742 0.589359
Si Si6 0.107533 0.721088 0.457893
Si Si7 0.143246 0.130132 0.602072
O O1 0.370151 0.252426 0.295908
O O2 0.191031 0.187231 0.522366
O O3 0.104594 0.281601 0.539069
O O4 0.926648 0.059465 0.044360
O O5 0.768044 0.061724 0.390664
O O6 0.116999 0.088897 0.393634
O O7 0.000000 0.000000 0.500000
O O8 0.184199 0.838103 0.953104
O O9 0.371548 0.912317 0.162759
O O10 0.042962 0.874254 0.288195
O O11 0.500000 0.000000 0.500000
O O12 0.636128 0.984804 0.144656
O O13 0.464766 0.074761 0.187405
O O14 0.706405 0.612267 0.712320
O O15 0.152053 0.748946 0.714698
#
# Coordination Sequence:
#
# PCOD9242152 Si02
#       7
#     4   4   4   4   4   4   4
#     4  10  20  39  67  98 132 175 221 281 343 397
#     4  11  23  38  61  95 122 169 221 262 324 404
#     4  11  24  40  65  92 131 170 219 270 337 399
#     4  10  21  43  59  82 135 168 209 279 329 380
#     4  10  24  41  59  95 125 168 222 267 326 403
#     4  10  19  39  68  95 131 177 220 278 345 399
#     4  12  23  39  70  92 129 171 222 273 334 398
#
# _framework density 24.941351000000001
#
# number of rings (size 3 to 8) (size 9 to 14) (size 15 to 20)
#    0.000    1.429    4.286    2.571    2.000    0.571 
#    0.000    1.429    0.000    0.000    0.000    0.000 
#    0.000    0.000    0.000    0.000    0.000    0.000 
#
# Total GULP energy -156009.702860 kJ/mol
# GULP energy per Si atom -5571.775102 kJ/mol
# Density = 2.488458 g / cm^3
# Si number density = 24.941351 Si / 1000 Ang^3
#
#
#
# Elastic Constant Matrix: (Units=GPa)
#
#
# Indices 1 2 3 4 5 6 
#
# 1 94.5567 20.6303 37.0654 0.0000 23.5274 0.0000
# 2 20.6303 85.2602 19.5300 0.0000 21.3776 0.0000
# 3 37.0654 19.5300 103.3859 0.0000 14.1517 0.0000
# 4 0.0000 0.0000 0.0000 36.7837 0.0000 7.0306
# 5 23.5274 21.3776 14.1517 0.0000 30.0656 0.0000
# 6 0.0000 0.0000 0.0000 7.0306 0.0000 14.1342
#
#
#
# Elastic Compliance Matrix: (Units=1/GPa)
#
#
# Indices 1 2 3 4 5 6 
#
# 1 0.014464 -0.000284 -0.003859 0.000000 -0.009301 0.000000
# 2 -0.000284 0.014470 -0.001340 0.000000 -0.009436 0.000000
# 3 -0.003859 -0.001340 0.011507 0.000000 -0.001444 0.000000
# 4 0.000000 0.000000 0.000000 0.030042 0.000000 -0.014943
# 5 -0.009301 -0.009436 -0.001444 0.000000 0.047927 0.000000
# 6 0.000000 0.000000 0.000000 -0.014943 0.000000 0.078183
#
#
# Mechanical properties :
#
#
# Convention : Reuss Voigt Hill
#
# Bulk Modulus (GPa) = 33.92656 48.62824 41.27740
# Shear Modulus (GPa) = 23.00059 29.92852 26.46455
#
# Velocity S-wave (km/s) = 3.04005 3.46780 3.26094
# Velocity P-wave (km/s) = 5.09456 5.96435 5.54653
#
# Compressibility (1/GPa) = 0.02947543
#
# Stress axis : x y z
#
# Youngs Moduli (GPa) = 69.13489 69.10666 86.90555
#
# Poissons Ratio (x) = 0.01963 0.33537
# Poissons Ratio (y) = 0.01963 0.11646
# Poissons Ratio (z) = 0.26679 0.09261
#
# Static dielectric constant tensor:
#      x y z
#    x 1.859500 0.000000 -0.213350 
#    y 0.000000 1.410240 0.000000 
#    z -0.213350 0.000000 1.429070 
# 
# From -- ./inp_files/1938.got.cif
#   From: 2010.05.17/outbox.cif.g08.bks.cpg/sg14_1_cif.got.tgz:1938.got - 2010.06.03 17:49:19.
