data_PCOD9242530
_publ_section_title
;
Structure prediction by ZEFSAII (Michael W. Deem and Ramdas Pophale) SiO2 
 PCOD9242530
Probable space group: P 21/C
;
_chemical_formula_sum "Si O2"
_cell_formula_units_Z 28
_cell_length_a 8.726117
_cell_length_b 9.391588
_cell_length_c 27.285248
_cell_angle_alpha 90.000000
_cell_angle_beta 144.247604
_cell_angle_gamma 90.000000
_cell_volume 1306.506782
_symmetry_space_group_name_H-M "P 21/C"
_symmetry_group_IT_number 14
_symmetry_cell_setting 'monoclinic'
loop_
_space_group_symop_operation_xyz
x,y,z
-x,1/2+y,1/2-z
-x,-y,-z
x,1/2-y,1/2+z
loop_
_atom_site_type_symbol
_atom_site_label
_atom_site_fract_x
_atom_site_fract_y
_atom_site_fract_z
Si Si1 0.427059 0.937698 0.156341
Si Si2 0.913030 0.745724 0.282301
Si Si3 0.550881 0.497237 0.221814
Si Si4 0.133211 0.481525 0.872877
Si Si5 0.886491 0.181983 0.449787
Si Si6 0.298006 0.705477 0.291501
Si Si7 0.334746 0.489445 0.031509
O O1 0.665479 0.837827 0.198234
O O2 0.458404 0.958191 0.223197
O O3 0.174069 0.843921 0.078754
O O4 0.466842 0.091947 0.143510
O O5 0.790921 0.605335 0.273878
O O6 0.031593 0.857235 0.351587
O O7 0.131594 0.719742 0.298039
O O8 0.294430 0.582570 0.134368
O O9 0.608688 0.352952 0.207363
O O10 0.262607 0.446057 0.957717
O O11 0.908182 0.372900 0.798907
O O12 0.354643 0.487737 0.888059
O O13 0.185518 0.133529 0.522341
O O14 0.788760 0.132504 0.477888
#
# Coordination Sequence:
#
# PCOD9242530 Si02
#       7
#     4   4   4   4   4   4   4
#     4  10  20  34  54  82 111 137 179 232 277 323
#     4  10  20  34  54  82 111 137 179 232 277 323
#     4  11  20  34  59  85 112 140 178 239 288 324
#     4  10  20  36  55  82 107 144 188 219 275 327
#     4  10  20  36  55  82 107 144 188 219 275 327
#     4  11  20  34  59  85 112 140 178 239 288 324
#     4  10  20  34  58  76 110 152 186 222 254 342
#
# _framework density 21.431193
#
# number of rings (size 3 to 8) (size 9 to 14) (size 15 to 20)
#    0.000    1.714    0.000    8.571    0.000    0.000 
#    0.000    0.000    0.000   29.143    0.000    0.000 
#    0.000    0.000    0.000    0.000    0.000    0.000 
#
# Total GULP energy -156288.191178 kJ/mol
# GULP energy per Si atom -5581.721113 kJ/mol
# Density = 2.138242 g / cm^3
# Si number density = 21.431193 Si / 1000 Ang^3
#
#
#
# Elastic Constant Matrix: (Units=GPa)
#
#
# Indices 1 2 3 4 5 6 
#
# 1 107.5469 41.1701 6.7248 0.0000 10.1082 0.0000
# 2 41.1701 141.3435 8.3856 0.0000 14.0734 0.0000
# 3 6.7248 8.3856 35.1362 0.0000 1.4657 0.0000
# 4 0.0000 0.0000 0.0000 26.6811 0.0000 1.3503
# 5 10.1082 14.0734 1.4657 0.0000 25.4871 0.0000
# 6 0.0000 0.0000 0.0000 1.3503 0.0000 26.4262
#
#
#
# Elastic Compliance Matrix: (Units=1/GPa)
#
#
# Indices 1 2 3 4 5 6 
#
# 1 0.010688 -0.002775 -0.001273 0.000000 -0.002633 0.000000
# 2 -0.002775 0.008300 -0.001308 0.000000 -0.003407 0.000000
# 3 -0.001273 -0.001308 0.029035 0.000000 -0.000443 0.000000
# 4 0.000000 0.000000 0.000000 0.037577 0.000000 -0.001920
# 5 -0.002633 -0.003407 -0.000443 0.000000 0.042187 0.000000
# 6 0.000000 0.000000 0.000000 -0.001920 0.000000 0.037939
#
#
# Mechanical properties :
#
#
# Convention : Reuss Voigt Hill
#
# Bulk Modulus (GPa) = 26.80227 44.06527 35.43377
# Shear Modulus (GPa) = 26.47250 30.90197 28.68724
#
# Velocity S-wave (km/s) = 3.51840 3.80138 3.66262
# Velocity P-wave (km/s) = 5.38877 6.31452 5.86993
#
# Compressibility (1/GPa) = 0.03731028
#
# Stress axis : x y z
#
# Youngs Moduli (GPa) = 93.56446 120.47891 34.44127
#
# Poissons Ratio (x) = 0.33438 0.04386
# Poissons Ratio (y) = 0.25968 0.04504
# Poissons Ratio (z) = 0.11914 0.15754
#
# Static dielectric constant tensor:
#      x y z
#    x 1.813500 0.000000 0.021800 
#    y 0.000000 1.780050 0.000000 
#    z 0.021800 0.000000 1.837480 
# 
# From -- ./inp_files/17605.got.cif
#   From: 2010.05.17/outbox.cif.g08.bks.cpg/sg14_9_cif.got.tgz:17605.got - 2010.06.03 17:49:19.
