data_PCOD9242499
_publ_section_title
;
Structure prediction by ZEFSAII (Michael W. Deem and Ramdas Pophale) SiO2 
 PCOD9242499
Probable space group: P 21/C
;
_chemical_formula_sum "Si O2"
_cell_formula_units_Z 24
_cell_length_a 12.236077
_cell_length_b 10.699817
_cell_length_c 15.980352
_cell_angle_alpha 90.000000
_cell_angle_beta 153.589391
_cell_angle_gamma 90.000000
_cell_volume 930.616333
_symmetry_space_group_name_H-M "P 21/C"
_symmetry_group_IT_number 14
_symmetry_cell_setting 'monoclinic'
loop_
_space_group_symop_operation_xyz
x,y,z
-x,1/2+y,1/2-z
-x,-y,-z
x,1/2-y,1/2+z
loop_
_atom_site_type_symbol
_atom_site_label
_atom_site_fract_x
_atom_site_fract_y
_atom_site_fract_z
Si Si1 0.922893 0.625620 0.789671
Si Si2 0.110724 0.818161 0.028876
Si Si3 0.632953 0.950701 0.935501
Si Si4 0.129177 0.864695 0.677755
Si Si5 0.653106 0.956012 0.756257
Si Si6 0.413866 0.779973 0.027030
O O1 0.853228 0.593300 0.646935
O O2 0.994890 0.495679 0.884090
O O3 0.665514 0.677406 0.650843
O O4 0.113263 0.730699 0.949246
O O5 0.001321 0.725817 0.025054
O O6 0.339930 0.892935 0.227355
O O7 0.900274 0.922617 0.873878
O O8 0.382775 0.898094 0.803674
O O9 0.658223 0.914402 0.856916
O O10 0.610358 0.100839 0.927211
O O11 0.199167 0.798248 0.811901
O O12 0.453893 0.865942 0.577168
#
# Coordination Sequence:
#
# PCOD9242499 Si02
#       6
#     4   4   4   4   4   4
#     4   8  16  35  55  75 102 140 177 214 264 316
#     4  10  20  34  53  76 113 141 166 216 284 325
#     4   9  18  34  55  76 101 138 186 222 251 312
#     4   9  17  33  60  78  97 141 185 221 252 318
#     4  10  21  34  50  77 112 142 166 219 282 322
#     4   8  17  34  55  74 103 139 177 215 267 316
#
# _framework density 25.789359000000001
#
# number of rings (size 3 to 8) (size 9 to 14) (size 15 to 20)
#    0.000    3.000    0.000    2.500    2.333    0.667 
#    6.000    0.000    0.000    0.000    0.000    0.000 
#    0.000    0.000    0.000    0.000    0.000    0.000 
#
# Total GULP energy -133944.953281 kJ/mol
# GULP energy per Si atom -5581.039720 kJ/mol
# Density = 2.573066 g / cm^3
# Si number density = 25.789359 Si / 1000 Ang^3
#
#
#
# Elastic Constant Matrix: (Units=GPa)
#
#
# Indices 1 2 3 4 5 6 
#
# 1 24.7420 30.1452 1.9526 0.0000 2.5763 0.0000
# 2 30.1452 155.5086 46.3844 0.0000 -2.1622 0.0000
# 3 1.9526 46.3844 51.4658 0.0000 -14.1398 0.0000
# 4 0.0000 0.0000 0.0000 56.6919 0.0000 4.4434
# 5 2.5763 -2.1622 -14.1398 0.0000 35.1361 0.0000
# 6 0.0000 0.0000 0.0000 4.4434 0.0000 34.6113
#
#
#
# Elastic Compliance Matrix: (Units=1/GPa)
#
#
# Indices 1 2 3 4 5 6 
#
# 1 0.056901 -0.014123 0.010326 0.000000 -0.000886 0.000000
# 2 -0.014123 0.012586 -0.011592 0.000000 -0.002855 0.000000
# 3 0.010326 -0.011592 0.032697 0.000000 0.011688 0.000000
# 4 0.000000 0.000000 0.000000 0.017819 0.000000 -0.002288
# 5 -0.000886 -0.002855 0.011688 0.000000 0.033054 0.000000
# 6 0.000000 0.000000 0.000000 -0.002288 0.000000 0.029186
#
#
# Mechanical properties :
#
#
# Convention : Reuss Voigt Hill
#
# Bulk Modulus (GPa) = 14.00416 43.18675 28.59545
# Shear Modulus (GPa) = 21.11294 35.50346 28.30820
#
# Velocity S-wave (km/s) = 2.86434 3.71438 3.31670
# Velocity P-wave (km/s) = 4.04738 5.93108 5.07735
#
# Compressibility (1/GPa) = 0.07140735
#
# Stress axis : x y z
#
# Youngs Moduli (GPa) = 17.57438 79.45305 30.58370
#
# Poissons Ratio (x) = 1.12208 -0.31581
# Poissons Ratio (y) = 0.24819 0.35452
# Poissons Ratio (z) = -0.18147 0.92102
#
# Static dielectric constant tensor:
#      x y z
#    x 2.098080 0.000000 0.018310 
#    y 0.000000 2.068070 0.000000 
#    z 0.018310 0.000000 2.002640 
# 
# From -- ./inp_files/39309.got.cif
#   From: 2010.05.17/outbox.cif.g08.bks.cpg/sg14_20_cif.got.tgz:39309.got - 2010.06.03 17:49:19.
