data_PCOD9242260
_publ_section_title
;
Structure prediction by ZEFSAII (Michael W. Deem and Ramdas Pophale) SiO2 
 PCOD9242260
Probable space group: P 21/C
;
_chemical_formula_sum "Si O2"
_cell_formula_units_Z 32
_cell_length_a 5.143984
_cell_length_b 26.756810
_cell_length_c 11.353272
_cell_angle_alpha 90.000000
_cell_angle_beta 100.233566
_cell_angle_gamma 90.000000
_cell_volume 1537.767060
_symmetry_space_group_name_H-M "P 21/C"
_symmetry_group_IT_number 14
_symmetry_cell_setting 'monoclinic'
loop_
_space_group_symop_operation_xyz
x,y,z
-x,1/2+y,1/2-z
-x,-y,-z
x,1/2-y,1/2+z
loop_
_atom_site_type_symbol
_atom_site_label
_atom_site_fract_x
_atom_site_fract_y
_atom_site_fract_z
Si Si1 0.282083 0.860078 0.729453
Si Si2 0.160196 0.152368 0.468355
Si Si3 0.574149 0.829525 0.085161
Si Si4 0.460096 0.440239 0.870724
Si Si5 0.334203 0.398594 0.198686
Si Si6 0.317804 0.272448 0.782766
Si Si7 0.009644 0.821374 0.918013
Si Si8 0.195847 0.541817 0.880406
O O1 0.434085 0.912203 0.736325
O O2 0.464546 0.810800 0.753419
O O3 0.061304 0.859606 0.813179
O O4 0.144750 0.854396 0.590476
O O5 0.304026 0.103871 0.424835
O O6 0.232431 0.147577 0.609436
O O7 0.241507 0.200830 0.400663
O O8 0.615937 0.878753 0.166809
O O9 0.604302 0.782414 0.174628
O O10 0.287207 0.821851 0.005840
O O11 0.789050 0.830425 0.998173
O O12 0.267672 0.486895 0.839387
O O13 0.702339 0.457688 0.975225
O O14 0.607011 0.420172 0.170188
O O15 0.101609 0.439596 0.163135
O O16 0.083956 0.273822 0.667303
#
# Coordination Sequence:
#
# PCOD9242260 Si02
#       8
#     4   4   4   4   4   4   4   4
#     4  10  19  41  66  94 124 161 209 265 308 374
#     4   9  20  35  62  98 126 158 208 260 320 371
#     4  12  27  42  66  88 129 174 205 259 313 369
#     4   9  19  34  64  98 127 166 201 267 328 367
#     4  11  23  40  58  93 133 168 200 259 319 380
#     4  10  24  42  65  94 120 160 216 264 304 368
#     4  11  25  45  62  91 121 168 213 251 303 379
#     4  10  21  37  61  95 135 160 208 257 326 390
#
# _framework density 20.809394000000001
#
# number of rings (size 3 to 8) (size 9 to 14) (size 15 to 20)
#    0.000    1.750    2.500    0.750    7.000    1.500 
#    0.000    0.000    0.000    4.500    0.000    0.000 
#    0.000    0.000    0.000    0.000    0.000    0.000 
#
# Total GULP energy -178502.099120 kJ/mol
# GULP energy per Si atom -5578.190597 kJ/mol
# Density = 2.076203 g / cm^3
# Si number density = 20.809394 Si / 1000 Ang^3
#
#
#
# Elastic Constant Matrix: (Units=GPa)
#
#
# Indices 1 2 3 4 5 6 
#
# 1 95.1803 1.0900 34.5097 0.0000 4.7908 0.0000
# 2 1.0900 54.9783 13.8782 0.0000 -3.3521 0.0000
# 3 34.5097 13.8782 87.7366 0.0000 -3.4978 0.0000
# 4 0.0000 0.0000 0.0000 15.2754 0.0000 5.4520
# 5 4.7908 -3.3521 -3.4978 0.0000 30.5195 0.0000
# 6 0.0000 0.0000 0.0000 5.4520 0.0000 10.5913
#
#
#
# Elastic Compliance Matrix: (Units=1/GPa)
#
#
# Indices 1 2 3 4 5 6 
#
# 1 0.012488 0.000904 -0.005152 0.000000 -0.002452 0.000000
# 2 0.000904 0.019104 -0.003314 0.000000 0.001577 0.000000
# 3 -0.005152 -0.003314 0.014030 0.000000 0.002053 0.000000
# 4 0.000000 0.000000 0.000000 0.080200 0.000000 -0.041284
# 5 -0.002452 0.001577 0.002053 0.000000 0.033559 0.000000
# 6 0.000000 0.000000 0.000000 -0.041284 0.000000 0.115669
#
#
# Mechanical properties :
#
#
# Convention : Reuss Voigt Hill
#
# Bulk Modulus (GPa) = 32.79184 37.42787 35.10985
# Shear Modulus (GPa) = 16.64771 23.83840 20.24305
#
# Velocity S-wave (km/s) = 2.83151 3.38828 3.12233
# Velocity P-wave (km/s) = 5.14610 5.77342 5.46876
#
# Compressibility (1/GPa) = 0.03049539
#
# Stress axis : x y z
#
# Youngs Moduli (GPa) = 80.07979 52.34546 71.27341
#
# Poissons Ratio (x) = -0.04730 0.36723
# Poissons Ratio (y) = -0.07236 0.23623
# Poissons Ratio (z) = 0.41260 0.17349
#
# Static dielectric constant tensor:
#      x y z
#    x 1.808090 0.000000 0.007230 
#    y 0.000000 1.760240 0.000000 
#    z 0.007230 0.000000 1.769320 
# 
# From -- ./inp_files/22275.got.cif
#   From: 2010.05.17/outbox.cif.g08.bks.cpg/sg14_12_cif.got.tgz:22275.got - 2010.06.03 17:49:19.
