data_PCOD9242424
_publ_section_title
;
Structure prediction by ZEFSAII (Michael W. Deem and Ramdas Pophale) SiO2 
 PCOD9242424
Probable space group: P 21/C
;
_chemical_formula_sum "Si O2"
_cell_formula_units_Z 32
_cell_length_a 10.401219
_cell_length_b 28.404087
_cell_length_c 5.848424
_cell_angle_alpha 90.000000
_cell_angle_beta 61.977417
_cell_angle_gamma 90.000000
_cell_volume 1525.273739
_symmetry_space_group_name_H-M "P 21/C"
_symmetry_group_IT_number 14
_symmetry_cell_setting 'monoclinic'
loop_
_space_group_symop_operation_xyz
x,y,z
-x,1/2+y,1/2-z
-x,-y,-z
x,1/2-y,1/2+z
loop_
_atom_site_type_symbol
_atom_site_label
_atom_site_fract_x
_atom_site_fract_y
_atom_site_fract_z
Si Si1 0.724396 0.999169 0.850268
Si Si2 0.465769 0.960263 0.343108
Si Si3 0.862646 0.911047 0.546262
Si Si4 0.640246 0.878984 0.385010
Si Si5 0.078714 0.548950 0.492593
Si Si6 0.625024 0.731822 0.875889
Si Si7 0.972730 0.732091 0.553419
Si Si8 0.947755 0.870285 0.885950
O O1 0.685317 0.027816 0.654255
O O2 0.772370 0.033998 0.012130
O O3 0.844529 0.959732 0.699875
O O4 0.586696 0.969190 0.047217
O O5 0.505324 0.910078 0.415089
O O6 0.500000 0.000000 0.500000
O O7 0.707226 0.898578 0.565090
O O8 0.919516 0.866384 0.639858
O O9 0.980313 0.924443 0.261101
O O10 0.606989 0.824165 0.418017
O O11 0.784007 0.885005 0.104282
O O12 0.000000 0.500000 0.500000
O O13 0.067332 0.588509 0.309046
O O14 0.569775 0.746294 0.665417
O O15 0.798855 0.742621 0.716386
O O16 0.028470 0.744787 0.764655
O O17 0.986978 0.676476 0.487817
#
# Coordination Sequence:
#
# PCOD9242424 Si02
#       8
#     4   4   4   4   4   4   4   4
#     4  11  22  35  52  76 107 146 186 222 266 325
#     4  11  22  36  52  75 108 147 184 223 271 326
#     4  11  20  33  54  77 107 149 178 224 274 329
#     4  10  20  33  51  75 111 141 181 223 278 332
#     4  11  22  34  52  80 109 145 183 225 274 323
#     4   9  19  31  50  78 107 143 180 228 283 340
#     4   9  19  32  50  76 112 145 179 225 279 344
#     4  10  21  32  53  77 109 144 181 220 282 334
#
# _framework density 20.979842000000001
#
# number of rings (size 3 to 8) (size 9 to 14) (size 15 to 20)
#    0.000    1.750    3.750    1.125   10.500    0.000 
#    0.000    0.000    0.000    0.000    0.000    1.750 
#    0.000    0.000    0.000    0.000    0.000    0.000 
#
# Total GULP energy -178221.799766 kJ/mol
# GULP energy per Si atom -5569.431243 kJ/mol
# Density = 2.093209 g / cm^3
# Si number density = 20.979842 Si / 1000 Ang^3
#
#
#
# Elastic Constant Matrix: (Units=GPa)
#
#
# Indices 1 2 3 4 5 6 
#
# 1 43.2334 33.6033 10.8309 0.0000 25.4369 0.0000
# 2 33.6033 103.3552 35.8721 0.0000 20.4797 0.0000
# 3 10.8309 35.8721 76.5669 0.0000 24.6211 0.0000
# 4 0.0000 0.0000 0.0000 32.6329 0.0000 6.8292
# 5 25.4369 20.4797 24.6211 0.0000 29.8816 0.0000
# 6 0.0000 0.0000 0.0000 6.8292 0.0000 22.8949
#
#
#
# Elastic Compliance Matrix: (Units=1/GPa)
#
#
# Indices 1 2 3 4 5 6 
#
# 1 0.066097 -0.015617 0.017166 0.000000 -0.059707 0.000000
# 2 -0.015617 0.015752 -0.008127 0.000000 0.009195 0.000000
# 3 0.017166 -0.008127 0.023601 0.000000 -0.028489 0.000000
# 4 0.000000 0.000000 0.000000 0.032684 0.000000 -0.009749
# 5 -0.059707 0.009195 -0.028489 0.000000 0.101463 0.000000
# 6 0.000000 0.000000 0.000000 -0.009749 0.000000 0.046586
#
#
# Mechanical properties :
#
#
# Convention : Reuss Voigt Hill
#
# Bulk Modulus (GPa) = 10.83499 42.64091 26.73795
# Shear Modulus (GPa) = 15.14676 26.60517 20.87596
#
# Velocity S-wave (km/s) = 2.68986 3.56494 3.15786
# Velocity P-wave (km/s) = 3.85004 6.10851 5.10572
#
# Compressibility (1/GPa) = 0.09229356
#
# Stress axis : x y z
#
# Youngs Moduli (GPa) = 15.12918 63.48540 42.37136
#
# Poissons Ratio (x) = 0.99145 -0.72736
# Poissons Ratio (y) = 0.23627 0.34437
# Poissons Ratio (z) = -0.25971 0.51597
#
# Static dielectric constant tensor:
#      x y z
#    x 1.825330 0.000000 0.109830 
#    y 0.000000 1.766040 0.000000 
#    z 0.109830 0.000000 1.962960 
# 
# From -- ./inp_files/3204.got.cif
#   From: 2010.05.17/outbox.cif.g08.bks.cpg/sg14_2_cif.got.tgz:3204.got - 2010.06.03 17:49:19.
