data_PCOD9242233
_publ_section_title
;
Structure prediction by ZEFSAII (Michael W. Deem and Ramdas Pophale) SiO2 
 PCOD9242233
Probable space group: P 21/C
;
_chemical_formula_sum "Si O2"
_cell_formula_units_Z 32
_cell_length_a 14.381619
_cell_length_b 10.892099
_cell_length_c 15.127320
_cell_angle_alpha 90.000000
_cell_angle_beta 33.733894
_cell_angle_gamma 90.000000
_cell_volume 1315.944455
_symmetry_space_group_name_H-M "P 21/C"
_symmetry_group_IT_number 14
_symmetry_cell_setting 'monoclinic'
loop_
_space_group_symop_operation_xyz
x,y,z
-x,1/2+y,1/2-z
-x,-y,-z
x,1/2-y,1/2+z
loop_
_atom_site_type_symbol
_atom_site_label
_atom_site_fract_x
_atom_site_fract_y
_atom_site_fract_z
Si Si1 0.922137 0.464029 0.839145
Si Si2 0.651766 0.912806 0.352782
Si Si3 0.257292 0.878320 0.830771
Si Si4 0.834676 0.939915 0.589391
Si Si5 0.442598 0.855838 0.193031
Si Si6 0.379552 0.801422 0.450893
Si Si7 0.920508 0.747273 0.161803
Si Si8 0.723658 0.465936 0.496609
O O1 0.008204 0.353211 0.827382
O O2 0.077355 0.516312 0.662295
O O3 0.767876 0.399362 0.911851
O O4 0.856461 0.559274 0.966062
O O5 0.549032 0.827237 0.367107
O O6 0.774824 0.833562 0.316458
O O7 0.500000 0.000000 0.500000
O O8 0.774145 0.008938 0.208061
O O9 0.381405 0.770925 0.696241
O O10 0.336117 0.941385 0.855884
O O11 0.086673 0.813714 0.994810
O O12 0.834826 0.815190 0.643644
O O13 0.682883 0.032209 0.729803
O O14 0.000000 0.000000 0.500000
O O15 0.412476 0.822059 0.320141
O O16 0.624091 0.916838 0.037683
O O17 0.318762 0.662795 0.517058
#
# Coordination Sequence:
#
# PCOD9242233 Si02
#       8
#     4   4   4   4   4   4   4   4
#     4  10  22  40  70  97 123 167 213 270 309 378
#     4  12  28  42  63  95 132 172 210 262 323 382
#     4  11  23  44  64  91 130 170 206 258 325 382
#     4   9  17  39  66  92 123 161 205 256 323 369
#     4  10  19  40  70  88 124 165 215 265 309 381
#     4  10  22  45  59  94 131 165 216 262 312 382
#     4  11  22  45  65  94 132 167 209 262 324 388
#     4  11  22  40  68  96 121 163 221 264 314 363
#
# _framework density 24.317136000000001
#
# number of rings (size 3 to 8) (size 9 to 14) (size 15 to 20)
#    0.000    1.500    6.250    1.125    3.500    1.000 
#    2.250    3.125    0.000    0.000    0.000    0.000 
#    0.000    0.000    0.000    0.000    0.000    0.000 
#
# Total GULP energy -178780.640239 kJ/mol
# GULP energy per Si atom -5586.895007 kJ/mol
# Density = 2.426179 g / cm^3
# Si number density = 24.317136 Si / 1000 Ang^3
#
#
#
# Elastic Constant Matrix: (Units=GPa)
#
#
# Indices 1 2 3 4 5 6 
#
# 1 60.4047 25.4074 16.2703 0.0000 -25.4063 0.0000
# 2 25.4074 93.2950 39.4045 0.0000 -15.0297 0.0000
# 3 16.2703 39.4045 71.9480 0.0000 -25.4047 0.0000
# 4 0.0000 0.0000 0.0000 44.5270 0.0000 -7.9123
# 5 -25.4063 -15.0297 -25.4047 0.0000 30.1214 0.0000
# 6 0.0000 0.0000 0.0000 -7.9123 0.0000 26.9247
#
#
#
# Elastic Compliance Matrix: (Units=1/GPa)
#
#
# Indices 1 2 3 4 5 6 
#
# 1 0.028479 -0.006144 0.006158 0.000000 0.026149 0.000000
# 2 -0.006144 0.015281 -0.008712 0.000000 -0.004905 0.000000
# 3 0.006158 -0.008712 0.025031 0.000000 0.021959 0.000000
# 4 0.000000 0.000000 0.000000 0.023696 0.000000 0.006963
# 5 0.026149 -0.004905 0.021959 0.000000 0.071327 0.000000
# 6 0.000000 0.000000 0.000000 0.006963 0.000000 0.039187
#
#
# Mechanical properties :
#
#
# Convention : Reuss Voigt Hill
#
# Bulk Modulus (GPa) = 19.45697 43.09023 31.27360
# Shear Modulus (GPa) = 21.05006 29.95232 25.50119
#
# Velocity S-wave (km/s) = 2.94538 3.51342 3.24186
# Velocity P-wave (km/s) = 4.42558 5.84956 5.18667
#
# Compressibility (1/GPa) = 0.05139547
#
# Stress axis : x y z
#
# Youngs Moduli (GPa) = 35.11372 65.43951 39.95007
#
# Poissons Ratio (x) = 0.40207 -0.24601
# Poissons Ratio (y) = 0.21574 0.34804
# Poissons Ratio (z) = -0.21623 0.57010
#
# Static dielectric constant tensor:
#      x y z
#    x 1.967490 0.000000 0.063530 
#    y 0.000000 1.992580 0.000000 
#    z 0.063530 0.000000 1.963400 
# 
# From -- ./inp_files/59471.got.cif
#   From: 2010.05.17/outbox.cif.g08.bks.cpg/sg14_30_cif.got.tgz:59471.got - 2010.06.03 17:49:19.
