data_PCOD9242835
_publ_section_title
;
Structure prediction by ZEFSAII (Michael W. Deem and Ramdas Pophale) SiO2 
 PCOD9242835
Probable space group: P 21/C
;
_chemical_formula_sum "Si O2"
_cell_formula_units_Z 30
_cell_length_a 8.817539
_cell_length_b 5.567402
_cell_length_c 28.688466
_cell_angle_alpha 90.000000
_cell_angle_beta 125.305854
_cell_angle_gamma 90.000000
_cell_volume 1149.315483
_symmetry_space_group_name_H-M "P 21/C"
_symmetry_group_IT_number 14
_symmetry_cell_setting 'monoclinic'
loop_
_space_group_symop_operation_xyz
x,y,z
-x,1/2+y,1/2-z
-x,-y,-z
x,1/2-y,1/2+z
loop_
_atom_site_type_symbol
_atom_site_label
_atom_site_fract_x
_atom_site_fract_y
_atom_site_fract_z
Si Si1 0.149393 0.802317 0.316808
Si Si2 0.780796 0.705074 0.630801
Si Si3 0.754436 0.639574 0.909262
Si Si4 0.812146 0.309852 0.283592
Si Si5 0.754285 0.683494 0.799103
Si Si6 0.500000 0.500000 0.000000
Si Si7 0.463102 0.431242 0.558230
Si Si8 0.815620 0.205152 0.498684
O O1 0.242865 0.548514 0.346055
O O2 0.108632 0.811480 0.254840
O O3 0.966068 0.806575 0.316121
O O4 0.246496 0.054691 0.344774
O O5 0.591116 0.673791 0.567839
O O6 0.994962 0.701675 0.651681
O O7 0.738537 0.643179 0.851105
O O8 0.604326 0.820615 0.904371
O O9 0.744151 0.384234 0.934770
O O10 0.965084 0.713737 0.958717
O O11 0.697772 0.548622 0.274050
O O12 0.693056 0.069193 0.266249
O O13 0.550055 0.286479 0.046094
O O14 0.282066 0.518834 0.983706
O O15 0.267458 0.535304 0.505472
#
# Coordination Sequence:
#
# PCOD9242835 Si02
#       8
#     4   4   4   4   4   2   4   4
#     4  10  20  39  64 102 129 166 211 284 339 381
#     4  10  21  34  65  94 129 165 211 272 328 390
#     4  10  24  41  62  92 130 179 223 257 333 399
#     4  10  20  38  65 101 130 163 216 280 336 384
#     4  10  20  35  63  96 127 165 219 267 316 400
#     4  10  24  40  64  96 126 166 220 282 332 384
#     4  11  24  42  63  92 133 174 222 274 336 392
#     4  10  23  44  64  87 132 176 216 278 327 394
#
# _framework density 26.102497
#
# number of rings (size 3 to 8) (size 9 to 14) (size 15 to 20)
#    0.000    1.867    0.000    4.800    9.333    1.067 
#    0.000    0.000    0.000    4.800    0.000    0.000 
#    0.000    0.000    0.000    0.000    0.000    0.000 
#
# Total GULP energy -167102.634595 kJ/mol
# GULP energy per Si atom -5570.087820 kJ/mol
# Density = 2.604309 g / cm^3
# Si number density = 26.102497 Si / 1000 Ang^3
#
#
#
# Elastic Constant Matrix: (Units=GPa)
#
#
# Indices 1 2 3 4 5 6 
#
# 1 138.6826 16.8511 33.1077 0.0000 -17.1097 0.0000
# 2 16.8511 168.7767 -3.2278 0.0000 -10.4768 0.0000
# 3 33.1077 -3.2278 28.6404 0.0000 -21.6343 0.0000
# 4 0.0000 0.0000 0.0000 13.2370 0.0000 -22.9137
# 5 -17.1097 -10.4768 -21.6343 0.0000 54.9065 0.0000
# 6 0.0000 0.0000 0.0000 -22.9137 0.0000 -0.1677
#
#
#
# Elastic Compliance Matrix: (Units=1/GPa)
#
#
# Indices 1 2 3 4 5 6 
#
# 1 0.010471 -0.001482 -0.014266 0.000000 -0.002641 0.000000
# 2 -0.001482 0.006304 0.004248 0.000000 0.002415 0.000000
# 3 -0.014266 0.004248 0.069963 0.000000 0.023932 0.000000
# 4 0.000000 0.000000 0.000000 0.000318 0.000000 -0.043458
# 5 -0.002641 0.002415 0.023932 0.000000 0.027280 0.000000
# 6 0.000000 0.000000 0.000000 -0.043458 0.000000 -0.025105
#
#
# Mechanical properties :
#
#
# Convention : Reuss Voigt Hill
#
# Bulk Modulus (GPa) = 15.68930 47.72909 31.70920
# Shear Modulus (GPa) = 37.45959 32.88640 35.17299
#
# Velocity S-wave (km/s) = 3.79238 3.55335 3.67481
# Velocity P-wave (km/s) = 5.01995 5.92959 5.49363
#
# Compressibility (1/GPa) = 0.06373770
#
# Stress axis : x y z
#
# Youngs Moduli (GPa) = 95.50474 158.62650 14.29322
#
# Poissons Ratio (x) = 0.23512 0.20391
# Poissons Ratio (y) = 0.14156 -0.06072
# Poissons Ratio (z) = 1.36246 -0.67384
#
# Static dielectric constant tensor:
#      x y z
#    x 2.115310 0.000000 0.087480 
#    y 0.000000 2.184740 0.000000 
#    z 0.087480 0.000000 1.933950 
# 
# From -- ./inp_files/79306.got.cif
#   From: 2010.05.17/outbox.cif.g08.bks.cpg/sg14_40_cif.got.tgz:79306.got - 2010.06.03 17:49:19.
