data_PCOD9242221
_publ_section_title
;
Structure prediction by ZEFSAII (Michael W. Deem and Ramdas Pophale) SiO2 
 PCOD9242221
Probable space group: P 21/C
;
_chemical_formula_sum "Si O2"
_cell_formula_units_Z 24
_cell_length_a 12.484703
_cell_length_b 13.599321
_cell_length_c 8.108647
_cell_angle_alpha 90.000000
_cell_angle_beta 45.221352
_cell_angle_gamma 90.000000
_cell_volume 977.237650
_symmetry_space_group_name_H-M "P 21/C"
_symmetry_group_IT_number 14
_symmetry_cell_setting 'monoclinic'
loop_
_space_group_symop_operation_xyz
x,y,z
-x,1/2+y,1/2-z
-x,-y,-z
x,1/2-y,1/2+z
loop_
_atom_site_type_symbol
_atom_site_label
_atom_site_fract_x
_atom_site_fract_y
_atom_site_fract_z
Si Si1 0.909093 0.895627 0.724793
Si Si2 0.485257 0.710112 0.529184
Si Si3 0.178322 0.295743 0.984777
Si Si4 0.619398 0.468588 0.516784
Si Si5 0.435547 0.902073 0.427679
Si Si6 0.877029 0.508295 0.775969
O O1 0.937294 0.832625 0.529735
O O2 0.952599 0.044677 0.351244
O O3 0.853322 0.812762 0.915091
O O4 0.775504 0.973554 0.835311
O O5 0.656676 0.698035 0.277366
O O6 0.376301 0.646647 0.527030
O O7 0.456897 0.825409 0.550076
O O8 0.464272 0.667470 0.734604
O O9 0.166453 0.379086 0.138072
O O10 0.500000 0.500000 0.500000
O O11 0.549164 0.508693 0.763673
O O12 0.271215 0.947913 0.605631
O O13 0.000000 0.500000 0.500000
#
# Coordination Sequence:
#
# PCOD9242221 Si02
#       6
#     4   4   4   4   4   4
#     4  12  25  43  74 105 143 188 232 298 365 436
#     4  11  21  41  74 102 136 180 245 299 354 407
#     4  12  22  45  72 102 141 189 239 297 368 424
#     4  10  19  40  67 101 135 180 239 285 349 418
#     4  11  23  43  69 100 138 180 236 297 347 428
#     4  12  29  48  67 103 151 192 240 293 365 440
#
# _framework density 24.559018999999999
#
# number of rings (size 3 to 8) (size 9 to 14) (size 15 to 20)
#    0.000    0.667    6.667    2.500    0.000    5.333 
#    0.000    1.667    0.000    0.000    0.000    0.000 
#    0.000    0.000    0.000    0.000    0.000    0.000 
#
# Total GULP energy -134431.910725 kJ/mol
# GULP energy per Si atom -5601.329614 kJ/mol
# Density = 2.450312 g / cm^3
# Si number density = 24.559019 Si / 1000 Ang^3
#
#
#
# Elastic Constant Matrix: (Units=GPa)
#
#
# Indices 1 2 3 4 5 6 
#
# 1 77.3933 39.5402 13.1662 0.0000 -8.1298 0.0000
# 2 39.5402 170.3853 39.2121 0.0000 -1.9569 0.0000
# 3 13.1662 39.2121 117.2019 0.0000 -10.3140 0.0000
# 4 0.0000 0.0000 0.0000 48.4351 0.0000 12.5358
# 5 -8.1298 -1.9569 -10.3140 0.0000 32.9419 0.0000
# 6 0.0000 0.0000 0.0000 12.5358 0.0000 37.6149
#
#
#
# Elastic Compliance Matrix: (Units=1/GPa)
#
#
# Indices 1 2 3 4 5 6 
#
# 1 0.015061 -0.003397 -0.000253 0.000000 0.003436 0.000000
# 2 -0.003397 0.007128 -0.002097 0.000000 -0.001072 0.000000
# 3 -0.000253 -0.002097 0.009508 0.000000 0.002790 0.000000
# 4 0.000000 0.000000 0.000000 0.022595 0.000000 -0.007530
# 5 0.003436 -0.001072 0.002790 0.000000 0.032014 0.000000
# 6 0.000000 0.000000 0.000000 -0.007530 0.000000 0.029095
#
#
# Mechanical properties :
#
#
# Convention : Reuss Voigt Hill
#
# Bulk Modulus (GPa) = 49.50216 60.97973 55.24094
# Shear Modulus (GPa) = 37.41685 42.00252 39.70969
#
# Velocity S-wave (km/s) = 3.90750 4.14003 4.02544
# Velocity P-wave (km/s) = 6.36854 6.90919 6.64436
#
# Compressibility (1/GPa) = 0.02020114
#
# Stress axis : x y z
#
# Youngs Moduli (GPa) = 66.39811 140.29492 105.17531
#
# Poissons Ratio (x) = 0.47663 0.02660
# Poissons Ratio (y) = 0.22558 0.22060
# Poissons Ratio (z) = 0.01679 0.29426
#
# Static dielectric constant tensor:
#      x y z
#    x 1.979910 0.000000 0.101220 
#    y 0.000000 2.005140 0.000000 
#    z 0.101220 0.000000 1.984550 
# 
# From -- ./inp_files/17886.got.cif
#   From: 2010.05.17/outbox.cif.g08.bks.cpg/sg14_9_cif.got.tgz:17886.got - 2010.06.03 17:49:19.
