data_PCOD9242489
_publ_section_title
;
Structure prediction by ZEFSAII (Michael W. Deem and Ramdas Pophale) SiO2 
 PCOD9242489
Probable space group: P 21/C
;
_chemical_formula_sum "Si O2"
_cell_formula_units_Z 32
_cell_length_a 25.516636
_cell_length_b 8.109182
_cell_length_c 22.666534
_cell_angle_alpha 90.000000
_cell_angle_beta 165.368745
_cell_angle_gamma 90.000000
_cell_volume 1184.715660
_symmetry_space_group_name_H-M "P 21/C"
_symmetry_group_IT_number 14
_symmetry_cell_setting 'monoclinic'
loop_
_space_group_symop_operation_xyz
x,y,z
-x,1/2+y,1/2-z
-x,-y,-z
x,1/2-y,1/2+z
loop_
_atom_site_type_symbol
_atom_site_label
_atom_site_fract_x
_atom_site_fract_y
_atom_site_fract_z
Si Si1 0.482052 0.487905 0.161667
Si Si2 0.681398 0.911098 0.628383
Si Si3 0.094937 0.152676 0.294076
Si Si4 0.206033 0.898197 0.656650
Si Si5 0.112006 0.017268 0.438881
Si Si6 0.301320 0.840848 0.996082
Si Si7 0.709660 0.537001 0.630293
Si Si8 0.879528 0.020926 0.955456
O O1 0.404223 0.663736 0.100976
O O2 0.662626 0.421686 0.400347
O O3 0.492571 0.498964 0.102195
O O4 0.302639 0.353137 0.981216
O O5 0.644732 0.721128 0.574209
O O6 0.893650 0.986156 0.830349
O O7 0.726114 0.916201 0.747041
O O8 0.995557 0.335213 0.186967
O O9 0.941904 0.027757 0.092412
O O10 0.170991 0.082864 0.439205
O O11 0.206441 0.704268 0.648519
O O12 0.266994 0.988094 0.662050
O O13 0.961828 0.946489 0.396722
O O14 0.314931 0.935945 0.836366
O O15 0.946610 0.155294 0.279476
O O16 0.370969 0.955886 0.017651
#
# Coordination Sequence:
#
# PCOD9242489 Si02
#       8
#     4   4   4   4   4   4   4   4
#     4  11  21  34  52  74 102 134 168 207 251 298
#     4   9  16  27  45  70  97 125 162 205 247 291
#     4  10  20  34  52  76 104 134 169 206 248 297
#     4   8  15  27  44  68  97 127 161 202 244 288
#     4  10  20  34  52  76 104 134 169 206 248 297
#     4  11  21  34  52  74 102 134 168 207 251 298
#     4   9  16  27  45  70  97 125 162 205 247 291
#     4   8  15  27  44  68  97 127 161 202 244 288
#
# _framework density 27.010701999999998
#
# number of rings (size 3 to 8) (size 9 to 14) (size 15 to 20)
#    0.000    2.500    0.000    5.250    0.000    7.000 
#    0.000    0.000    0.000    1.500    0.000    0.000 
#    0.000    0.000    0.000    0.000    0.000    0.000 
#
# Total GULP energy -178899.922444 kJ/mol
# GULP energy per Si atom -5590.622576 kJ/mol
# Density = 2.694922 g / cm^3
# Si number density = 27.010702 Si / 1000 Ang^3
#
#
#
# Elastic Constant Matrix: (Units=GPa)
#
#
# Indices 1 2 3 4 5 6 
#
# 1 118.1795 15.6439 20.7800 0.0000 -40.0099 0.0000
# 2 15.6439 101.0148 25.7557 0.0000 -29.6463 0.0000
# 3 20.7800 25.7557 126.6280 0.0000 -33.0618 0.0000
# 4 0.0000 0.0000 0.0000 34.2434 0.0000 -12.8887
# 5 -40.0099 -29.6463 -33.0618 0.0000 55.4279 0.0000
# 6 0.0000 0.0000 0.0000 -12.8887 0.0000 29.1307
#
#
#
# Elastic Compliance Matrix: (Units=1/GPa)
#
#
# Indices 1 2 3 4 5 6 
#
# 1 0.011255 0.000735 0.000269 0.000000 0.008678 0.000000
# 2 0.000735 0.011876 -0.000875 0.000000 0.006360 0.000000
# 3 0.000269 -0.000875 0.009428 0.000000 0.005350 0.000000
# 4 0.000000 0.000000 0.000000 0.035037 0.000000 0.015502
# 5 0.008678 0.006360 0.005350 0.000000 0.030899 0.000000
# 6 0.000000 0.000000 0.000000 0.015502 0.000000 0.041187
#
#
# Mechanical properties :
#
#
# Convention : Reuss Voigt Hill
#
# Bulk Modulus (GPa) = 30.47253 52.24241 41.35747
# Shear Modulus (GPa) = 33.25311 42.66990 37.96150
#
# Velocity S-wave (km/s) = 3.51252 3.97891 3.75297
# Velocity P-wave (km/s) = 5.26845 6.36336 5.84161
#
# Compressibility (1/GPa) = 0.03281644
#
# Stress axis : x y z
#
# Youngs Moduli (GPa) = 88.84913 84.20666 106.06946
#
# Poissons Ratio (x) = -0.06191 -0.02856
# Poissons Ratio (y) = -0.06532 0.09286
# Poissons Ratio (z) = -0.02393 0.07372
#
# Static dielectric constant tensor:
#      x y z
#    x 2.289220 0.000000 0.077190 
#    y 0.000000 2.016050 0.000000 
#    z 0.077190 0.000000 2.240470 
# 
# From -- ./inp_files/70537.got.cif
#   From: 2010.05.17/outbox.cif.g08.bks.cpg/sg14_36_cif.got.tgz:70537.got - 2010.06.03 17:49:19.
