data_PCOD9242295
_publ_section_title
;
Structure prediction by ZEFSAII (Michael W. Deem and Ramdas Pophale) SiO2 
 PCOD9242295
Probable space group: P 21/C
;
_chemical_formula_sum "Si O2"
_cell_formula_units_Z 32
_cell_length_a 12.311064
_cell_length_b 16.283651
_cell_length_c 15.259249
_cell_angle_alpha 90.000000
_cell_angle_beta 148.550730
_cell_angle_gamma 90.000000
_cell_volume 1596.017032
_symmetry_space_group_name_H-M "P 21/C"
_symmetry_group_IT_number 14
_symmetry_cell_setting 'monoclinic'
loop_
_space_group_symop_operation_xyz
x,y,z
-x,1/2+y,1/2-z
-x,-y,-z
x,1/2-y,1/2+z
loop_
_atom_site_type_symbol
_atom_site_label
_atom_site_fract_x
_atom_site_fract_y
_atom_site_fract_z
Si Si1 0.931730 0.686139 0.351191
Si Si2 0.748894 0.506581 0.172353
Si Si3 0.937519 0.042934 0.239346
Si Si4 0.613228 0.831823 0.106300
Si Si5 0.770861 0.987575 0.306246
Si Si6 0.144625 0.782114 0.826984
Si Si7 0.000112 0.645086 0.593074
Si Si8 0.638185 0.568393 0.439550
O O1 0.840063 0.594762 0.267196
O O2 0.750043 0.750734 0.207377
O O3 0.005355 0.686334 0.502026
O O4 0.112291 0.717412 0.409300
O O5 0.852590 0.497036 0.146128
O O6 0.849252 0.433968 0.298875
O O7 0.500000 0.500000 0.000000
O O8 0.992333 0.137604 0.290130
O O9 0.802553 0.020671 0.230207
O O10 0.776120 0.013810 0.052747
O O11 0.692479 0.895408 0.235198
O O12 0.376708 0.806491 0.960301
O O13 0.638561 0.875883 0.028617
O O14 0.596217 0.039140 0.236491
O O15 0.000000 0.000000 0.500000
O O16 0.070015 0.704794 0.720260
O O17 0.764505 0.616060 0.452282
#
# Coordination Sequence:
#
# PCOD9242295 Si02
#       8
#     4   4   4   4   4   4   4   4
#     4  11  25  42  63 101 134 166 228 269 322 398
#     4  10  22  43  64  90 129 183 219 263 334 400
#     4   9  19  37  63  86 122 168 215 262 328 388
#     4  11  21  42  66  90 132 169 213 273 334 382
#     4  11  22  37  64  99 125 163 221 279 329 397
#     4  11  21  42  66  90 129 174 212 272 328 386
#     4  11  24  42  69  94 136 176 220 272 325 399
#     4  10  19  42  66  88 125 176 207 267 339 388
#
# _framework density 20.049911999999999
#
# number of rings (size 3 to 8) (size 9 to 14) (size 15 to 20)
#    0.000    1.500    3.750    1.875    1.750    1.000 
#    6.750    0.000    0.000    0.000    0.000    0.000 
#    0.000    0.000    0.000    0.000    0.000    0.000 
#
# Total GULP energy -178300.323127 kJ/mol
# GULP energy per Si atom -5571.885098 kJ/mol
# Density = 2.000428 g / cm^3
# Si number density = 20.049912 Si / 1000 Ang^3
#
#
#
# Elastic Constant Matrix: (Units=GPa)
#
#
# Indices 1 2 3 4 5 6 
#
# 1 99.1494 19.3864 30.1142 0.0000 17.1319 0.0000
# 2 19.3864 96.8188 27.8151 0.0000 -1.2360 0.0000
# 3 30.1142 27.8151 71.4735 0.0000 25.9638 0.0000
# 4 0.0000 0.0000 0.0000 21.3907 0.0000 7.4309
# 5 17.1319 -1.2360 25.9638 0.0000 36.5233 0.0000
# 6 0.0000 0.0000 0.0000 7.4309 0.0000 27.0757
#
#
#
# Elastic Compliance Matrix: (Units=1/GPa)
#
#
# Indices 1 2 3 4 5 6 
#
# 1 0.011940 -0.001508 -0.003223 0.000000 -0.003360 0.000000
# 2 -0.001508 0.012498 -0.006254 0.000000 0.005576 0.000000
# 3 -0.003223 -0.006254 0.023338 0.000000 -0.015290 0.000000
# 4 0.000000 0.000000 0.000000 0.051676 0.000000 -0.014182
# 5 -0.003360 0.005576 -0.015290 0.000000 0.040014 0.000000
# 6 0.000000 0.000000 0.000000 -0.014182 0.000000 0.040826
#
#
# Mechanical properties :
#
#
# Convention : Reuss Voigt Hill
#
# Bulk Modulus (GPa) = 38.75165 46.89702 42.82433
# Shear Modulus (GPa) = 23.71183 29.67302 26.69243
#
# Velocity S-wave (km/s) = 3.44268 3.85120 3.65266
# Velocity P-wave (km/s) = 5.93063 6.57393 6.26054
#
# Compressibility (1/GPa) = 0.02580536
#
# Stress axis : x y z
#
# Youngs Moduli (GPa) = 83.75044 80.00960 42.84909
#
# Poissons Ratio (x) = 0.12063 0.13812
# Poissons Ratio (y) = 0.12627 0.26800
# Poissons Ratio (z) = 0.26996 0.50042
#
# Static dielectric constant tensor:
#      x y z
#    x 1.751090 0.000000 0.021770 
#    y 0.000000 1.758940 0.000000 
#    z 0.021770 0.000000 1.618510 
# 
# From -- ./inp_files/45462.got.cif
#   From: 2010.05.17/outbox.cif.g08.bks.cpg/sg14_23_cif.got.tgz:45462.got - 2010.06.03 17:49:19.
