data_PCOD9242222
_publ_section_title
;
Structure prediction by ZEFSAII (Michael W. Deem and Ramdas Pophale) SiO2 
 PCOD9242222
Probable space group: P 21/C
;
_chemical_formula_sum "Si O2"
_cell_formula_units_Z 32
_cell_length_a 13.456757
_cell_length_b 9.463223
_cell_length_c 24.064519
_cell_angle_alpha 90.000000
_cell_angle_beta 29.904120
_cell_angle_gamma 90.000000
_cell_volume 1527.796306
_symmetry_space_group_name_H-M "P 21/C"
_symmetry_group_IT_number 14
_symmetry_cell_setting 'monoclinic'
loop_
_space_group_symop_operation_xyz
x,y,z
-x,1/2+y,1/2-z
-x,-y,-z
x,1/2-y,1/2+z
loop_
_atom_site_type_symbol
_atom_site_label
_atom_site_fract_x
_atom_site_fract_y
_atom_site_fract_z
Si Si1 0.801644 0.701205 0.045402
Si Si2 0.851456 0.388724 0.197904
Si Si3 0.818348 0.026366 0.292803
Si Si4 0.255736 0.962615 0.909567
Si Si5 0.845094 0.549976 0.657543
Si Si6 0.681483 0.653964 0.228228
Si Si7 0.115332 0.237686 0.666633
Si Si8 0.523245 0.708368 0.082227
O O1 0.760678 0.642113 0.126339
O O2 0.648016 0.644306 0.073204
O O3 0.761713 0.870138 0.068074
O O4 0.021890 0.670466 0.915636
O O5 0.805270 0.550885 0.207636
O O6 0.642359 0.311322 0.311430
O O7 0.986855 0.355720 0.185416
O O8 0.883621 0.026564 0.196473
O O9 0.828750 0.869183 0.311468
O O10 0.598816 0.094308 0.394985
O O11 0.972526 0.130507 0.249231
O O12 0.453783 0.895635 0.837096
O O13 0.246501 0.955527 0.847171
O O14 0.055531 0.895862 0.031277
O O15 0.704982 0.684175 0.734254
O O16 0.314373 0.281468 0.536587
#
# Coordination Sequence:
#
# PCOD9242222 Si02
#       8
#     4   4   4   4   4   4   4   4
#     4  10  20  36  62  92 123 170 201 261 317 384
#     4  10  21  38  62  89 125 161 214 257 317 378
#     4  11  23  43  65  91 124 165 212 272 319 379
#     4  10  20  42  62  90 131 167 210 250 323 395
#     4  10  23  40  63  90 128 168 207 265 321 373
#     4  11  22  36  61  94 128 162 211 263 311 389
#     4  10  24  41  68  89 123 163 214 265 325 374
#     4  10  19  40  67  88 120 167 207 254 319 386
#
# _framework density 20.945201000000001
#
# number of rings (size 3 to 8) (size 9 to 14) (size 15 to 20)
#    0.000    1.750    1.250    3.750    1.750    2.000 
#    9.000    5.000    0.000    0.000    0.000    0.000 
#    0.000    0.000    0.000    0.000    0.000    0.000 
#
# Total GULP energy -178739.138488 kJ/mol
# GULP energy per Si atom -5585.598078 kJ/mol
# Density = 2.089753 g / cm^3
# Si number density = 20.945201 Si / 1000 Ang^3
#
#
#
# Elastic Constant Matrix: (Units=GPa)
#
#
# Indices 1 2 3 4 5 6 
#
# 1 37.5413 8.2691 14.4519 0.0000 -8.7897 0.0000
# 2 8.2691 53.8429 7.7221 0.0000 -13.5598 0.0000
# 3 14.4519 7.7221 72.8599 0.0000 -22.5272 0.0000
# 4 0.0000 0.0000 0.0000 -3.6645 0.0000 17.7297
# 5 -8.7897 -13.5598 -22.5272 0.0000 26.8921 0.0000
# 6 0.0000 0.0000 0.0000 17.7297 0.0000 15.5704
#
#
#
# Elastic Compliance Matrix: (Units=1/GPa)
#
#
# Indices 1 2 3 4 5 6 
#
# 1 0.029994 -0.002768 -0.004125 0.000000 0.004953 0.000000
# 2 -0.002768 0.021641 0.001821 0.000000 0.011533 0.000000
# 3 -0.004125 0.001821 0.019187 0.000000 0.015642 0.000000
# 4 0.000000 0.000000 0.000000 -0.041924 0.000000 0.047737
# 5 0.004953 0.011533 0.015642 0.000000 0.057723 0.000000
# 6 0.000000 0.000000 0.000000 0.047737 0.000000 0.009867
#
#
# Mechanical properties :
#
#
# Convention : Reuss Voigt Hill
#
# Bulk Modulus (GPa) = 16.48002 25.01449 20.74725
# Shear Modulus (GPa) = 39.41441 16.67967 28.04704
#
# Velocity S-wave (km/s) = 4.34266 2.82503 3.66330
# Velocity P-wave (km/s) = 5.74719 4.75497 5.27447
#
# Compressibility (1/GPa) = 0.06067956
#
# Stress axis : x y z
#
# Youngs Moduli (GPa) = 33.33949 46.20886 52.11991
#
# Poissons Ratio (x) = 0.12789 0.21498
# Poissons Ratio (y) = 0.09227 -0.09492
# Poissons Ratio (z) = 0.13752 -0.08415
#
# Static dielectric constant tensor:
#      x y z
#    x 1.764570 0.000000 0.004740 
#    y 0.000000 1.761830 0.000000 
#    z 0.004740 0.000000 1.761390 
# 
# From -- ./inp_files/77515.got.cif
#   From: 2010.05.17/outbox.cif.g08.bks.cpg/sg14_39_cif.got.tgz:77515.got - 2010.06.03 17:49:19.
