data_PCOD9242753
_publ_section_title
;
Structure prediction by ZEFSAII (Michael W. Deem and Ramdas Pophale) SiO2 
 PCOD9242753
Probable space group: P 21/C
;
_chemical_formula_sum "Si O2"
_cell_formula_units_Z 28
_cell_length_a 4.927134
_cell_length_b 10.396646
_cell_length_c 20.245539
_cell_angle_alpha 90.000000
_cell_angle_beta 76.960281
_cell_angle_gamma 90.000000
_cell_volume 1010.348708
_symmetry_space_group_name_H-M "P 21/C"
_symmetry_group_IT_number 14
_symmetry_cell_setting 'monoclinic'
loop_
_space_group_symop_operation_xyz
x,y,z
-x,1/2+y,1/2-z
-x,-y,-z
x,1/2-y,1/2+z
loop_
_atom_site_type_symbol
_atom_site_label
_atom_site_fract_x
_atom_site_fract_y
_atom_site_fract_z
Si Si1 0.166661 0.389787 0.105515
Si Si2 0.945616 0.695550 0.028073
Si Si3 0.800000 0.134889 0.233738
Si Si4 0.718571 0.990557 0.114765
Si Si5 0.131110 0.611421 0.688127
Si Si6 0.348026 0.035364 0.348594
Si Si7 0.476724 0.180181 0.031034
O O1 0.130907 0.400097 0.028444
O O2 0.392821 0.486687 0.121671
O O3 0.305212 0.248602 0.100444
O O4 0.907854 0.256772 0.269287
O O5 0.749827 0.815389 0.015643
O O6 0.268065 0.729705 0.005595
O O7 0.839186 0.634955 0.100771
O O8 0.986723 0.906141 0.123175
O O9 0.496368 0.102911 0.279724
O O10 0.769158 0.121397 0.156531
O O11 0.986812 0.007104 0.234206
O O12 0.455746 0.914671 0.159546
O O13 0.618409 0.054263 0.052248
O O14 0.140049 0.584207 0.849728
#
# Coordination Sequence:
#
# PCOD9242753 Si02
#       7
#     4   4   4   4   4   4   4
#     4  10  21  33  57  93 132 179 213 271 340 402
#     4  10  20  35  58  94 138 176 220 275 344 404
#     4  10  28  44  70 100 133 183 222 292 350 412
#     4  10  24  43  67  93 131 172 232 281 330 419
#     4  10  25  45  69  93 136 171 234 277 355 398
#     4  12  22  35  60  95 141 169 225 285 347 398
#     4  10  20  37  61  90 128 174 226 266 333 405
#
# _framework density 27.713206
#
# number of rings (size 3 to 8) (size 9 to 14) (size 15 to 20)
#    1.714    0.000    1.429    2.571    4.000    3.429 
#    0.000    0.000    0.000    5.143    0.000    0.000 
#    0.000    0.000    0.000    0.000    0.000    0.000 
#
# Total GULP energy -156593.311943 kJ/mol
# GULP energy per Si atom -5592.618284 kJ/mol
# Density = 2.765013 g / cm^3
# Si number density = 27.713206 Si / 1000 Ang^3
#
#
#
# Elastic Constant Matrix: (Units=GPa)
#
#
# Indices 1 2 3 4 5 6 
#
# 1 179.4958 47.2233 21.2633 0.0000 -7.4780 0.0000
# 2 47.2233 116.4498 7.5613 0.0000 0.0147 0.0000
# 3 21.2633 7.5613 57.5886 0.0000 -4.1504 0.0000
# 4 0.0000 0.0000 0.0000 30.3699 0.0000 -7.2919
# 5 -7.4780 0.0147 -4.1504 0.0000 53.5067 0.0000
# 6 0.0000 0.0000 0.0000 -7.2919 0.0000 41.6550
#
#
#
# Elastic Compliance Matrix: (Units=1/GPa)
#
#
# Indices 1 2 3 4 5 6 
#
# 1 0.006501 -0.002505 -0.002017 0.000000 0.000753 0.000000
# 2 -0.002505 0.009627 -0.000366 0.000000 -0.000381 0.000000
# 3 -0.002017 -0.000366 0.018239 0.000000 0.001133 0.000000
# 4 0.000000 0.000000 0.000000 0.034372 0.000000 0.006017
# 5 0.000753 -0.000381 0.001133 0.000000 0.018882 0.000000
# 6 0.000000 0.000000 0.000000 0.006017 0.000000 0.025060
#
#
# Mechanical properties :
#
#
# Convention : Reuss Voigt Hill
#
# Bulk Modulus (GPa) = 40.66812 56.18111 48.42461
# Shear Modulus (GPa) = 38.26865 43.60540 40.93703
#
# Velocity S-wave (km/s) = 3.72005 3.97098 3.84756
# Velocity P-wave (km/s) = 5.75832 6.42972 6.10326
#
# Compressibility (1/GPa) = 0.02458928
#
# Stress axis : x y z
#
# Youngs Moduli (GPa) = 153.83270 103.87247 54.82741
#
# Poissons Ratio (x) = 0.26023 0.11059
# Poissons Ratio (y) = 0.38539 0.02009
# Poissons Ratio (z) = 0.31028 0.03807
#
# Static dielectric constant tensor:
#      x y z
#    x 2.090860 0.000000 0.103980 
#    y 0.000000 2.299830 0.000000 
#    z 0.103980 0.000000 2.266160 
# 
# From -- ./inp_files/63835.got.cif
#   From: 2010.05.17/outbox.cif.g08.bks.cpg/sg14_32_cif.got.tgz:63835.got - 2010.06.03 17:49:19.
