data_PCOD9242320
_publ_section_title
;
Structure prediction by ZEFSAII (Michael W. Deem and Ramdas Pophale) SiO2 
 PCOD9242320
Probable space group: P 21/C
;
_chemical_formula_sum "Si O2"
_cell_formula_units_Z 24
_cell_length_a 9.431504
_cell_length_b 16.734744
_cell_length_c 14.731767
_cell_angle_alpha 90.000000
_cell_angle_beta 154.430799
_cell_angle_gamma 90.000000
_cell_volume 1003.545854
_symmetry_space_group_name_H-M "P 21/C"
_symmetry_group_IT_number 14
_symmetry_cell_setting 'monoclinic'
loop_
_space_group_symop_operation_xyz
x,y,z
-x,1/2+y,1/2-z
-x,-y,-z
x,1/2-y,1/2+z
loop_
_atom_site_type_symbol
_atom_site_label
_atom_site_fract_x
_atom_site_fract_y
_atom_site_fract_z
Si Si1 0.637787 0.771515 0.202965
Si Si2 0.892540 0.474623 0.720916
Si Si3 0.195747 0.581535 0.511431
Si Si4 0.722537 0.059435 0.305155
Si Si5 0.162772 0.341490 0.535529
Si Si6 0.890974 0.349344 0.172822
O O1 0.843767 0.737488 0.406615
O O2 0.843132 0.810307 0.240813
O O3 0.411905 0.841145 0.113123
O O4 0.435538 0.698743 0.041148
O O5 0.500000 0.500000 0.500000
O O6 0.014700 0.430999 0.701495
O O7 0.883197 0.416796 0.801702
O O8 0.096117 0.556521 0.845219
O O9 0.414534 0.501990 0.631731
O O10 0.021601 0.595385 0.505651
O O11 0.549189 0.134961 0.249761
O O12 0.000000 0.000000 0.500000
O O13 0.004685 0.340249 0.343836
#
# Coordination Sequence:
#
# PCOD9242320 Si02
#       6
#     4   4   4   4   4   4
#     4  12  26  46  68 102 142 181 231 287 346 417
#     4  10  19  43  71  91 133 182 218 279 343 404
#     4  11  23  46  68  99 140 176 230 293 334 406
#     4  11  22  42  72 102 133 181 230 282 349 417
#     4  12  26  44  70 103 139 183 232 289 346 417
#     4  12  25  47  71  98 140 185 229 283 358 404
#
# _framework density 23.915199999999999
#
# number of rings (size 3 to 8) (size 9 to 14) (size 15 to 20)
#    0.000    0.667    8.333    1.500    2.333    0.000 
#    6.000    1.667    0.000    0.000    0.000    0.000 
#    0.000    0.000    0.000    0.000    0.000    0.000 
#
# Total GULP energy -133927.144394 kJ/mol
# GULP energy per Si atom -5580.297683 kJ/mol
# Density = 2.386077 g / cm^3
# Si number density = 23.915200 Si / 1000 Ang^3
#
#
#
# Elastic Constant Matrix: (Units=GPa)
#
#
# Indices 1 2 3 4 5 6 
#
# 1 214.3409 46.1699 38.7117 0.0000 -17.3032 0.0000
# 2 46.1699 89.8310 6.4694 0.0000 3.7228 0.0000
# 3 38.7117 6.4694 23.5228 0.0000 -3.2807 0.0000
# 4 0.0000 0.0000 0.0000 26.7218 0.0000 -8.8168
# 5 -17.3032 3.7228 -3.2807 0.0000 26.2994 0.0000
# 6 0.0000 0.0000 0.0000 -8.8168 0.0000 43.8865
#
#
#
# Elastic Compliance Matrix: (Units=1/GPa)
#
#
# Indices 1 2 3 4 5 6 
#
# 1 0.007758 -0.003349 -0.011265 0.000000 0.004173 0.000000
# 2 -0.003349 0.012911 0.001424 0.000000 -0.003854 0.000000
# 3 -0.011265 0.001424 0.060652 0.000000 -0.000047 0.000000
# 4 0.000000 0.000000 0.000000 0.040079 0.000000 0.008052
# 5 0.004173 -0.003854 -0.000047 0.000000 0.041309 0.000000
# 6 0.000000 0.000000 0.000000 0.008052 0.000000 0.024404
#
#
# Mechanical properties :
#
#
# Convention : Reuss Voigt Hill
#
# Bulk Modulus (GPa) = 18.20148 56.71074 37.45611
# Shear Modulus (GPa) = 21.56961 35.13779 28.35370
#
# Velocity S-wave (km/s) = 3.00646 3.83726 3.44698
# Velocity P-wave (km/s) = 4.43611 6.58768 5.61590
#
# Compressibility (1/GPa) = 0.05494059
#
# Stress axis : x y z
#
# Youngs Moduli (GPa) = 128.89438 77.45605 16.48739
#
# Poissons Ratio (x) = 0.25941 0.18573
# Poissons Ratio (y) = 0.43169 -0.02347
# Poissons Ratio (z) = 1.45196 -0.11026
#
# Static dielectric constant tensor:
#      x y z
#    x 1.943760 0.000000 -0.042530 
#    y 0.000000 2.073130 0.000000 
#    z -0.042530 0.000000 2.008390 
# 
# From -- ./inp_files/41864.got.cif
#   From: 2010.05.17/outbox.cif.g08.bks.cpg/sg14_21_cif.got.tgz:41864.got - 2010.06.03 17:49:19.
