data_PCOD9242396
_publ_section_title
;
Structure prediction by ZEFSAII (Michael W. Deem and Ramdas Pophale) SiO2 
 PCOD9242396
Probable space group: P 21/C
;
_chemical_formula_sum "Si O2"
_cell_formula_units_Z 28
_cell_length_a 30.521504
_cell_length_b 4.536359
_cell_length_c 7.823752
_cell_angle_alpha 90.000000
_cell_angle_beta 115.335845
_cell_angle_gamma 90.000000
_cell_volume 979.056992
_symmetry_space_group_name_H-M "P 21/C"
_symmetry_group_IT_number 14
_symmetry_cell_setting 'monoclinic'
loop_
_space_group_symop_operation_xyz
x,y,z
-x,1/2+y,1/2-z
-x,-y,-z
x,1/2-y,1/2+z
loop_
_atom_site_type_symbol
_atom_site_label
_atom_site_fract_x
_atom_site_fract_y
_atom_site_fract_z
Si Si1 0.284053 0.504633 0.078818
Si Si2 0.073570 0.579877 0.918325
Si Si3 0.355920 0.004051 0.198469
Si Si4 0.784685 0.426295 0.314767
Si Si5 0.500000 0.000000 0.000000
Si Si6 0.425547 0.100601 0.587143
Si Si7 0.000000 0.000000 0.000000
Si Si8 0.144450 0.538371 0.300496
O O1 0.316543 0.239899 0.200894
O O2 0.249462 0.690217 0.146297
O O3 0.323668 0.738597 0.077641
O O4 0.250089 0.394771 0.868267
O O5 0.036622 0.420854 0.729089
O O6 0.109661 0.774733 0.866092
O O7 0.040223 0.775620 0.987333
O O8 0.107788 0.387479 0.103459
O O9 0.392004 0.903660 0.408826
O O10 0.389505 0.176065 0.121494
O O11 0.822002 0.252280 0.256120
O O12 0.816932 0.607004 0.505421
O O13 0.461704 0.226634 0.022633
O O14 0.539709 0.067108 0.224288
#
# Coordination Sequence:
#
# PCOD9242396 Si02
#       8
#     4   4   4   4   2   4   2   4
#     4  11  22  39  65  96 132 174 229 282 345 417
#     4   9  18  34  58  84 124 168 218 272 340 397
#     4  11  24  42  67 100 136 178 224 288 346 410
#     4   9  18  34  61  86 116 166 225 276 340 409
#     4  10  24  44  64  96 132 184 230 282 338 416
#     4  10  24  42  67  98 138 180 233 284 348 412
#     4  10  20  32  56  86 112 166 214 270 332 400
#     4   8  16  33  58  83 116 173 213 263 336 407
#
# _framework density 28.598952000000001
#
# number of rings (size 3 to 8) (size 9 to 14) (size 15 to 20)
#    0.000    2.286    0.000    1.714    0.000    9.143 
#    0.000    0.000    0.000   96.000    0.000    0.000 
#    0.000    0.000    0.000    0.000    0.000    0.000 
#
# Total GULP energy -156025.442082 kJ/mol
# GULP energy per Si atom -5572.337217 kJ/mol
# Density = 2.853386 g / cm^3
# Si number density = 28.598952 Si / 1000 Ang^3
#
#
#
# Elastic Constant Matrix: (Units=GPa)
#
#
# Indices 1 2 3 4 5 6 
#
# 1 186.2513 65.8627 26.6176 0.0000 -1.0453 0.0000
# 2 65.8627 64.5738 13.4652 0.0000 10.7578 0.0000
# 3 26.6176 13.4652 282.8579 0.0000 84.5958 0.0000
# 4 0.0000 0.0000 0.0000 6.1057 0.0000 -15.7111
# 5 -1.0453 10.7578 84.5958 0.0000 49.9939 0.0000
# 6 0.0000 0.0000 0.0000 -15.7111 0.0000 44.7724
#
#
#
# Elastic Compliance Matrix: (Units=1/GPa)
#
#
# Indices 1 2 3 4 5 6 
#
# 1 0.009254 -0.009992 -0.002219 0.000000 0.006098 0.000000
# 2 -0.009992 0.026892 0.002942 0.000000 -0.010974 0.000000
# 3 -0.002219 0.002942 0.007708 0.000000 -0.013723 0.000000
# 4 0.000000 0.000000 0.000000 1.687628 0.000000 0.592207
# 5 0.006098 -0.010974 -0.013723 0.000000 0.045712 0.000000
# 6 0.000000 0.000000 0.000000 0.592207 0.000000 0.230147
#
#
# Mechanical properties :
#
#
# Convention : Reuss Voigt Hill
#
# Bulk Modulus (GPa) = 39.49930 82.84155 61.17043
# Shear Modulus (GPa) = 2.45783 48.69024 25.57403
#
# Velocity S-wave (km/s) = 0.92805 4.13063 2.99361
# Velocity P-wave (km/s) = 3.87167 7.19577 5.77793
#
# Compressibility (1/GPa) = 0.02531690
#
# Stress axis : x y z
#
# Youngs Moduli (GPa) = 108.06434 37.18566 129.73094
#
# Poissons Ratio (x) = 0.37155 0.28788
# Poissons Ratio (y) = 1.07975 -0.38169
# Poissons Ratio (z) = 0.23980 -0.10941
#
# Static dielectric constant tensor:
#      x y z
#    x 2.107060 0.000000 -0.053190 
#    y 0.000000 2.171720 0.000000 
#    z -0.053190 0.000000 2.224980 
# 
# From -- ./inp_files/19603.got.cif
#   From: 2010.05.17/outbox.cif.g08.bks.cpg/sg14_10_cif.got.tgz:19603.got - 2010.06.03 17:49:19.
