data_PCOD9242852
_publ_section_title
;
Structure prediction by ZEFSAII (Michael W. Deem and Ramdas Pophale) SiO2 
 PCOD9242852
Probable space group: P 21/C
;
_chemical_formula_sum "Si O2"
_cell_formula_units_Z 32
_cell_length_a 18.103118
_cell_length_b 12.762042
_cell_length_c 20.766969
_cell_angle_alpha 90.000000
_cell_angle_beta 21.240472
_cell_angle_gamma 90.000000
_cell_volume 1738.179709
_symmetry_space_group_name_H-M "P 21/C"
_symmetry_group_IT_number 14
_symmetry_cell_setting 'monoclinic'
loop_
_space_group_symop_operation_xyz
x,y,z
-x,1/2+y,1/2-z
-x,-y,-z
x,1/2-y,1/2+z
loop_
_atom_site_type_symbol
_atom_site_label
_atom_site_fract_x
_atom_site_fract_y
_atom_site_fract_z
Si Si1 0.345021 0.076054 0.870275
Si Si2 0.961483 0.628166 0.834146
Si Si3 0.511617 0.428350 0.427234
Si Si4 0.815492 0.701712 0.374896
Si Si5 0.788631 0.745726 0.096113
Si Si6 0.934319 0.120655 0.541056
Si Si7 0.176413 0.895546 0.516582
Si Si8 0.601437 0.100789 0.084312
O O1 0.236983 0.130652 0.897021
O O2 0.582297 0.105938 0.672867
O O3 0.340797 0.954134 0.894425
O O4 0.247364 0.134631 0.011383
O O5 0.814539 0.678297 0.898754
O O6 0.900547 0.511491 0.902992
O O7 0.192918 0.628125 0.620964
O O8 0.923363 0.696851 0.928690
O O9 0.500000 0.500000 0.500000
O O10 0.328666 0.345977 0.563682
O O11 0.724066 0.367609 0.251075
O O12 0.505297 0.509765 0.372318
O O13 0.047827 0.679260 0.167010
O O14 0.566010 0.690885 0.272335
O O15 0.897613 0.702477 0.071229
O O16 0.884264 0.130985 0.506904
O O17 0.000000 0.000000 0.500000
#
# Coordination Sequence:
#
# PCOD9242852 Si02
#       8
#     4   4   4   4   4   4   4   4
#     4  10  20  36  51  79 112 145 189 224 278 335
#     4  11  20  34  55  81 112 149 181 225 277 327
#     4  11  19  32  53  77 119 144 172 224 283 332
#     4  10  22  34  51  82 114 145 190 219 274 339
#     4  11  22  34  53  81 117 142 181 232 279 336
#     4  12  19  32  51  85 111 145 176 219 292 334
#     4  12  19  36  57  77 117 145 179 233 278 333
#     4  11  19  34  52  81 109 144 182 220 281 329
#
# _framework density 18.410063999999998
#
# number of rings (size 3 to 8) (size 9 to 14) (size 15 to 20)
#    0.000    1.000    8.750    2.250    0.000    0.000 
#    0.000    0.000    0.000    0.000    0.000    9.625 
#    0.000    0.000    0.000    0.000    0.000    0.000 
#
# Total GULP energy -178399.189399 kJ/mol
# GULP energy per Si atom -5574.974669 kJ/mol
# Density = 1.836816 g / cm^3
# Si number density = 18.410064 Si / 1000 Ang^3
#
#
#
# Elastic Constant Matrix: (Units=GPa)
#
#
# Indices 1 2 3 4 5 6 
#
# 1 266.9009 -32.3187 -190.5942 0.0000 126.9344 0.0000
# 2 -32.3187 38.2329 51.7831 0.0000 -30.3745 0.0000
# 3 -190.5942 51.7831 312.5782 0.0000 -114.5644 0.0000
# 4 0.0000 0.0000 0.0000 2.0019 0.0000 -5.9530
# 5 126.9344 -30.3745 -114.5644 0.0000 95.4044 0.0000
# 6 0.0000 0.0000 0.0000 -5.9530 0.0000 32.6535
#
#
#
# Elastic Compliance Matrix: (Units=1/GPa)
#
#
# Indices 1 2 3 4 5 6 
#
# 1 0.011780 -0.004947 0.003002 0.000000 -0.013643 0.000000
# 2 -0.004947 0.038811 -0.004474 0.000000 0.013566 0.000000
# 3 0.003002 -0.004474 0.006760 0.000000 0.002699 0.000000
# 4 0.000000 0.000000 0.000000 1.090988 0.000000 0.198897
# 5 -0.013643 0.013566 0.002699 0.000000 0.036195 0.000000
# 6 0.000000 0.000000 0.000000 0.198897 0.000000 0.066885
#
#
# Mechanical properties :
#
#
# Convention : Reuss Voigt Hill
#
# Bulk Modulus (GPa) = 22.46559 30.60582 26.53570
# Shear Modulus (GPa) = 3.90901 78.60140 41.25521
#
# Velocity S-wave (km/s) = 1.45874 6.54121 4.73896
# Velocity P-wave (km/s) = 3.88157 8.58549 6.66248
#
# Compressibility (1/GPa) = 0.04451252
#
# Stress axis : x y z
#
# Youngs Moduli (GPa) = 84.89066 25.76593 147.92614
#
# Poissons Ratio (x) = 0.12747 -0.44405
# Poissons Ratio (y) = 0.41997 0.66180
# Poissons Ratio (z) = -0.25483 0.11527
#
# Static dielectric constant tensor:
#      x y z
#    x 1.684270 0.000000 -0.010980 
#    y 0.000000 1.650950 0.000000 
#    z -0.010980 0.000000 1.666670 
# 
# From -- ./inp_files/69427.got.cif
#   From: 2010.05.17/outbox.cif.g08.bks.cpg/sg14_35_cif.got.tgz:69427.got - 2010.06.03 17:49:19.
