data_PCOD9242564
_publ_section_title
;
Structure prediction by ZEFSAII (Michael W. Deem and Ramdas Pophale) SiO2 
 PCOD9242564
Probable space group: P 21/C
;
_chemical_formula_sum "Si O2"
_cell_formula_units_Z 20
_cell_length_a 11.364603
_cell_length_b 7.334611
_cell_length_c 11.737642
_cell_angle_alpha 90.000000
_cell_angle_beta 128.729037
_cell_angle_gamma 90.000000
_cell_volume 763.255555
_symmetry_space_group_name_H-M "P 21/C"
_symmetry_group_IT_number 14
_symmetry_cell_setting 'monoclinic'
loop_
_space_group_symop_operation_xyz
x,y,z
-x,1/2+y,1/2-z
-x,-y,-z
x,1/2-y,1/2+z
loop_
_atom_site_type_symbol
_atom_site_label
_atom_site_fract_x
_atom_site_fract_y
_atom_site_fract_z
Si Si1 0.102522 0.752951 0.562996
Si Si2 0.511490 0.758302 0.092279
Si Si3 0.171054 0.096093 0.730949
Si Si4 0.823253 0.905295 0.014537
Si Si5 0.496599 0.176700 0.161119
O O1 0.191370 0.573867 0.580781
O O2 0.989866 0.817333 0.395149
O O3 0.978452 0.696103 0.581442
O O4 0.195892 0.924973 0.662367
O O5 0.694643 0.757333 0.193857
O O6 0.452758 0.667873 0.174361
O O7 0.484500 0.970424 0.107788
O O8 0.453076 0.718424 0.926782
O O9 0.167073 0.016385 0.853821
O O10 0.680631 0.771937 0.927642
#
# Coordination Sequence:
#
# PCOD9242564 Si02
#       5
#     4   4   4   4   4
#     4  10  20  34  56  82 108 148 180 226 274 340
#     4  10  22  40  60  83 114 147 188 235 279 331
#     4  10  20  36  55  81 112 144 183 230 278 329
#     4  10  20  36  55  81 112 144 183 230 278 329
#     4  10  22  40  60  83 114 147 188 235 279 331
#
# _framework density 26.203543
#
# number of rings (size 3 to 8) (size 9 to 14) (size 15 to 20)
#    0.000    2.000    2.000    1.200    2.800    0.800 
#    0.000    2.000    0.000    0.000    0.000    0.000 
#    0.000    0.000    0.000    0.000    0.000    0.000 
#
# Total GULP energy -111556.378214 kJ/mol
# GULP energy per Si atom -5577.818911 kJ/mol
# Density = 2.614390 g / cm^3
# Si number density = 26.203543 Si / 1000 Ang^3
#
#
#
# Elastic Constant Matrix: (Units=GPa)
#
#
# Indices 1 2 3 4 5 6 
#
# 1 85.1631 14.2774 31.2285 0.0000 -34.5075 0.0000
# 2 14.2774 61.5587 19.8826 0.0000 -12.9226 0.0000
# 3 31.2285 19.8826 119.5837 0.0000 -35.0461 0.0000
# 4 0.0000 0.0000 0.0000 30.8851 0.0000 -13.1915
# 5 -34.5075 -12.9226 -35.0461 0.0000 51.9947 0.0000
# 6 0.0000 0.0000 0.0000 -13.1915 0.0000 37.2189
#
#
#
# Elastic Compliance Matrix: (Units=1/GPa)
#
#
# Indices 1 2 3 4 5 6 
#
# 1 0.016340 -0.001367 -0.001198 0.000000 0.009697 0.000000
# 2 -0.001367 0.017644 -0.001941 0.000000 0.002170 0.000000
# 3 -0.001198 -0.001941 0.010746 0.000000 0.005966 0.000000
# 4 0.000000 0.000000 0.000000 0.038154 0.000000 0.013523
# 5 0.009697 0.002170 0.005966 0.000000 0.030229 0.000000
# 6 0.000000 0.000000 0.000000 0.013523 0.000000 0.031661
#
#
# Mechanical properties :
#
#
# Convention : Reuss Voigt Hill
#
# Bulk Modulus (GPa) = 27.99647 44.12030 36.05838
# Shear Modulus (GPa) = 30.17654 37.41420 33.79537
#
# Velocity S-wave (km/s) = 3.39724 3.78276 3.59517
# Velocity P-wave (km/s) = 5.10839 5.99609 5.56996
#
# Compressibility (1/GPa) = 0.03571879
#
# Stress axis : x y z
#
# Youngs Moduli (GPa) = 61.20019 56.67639 93.05567
#
# Poissons Ratio (x) = 0.07749 0.11146
# Poissons Ratio (y) = 0.08367 0.18059
# Poissons Ratio (z) = 0.07331 0.10999
#
# Static dielectric constant tensor:
#      x y z
#    x 2.168570 0.000000 0.040200 
#    y 0.000000 2.087830 0.000000 
#    z 0.040200 0.000000 2.157370 
# 
# From -- ./inp_files/11800.got.cif
#   From: 2010.05.17/outbox.cif.g08.bks.cpg/sg14_6_cif.got.tgz:11800.got - 2010.06.03 17:49:19.
