data_PCOD9242646
_publ_section_title
;
Structure prediction by ZEFSAII (Michael W. Deem and Ramdas Pophale) SiO2 
 PCOD9242646
Probable space group: P 21/C
;
_chemical_formula_sum "Si O2"
_cell_formula_units_Z 32
_cell_length_a 25.251305
_cell_length_b 8.108231
_cell_length_c 20.746025
_cell_angle_alpha 90.000000
_cell_angle_beta 158.956586
_cell_angle_gamma 90.000000
_cell_volume 1525.212279
_symmetry_space_group_name_H-M "P 21/C"
_symmetry_group_IT_number 14
_symmetry_cell_setting 'monoclinic'
loop_
_space_group_symop_operation_xyz
x,y,z
-x,1/2+y,1/2-z
-x,-y,-z
x,1/2-y,1/2+z
loop_
_atom_site_type_symbol
_atom_site_label
_atom_site_fract_x
_atom_site_fract_y
_atom_site_fract_z
Si Si1 0.258458 0.416287 0.656139
Si Si2 0.826433 0.372697 0.746601
Si Si3 0.574335 0.233940 0.156107
Si Si4 0.449532 0.749716 0.522620
Si Si5 0.719730 0.902258 0.666598
Si Si6 0.853635 0.393949 0.024171
Si Si7 0.984501 0.776999 0.418920
Si Si8 0.982143 0.243787 0.295761
O O1 0.333667 0.594176 0.733851
O O2 0.239987 0.385155 0.711830
O O3 0.104385 0.384147 0.447428
O O4 0.381934 0.288713 0.771009
O O5 0.650283 0.374513 0.551079
O O6 0.890145 0.556435 0.821355
O O7 0.885283 0.286598 0.749272
O O8 0.895370 0.280051 0.887429
O O9 0.558589 0.201758 0.061942
O O10 0.680446 0.102801 0.310071
O O11 0.411000 0.271335 0.996202
O O12 0.360880 0.922495 0.431459
O O13 0.867223 0.869726 0.793742
O O14 0.927589 0.573769 0.112214
O O15 0.934261 0.299125 0.056465
O O16 0.884798 0.295501 0.124726
#
# Coordination Sequence:
#
# PCOD9242646 Si02
#       8
#     4   4   4   4   4   4   4   4
#     4   9  18  34  54  81 113 142 177 221 269 319
#     4  10  20  35  54  81 112 139 178 228 271 315
#     4   9  18  34  54  81 113 142 177 221 269 319
#     4   9  18  32  55  84 111 140 177 223 269 317
#     4   9  18  32  55  84 111 140 177 223 269 317
#     4  11  23  38  56  79 110 147 182 221 270 324
#     4  10  20  35  54  81 112 139 178 228 271 315
#     4  11  23  38  56  79 110 147 182 221 270 324
#
# _framework density 20.980687
#
# number of rings (size 3 to 8) (size 9 to 14) (size 15 to 20)
#    0.000    2.250    2.500    2.250    0.000    3.500 
#    0.000    3.750    0.000    0.000    0.000    0.000 
#    0.000    0.000    0.000    0.000    0.000    0.000 
#
# Total GULP energy -178789.659946 kJ/mol
# GULP energy per Si atom -5587.176873 kJ/mol
# Density = 2.093293 g / cm^3
# Si number density = 20.980687 Si / 1000 Ang^3
#
#
#
# Elastic Constant Matrix: (Units=GPa)
#
#
# Indices 1 2 3 4 5 6 
#
# 1 41.3674 11.5935 5.4615 0.0000 -5.8028 0.0000
# 2 11.5935 48.5158 -2.9248 0.0000 4.9660 0.0000
# 3 5.4615 -2.9248 36.8208 0.0000 10.3765 0.0000
# 4 0.0000 0.0000 0.0000 32.2467 0.0000 8.9988
# 5 -5.8028 4.9660 10.3765 0.0000 22.8529 0.0000
# 6 0.0000 0.0000 0.0000 8.9988 0.0000 23.2386
#
#
#
# Elastic Compliance Matrix: (Units=1/GPa)
#
#
# Indices 1 2 3 4 5 6 
#
# 1 0.029807 -0.009057 -0.008977 0.000000 0.013612 0.000000
# 2 -0.009057 0.024211 0.006189 0.000000 -0.010371 0.000000
# 3 -0.008977 0.006189 0.034405 0.000000 -0.019246 0.000000
# 4 0.000000 0.000000 0.000000 0.034768 0.000000 -0.013463
# 5 0.013612 -0.010371 -0.019246 0.000000 0.058207 0.000000
# 6 0.000000 0.000000 0.000000 -0.013463 0.000000 0.048245
#
#
# Mechanical properties :
#
#
# Convention : Reuss Voigt Hill
#
# Bulk Modulus (GPa) = 15.44792 17.21827 16.33309
# Shear Modulus (GPa) = 18.18774 23.17256 20.68015
#
# Velocity S-wave (km/s) = 2.94748 3.32696 3.14295
# Velocity P-wave (km/s) = 4.35458 4.79404 4.57958
#
# Compressibility (1/GPa) = 0.06473363
#
# Stress axis : x y z
#
# Youngs Moduli (GPa) = 33.54962 41.30381 29.06514
#
# Poissons Ratio (x) = 0.37410 0.26091
# Poissons Ratio (y) = 0.30386 -0.17989
# Poissons Ratio (z) = 0.30116 -0.25564
#
# Static dielectric constant tensor:
#      x y z
#    x 1.715780 0.000000 0.027070 
#    y 0.000000 1.865420 0.000000 
#    z 0.027070 0.000000 1.735930 
# 
# From -- ./inp_files/70502.got.cif
#   From: 2010.05.17/outbox.cif.g08.bks.cpg/sg14_36_cif.got.tgz:70502.got - 2010.06.03 17:49:19.
