data_PCOD9242731
_publ_section_title
;
Structure prediction by ZEFSAII (Michael W. Deem and Ramdas Pophale) SiO2 
 PCOD9242731
Probable space group: P 21/C
;
_chemical_formula_sum "Si O2"
_cell_formula_units_Z 32
_cell_length_a 10.508424
_cell_length_b 7.270845
_cell_length_c 24.506053
_cell_angle_alpha 90.000000
_cell_angle_beta 47.095062
_cell_angle_gamma 90.000000
_cell_volume 1371.494659
_symmetry_space_group_name_H-M "P 21/C"
_symmetry_group_IT_number 14
_symmetry_cell_setting 'monoclinic'
loop_
_space_group_symop_operation_xyz
x,y,z
-x,1/2+y,1/2-z
-x,-y,-z
x,1/2-y,1/2+z
loop_
_atom_site_type_symbol
_atom_site_label
_atom_site_fract_x
_atom_site_fract_y
_atom_site_fract_z
Si Si1 0.311276 0.406089 0.030611
Si Si2 0.093121 0.978246 0.752356
Si Si3 0.960654 0.733209 0.468719
Si Si4 0.863979 0.650782 0.612278
Si Si5 0.066434 0.700285 0.147313
Si Si6 0.566007 0.850107 0.395185
Si Si7 0.637788 0.115150 0.245089
Si Si8 0.344758 0.635394 0.863630
O O1 0.239886 0.598634 0.077253
O O2 0.378997 0.280650 0.060792
O O3 0.150063 0.321290 0.046691
O O4 0.459106 0.466819 0.945184
O O5 0.253433 0.111655 0.688222
O O6 0.205157 0.841010 0.758068
O O7 0.949558 0.087820 0.828521
O O8 0.019974 0.902766 0.717215
O O9 0.011803 0.527261 0.434713
O O10 0.138097 0.843151 0.431452
O O11 0.846369 0.724250 0.556685
O O12 0.707088 0.561698 0.691019
O O13 0.943751 0.799696 0.630237
O O14 0.437027 0.761962 0.388374
O O15 0.457635 0.051767 0.324808
O O16 0.626006 0.267748 0.202858
#
# Coordination Sequence:
#
# PCOD9242731 Si02
#       8
#     4   4   4   4   4   4   4   4
#     4  10  21  38  61  86 112 150 192 235 284 342
#     4   9  20  37  56  81 116 154 190 236 284 337
#     4  10  21  37  62  88 113 147 195 241 284 335
#     4   9  20  38  57  84 119 151 187 241 290 336
#     4  10  20  35  58  83 113 150 192 231 279 337
#     4   9  20  37  57  81 117 149 184 234 289 339
#     4   9  20  36  54  79 117 152 187 234 288 336
#     4  10  20  36  57  82 113 151 189 233 282 337
#
# _framework density 23.332205999999999
#
# number of rings (size 3 to 8) (size 9 to 14) (size 15 to 20)
#    0.000    2.500    0.000    0.750    0.000   13.000 
#    0.000    1.250    0.000   42.750    0.000    0.000 
#    0.000    0.000    0.000    0.000    0.000    0.000 
#
# Total GULP energy -178249.964972 kJ/mol
# GULP energy per Si atom -5570.311405 kJ/mol
# Density = 2.327910 g / cm^3
# Si number density = 23.332206 Si / 1000 Ang^3
#
#
#
# Elastic Constant Matrix: (Units=GPa)
#
#
# Indices 1 2 3 4 5 6 
#
# 1 131.3523 32.1201 47.2593 0.0000 20.2070 0.0000
# 2 32.1201 37.8374 16.5635 0.0000 -1.1014 0.0000
# 3 47.2593 16.5635 110.3777 0.0000 14.3815 0.0000
# 4 0.0000 0.0000 0.0000 23.0883 0.0000 7.4206
# 5 20.2070 -1.1014 14.3815 0.0000 46.6742 0.0000
# 6 0.0000 0.0000 0.0000 7.4206 0.0000 27.4173
#
#
#
# Elastic Compliance Matrix: (Units=1/GPa)
#
#
# Indices 1 2 3 4 5 6 
#
# 1 0.011443 -0.008490 -0.003078 0.000000 -0.004206 0.000000
# 2 -0.008490 0.034776 -0.002260 0.000000 0.005193 0.000000
# 3 -0.003078 -0.002260 0.010991 0.000000 -0.002108 0.000000
# 4 0.000000 0.000000 0.000000 0.047439 0.000000 -0.012839
# 5 -0.004206 0.005193 -0.002108 0.000000 0.024018 0.000000
# 6 0.000000 0.000000 0.000000 -0.012839 0.000000 0.039948
#
#
# Mechanical properties :
#
#
# Convention : Reuss Voigt Hill
#
# Bulk Modulus (GPa) = 33.83394 52.38370 43.10882
# Shear Modulus (GPa) = 24.25735 31.67759 27.96747
#
# Velocity S-wave (km/s) = 3.22786 3.68866 3.46593
# Velocity P-wave (km/s) = 5.33147 6.37508 5.87649
#
# Compressibility (1/GPa) = 0.02955612
#
# Stress axis : x y z
#
# Youngs Moduli (GPa) = 87.38593 28.75529 90.98104
#
# Poissons Ratio (x) = 0.24412 0.28000
# Poissons Ratio (y) = 0.74187 0.20564
# Poissons Ratio (z) = 0.26894 0.06499
#
# Static dielectric constant tensor:
#      x y z
#    x 1.959550 0.000000 0.020710 
#    y 0.000000 1.918370 0.000000 
#    z 0.020710 0.000000 1.888230 
# 
# From -- ./inp_files/72072.got.cif
#   From: 2010.05.17/outbox.cif.g08.bks.cpg/sg14_37_cif.got.tgz:72072.got - 2010.06.03 17:49:19.
