data_PCOD9242426
_publ_section_title
;
Structure prediction by ZEFSAII (Michael W. Deem and Ramdas Pophale) SiO2 
 PCOD9242426
Probable space group: P 21/C
;
_chemical_formula_sum "Si O2"
_cell_formula_units_Z 24
_cell_length_a 11.731382
_cell_length_b 19.678591
_cell_length_c 5.304415
_cell_angle_alpha 90.000000
_cell_angle_beta 122.449311
_cell_angle_gamma 90.000000
_cell_volume 1033.366542
_symmetry_space_group_name_H-M "P 21/C"
_symmetry_group_IT_number 14
_symmetry_cell_setting 'monoclinic'
loop_
_space_group_symop_operation_xyz
x,y,z
-x,1/2+y,1/2-z
-x,-y,-z
x,1/2-y,1/2+z
loop_
_atom_site_type_symbol
_atom_site_label
_atom_site_fract_x
_atom_site_fract_y
_atom_site_fract_z
Si Si1 0.126122 0.556312 0.858347
Si Si2 0.511311 0.711458 0.416550
Si Si3 0.421965 0.070978 0.945570
Si Si4 0.981238 0.089143 0.268306
Si Si5 0.648740 0.529607 0.134546
Si Si6 0.160509 0.289007 0.175002
O O1 0.039561 0.487121 0.800800
O O2 0.256071 0.527256 0.867680
O O3 0.061896 0.605244 0.569966
O O4 0.133586 0.586416 0.148767
O O5 0.466327 0.751287 0.116115
O O6 0.477978 0.631819 0.367167
O O7 0.675779 0.708358 0.621692
O O8 0.359966 0.085482 0.596119
O O9 0.317389 0.059227 0.050977
O O10 0.500000 0.000000 0.000000
O O11 0.090110 0.141168 0.508260
O O12 0.500000 0.500000 0.000000
O O13 0.121532 0.263595 0.406620
#
# Coordination Sequence:
#
# PCOD9242426 Si02
#       6
#     4   4   4   4   4   4
#     4  10  20  33  52  79 108 142 174 222 281 324
#     4  10  20  33  52  79 111 147 185 231 291 353
#     4  10  20  34  54  81 111 145 187 237 294 340
#     4  10  20  33  51  78 111 140 176 220 274 340
#     4  10  20  34  54  81 109 140 183 231 279 329
#     4  10  20  33  51  77 110 147 183 222 277 343
#
# _framework density 23.225061
#
# number of rings (size 3 to 8) (size 9 to 14) (size 15 to 20)
#    0.000    2.000    0.000    4.000    0.000    5.333 
#    0.000    0.000    0.000    0.000    0.000   93.333 
#    0.000    0.000    0.000    0.000    0.000    0.000 
#
# Total GULP energy -133896.243305 kJ/mol
# GULP energy per Si atom -5579.010138 kJ/mol
# Density = 2.317220 g / cm^3
# Si number density = 23.225061 Si / 1000 Ang^3
#
#
#
# Elastic Constant Matrix: (Units=GPa)
#
#
# Indices 1 2 3 4 5 6 
#
# 1 88.4503 14.6255 54.7628 0.0000 -34.5259 0.0000
# 2 14.6255 84.1831 27.2476 0.0000 -22.8792 0.0000
# 3 54.7628 27.2476 111.1870 0.0000 -55.9166 0.0000
# 4 0.0000 0.0000 0.0000 42.3113 0.0000 -1.1825
# 5 -34.5259 -22.8792 -55.9166 0.0000 38.1749 0.0000
# 6 0.0000 0.0000 0.0000 -1.1825 0.0000 23.0887
#
#
#
# Elastic Compliance Matrix: (Units=1/GPa)
#
#
# Indices 1 2 3 4 5 6 
#
# 1 0.017782 0.001330 -0.002260 0.000000 0.013568 0.000000
# 2 0.001330 0.014565 0.002926 0.000000 0.014217 0.000000
# 3 -0.002260 0.002926 0.035099 0.000000 0.051120 0.000000
# 4 0.000000 0.000000 0.000000 0.023668 0.000000 0.001212
# 5 0.013568 0.014217 0.051120 0.000000 0.121864 0.000000
# 6 0.000000 0.000000 0.000000 0.001212 0.000000 0.043373
#
#
# Mechanical properties :
#
#
# Convention : Reuss Voigt Hill
#
# Bulk Modulus (GPa) = 13.99876 53.01024 33.50450
# Shear Modulus (GPa) = 18.10465 33.19397 25.64931
#
# Velocity S-wave (km/s) = 2.79504 3.78462 3.32683
# Velocity P-wave (km/s) = 4.05670 6.47857 5.40503
#
# Compressibility (1/GPa) = 0.07143489
#
# Stress axis : x y z
#
# Youngs Moduli (GPa) = 56.23817 68.65874 28.49119
#
# Poissons Ratio (x) = -0.09131 0.06440
# Poissons Ratio (y) = -0.07479 -0.08335
# Poissons Ratio (z) = 0.12712 -0.20086
#
# Static dielectric constant tensor:
#      x y z
#    x 1.930670 0.000000 0.061770 
#    y 0.000000 1.935990 0.000000 
#    z 0.061770 0.000000 2.102410 
# 
# From -- ./inp_files/2722.got.cif
#   From: 2010.05.17/outbox.cif.g08.bks.cpg/sg14_2_cif.got.tgz:2722.got - 2010.06.03 17:49:19.
