data_PCOD9242223
_publ_section_title
;
Structure prediction by ZEFSAII (Michael W. Deem and Ramdas Pophale) SiO2 
 PCOD9242223
Probable space group: P 21/C
;
_chemical_formula_sum "Si O2"
_cell_formula_units_Z 32
_cell_length_a 23.766769
_cell_length_b 8.960157
_cell_length_c 14.258555
_cell_angle_alpha 90.000000
_cell_angle_beta 28.659173
_cell_angle_gamma 90.000000
_cell_volume 1456.260136
_symmetry_space_group_name_H-M "P 21/C"
_symmetry_group_IT_number 14
_symmetry_cell_setting 'monoclinic'
loop_
_space_group_symop_operation_xyz
x,y,z
-x,1/2+y,1/2-z
-x,-y,-z
x,1/2-y,1/2+z
loop_
_atom_site_type_symbol
_atom_site_label
_atom_site_fract_x
_atom_site_fract_y
_atom_site_fract_z
Si Si1 0.715063 0.786269 0.989405
Si Si2 0.290301 0.560275 0.642405
Si Si3 0.416598 0.998097 0.710935
Si Si4 0.540378 0.967615 0.730342
Si Si5 0.948111 0.119730 0.431771
Si Si6 0.283694 0.723904 0.979897
Si Si7 0.943051 0.836910 0.086516
Si Si8 0.974745 0.286954 0.206570
O O1 0.825258 0.676551 0.819677
O O2 0.742147 0.919119 0.876270
O O3 0.679587 0.869435 0.137566
O O4 0.601766 0.691260 0.127566
O O5 0.427329 0.538893 0.463979
O O6 0.287891 0.702538 0.577159
O O7 0.190469 0.581110 0.865433
O O8 0.491400 0.009234 0.698594
O O9 0.500000 0.000000 0.500000
O O10 0.347053 0.843027 0.819506
O O11 0.637995 0.077571 0.627886
O O12 0.984162 0.235235 0.299017
O O13 0.976733 0.205737 0.486154
O O14 0.017503 0.964812 0.318140
O O15 0.148900 0.718096 0.147230
O O16 0.926473 0.787876 0.003140
O O17 0.000000 0.000000 0.000000
#
# Coordination Sequence:
#
# PCOD9242223 Si02
#       8
#     4   4   4   4   4   4   4   4
#     4  10  21  40  65  93 130 177 224 274 350 407
#     4  10  19  40  67  91 128 183 214 276 340 406
#     4  10  21  40  63  96 131 169 227 278 344 417
#     4  10  21  40  66  96 129 177 226 273 349 414
#     4  12  25  45  70 100 139 184 234 288 353 413
#     4  10  21  41  65  93 133 177 223 276 346 407
#     4  12  24  45  67  98 137 184 235 289 349 419
#     4  12  25  44  67 100 135 182 235 287 350 415
#
# _framework density 21.974097
#
# number of rings (size 3 to 8) (size 9 to 14) (size 15 to 20)
#    0.000    1.500    2.500    6.375    0.000    2.000 
#    4.500    5.000    0.000    0.000    0.000    0.000 
#    0.000    0.000    0.000    0.000    0.000    0.000 
#
# Total GULP energy -178668.503541 kJ/mol
# GULP energy per Si atom -5583.390736 kJ/mol
# Density = 2.192408 g / cm^3
# Si number density = 21.974097 Si / 1000 Ang^3
#
#
#
# Elastic Constant Matrix: (Units=GPa)
#
#
# Indices 1 2 3 4 5 6 
#
# 1 27.1401 8.5838 26.6117 0.0000 4.3430 0.0000
# 2 8.5838 89.9166 40.1273 0.0000 6.7978 0.0000
# 3 26.6117 40.1273 160.4118 0.0000 9.0254 0.0000
# 4 0.0000 0.0000 0.0000 41.7121 0.0000 -6.8973
# 5 4.3430 6.7978 9.0254 0.0000 38.0559 0.0000
# 6 0.0000 0.0000 0.0000 -6.8973 0.0000 19.6902
#
#
#
# Elastic Compliance Matrix: (Units=1/GPa)
#
#
# Indices 1 2 3 4 5 6 
#
# 1 0.044488 -0.000888 -0.006975 0.000000 -0.003264 0.000000
# 2 -0.000888 0.012623 -0.002928 0.000000 -0.001459 0.000000
# 3 -0.006975 -0.002928 0.008158 0.000000 -0.000616 0.000000
# 4 0.000000 0.000000 0.000000 0.025448 0.000000 0.008914
# 5 -0.003264 -0.001459 -0.000616 0.000000 0.027056 0.000000
# 6 0.000000 0.000000 0.000000 0.008914 0.000000 0.053909
#
#
# Mechanical properties :
#
#
# Convention : Reuss Voigt Hill
#
# Bulk Modulus (GPa) = 22.88958 47.56823 35.22891
# Shear Modulus (GPa) = 24.05852 33.36802 28.71327
#
# Velocity S-wave (km/s) = 3.31245 3.90104 3.61873
# Velocity P-wave (km/s) = 5.00690 6.47960 5.79026
#
# Compressibility (1/GPa) = 0.04368799
#
# Stress axis : x y z
#
# Youngs Moduli (GPa) = 22.47812 79.21845 122.57585
#
# Poissons Ratio (x) = 0.07031 0.85492
# Poissons Ratio (y) = 0.01995 0.35895
# Poissons Ratio (z) = 0.15678 0.23198
#
# Static dielectric constant tensor:
#      x y z
#    x 1.797690 0.000000 -0.032030 
#    y 0.000000 1.819770 0.000000 
#    z -0.032030 0.000000 1.858470 
# 
# From -- ./inp_files/51259.got.cif
#   From: 2010.05.17/outbox.cif.g08.bks.cpg/sg14_26_cif.got.tgz:51259.got - 2010.06.03 17:49:19.
