data_PCOD9242314
_publ_section_title
;
Structure prediction by ZEFSAII (Michael W. Deem and Ramdas Pophale) SiO2 
 PCOD9242314
Probable space group: P 21/C
;
_chemical_formula_sum "Si O2"
_cell_formula_units_Z 24
_cell_length_a 8.115820
_cell_length_b 8.334046
_cell_length_c 25.540786
_cell_angle_alpha 90.000000
_cell_angle_beta 32.393166
_cell_angle_gamma 90.000000
_cell_volume 925.476402
_symmetry_space_group_name_H-M "P 21/C"
_symmetry_group_IT_number 14
_symmetry_cell_setting 'monoclinic'
loop_
_space_group_symop_operation_xyz
x,y,z
-x,1/2+y,1/2-z
-x,-y,-z
x,1/2-y,1/2+z
loop_
_atom_site_type_symbol
_atom_site_label
_atom_site_fract_x
_atom_site_fract_y
_atom_site_fract_z
Si Si1 0.581985 0.868549 0.337692
Si Si2 0.550469 0.930795 0.729847
Si Si3 0.177695 0.818494 0.668071
Si Si4 0.924039 0.343879 0.552082
Si Si5 0.792525 0.321752 0.231632
Si Si6 0.621747 0.678880 0.478956
O O1 0.557443 0.954181 0.288143
O O2 0.245196 0.792127 0.436928
O O3 0.814651 0.720024 0.268325
O O4 0.706035 0.007452 0.343192
O O5 0.822333 0.020608 0.687539
O O6 0.307537 0.902672 0.840775
O O7 0.518061 0.761671 0.708528
O O8 0.263828 0.688827 0.691472
O O9 0.315410 0.778661 0.574196
O O10 0.000000 0.500000 0.500000
O O11 0.207395 0.289875 0.511379
O O12 0.112479 0.225574 0.133854
O O13 0.500000 0.500000 0.500000
#
# Coordination Sequence:
#
# PCOD9242314 Si02
#       6
#     4   4   4   4   4   4
#     4  11  25  45  67 106 143 195 239 293 373 428
#     4  10  19  43  64  96 133 184 234 289 352 427
#     4  11  25  43  72 101 149 191 240 303 359 434
#     4  11  24  41  70 102 141 188 245 295 364 433
#     4  10  22  39  68  97 137 181 238 291 355 423
#     4  11  23  45  71 102 141 192 240 298 358 436
#
# _framework density 25.932590999999999
#
# number of rings (size 3 to 8) (size 9 to 14) (size 15 to 20)
#    0.000    1.333    3.333    4.000    7.000    0.667 
#    3.000    0.833    0.000    0.000    0.000    0.000 
#    0.000    0.000    0.000    0.000    0.000    0.000 
#
# Total GULP energy -133843.319125 kJ/mol
# GULP energy per Si atom -5576.804964 kJ/mol
# Density = 2.587357 g / cm^3
# Si number density = 25.932591 Si / 1000 Ang^3
#
#
#
# Elastic Constant Matrix: (Units=GPa)
#
#
# Indices 1 2 3 4 5 6 
#
# 1 38.3151 50.7878 13.5951 0.0000 -7.6634 0.0000
# 2 50.7878 127.0069 15.7075 0.0000 -19.4424 0.0000
# 3 13.5951 15.7075 84.8511 0.0000 -2.7563 0.0000
# 4 0.0000 0.0000 0.0000 46.8958 0.0000 -8.2956
# 5 -7.6634 -19.4424 -2.7563 0.0000 35.2923 0.0000
# 6 0.0000 0.0000 0.0000 -8.2956 0.0000 72.4602
#
#
#
# Elastic Compliance Matrix: (Units=1/GPa)
#
#
# Indices 1 2 3 4 5 6 
#
# 1 0.057603 -0.022445 -0.005083 0.000000 -0.000254 0.000000
# 2 -0.022445 0.017524 0.000509 0.000000 0.004820 0.000000
# 3 -0.005083 0.000509 0.012511 0.000000 0.000154 0.000000
# 4 0.000000 0.000000 0.000000 0.021765 0.000000 0.002492
# 5 -0.000254 0.004820 0.000154 0.000000 0.030947 0.000000
# 6 0.000000 0.000000 0.000000 0.002492 0.000000 0.014086
#
#
# Mechanical properties :
#
#
# Convention : Reuss Voigt Hill
#
# Bulk Modulus (GPa) = 29.76171 45.59487 37.67829
# Shear Modulus (GPa) = 22.76118 42.26851 32.51485
#
# Velocity S-wave (km/s) = 2.96582 4.04163 3.54478
# Velocity P-wave (km/s) = 4.81971 6.27694 5.59596
#
# Compressibility (1/GPa) = 0.03360022
#
# Stress axis : x y z
#
# Youngs Moduli (GPa) = 17.36014 57.06543 79.93279
#
# Poissons Ratio (x) = 1.28082 0.40627
# Poissons Ratio (y) = 0.38964 -0.04067
# Poissons Ratio (z) = 0.08824 -0.02903
#
# Static dielectric constant tensor:
#      x y z
#    x 2.174460 0.000000 -0.149400 
#    y 0.000000 2.192780 0.000000 
#    z -0.149400 0.000000 2.051150 
# 
# From -- ./inp_files/79432.got.cif
#   From: 2010.05.17/outbox.cif.g08.bks.cpg/sg14_40_cif.got.tgz:79432.got - 2010.06.03 17:49:19.
