data_PCOD9242116
_publ_section_title
;
Structure prediction by ZEFSAII (Michael W. Deem and Ramdas Pophale) SiO2 
 PCOD9242116
Probable space group: P 21/C
;
_chemical_formula_sum "Si O2"
_cell_formula_units_Z 28
_cell_length_a 6.935767
_cell_length_b 12.976092
_cell_length_c 16.060885
_cell_angle_alpha 90.000000
_cell_angle_beta 66.680804
_cell_angle_gamma 90.000000
_cell_volume 1327.391396
_symmetry_space_group_name_H-M "P 21/C"
_symmetry_group_IT_number 14
_symmetry_cell_setting 'monoclinic'
loop_
_space_group_symop_operation_xyz
x,y,z
-x,1/2+y,1/2-z
-x,-y,-z
x,1/2-y,1/2+z
loop_
_atom_site_type_symbol
_atom_site_label
_atom_site_fract_x
_atom_site_fract_y
_atom_site_fract_z
Si Si1 0.385997 0.554305 0.307917
Si Si2 0.801811 0.478321 0.976773
Si Si3 0.382826 0.427965 0.142418
Si Si4 0.564395 0.647186 0.593527
Si Si5 0.998870 0.881731 0.968045
Si Si6 0.307893 0.237694 0.259089
Si Si7 0.142112 0.749680 0.101592
O O1 0.328659 0.494364 0.233172
O O2 0.439679 0.468311 0.368376
O O3 0.180036 0.619757 0.368291
O O4 0.587794 0.626506 0.264426
O O5 0.776783 0.560246 0.906782
O O6 0.809181 0.367265 0.931466
O O7 0.597908 0.474611 0.069951
O O8 0.000000 0.500000 0.000000
O O9 0.399815 0.311888 0.172106
O O10 0.626215 0.717159 0.662184
O O11 0.345128 0.689977 0.599076
O O12 0.755769 0.648017 0.494122
O O13 0.069622 0.809420 0.031420
O O14 0.000000 0.000000 0.000000
O O15 0.055572 0.245493 0.301907
#
# Coordination Sequence:
#
# PCOD9242116 Si02
#       7
#     4   4   4   4   4   4   4
#     4  10  19  39  65  92 127 161 201 257 313 368
#     4  11  24  43  63  83 117 164 208 251 304 364
#     4  10  23  41  61  89 121 154 203 255 300 358
#     4   9  21  39  61  90 127 162 200 250 304 368
#     4   9  20  38  60  89 124 157 198 248 302 371
#     4  10  21  38  60  92 125 157 204 253 298 361
#     4  11  22  39  62  89 123 165 202 242 307 366
#
# _framework density 21.094004000000002
#
# number of rings (size 3 to 8) (size 9 to 14) (size 15 to 20)
#    0.000    2.000    0.000    3.429    0.000    9.143 
#    0.000   12.857    0.000    0.000    0.000    0.000 
#    0.000    0.000    0.000    0.000    0.000    0.000 
#
# Total GULP energy -156411.222787 kJ/mol
# GULP energy per Si atom -5586.115100 kJ/mol
# Density = 2.104599 g / cm^3
# Si number density = 21.094004 Si / 1000 Ang^3
#
#
#
# Elastic Constant Matrix: (Units=GPa)
#
#
# Indices 1 2 3 4 5 6 
#
# 1 88.7939 0.8077 24.6942 0.0000 -22.3261 0.0000
# 2 0.8077 50.7358 4.2210 0.0000 -7.3332 0.0000
# 3 24.6942 4.2210 59.1686 0.0000 -14.5518 0.0000
# 4 0.0000 0.0000 0.0000 21.9158 0.0000 -7.0662
# 5 -22.3261 -7.3332 -14.5518 0.0000 30.2484 0.0000
# 6 0.0000 0.0000 0.0000 -7.0662 0.0000 28.4164
#
#
#
# Elastic Compliance Matrix: (Units=1/GPa)
#
#
# Indices 1 2 3 4 5 6 
#
# 1 0.014681 0.001437 -0.003946 0.000000 0.009286 0.000000
# 2 0.001437 0.020570 -0.000658 0.000000 0.005731 0.000000
# 3 -0.003946 -0.000658 0.020233 0.000000 0.006662 0.000000
# 4 0.000000 0.000000 0.000000 0.049607 0.000000 0.012336
# 5 0.009286 0.005731 0.006662 0.000000 0.044508 0.000000
# 6 0.000000 0.000000 0.000000 0.012336 0.000000 0.038258
#
#
# Mechanical properties :
#
#
# Convention : Reuss Voigt Hill
#
# Bulk Modulus (GPa) = 20.34556 28.68267 24.51412
# Shear Modulus (GPa) = 23.74459 27.38115 25.56287
#
# Velocity S-wave (km/s) = 3.35872 3.60676 3.48495
# Velocity P-wave (km/s) = 4.97066 5.56525 5.27634
#
# Compressibility (1/GPa) = 0.04915077
#
# Stress axis : x y z
#
# Youngs Moduli (GPa) = 68.11417 48.61417 49.42416
#
# Poissons Ratio (x) = -0.06985 0.19502
# Poissons Ratio (y) = -0.09786 0.03250
# Poissons Ratio (z) = 0.26877 0.03197
#
# Static dielectric constant tensor:
#      x y z
#    x 1.754070 0.000000 -0.024460 
#    y 0.000000 1.729490 0.000000 
#    z -0.024460 0.000000 1.785080 
# 
# From -- ./inp_files/53392.got.cif
#   From: 2010.05.17/outbox.cif.g08.bks.cpg/sg14_27_cif.got.tgz:53392.got - 2010.06.03 17:49:19.
