data_PCOD9242791
_publ_section_title
;
Structure prediction by ZEFSAII (Michael W. Deem and Ramdas Pophale) SiO2 
 PCOD9242791
Probable space group: P 21/C
;
_chemical_formula_sum "Si O2"
_cell_formula_units_Z 32
_cell_length_a 8.676385
_cell_length_b 11.251138
_cell_length_c 20.690784
_cell_angle_alpha 90.000000
_cell_angle_beta 54.788805
_cell_angle_gamma 90.000000
_cell_volume 1650.256358
_symmetry_space_group_name_H-M "P 21/C"
_symmetry_group_IT_number 14
_symmetry_cell_setting 'monoclinic'
loop_
_space_group_symop_operation_xyz
x,y,z
-x,1/2+y,1/2-z
-x,-y,-z
x,1/2-y,1/2+z
loop_
_atom_site_type_symbol
_atom_site_label
_atom_site_fract_x
_atom_site_fract_y
_atom_site_fract_z
Si Si1 0.240821 0.879147 0.894151
Si Si2 0.626086 0.764765 0.761697
Si Si3 0.995344 0.273625 0.147874
Si Si4 0.568084 0.625236 0.648797
Si Si5 0.361190 0.334490 0.514321
Si Si6 0.227565 0.607097 0.544143
Si Si7 0.037423 0.360191 0.272909
Si Si8 0.169702 0.995575 0.269572
O O1 0.440432 0.809803 0.842785
O O2 0.111691 0.821038 0.870606
O O3 0.288906 0.017200 0.870040
O O4 0.162905 0.873370 0.986000
O O5 0.569214 0.720538 0.704961
O O6 0.743384 0.660479 0.767388
O O7 0.772306 0.874473 0.723126
O O8 0.974787 0.268998 0.230803
O O9 0.910428 0.405903 0.156567
O O10 0.214724 0.257793 0.079244
O O11 0.616598 0.678543 0.567848
O O12 0.362381 0.564027 0.695974
O O13 0.273397 0.467163 0.544461
O O14 0.568100 0.332608 0.495233
O O15 0.079439 0.649952 0.633139
O O16 0.980461 0.483892 0.252175
#
# Coordination Sequence:
#
# PCOD9242791 Si02
#       8
#     4   4   4   4   4   4   4   4
#     4  10  22  36  60  91 118 145 202 247 299 341
#     4  11  21  37  61  86 118 160 193 242 289 359
#     4  10  21  36  57  84 121 153 187 241 298 356
#     4  10  20  37  59  88 116 155 194 246 298 339
#     4  10  20  35  61  85 118 153 190 252 306 328
#     4  10  21  36  58  88 117 148 197 258 291 342
#     4  10  22  34  59  84 116 154 193 238 296 342
#     4   9  21  40  54  85 118 155 197 230 299 350
#
# _framework density 19.390926
#
# number of rings (size 3 to 8) (size 9 to 14) (size 15 to 20)
#    0.750    1.250    2.500    0.750    7.000    1.000 
#    0.000    0.625    0.000    0.750    0.000    0.000 
#    0.000    0.000    0.000    0.000    0.000    0.000 
#
# Total GULP energy -178413.947712 kJ/mol
# GULP energy per Si atom -5575.435866 kJ/mol
# Density = 1.934679 g / cm^3
# Si number density = 19.390926 Si / 1000 Ang^3
#
#
#
# Elastic Constant Matrix: (Units=GPa)
#
#
# Indices 1 2 3 4 5 6 
#
# 1 44.6141 0.4971 20.6520 0.0000 -0.0686 0.0000
# 2 0.4971 25.0624 16.9477 0.0000 6.3532 0.0000
# 3 20.6520 16.9477 76.2668 0.0000 20.5297 0.0000
# 4 0.0000 0.0000 0.0000 18.7379 0.0000 -8.4467
# 5 -0.0686 6.3532 20.5297 0.0000 29.7770 0.0000
# 6 0.0000 0.0000 0.0000 -8.4467 0.0000 21.5341
#
#
#
# Elastic Compliance Matrix: (Units=1/GPa)
#
#
# Indices 1 2 3 4 5 6 
#
# 1 0.026971 0.004685 -0.009936 0.000000 0.005913 0.000000
# 2 0.004685 0.048064 -0.011286 0.000000 -0.002463 0.000000
# 3 -0.009936 -0.011286 0.021695 0.000000 -0.012572 0.000000
# 4 0.000000 0.000000 0.000000 0.064831 0.000000 0.025430
# 5 0.005913 -0.002463 -0.012572 0.000000 0.042790 0.000000
# 6 0.000000 0.000000 0.000000 0.025430 0.000000 0.056413
#
#
# Mechanical properties :
#
#
# Convention : Reuss Voigt Hill
#
# Bulk Modulus (GPa) = 15.70975 24.68187 20.19581
# Shear Modulus (GPa) = 15.87020 21.19957 18.53489
#
# Velocity S-wave (km/s) = 2.86393 3.31005 3.09504
# Velocity P-wave (km/s) = 4.36524 5.23114 4.81768
#
# Compressibility (1/GPa) = 0.06365474
#
# Stress axis : x y z
#
# Youngs Moduli (GPa) = 37.07717 20.80571 46.09433
#
# Poissons Ratio (x) = -0.09748 0.45800
# Poissons Ratio (y) = -0.17371 0.52023
# Poissons Ratio (z) = 0.36840 0.23482
#
# Static dielectric constant tensor:
#      x y z
#    x 1.728480 0.000000 -0.009790 
#    y 0.000000 1.708680 0.000000 
#    z -0.009790 0.000000 1.662010 
# 
# From -- ./inp_files/65587.got.cif
#   From: 2010.05.17/outbox.cif.g08.bks.cpg/sg14_33_cif.got.tgz:65587.got - 2010.06.03 17:49:19.
