data_PCOD9242736
_publ_section_title
;
Structure prediction by ZEFSAII (Michael W. Deem and Ramdas Pophale) SiO2 
 PCOD9242736
Probable space group: P 21/C
;
_chemical_formula_sum "Si O2"
_cell_formula_units_Z 32
_cell_length_a 22.605274
_cell_length_b 12.235654
_cell_length_c 16.216553
_cell_angle_alpha 90.000000
_cell_angle_beta 161.043954
_cell_angle_gamma 90.000000
_cell_volume 1457.030477
_symmetry_space_group_name_H-M "P 21/C"
_symmetry_group_IT_number 14
_symmetry_cell_setting 'monoclinic'
loop_
_space_group_symop_operation_xyz
x,y,z
-x,1/2+y,1/2-z
-x,-y,-z
x,1/2-y,1/2+z
loop_
_atom_site_type_symbol
_atom_site_label
_atom_site_fract_x
_atom_site_fract_y
_atom_site_fract_z
Si Si1 0.854013 0.991347 0.908345
Si Si2 0.382363 0.919306 0.959760
Si Si3 0.790058 0.736265 0.780941
Si Si4 0.333155 0.402842 0.518326
Si Si5 0.837907 0.478304 0.571937
Si Si6 0.261638 0.053063 0.655491
Si Si7 0.251865 0.561395 0.903453
Si Si8 0.795947 0.297450 0.645995
O O1 0.804572 0.864855 0.820329
O O2 0.777183 0.064680 0.733595
O O3 0.074751 0.008023 0.197186
O O4 0.779531 0.015994 0.900712
O O5 0.338673 0.812352 0.954010
O O6 0.311764 0.945330 0.775222
O O7 0.597276 0.938904 0.233322
O O8 0.272535 0.008532 0.869531
O O9 0.685248 0.708909 0.557396
O O10 0.710518 0.661394 0.750496
O O11 0.998236 0.692689 0.048773
O O12 0.214351 0.414396 0.443753
O O13 0.533229 0.449149 0.802069
O O14 0.757441 0.380198 0.521058
O O15 0.053353 0.457472 0.857162
O O16 0.216427 0.675445 0.902568
#
# Coordination Sequence:
#
# PCOD9242736 Si02
#       8
#     4   4   4   4   4   4   4   4
#     4  10  22  41  59  83 120 157 190 240 297 350
#     4   9  17  31  54  82 112 148 192 240 288 336
#     4   9  19  36  57  83 117 151 192 241 293 348
#     4  10  20  35  58  84 112 153 196 242 290 346
#     4  10  20  36  60  87 116 148 193 242 292 344
#     4   9  17  32  55  85 116 148 190 239 286 346
#     4  10  22  40  58  80 116 156 195 233 292 357
#     4   9  19  37  57  82 113 151 196 242 292 352
#
# _framework density 21.962478999999998
#
# number of rings (size 3 to 8) (size 9 to 14) (size 15 to 20)
#    0.000    2.500    0.000    1.500    0.000    6.500 
#    0.000   20.000    0.000    0.000    0.000    0.000 
#    0.000    0.000    0.000    0.000    0.000    0.000 
#
# Total GULP energy -178198.790614 kJ/mol
# GULP energy per Si atom -5568.712207 kJ/mol
# Density = 2.191249 g / cm^3
# Si number density = 21.962479 Si / 1000 Ang^3
#
#
#
# Elastic Constant Matrix: (Units=GPa)
#
#
# Indices 1 2 3 4 5 6 
#
# 1 138.6571 19.8891 27.0049 0.0000 0.0667 0.0000
# 2 19.8891 41.7329 16.0456 0.0000 -7.2483 0.0000
# 3 27.0049 16.0456 54.2309 0.0000 -3.0953 0.0000
# 4 0.0000 0.0000 0.0000 17.7161 0.0000 2.8103
# 5 0.0667 -7.2483 -3.0953 0.0000 25.6269 0.0000
# 6 0.0000 0.0000 0.0000 2.8103 0.0000 16.4710
#
#
#
# Elastic Compliance Matrix: (Units=1/GPa)
#
#
# Indices 1 2 3 4 5 6 
#
# 1 0.008276 -0.002874 -0.003341 0.000000 -0.001238 0.000000
# 2 -0.002874 0.029239 -0.006794 0.000000 0.007457 0.000000
# 3 -0.003341 -0.006794 0.022157 0.000000 0.000763 0.000000
# 4 0.000000 0.000000 0.000000 0.058016 0.000000 -0.009899
# 5 -0.001238 0.007457 0.000763 0.000000 0.041226 0.000000
# 6 0.000000 0.000000 0.000000 -0.009899 0.000000 0.062402
#
#
# Mechanical properties :
#
#
# Convention : Reuss Voigt Hill
#
# Bulk Modulus (GPa) = 29.71549 40.05558 34.88553
# Shear Modulus (GPa) = 19.33839 23.40822 21.37330
#
# Velocity S-wave (km/s) = 2.97057 3.26824 3.12296
# Velocity P-wave (km/s) = 5.03242 5.70260 5.37796
#
# Compressibility (1/GPa) = 0.03365249
#
# Stress axis : x y z
#
# Youngs Moduli (GPa) = 120.83618 34.20069 45.13198
#
# Poissons Ratio (x) = 0.09831 0.15079
# Poissons Ratio (y) = 0.34734 0.30664
# Poissons Ratio (z) = 0.40373 0.23237
#
# Static dielectric constant tensor:
#      x y z
#    x 1.818190 0.000000 -0.005380 
#    y 0.000000 1.943810 0.000000 
#    z -0.005380 0.000000 1.875940 
# 
# From -- ./inp_files/50730.got.cif
#   From: 2010.05.17/outbox.cif.g08.bks.cpg/sg14_26_cif.got.tgz:50730.got - 2010.06.03 17:49:19.
