data_PCOD9242492
_publ_section_title
;
Structure prediction by ZEFSAII (Michael W. Deem and Ramdas Pophale) SiO2 
 PCOD9242492
Probable space group: P 21/C
;
_chemical_formula_sum "Si O2"
_cell_formula_units_Z 24
_cell_length_a 7.068960
_cell_length_b 14.808005
_cell_length_c 13.536688
_cell_angle_alpha 90.000000
_cell_angle_beta 135.406976
_cell_angle_gamma 90.000000
_cell_volume 994.815761
_symmetry_space_group_name_H-M "P 21/C"
_symmetry_group_IT_number 14
_symmetry_cell_setting 'monoclinic'
loop_
_space_group_symop_operation_xyz
x,y,z
-x,1/2+y,1/2-z
-x,-y,-z
x,1/2-y,1/2+z
loop_
_atom_site_type_symbol
_atom_site_label
_atom_site_fract_x
_atom_site_fract_y
_atom_site_fract_z
Si Si1 0.873203 0.481642 0.062108
Si Si2 0.397784 0.664604 0.654903
Si Si3 0.676050 0.283077 0.681519
Si Si4 0.432636 0.516247 0.360612
Si Si5 0.010363 0.291191 0.079838
Si Si6 0.238154 0.171798 0.443167
O O1 0.120216 0.492981 0.229093
O O2 0.817798 0.375510 0.037584
O O3 0.684977 0.565933 0.020570
O O4 0.000000 0.500000 0.000000
O O5 0.324319 0.705962 0.734345
O O6 0.413273 0.556799 0.649400
O O7 0.705971 0.701102 0.756604
O O8 0.168119 0.702096 0.496877
O O9 0.541289 0.379094 0.661152
O O10 0.987326 0.307247 0.777826
O O11 0.480682 0.241216 0.527566
O O12 0.500000 0.500000 0.500000
O O13 0.106431 0.310292 0.002628
#
# Coordination Sequence:
#
# PCOD9242492 Si02
#       6
#     4   4   4   4   4   4
#     4   8  14  28  49  68  94 138 177 196 239 320
#     4   9  17  31  50  75 103 138 176 212 255 315
#     4   9  17  31  50  75 103 138 176 212 255 315
#     4  10  20  34  52  78 109 140 171 214 269 318
#     4   8  14  26  46  71  96 129 174 215 246 296
#     4   8  14  26  46  71  96 129 174 215 246 296
#
# _framework density 24.125070000000001
#
# number of rings (size 3 to 8) (size 9 to 14) (size 15 to 20)
#    0.000    3.333    0.000    2.000    0.000    0.000 
#    0.000   15.833    0.000    0.000    0.000   14.000 
#    0.000    0.000    0.000    0.000    0.000    0.000 
#
# Total GULP energy -133716.380925 kJ/mol
# GULP energy per Si atom -5571.515872 kJ/mol
# Density = 2.407016 g / cm^3
# Si number density = 24.125070 Si / 1000 Ang^3
#
#
#
# Elastic Constant Matrix: (Units=GPa)
#
#
# Indices 1 2 3 4 5 6 
#
# 1 43.9728 12.1409 -0.6887 0.0000 -3.3590 0.0000
# 2 12.1409 99.7074 16.8928 0.0000 30.5146 0.0000
# 3 -0.6887 16.8928 141.0141 0.0000 0.5229 0.0000
# 4 0.0000 0.0000 0.0000 34.8765 0.0000 12.5674
# 5 -3.3590 30.5146 0.5229 0.0000 17.4736 0.0000
# 6 0.0000 0.0000 0.0000 12.5674 0.0000 33.6429
#
#
#
# Elastic Compliance Matrix: (Units=1/GPa)
#
#
# Indices 1 2 3 4 5 6 
#
# 1 0.027776 -0.011254 0.001391 0.000000 0.024951 0.000000
# 2 -0.011254 0.026977 -0.003104 0.000000 -0.049181 0.000000
# 3 0.001391 -0.003104 0.007450 0.000000 0.005466 0.000000
# 4 0.000000 0.000000 0.000000 0.033132 0.000000 -0.012377
# 5 0.024951 -0.049181 0.005466 0.000000 0.147748 0.000000
# 6 0.000000 0.000000 0.000000 -0.012377 0.000000 0.034347
#
#
# Mechanical properties :
#
#
# Convention : Reuss Voigt Hill
#
# Bulk Modulus (GPa) = 27.57137 37.93159 32.75148
# Shear Modulus (GPa) = 15.85013 34.28856 25.06935
#
# Velocity S-wave (km/s) = 2.56598 3.77408 3.22707
# Velocity P-wave (km/s) = 4.49804 5.89480 5.24314
#
# Compressibility (1/GPa) = 0.03626950
#
# Stress axis : x y z
#
# Youngs Moduli (GPa) = 36.00202 37.06840 134.22999
#
# Poissons Ratio (x) = 0.41716 -0.18675
# Poissons Ratio (y) = 0.40516 0.41669
# Poissons Ratio (z) = -0.05009 0.11507
#
# Static dielectric constant tensor:
#      x y z
#    x 1.949210 0.000000 0.003640 
#    y 0.000000 1.932230 0.000000 
#    z 0.003640 0.000000 1.988280 
# 
# From -- ./inp_files/33988.got.cif
#   From: 2010.05.17/outbox.cif.g08.bks.cpg/sg14_17_cif.got.tgz:33988.got - 2010.06.03 17:49:19.
