data_PCOD9242491
_publ_section_title
;
Structure prediction by ZEFSAII (Michael W. Deem and Ramdas Pophale) SiO2 
 PCOD9242491
Probable space group: P 21/C
;
_chemical_formula_sum "Si O2"
_cell_formula_units_Z 20
_cell_length_a 5.175933
_cell_length_b 13.665166
_cell_length_c 11.134332
_cell_angle_alpha 90.000000
_cell_angle_beta 80.703747
_cell_angle_gamma 90.000000
_cell_volume 777.187909
_symmetry_space_group_name_H-M "P 21/C"
_symmetry_group_IT_number 14
_symmetry_cell_setting 'monoclinic'
loop_
_space_group_symop_operation_xyz
x,y,z
-x,1/2+y,1/2-z
-x,-y,-z
x,1/2-y,1/2+z
loop_
_atom_site_type_symbol
_atom_site_label
_atom_site_fract_x
_atom_site_fract_y
_atom_site_fract_z
Si Si1 0.952554 0.272364 0.632097
Si Si2 0.487031 0.212436 0.976674
Si Si3 0.892303 0.439190 0.789340
Si Si4 0.568975 0.051263 0.772496
Si Si5 0.697768 0.600639 0.938224
O O1 0.717176 0.284107 0.557005
O O2 0.213728 0.322903 0.556715
O O3 0.899440 0.324228 0.763477
O O4 0.058474 0.162077 0.634109
O O5 0.401151 0.326266 0.950111
O O6 0.563937 0.136480 0.869635
O O7 0.178255 0.483657 0.749018
O O8 0.691920 0.483323 0.705517
O O9 0.785348 0.487014 0.922902
O O10 0.518976 0.102508 0.648531
#
# Coordination Sequence:
#
# PCOD9242491 Si02
#       5
#     4   4   4   4   4
#     4  10  20  34  53  77 107 136 168 210 258 308
#     4  10  20  34  52  76 108 135 168 212 259 308
#     4  10  20  34  53  77 107 136 168 210 258 308
#     4  10  20  34  52  76 108 135 168 212 259 308
#     4   8  22  34  48  78 106 138 172 206 254 310
#
# _framework density 25.733803999999999
#
# number of rings (size 3 to 8) (size 9 to 14) (size 15 to 20)
#    2.400    0.000    0.000    3.600    0.000    4.800 
#    0.000    0.000    0.000    1.200    0.000    5.600 
#    0.000    0.000    0.000    0.000    0.000    0.000 
#
# Total GULP energy -111481.023674 kJ/mol
# GULP energy per Si atom -5574.051184 kJ/mol
# Density = 2.567523 g / cm^3
# Si number density = 25.733804 Si / 1000 Ang^3
#
#
#
# Elastic Constant Matrix: (Units=GPa)
#
#
# Indices 1 2 3 4 5 6 
#
# 1 175.8187 16.2251 40.7720 0.0000 42.0597 0.0000
# 2 16.2251 86.2611 40.0033 0.0000 11.1893 0.0000
# 3 40.7720 40.0033 74.3598 0.0000 11.2276 0.0000
# 4 0.0000 0.0000 0.0000 20.6090 0.0000 0.2235
# 5 42.0597 11.1893 11.2276 0.0000 40.1484 0.0000
# 6 0.0000 0.0000 0.0000 0.2235 0.0000 -10.8784
#
#
#
# Elastic Compliance Matrix: (Units=1/GPa)
#
#
# Indices 1 2 3 4 5 6 
#
# 1 0.008459 0.001389 -0.004165 0.000000 -0.008084 0.000000
# 2 0.001389 0.015841 -0.008767 0.000000 -0.003418 0.000000
# 3 -0.004165 -0.008767 0.020277 0.000000 0.001136 0.000000
# 4 0.000000 0.000000 0.000000 0.048512 0.000000 0.000996
# 5 -0.008084 -0.003418 0.001136 0.000000 0.034012 0.000000
# 6 0.000000 0.000000 0.000000 0.000996 0.000000 -0.091905
#
#
# Mechanical properties :
#
#
# Convention : Reuss Voigt Hill
#
# Bulk Modulus (GPa) = 46.53252 58.93782 52.73517
# Shear Modulus (GPa) = 76.40052 25.93841 51.16947
#
# Velocity S-wave (km/s) = 5.45465 3.17827 4.46400
# Velocity P-wave (km/s) = 7.60214 6.03499 6.86344
#
# Compressibility (1/GPa) = 0.02149035
#
# Stress axis : x y z
#
# Youngs Moduli (GPa) = 118.21349 63.12888 49.31770
#
# Poissons Ratio (x) = -0.08768 0.20540
# Poissons Ratio (y) = -0.16419 0.43238
# Poissons Ratio (z) = 0.49234 0.55347
#
# Static dielectric constant tensor:
#      x y z
#    x 2.077350 0.000000 -0.088700 
#    y 0.000000 2.105970 0.000000 
#    z -0.088700 0.000000 1.988490 
# 
# From -- ./inp_files/37124.got.cif
#   From: 2010.05.17/outbox.cif.g08.bks.cpg/sg14_19_cif.got.tgz:37124.got - 2010.06.03 17:49:19.
