data_PCOD9242534
_publ_section_title
;
Structure prediction by ZEFSAII (Michael W. Deem and Ramdas Pophale) SiO2 
 PCOD9242534
Probable space group: P 21/C
;
_chemical_formula_sum "Si O2"
_cell_formula_units_Z 32
_cell_length_a 4.934967
_cell_length_b 22.250781
_cell_length_c 13.499586
_cell_angle_alpha 90.000000
_cell_angle_beta 84.261658
_cell_angle_gamma 90.000000
_cell_volume 1474.919069
_symmetry_space_group_name_H-M "P 21/C"
_symmetry_group_IT_number 14
_symmetry_cell_setting 'monoclinic'
loop_
_space_group_symop_operation_xyz
x,y,z
-x,1/2+y,1/2-z
-x,-y,-z
x,1/2-y,1/2+z
loop_
_atom_site_type_symbol
_atom_site_label
_atom_site_fract_x
_atom_site_fract_y
_atom_site_fract_z
Si Si1 0.346965 0.160672 0.260374
Si Si2 0.228847 0.029421 0.895234
Si Si3 0.764766 0.406931 0.306887
Si Si4 0.440953 0.179630 0.479108
Si Si5 0.885058 0.346396 0.106808
Si Si6 0.299353 0.688165 0.527926
Si Si7 0.384871 0.419017 0.589648
Si Si8 0.111798 0.718550 0.332978
O O1 0.336725 0.155837 0.377720
O O2 0.259660 0.103595 0.197070
O O3 0.657711 0.176820 0.222904
O O4 0.153673 0.212766 0.224040
O O5 0.454617 0.072350 0.833989
O O6 0.952200 0.041717 0.848198
O O7 0.371177 0.964762 0.894356
O O8 0.205153 0.051456 0.009981
O O9 0.807250 0.346334 0.371436
O O10 0.849657 0.396471 0.191032
O O11 0.190694 0.170285 0.563534
O O12 0.547089 0.248542 0.460133
O O13 0.698140 0.145278 0.517186
O O14 0.776036 0.285672 0.163372
O O15 0.495555 0.640179 0.467824
O O16 0.075911 0.700321 0.449985
#
# Coordination Sequence:
#
# PCOD9242534 Si02
#       8
#     4   4   4   4   4   4   4   4
#     4  11  21  36  58  83 115 151 186 231 283 338
#     4  10  22  37  58  88 112 145 191 238 290 345
#     4  11  22  37  59  81 113 152 190 233 285 335
#     4  11  23  37  56  84 116 151 193 225 273 345
#     4  11  22  38  55  78 115 154 192 235 273 328
#     4   9  20  36  57  87 117 146 179 228 289 351
#     4   9  20  37  59  85 118 145 183 239 294 340
#     4  10  20  34  54  83 112 143 182 223 283 349
#
# _framework density 21.696107000000001
#
# number of rings (size 3 to 8) (size 9 to 14) (size 15 to 20)
#    0.000    1.750    0.000    5.250    0.000   12.500 
#    0.000    0.000    0.000    4.500    0.000    0.000 
#    0.000    0.000    0.000    0.000    0.000    0.000 
#
# Total GULP energy -178791.534219 kJ/mol
# GULP energy per Si atom -5587.235444 kJ/mol
# Density = 2.164673 g / cm^3
# Si number density = 21.696107 Si / 1000 Ang^3
#
#
#
# Elastic Constant Matrix: (Units=GPa)
#
#
# Indices 1 2 3 4 5 6 
#
# 1 76.5472 -6.1493 16.9062 0.0000 7.5894 0.0000
# 2 -6.1493 42.4873 26.6442 0.0000 1.9509 0.0000
# 3 16.9062 26.6442 114.7987 0.0000 11.7829 0.0000
# 4 0.0000 0.0000 0.0000 21.9347 0.0000 1.3452
# 5 7.5894 1.9509 11.7829 0.0000 30.4238 0.0000
# 6 0.0000 0.0000 0.0000 1.3452 0.0000 19.3903
#
#
#
# Elastic Compliance Matrix: (Units=1/GPa)
#
#
# Indices 1 2 3 4 5 6 
#
# 1 0.014250 0.003895 -0.002720 0.000000 -0.002751 0.000000
# 2 0.003895 0.028626 -0.007216 0.000000 -0.000012 0.000000
# 3 -0.002720 -0.007216 0.011111 0.000000 -0.003162 0.000000
# 4 0.000000 0.000000 0.000000 0.045785 0.000000 -0.003176
# 5 -0.002751 -0.000012 -0.003162 0.000000 0.034781 0.000000
# 6 0.000000 0.000000 0.000000 -0.003176 0.000000 0.051792
#
#
# Mechanical properties :
#
#
# Convention : Reuss Voigt Hill
#
# Bulk Modulus (GPa) = 23.86428 34.29282 29.07855
# Shear Modulus (GPa) = 23.54090 27.44524 25.49307
#
# Velocity S-wave (km/s) = 3.29755 3.56052 3.43156
# Velocity P-wave (km/s) = 5.05190 5.72218 5.39746
#
# Compressibility (1/GPa) = 0.04190364
#
# Stress axis : x y z
#
# Youngs Moduli (GPa) = 70.17428 34.93319 90.00189
#
# Poissons Ratio (x) = -0.13605 0.24482
# Poissons Ratio (y) = -0.27330 0.64948
# Poissons Ratio (z) = 0.19089 0.25209
#
# Static dielectric constant tensor:
#      x y z
#    x 1.815620 0.000000 0.001810 
#    y 0.000000 1.820740 0.000000 
#    z 0.001810 0.000000 1.821930 
# 
# From -- ./inp_files/22112.got.cif
#   From: 2010.05.17/outbox.cif.g08.bks.cpg/sg14_12_cif.got.tgz:22112.got - 2010.06.03 17:49:19.
