data_PCOD9242198
_publ_section_title
;
Structure prediction by ZEFSAII (Michael W. Deem and Ramdas Pophale) SiO2 
 PCOD9242198
Probable space group: P 21/C
;
_chemical_formula_sum "Si O2"
_cell_formula_units_Z 28
_cell_length_a 11.377943
_cell_length_b 13.459822
_cell_length_c 7.922258
_cell_angle_alpha 90.000000
_cell_angle_beta 127.105308
_cell_angle_gamma 90.000000
_cell_volume 967.604802
_symmetry_space_group_name_H-M "P 21/C"
_symmetry_group_IT_number 14
_symmetry_cell_setting 'monoclinic'
loop_
_space_group_symop_operation_xyz
x,y,z
-x,1/2+y,1/2-z
-x,-y,-z
x,1/2-y,1/2+z
loop_
_atom_site_type_symbol
_atom_site_label
_atom_site_fract_x
_atom_site_fract_y
_atom_site_fract_z
Si Si1 0.050042 0.077475 0.304875
Si Si2 0.306284 0.202748 0.160577
Si Si3 0.240353 0.935331 0.281484
Si Si4 0.302654 0.865594 0.698514
Si Si5 0.024278 0.749324 0.070991
Si Si6 0.491964 0.665946 0.863979
Si Si7 0.779168 0.956090 0.189398
O O1 0.138557 0.067276 0.560159
O O2 0.991050 0.190461 0.258771
O O3 0.154164 0.035390 0.249645
O O4 0.908703 0.005978 0.189827
O O5 0.395244 0.303291 0.185381
O O6 0.285013 0.133905 0.976019
O O7 0.147591 0.228041 0.099582
O O8 0.405773 0.150786 0.386156
O O9 0.319449 0.906578 0.526087
O O10 0.116675 0.850108 0.157057
O O11 0.367241 0.919026 0.252611
O O12 0.132023 0.830581 0.573758
O O13 0.329261 0.954815 0.850585
O O14 0.398115 0.767679 0.807911
#
# Coordination Sequence:
#
# PCOD9242198 Si02
#       7
#     4   4   4   4   4   4   4
#     4   9  17  36  61  96 115 153 212 263 294 352
#     4  12  23  39  60  96 125 157 203 260 307 359
#     4  10  19  40  64  86 124 162 208 251 303 369
#     4   9  20  41  64  89 112 166 210 254 299 362
#     4  10  21  33  65  90 119 153 201 263 308 347
#     4  11  24  39  58  88 131 164 197 242 317 371
#     4   9  18  34  65  91 114 148 220 268 289 336
#
# _framework density 28.937436000000002
#
# number of rings (size 3 to 8) (size 9 to 14) (size 15 to 20)
#    0.000    2.000    2.857    1.714    2.000    0.571 
#    2.571    0.714    0.000    5.143    0.000    0.000 
#    0.000    0.000    0.000    0.000    0.000    0.000 
#
# Total GULP energy -156980.753062 kJ/mol
# GULP energy per Si atom -5606.455466 kJ/mol
# Density = 2.887157 g / cm^3
# Si number density = 28.937436 Si / 1000 Ang^3
#
#
#
# Elastic Constant Matrix: (Units=GPa)
#
#
# Indices 1 2 3 4 5 6 
#
# 1 170.1575 24.4221 38.5588 0.0000 43.6544 0.0000
# 2 24.4221 116.6408 12.5097 0.0000 15.9451 0.0000
# 3 38.5588 12.5097 113.3266 0.0000 3.3825 0.0000
# 4 0.0000 0.0000 0.0000 53.5489 0.0000 10.7129
# 5 43.6544 15.9451 3.3825 0.0000 56.4111 0.0000
# 6 0.0000 0.0000 0.0000 10.7129 0.0000 51.7763
#
#
#
# Elastic Compliance Matrix: (Units=1/GPa)
#
#
# Indices 1 2 3 4 5 6 
#
# 1 0.008044 -0.000610 -0.002493 0.000000 -0.005903 0.000000
# 2 -0.000610 0.009059 -0.000731 0.000000 -0.002045 0.000000
# 3 -0.002493 -0.000731 0.009707 0.000000 0.001554 0.000000
# 4 0.000000 0.000000 0.000000 0.019481 0.000000 -0.004031
# 5 -0.005903 -0.002045 0.001554 0.000000 0.022780 0.000000
# 6 0.000000 0.000000 0.000000 -0.004031 0.000000 0.020148
#
#
# Mechanical properties :
#
#
# Convention : Reuss Voigt Hill
#
# Bulk Modulus (GPa) = 52.24588 61.23402 56.73995
# Shear Modulus (GPa) = 48.41783 53.98953 51.20368
#
# Velocity S-wave (km/s) = 4.09490 4.32410 4.21106
# Velocity P-wave (km/s) = 6.36016 6.79244 6.57985
#
# Compressibility (1/GPa) = 0.01914026
#
# Stress axis : x y z
#
# Youngs Moduli (GPa) = 124.31820 110.38746 103.02092
#
# Poissons Ratio (x) = 0.06732 0.25687
# Poissons Ratio (y) = 0.07581 0.07536
# Poissons Ratio (z) = 0.30997 0.08074
#
# Static dielectric constant tensor:
#      x y z
#    x 2.219310 0.000000 -0.049660 
#    y 0.000000 2.270480 0.000000 
#    z -0.049660 0.000000 2.246580 
# 
# From -- ./inp_files/32624.got.cif
#   From: 2010.05.17/outbox.cif.g08.bks.cpg/sg14_17_cif.got.tgz:32624.got - 2010.06.03 17:49:19.
