data_PCOD9242269
_publ_section_title
;
Structure prediction by ZEFSAII (Michael W. Deem and Ramdas Pophale) SiO2 
 PCOD9242269
Probable space group: P 21/C
;
_chemical_formula_sum "Si O2"
_cell_formula_units_Z 32
_cell_length_a 11.492629
_cell_length_b 7.294728
_cell_length_c 15.969259
_cell_angle_alpha 90.000000
_cell_angle_beta 93.064902
_cell_angle_gamma 90.000000
_cell_volume 1336.877456
_symmetry_space_group_name_H-M "P 21/C"
_symmetry_group_IT_number 14
_symmetry_cell_setting 'monoclinic'
loop_
_space_group_symop_operation_xyz
x,y,z
-x,1/2+y,1/2-z
-x,-y,-z
x,1/2-y,1/2+z
loop_
_atom_site_type_symbol
_atom_site_label
_atom_site_fract_x
_atom_site_fract_y
_atom_site_fract_z
Si Si1 0.941839 0.894841 0.692977
Si Si2 0.457930 0.299498 0.975566
Si Si3 0.594854 0.626558 0.356049
Si Si4 0.342849 0.815004 0.799050
Si Si5 0.091760 0.819542 0.857536
Si Si6 0.321437 0.129726 0.308266
Si Si7 0.059831 0.809055 0.531584
Si Si8 0.309139 0.736870 0.609528
O O1 0.813294 0.825659 0.705713
O O2 0.015663 0.904355 0.780442
O O3 0.001659 0.778965 0.620511
O O4 0.921081 0.101651 0.660791
O O5 0.367849 0.300182 0.897391
O O6 0.578486 0.215727 0.945884
O O7 0.500000 0.500000 0.000000
O O8 0.399078 0.225623 0.056296
O O9 0.456375 0.587272 0.340955
O O10 0.615529 0.722707 0.267954
O O11 0.697210 0.474167 0.360962
O O12 0.225971 0.869159 0.844048
O O13 0.351468 0.590872 0.810400
O O14 0.332052 0.842333 0.697926
O O15 0.052543 0.831214 0.952887
O O16 0.198100 0.817264 0.557990
O O17 0.000000 0.000000 0.500000
#
# Coordination Sequence:
#
# PCOD9242269 Si02
#       8
#     4   4   4   4   4   4   4   4
#     4  10  22  43  62  94 128 174 222 275 332 399
#     4  12  24  40  66  97 134 179 224 280 353 427
#     4  11  23  42  67  99 135 178 223 289 352 407
#     4  10  19  41  68  91 136 178 214 282 349 409
#     4  10  21  41  66  90 128 171 224 277 333 401
#     4  10  23  41  63  95 138 175 225 279 341 420
#     4  10  22  41  70  95 127 180 233 273 334 415
#     4  11  23  42  66  99 136 172 233 284 341 414
#
# _framework density 23.936373
#
# number of rings (size 3 to 8) (size 9 to 14) (size 15 to 20)
#    0.000    1.500    3.750    1.125    3.500    1.000 
#    6.750    0.625    0.000    0.000    0.000    0.000 
#    0.000    0.000    0.000    0.000    0.000    0.000 
#
# Total GULP energy -178723.107423 kJ/mol
# GULP energy per Si atom -5585.097107 kJ/mol
# Density = 2.388189 g / cm^3
# Si number density = 23.936373 Si / 1000 Ang^3
#
#
#
# Elastic Constant Matrix: (Units=GPa)
#
#
# Indices 1 2 3 4 5 6 
#
# 1 132.8994 10.6968 51.2719 0.0000 12.5845 0.0000
# 2 10.6968 50.8235 29.1350 0.0000 -0.0654 0.0000
# 3 51.2719 29.1350 170.0607 0.0000 13.7539 0.0000
# 4 0.0000 0.0000 0.0000 23.3029 0.0000 8.7034
# 5 12.5845 -0.0654 13.7539 0.0000 35.5773 0.0000
# 6 0.0000 0.0000 0.0000 8.7034 0.0000 7.3749
#
#
#
# Elastic Compliance Matrix: (Units=1/GPa)
#
#
# Indices 1 2 3 4 5 6 
#
# 1 0.008678 -0.000476 -0.002360 0.000000 -0.002158 0.000000
# 2 -0.000476 0.021926 -0.003747 0.000000 0.001657 0.000000
# 3 -0.002360 -0.003747 0.007398 0.000000 -0.002032 0.000000
# 4 0.000000 0.000000 0.000000 0.076735 0.000000 -0.090557
# 5 -0.002158 0.001657 -0.002032 0.000000 0.029660 0.000000
# 6 0.000000 0.000000 0.000000 -0.090557 0.000000 0.242463
#
#
# Mechanical properties :
#
#
# Convention : Reuss Voigt Hill
#
# Bulk Modulus (GPa) = 40.26487 59.55456 49.90971
# Shear Modulus (GPa) = 12.24575 30.76304 21.50440
#
# Velocity S-wave (km/s) = 2.26430 3.58886 3.00058
# Velocity P-wave (km/s) = 4.86767 6.48904 5.73593
#
# Compressibility (1/GPa) = 0.02483555
#
# Stress axis : x y z
#
# Youngs Moduli (GPa) = 115.23812 45.60749 135.17012
#
# Poissons Ratio (x) = 0.02172 0.31902
# Poissons Ratio (y) = 0.05488 0.50647
# Poissons Ratio (z) = 0.27198 0.17089
#
# Static dielectric constant tensor:
#      x y z
#    x 1.948660 0.000000 -0.213860 
#    y 0.000000 -5.073740 0.000000 
#    z -0.213860 0.000000 2.700040 
# 
# From -- ./inp_files/43745.got.cif
#   From: 2010.05.17/outbox.cif.g08.bks.cpg/sg14_22_cif.got.tgz:43745.got - 2010.06.03 17:49:19.
