data_PCOD9242737
_publ_section_title
;
Structure prediction by ZEFSAII (Michael W. Deem and Ramdas Pophale) SiO2 
 PCOD9242737
Probable space group: P 21/C
;
_chemical_formula_sum "Si O2"
_cell_formula_units_Z 28
_cell_length_a 14.371485
_cell_length_b 16.510877
_cell_length_c 11.131770
_cell_angle_alpha 90.000000
_cell_angle_beta 29.109184
_cell_angle_gamma 90.000000
_cell_volume 1284.981648
_symmetry_space_group_name_H-M "P 21/C"
_symmetry_group_IT_number 14
_symmetry_cell_setting 'monoclinic'
loop_
_space_group_symop_operation_xyz
x,y,z
-x,1/2+y,1/2-z
-x,-y,-z
x,1/2-y,1/2+z
loop_
_atom_site_type_symbol
_atom_site_label
_atom_site_fract_x
_atom_site_fract_y
_atom_site_fract_z
Si Si1 0.930446 0.304832 0.757077
Si Si2 0.575611 0.384201 0.296071
Si Si3 0.289975 0.259001 0.513233
Si Si4 0.624486 0.287643 0.456851
Si Si5 0.601223 0.502810 0.066262
Si Si6 0.931025 0.884142 0.124475
Si Si7 0.641049 0.377849 0.808152
O O1 0.826167 0.235987 0.792499
O O2 0.109677 0.278394 0.632367
O O3 0.007115 0.375031 0.582832
O O4 0.759492 0.339659 0.029763
O O5 0.383774 0.336743 0.471220
O O6 0.606802 0.370093 0.402121
O O7 0.575920 0.470353 0.228962
O O8 0.203394 0.193156 0.700783
O O9 0.457680 0.221602 0.242057
O O10 0.594184 0.214927 0.392665
O O11 0.807961 0.539713 0.802469
O O12 0.578785 0.427229 0.999061
O O13 0.456886 0.573207 0.188183
O O14 0.131598 0.880450 0.966984
#
# Coordination Sequence:
#
# PCOD9242737 Si02
#       7
#     4   4   4   4   4   4   4
#     4  10  20  35  58  84 113 148 192 241 286 331
#     4  11  22  36  58  86 116 149 192 237 285 338
#     4  11  21  36  58  83 114 153 193 235 282 336
#     4  10  21  40  56  84 114 153 195 230 280 342
#     4  11  21  35  58  86 118 147 182 238 295 338
#     4  11  22  35  57  87 115 149 187 238 288 340
#     4  10  20  37  57  85 116 146 187 238 290 334
#
# _framework density 21.790194
#
# number of rings (size 3 to 8) (size 9 to 14) (size 15 to 20)
#    0.000    1.429    4.286    4.714    2.000    1.143 
#    0.000    0.714    0.000    1.714    0.000    0.000 
#    0.000    0.000    0.000    0.000    0.000    0.000 
#
# Total GULP energy -156468.065139 kJ/mol
# GULP energy per Si atom -5588.145184 kJ/mol
# Density = 2.174060 g / cm^3
# Si number density = 21.790194 Si / 1000 Ang^3
#
#
#
# Elastic Constant Matrix: (Units=GPa)
#
#
# Indices 1 2 3 4 5 6 
#
# 1 52.7417 7.1564 14.2361 0.0000 -25.1612 0.0000
# 2 7.1564 50.2278 21.9801 0.0000 -4.0000 0.0000
# 3 14.2361 21.9801 70.6282 0.0000 -16.8602 0.0000
# 4 0.0000 0.0000 0.0000 35.2285 0.0000 6.5341
# 5 -25.1612 -4.0000 -16.8602 0.0000 31.2015 0.0000
# 6 0.0000 0.0000 0.0000 6.5341 0.0000 30.3958
#
#
#
# Elastic Compliance Matrix: (Units=1/GPa)
#
#
# Indices 1 2 3 4 5 6 
#
# 1 0.031129 -0.002676 0.000538 0.000000 0.025050 0.000000
# 2 -0.002676 0.023309 -0.007481 0.000000 -0.003212 0.000000
# 3 0.000538 -0.007481 0.018660 0.000000 0.009558 0.000000
# 4 0.000000 0.000000 0.000000 0.029565 0.000000 -0.006356
# 5 0.025050 -0.003212 0.009558 0.000000 0.057004 0.000000
# 6 0.000000 0.000000 0.000000 -0.006356 0.000000 0.034266
#
#
# Mechanical properties :
#
#
# Convention : Reuss Voigt Hill
#
# Bulk Modulus (GPa) = 18.56676 28.92699 23.74687
# Shear Modulus (GPa) = 21.63355 28.04683 24.84019
#
# Velocity S-wave (km/s) = 3.15431 3.59155 3.38001
# Velocity P-wave (km/s) = 4.66963 5.52296 5.11412
#
# Compressibility (1/GPa) = 0.05385969
#
# Stress axis : x y z
#
# Youngs Moduli (GPa) = 32.12473 42.90260 53.59024
#
# Poissons Ratio (x) = 0.11480 -0.02885
# Poissons Ratio (y) = 0.08596 0.40093
# Poissons Ratio (z) = -0.01729 0.32097
#
# Static dielectric constant tensor:
#      x y z
#    x 1.863340 0.000000 0.001800 
#    y 0.000000 1.839960 0.000000 
#    z 0.001800 0.000000 1.769440 
# 
# From -- ./inp_files/32907.got.cif
#   From: 2010.05.17/outbox.cif.g08.bks.cpg/sg14_17_cif.got.tgz:32907.got - 2010.06.03 17:49:19.
