data_PCOD9242743
_publ_section_title
;
Structure prediction by ZEFSAII (Michael W. Deem and Ramdas Pophale) SiO2 
 PCOD9242743
Probable space group: P 21/C
;
_chemical_formula_sum "Si O2"
_cell_formula_units_Z 28
_cell_length_a 15.326209
_cell_length_b 9.030659
_cell_length_c 18.582886
_cell_angle_alpha 90.000000
_cell_angle_beta 155.743473
_cell_angle_gamma 90.000000
_cell_volume 1056.627231
_symmetry_space_group_name_H-M "P 21/C"
_symmetry_group_IT_number 14
_symmetry_cell_setting 'monoclinic'
loop_
_space_group_symop_operation_xyz
x,y,z
-x,1/2+y,1/2-z
-x,-y,-z
x,1/2-y,1/2+z
loop_
_atom_site_type_symbol
_atom_site_label
_atom_site_fract_x
_atom_site_fract_y
_atom_site_fract_z
Si Si1 0.905347 0.566456 0.354499
Si Si2 0.675116 0.861001 0.459978
Si Si3 0.596434 0.182031 0.614754
Si Si4 0.108702 0.647784 0.054149
Si Si5 0.495642 0.630368 0.233344
Si Si6 0.966361 0.948057 0.204620
Si Si7 0.703066 0.305777 0.545595
O O1 0.677381 0.488316 0.175628
O O2 0.000000 0.500000 0.500000
O O3 0.941061 0.740712 0.391065
O O4 0.010107 0.515510 0.358073
O O5 0.607961 0.810419 0.488784
O O6 0.684086 0.717334 0.416113
O O7 0.484713 0.965881 0.284756
O O8 0.865189 0.973768 0.613649
O O9 0.782824 0.269729 0.797101
O O10 0.589692 0.259809 0.533372
O O11 0.302403 0.620865 0.144743
O O12 0.000000 0.500000 0.000000
O O13 0.431721 0.738526 0.120513
O O14 0.070006 0.784548 0.283339
O O15 0.748619 0.020739 0.069780
#
# Coordination Sequence:
#
# PCOD9242743 Si02
#       7
#     4   4   4   4   4   4   4
#     4   9  18  36  58  87 114 153 199 250 296 356
#     4  10  23  41  60  89 128 159 204 248 316 363
#     4   9  21  38  59  86 120 159 197 251 301 371
#     4  10  20  35  58  87 119 148 203 252 298 351
#     4  10  22  40  58  85 120 164 197 251 298 368
#     4  10  21  37  62  89 120 156 205 253 299 361
#     4  10  21  37  64  87 115 158 207 249 300 354
#
# _framework density 26.499413000000001
#
# number of rings (size 3 to 8) (size 9 to 14) (size 15 to 20)
#    0.000    2.286    1.429    0.000    4.000    7.429 
#    5.143    0.000    0.000    4.286    0.000    0.000 
#    0.000    0.000    0.000    0.000    0.000    0.000 
#
# Total GULP energy -156759.784459 kJ/mol
# GULP energy per Si atom -5598.563731 kJ/mol
# Density = 2.643910 g / cm^3
# Si number density = 26.499413 Si / 1000 Ang^3
#
#
#
# Elastic Constant Matrix: (Units=GPa)
#
#
# Indices 1 2 3 4 5 6 
#
# 1 106.6350 13.6178 26.9855 0.0000 -30.3970 0.0000
# 2 13.6178 123.3823 11.2774 0.0000 3.9897 0.0000
# 3 26.9855 11.2774 70.3644 0.0000 -14.5912 0.0000
# 4 0.0000 0.0000 0.0000 35.0081 0.0000 -0.9332
# 5 -30.3970 3.9897 -14.5912 0.0000 30.0098 0.0000
# 6 0.0000 0.0000 0.0000 -0.9332 0.0000 39.9795
#
#
#
# Elastic Compliance Matrix: (Units=1/GPa)
#
#
# Indices 1 2 3 4 5 6 
#
# 1 0.013968 -0.001757 -0.002328 0.000000 0.013251 0.000000
# 2 -0.001757 0.008548 -0.001447 0.000000 -0.003620 0.000000
# 3 -0.002328 -0.001447 0.016557 0.000000 0.005885 0.000000
# 4 0.000000 0.000000 0.000000 0.028583 0.000000 0.000667
# 5 0.013251 -0.003620 0.005885 0.000000 0.050086 0.000000
# 6 0.000000 0.000000 0.000000 0.000667 0.000000 0.025028
#
#
# Mechanical properties :
#
#
# Convention : Reuss Voigt Hill
#
# Bulk Modulus (GPa) = 35.70203 44.90478 40.30340
# Shear Modulus (GPa) = 30.64278 37.56622 34.10450
#
# Velocity S-wave (km/s) = 3.40421 3.76922 3.59136
# Velocity P-wave (km/s) = 5.38085 5.99375 5.69555
#
# Compressibility (1/GPa) = 0.02800961
#
# Stress axis : x y z
#
# Youngs Moduli (GPa) = 71.59010 116.98445 60.39898
#
# Poissons Ratio (x) = 0.20559 0.14059
# Poissons Ratio (y) = 0.12581 0.08738
# Poissons Ratio (z) = 0.16664 0.16924
#
# Static dielectric constant tensor:
#      x y z
#    x 2.001720 0.000000 0.021140 
#    y 0.000000 2.107910 0.000000 
#    z 0.021140 0.000000 2.182970 
# 
# From -- ./inp_files/69102.got.cif
#   From: 2010.05.17/outbox.cif.g08.bks.cpg/sg14_35_cif.got.tgz:69102.got - 2010.06.03 17:49:19.
