data_PCOD9242946
_publ_section_title
;
Structure prediction by ZEFSAII (Michael W. Deem and Ramdas Pophale) SiO2 
 PCOD9242946
Probable space group: P 21/C
;
_chemical_formula_sum "Si O2"
_cell_formula_units_Z 30
_cell_length_a 7.859413
_cell_length_b 9.498737
_cell_length_c 16.176329
_cell_angle_alpha 90.000000
_cell_angle_beta 106.809464
_cell_angle_gamma 90.000000
_cell_volume 1156.035537
_symmetry_space_group_name_H-M "P 21/C"
_symmetry_group_IT_number 14
_symmetry_cell_setting 'monoclinic'
loop_
_space_group_symop_operation_xyz
x,y,z
-x,1/2+y,1/2-z
-x,-y,-z
x,1/2-y,1/2+z
loop_
_atom_site_type_symbol
_atom_site_label
_atom_site_fract_x
_atom_site_fract_y
_atom_site_fract_z
Si Si1 0.500000 0.500000 0.000000
Si Si2 0.310901 0.474912 0.198448
Si Si3 0.422069 0.051728 0.894764
Si Si4 0.884600 0.253701 0.796897
Si Si5 0.702642 0.533247 0.230033
Si Si6 0.925614 0.728275 0.351819
Si Si7 0.224454 0.304176 0.932539
Si Si8 0.704774 0.197268 0.020305
O O1 0.672105 0.596694 0.990633
O O2 0.623246 0.353579 0.009196
O O3 0.340558 0.417477 0.295297
O O4 0.271134 0.639779 0.203501
O O5 0.507470 0.468972 0.190489
O O6 0.141206 0.387296 0.144939
O O7 0.312832 0.151814 0.941501
O O8 0.378872 0.893913 0.915487
O O9 0.622075 0.110530 0.931306
O O10 0.829872 0.096302 0.768255
O O11 0.981265 0.297440 0.724601
O O12 0.018782 0.274887 0.891904
O O13 0.744269 0.638463 0.312312
O O14 0.724828 0.608418 0.144535
O O15 0.082728 0.693898 0.437595
#
# Coordination Sequence:
#
# PCOD9242946 Si02
#       8
#     2   4   4   4   4   4   4   4
#     4  10  20  36  60  92 114 146 202 248 296 338
#     4  12  22  36  57  89 124 155 193 251 308 358
#     4  10  20  36  58  86 120 156 198 245 301 347
#     4  11  20  33  60  84 113 150 205 244 290 349
#     4  11  23  36  58  89 121 152 193 250 307 347
#     4  11  20  39  61  86 114 153 208 244 289 349
#     4  10  21  37  59  85 113 153 202 249 287 360
#     4  10  20  36  61  88 118 154 200 252 283 351
#
# _framework density 25.950759999999999
#
# number of rings (size 3 to 8) (size 9 to 14) (size 15 to 20)
#    0.000    1.333    4.000    4.800    0.000    0.000 
#    0.000    0.667    2.933    2.400    0.000    0.000 
#    0.000    0.000    0.000    0.000    0.000    0.000 
#
# Total GULP energy -167110.769948 kJ/mol
# GULP energy per Si atom -5570.358998 kJ/mol
# Density = 2.589169 g / cm^3
# Si number density = 25.950760 Si / 1000 Ang^3
#
#
#
# Elastic Constant Matrix: (Units=GPa)
#
#
# Indices 1 2 3 4 5 6 
#
# 1 35.9617 9.8133 38.9132 0.0000 11.7188 0.0000
# 2 9.8133 122.9589 25.0960 0.0000 12.9325 0.0000
# 3 38.9132 25.0960 83.4473 0.0000 40.1070 0.0000
# 4 0.0000 0.0000 0.0000 34.5383 0.0000 23.8494
# 5 11.7188 12.9325 40.1070 0.0000 31.0176 0.0000
# 6 0.0000 0.0000 0.0000 23.8494 0.0000 26.0461
#
#
#
# Elastic Compliance Matrix: (Units=1/GPa)
#
#
# Indices 1 2 3 4 5 6 
#
# 1 0.073287 0.000871 -0.055358 0.000000 0.043529 0.000000
# 2 0.000871 0.008680 -0.002957 0.000000 -0.000125 0.000000
# 3 -0.055358 -0.002957 0.074083 0.000000 -0.073645 0.000000
# 4 0.000000 0.000000 0.000000 0.078738 0.000000 -0.072098
# 5 0.043529 -0.000125 -0.073645 0.000000 0.111072 0.000000
# 6 0.000000 0.000000 0.000000 -0.072098 0.000000 0.104411
#
#
# Mechanical properties :
#
#
# Convention : Reuss Voigt Hill
#
# Bulk Modulus (GPa) = 24.29354 43.33476 33.81415
# Shear Modulus (GPa) = 8.63739 29.55676 19.09707
#
# Velocity S-wave (km/s) = 1.82636 3.37850 2.71568
# Velocity P-wave (km/s) = 3.71876 5.65280 4.78452
#
# Compressibility (1/GPa) = 0.04116320
#
# Stress axis : x y z
#
# Youngs Moduli (GPa) = 13.64505 115.20919 13.49832
#
# Poissons Ratio (x) = -0.10040 0.74724
# Poissons Ratio (y) = -0.01189 0.03991
# Poissons Ratio (z) = 0.75537 0.34063
#
# Static dielectric constant tensor:
#      x y z
#    x 1.794110 0.000000 0.451580 
#    y 0.000000 2.029950 0.000000 
#    z 0.451580 0.000000 1.635100 
# 
# From -- ./inp_files/64586.got.cif
#   From: 2010.05.17/outbox.cif.g08.bks.cpg/sg14_33_cif.got.tgz:64586.got - 2010.06.03 17:49:19.
