data_PCOD9242547
_publ_section_title
;
Structure prediction by ZEFSAII (Michael W. Deem and Ramdas Pophale) SiO2 
 PCOD9242547
Probable space group: P 21/C
;
_chemical_formula_sum "Si O2"
_cell_formula_units_Z 28
_cell_length_a 6.662457
_cell_length_b 27.446758
_cell_length_c 9.380017
_cell_angle_alpha 90.000000
_cell_angle_beta 49.350412
_cell_angle_gamma 90.000000
_cell_volume 1301.378549
_symmetry_space_group_name_H-M "P 21/C"
_symmetry_group_IT_number 14
_symmetry_cell_setting 'monoclinic'
loop_
_space_group_symop_operation_xyz
x,y,z
-x,1/2+y,1/2-z
-x,-y,-z
x,1/2-y,1/2+z
loop_
_atom_site_type_symbol
_atom_site_label
_atom_site_fract_x
_atom_site_fract_y
_atom_site_fract_z
Si Si1 0.069243 0.486430 0.627243
Si Si2 0.890479 0.334936 0.261756
Si Si3 0.979023 0.346615 0.908015
Si Si4 0.471641 0.188311 0.495137
Si Si5 0.152187 0.544162 0.007122
Si Si6 0.494415 0.213455 0.151914
Si Si7 0.569122 0.066965 0.884626
O O1 0.250196 0.529377 0.609553
O O2 0.262623 0.439946 0.555784
O O3 0.000000 0.500000 0.500000
O O4 0.824450 0.473181 0.841798
O O5 0.760025 0.301131 0.442393
O O6 0.703927 0.381899 0.349812
O O7 0.892072 0.318530 0.094751
O O8 0.203988 0.343216 0.136933
O O9 0.248491 0.322503 0.729029
O O10 0.735230 0.340389 0.914279
O O11 0.000714 0.403990 0.934310
O O12 0.508988 0.208199 0.316391
O O13 0.430546 0.233342 0.621564
O O14 0.406635 0.553361 0.793679
O O15 0.000000 0.500000 0.000000
#
# Coordination Sequence:
#
# PCOD9242547 Si02
#       7
#     4   4   4   4   4   4   4
#     4  10  20  34  55  83 113 151 200 245 294 356
#     4  10  22  40  62  86 120 159 199 250 306 363
#     4  10  22  40  63  91 122 163 210 254 310 374
#     4  11  24  39  60  91 120 156 205 252 306 370
#     4   9  19  38  60  84 121 159 198 255 310 360
#     4  11  23  40  62  88 124 161 201 253 309 372
#     4   9  20  37  55  80 115 152 192 243 299 355
#
# _framework density 21.515644999999999
#
# number of rings (size 3 to 8) (size 9 to 14) (size 15 to 20)
#    0.000    2.000    0.000    2.571    0.000    8.571 
#    0.000    5.714    0.000    0.000    0.000    0.000 
#    0.000    0.000    0.000    0.000    0.000    0.000 
#
# Total GULP energy -156084.768746 kJ/mol
# GULP energy per Si atom -5574.456027 kJ/mol
# Density = 2.146667 g / cm^3
# Si number density = 21.515645 Si / 1000 Ang^3
#
#
#
# Elastic Constant Matrix: (Units=GPa)
#
#
# Indices 1 2 3 4 5 6 
#
# 1 87.5063 13.7609 39.7041 0.0000 2.6237 0.0000
# 2 13.7609 61.2726 14.7611 0.0000 2.4159 0.0000
# 3 39.7041 14.7611 118.0249 0.0000 3.9193 0.0000
# 4 0.0000 0.0000 0.0000 32.9104 0.0000 0.9215
# 5 2.6237 2.4159 3.9193 0.0000 27.3972 0.0000
# 6 0.0000 0.0000 0.0000 0.9215 0.0000 12.8668
#
#
#
# Elastic Compliance Matrix: (Units=1/GPa)
#
#
# Indices 1 2 3 4 5 6 
#
# 1 0.013734 -0.002016 -0.004351 0.000000 -0.000515 0.000000
# 2 -0.002016 0.017162 -0.001431 0.000000 -0.001116 0.000000
# 3 -0.004351 -0.001431 0.010146 0.000000 -0.000908 0.000000
# 4 0.000000 0.000000 0.000000 0.030447 0.000000 -0.002180
# 5 -0.000515 -0.001116 -0.000908 0.000000 0.036778 0.000000
# 6 0.000000 0.000000 0.000000 -0.002180 0.000000 0.077876
#
#
# Mechanical properties :
#
#
# Convention : Reuss Voigt Hill
#
# Bulk Modulus (GPa) = 39.29953 44.80621 42.05287
# Shear Modulus (GPa) = 23.78453 27.87338 25.82895
#
# Velocity S-wave (km/s) = 3.32844 3.60320 3.46854
# Velocity P-wave (km/s) = 5.75122 6.17907 5.96898
#
# Compressibility (1/GPa) = 0.02544560
#
# Stress axis : x y z
#
# Youngs Moduli (GPa) = 72.80970 58.26809 98.56419
#
# Poissons Ratio (x) = 0.11747 0.42886
# Poissons Ratio (y) = 0.14679 0.14106
# Poissons Ratio (z) = 0.31680 0.08339
#
# Static dielectric constant tensor:
#      x y z
#    x 1.834690 0.000000 -0.073620 
#    y 0.000000 1.700110 0.000000 
#    z -0.073620 0.000000 1.930710 
# 
# From -- ./inp_files/6724.got.cif
#   From: 2010.05.17/outbox.cif.g08.bks.cpg/sg14_4_cif.got.tgz:6724.got - 2010.06.03 17:49:19.
