data_PCOD9242549
_publ_section_title
;
Structure prediction by ZEFSAII (Michael W. Deem and Ramdas Pophale) SiO2 
 PCOD9242549
Probable space group: P 21/C
;
_chemical_formula_sum "Si O2"
_cell_formula_units_Z 28
_cell_length_a 30.155476
_cell_length_b 9.225533
_cell_length_c 8.837207
_cell_angle_alpha 90.000000
_cell_angle_beta 142.238644
_cell_angle_gamma 90.000000
_cell_volume 1505.529998
_symmetry_space_group_name_H-M "P 21/C"
_symmetry_group_IT_number 14
_symmetry_cell_setting 'monoclinic'
loop_
_space_group_symop_operation_xyz
x,y,z
-x,1/2+y,1/2-z
-x,-y,-z
x,1/2-y,1/2+z
loop_
_atom_site_type_symbol
_atom_site_label
_atom_site_fract_x
_atom_site_fract_y
_atom_site_fract_z
Si Si1 0.048177 0.604973 0.732915
Si Si2 0.008410 0.342821 0.093783
Si Si3 0.249312 0.186812 0.479394
Si Si4 0.486162 0.231333 0.502993
Si Si5 0.345434 0.373489 0.970774
Si Si6 0.850270 0.641971 0.020539
Si Si7 0.553599 0.436232 0.927117
O O1 0.000000 0.500000 0.500000
O O2 0.055220 0.747468 0.652556
O O3 0.004870 0.647098 0.764772
O O4 0.116708 0.507020 0.952490
O O5 0.085111 0.260034 0.275978
O O6 0.000000 0.500000 0.000000
O O7 0.296380 0.095982 0.486106
O O8 0.192379 0.112197 0.438763
O O9 0.203271 0.292667 0.247765
O O10 0.302276 0.275920 0.733275
O O11 0.414193 0.280358 0.218157
O O12 0.507231 0.365069 0.666906
O O13 0.546669 0.180411 0.544227
O O14 0.473369 0.088288 0.572019
O O15 0.372524 0.515290 0.954820
#
# Coordination Sequence:
#
# PCOD9242549 Si02
#       7
#     4   4   4   4   4   4   4
#     4  10  20  34  55  86 118 142 186 246 291 343
#     4  11  20  34  60  90 116 145 184 249 308 346
#     4  10  21  35  60  81 115 164 197 243 265 371
#     4  11  22  37  62  94 119 151 192 258 317 355
#     4  11  20  38  58  90 114 153 206 239 297 352
#     4  10  20  37  56  86 112 150 203 229 295 341
#     4  11  22  37  60  91 123 149 193 251 316 355
#
# _framework density 18.598101
#
# number of rings (size 3 to 8) (size 9 to 14) (size 15 to 20)
#    0.000    1.429    2.857    4.714    0.000    0.000 
#    0.000    0.000    0.000   12.000    0.000    0.000 
#    0.000    0.000    0.000    0.000    0.000    0.000 
#
# Total GULP energy -156005.907395 kJ/mol
# GULP energy per Si atom -5571.639550 kJ/mol
# Density = 1.855577 g / cm^3
# Si number density = 18.598101 Si / 1000 Ang^3
#
#
#
# Elastic Constant Matrix: (Units=GPa)
#
#
# Indices 1 2 3 4 5 6 
#
# 1 145.6873 17.1101 20.5211 0.0000 -7.3242 0.0000
# 2 17.1101 69.6640 24.8362 0.0000 0.8115 0.0000
# 3 20.5211 24.8362 70.8951 0.0000 -8.6836 0.0000
# 4 0.0000 0.0000 0.0000 17.6077 0.0000 -8.9727
# 5 -7.3242 0.8115 -8.6836 0.0000 27.5631 0.0000
# 6 0.0000 0.0000 0.0000 -8.9727 0.0000 26.7165
#
#
#
# Elastic Compliance Matrix: (Units=1/GPa)
#
#
# Indices 1 2 3 4 5 6 
#
# 1 0.007299 -0.001283 -0.001478 0.000000 0.001512 0.000000
# 2 -0.001283 0.016781 -0.005835 0.000000 -0.002673 0.000000
# 3 -0.001478 -0.005835 0.017214 0.000000 0.005202 0.000000
# 4 0.000000 0.000000 0.000000 0.068520 0.000000 0.023012
# 5 0.001512 -0.002673 0.005202 0.000000 0.038400 0.000000
# 6 0.000000 0.000000 0.000000 0.023012 0.000000 0.045159
#
#
# Mechanical properties :
#
#
# Convention : Reuss Voigt Hill
#
# Bulk Modulus (GPa) = 41.48992 45.68680 43.58836
# Shear Modulus (GPa) = 22.87291 29.29607 26.08449
#
# Velocity S-wave (km/s) = 3.51073 3.97321 3.74911
# Velocity P-wave (km/s) = 6.22822 6.75775 6.49838
#
# Compressibility (1/GPa) = 0.02410224
#
# Stress axis : x y z
#
# Youngs Moduli (GPa) = 137.00655 59.59067 58.09080
#
# Poissons Ratio (x) = 0.07648 0.08586
# Poissons Ratio (y) = 0.17583 0.33895
# Poissons Ratio (z) = 0.20249 0.34770
#
# Static dielectric constant tensor:
#      x y z
#    x 1.703670 0.000000 0.007350 
#    y 0.000000 1.644970 0.000000 
#    z 0.007350 0.000000 1.660860 
# 
# From -- ./inp_files/17572.got.cif
#   From: 2010.05.17/outbox.cif.g08.bks.cpg/sg14_9_cif.got.tgz:17572.got - 2010.06.03 17:49:19.
