data_PCOD9242806
_publ_section_title
;
Structure prediction by ZEFSAII (Michael W. Deem and Ramdas Pophale) SiO2 
 PCOD9242806
Probable space group: P 21/C
;
_chemical_formula_sum "Si O2"
_cell_formula_units_Z 24
_cell_length_a 16.996829
_cell_length_b 8.996529
_cell_length_c 14.074955
_cell_angle_alpha 90.000000
_cell_angle_beta 30.596395
_cell_angle_gamma 90.000000
_cell_volume 1095.460732
_symmetry_space_group_name_H-M "P 21/C"
_symmetry_group_IT_number 14
_symmetry_cell_setting 'monoclinic'
loop_
_space_group_symop_operation_xyz
x,y,z
-x,1/2+y,1/2-z
-x,-y,-z
x,1/2-y,1/2+z
loop_
_atom_site_type_symbol
_atom_site_label
_atom_site_fract_x
_atom_site_fract_y
_atom_site_fract_z
Si Si1 0.348745 0.392470 0.164960
Si Si2 0.590651 0.121391 0.702700
Si Si3 0.111966 0.409746 0.586958
Si Si4 0.588630 0.152330 0.911411
Si Si5 0.692031 0.407089 0.488206
Si Si6 0.182611 0.398096 0.130456
O O1 0.227671 0.417780 0.375913
O O2 0.262709 0.374005 0.151845
O O3 0.500000 0.500000 0.000000
O O4 0.446236 0.250304 0.092401
O O5 0.642240 0.186567 0.750598
O O6 0.609354 0.261844 0.615761
O O7 0.420379 0.051005 0.887074
O O8 0.691942 0.982390 0.564691
O O9 0.161233 0.541188 0.607491
O O10 0.127255 0.253530 0.631771
O O11 0.946479 0.471311 0.724183
O O12 0.722828 0.136976 0.847824
O O13 0.500000 0.000000 0.000000
#
# Coordination Sequence:
#
# PCOD9242806 Si02
#       6
#     4   4   4   4   4   4
#     4  12  25  43  71  99 129 169 222 276 325 387
#     4  11  21  38  63  94 129 169 218 270 323 385
#     4  12  26  45  66  96 136 178 219 269 331 397
#     4  10  20  35  61  95 124 159 210 266 318 373
#     4  11  21  38  63  94 129 169 218 270 323 385
#     4  12  26  45  66  96 136 178 219 269 331 397
#
# _framework density 21.90859
#
# number of rings (size 3 to 8) (size 9 to 14) (size 15 to 20)
#    0.000    0.667    0.000   11.500    0.000    0.000 
#    0.000    6.667    0.000    0.000    0.000    0.000 
#    0.000    0.000    0.000    0.000    0.000    0.000 
#
# Total GULP energy -133730.031875 kJ/mol
# GULP energy per Si atom -5572.084661 kJ/mol
# Density = 2.185872 g / cm^3
# Si number density = 21.908590 Si / 1000 Ang^3
#
#
#
# Elastic Constant Matrix: (Units=GPa)
#
#
# Indices 1 2 3 4 5 6 
#
# 1 129.7924 22.1594 34.0484 0.0000 21.3696 0.0000
# 2 22.1594 95.9907 12.9001 0.0000 -11.9332 0.0000
# 3 34.0484 12.9001 66.9041 0.0000 3.4756 0.0000
# 4 0.0000 0.0000 0.0000 33.0621 0.0000 -8.6623
# 5 21.3696 -11.9332 3.4756 0.0000 30.7140 0.0000
# 6 0.0000 0.0000 0.0000 -8.6623 0.0000 29.4226
#
#
#
# Elastic Compliance Matrix: (Units=1/GPa)
#
#
# Indices 1 2 3 4 5 6 
#
# 1 0.010692 -0.002868 -0.004470 0.000000 -0.008047 0.000000
# 2 -0.002868 0.012094 -0.001227 0.000000 0.006833 0.000000
# 3 -0.004470 -0.001227 0.017424 0.000000 0.000662 0.000000
# 4 0.000000 0.000000 0.000000 0.032774 0.000000 0.009649
# 5 -0.008047 0.006833 0.000662 0.000000 0.040738 0.000000
# 6 0.000000 0.000000 0.000000 0.009649 0.000000 0.036828
#
#
# Mechanical properties :
#
#
# Convention : Reuss Voigt Hill
#
# Bulk Modulus (GPa) = 43.32937 47.87811 45.60374
# Shear Modulus (GPa) = 28.51050 33.54503 31.02776
#
# Velocity S-wave (km/s) = 3.61132 3.91722 3.76738
# Velocity P-wave (km/s) = 6.09993 6.50849 6.30752
#
# Compressibility (1/GPa) = 0.02307903
#
# Stress axis : x y z
#
# Youngs Moduli (GPa) = 93.52898 82.68470 57.39205
#
# Poissons Ratio (x) = 0.23713 0.25656
# Poissons Ratio (y) = 0.26823 0.07044
# Poissons Ratio (z) = 0.41810 0.10149
#
# Static dielectric constant tensor:
#      x y z
#    x 1.426840 0.000000 0.043970 
#    y 0.000000 1.810250 0.000000 
#    z 0.043970 0.000000 1.788570 
# 
# From -- ./inp_files/48481.got.cif
#   From: 2010.05.17/outbox.cif.g08.bks.cpg/sg14_25_cif.got.tgz:48481.got - 2010.06.03 17:49:19.
