data_PCOD9242292
_publ_section_title
;
Structure prediction by ZEFSAII (Michael W. Deem and Ramdas Pophale) SiO2 
 PCOD9242292
Probable space group: P 21/C
;
_chemical_formula_sum "Si O2"
_cell_formula_units_Z 20
_cell_length_a 7.967333
_cell_length_b 7.308147
_cell_length_c 21.762766
_cell_angle_alpha 90.000000
_cell_angle_beta 36.939591
_cell_angle_gamma 90.000000
_cell_volume 761.533566
_symmetry_space_group_name_H-M "P 21/C"
_symmetry_group_IT_number 14
_symmetry_cell_setting 'monoclinic'
loop_
_space_group_symop_operation_xyz
x,y,z
-x,1/2+y,1/2-z
-x,-y,-z
x,1/2-y,1/2+z
loop_
_atom_site_type_symbol
_atom_site_label
_atom_site_fract_x
_atom_site_fract_y
_atom_site_fract_z
Si Si1 0.860771 0.280926 0.426623
Si Si2 0.818804 0.080357 0.244122
Si Si3 0.308667 0.536081 0.814068
Si Si4 0.360739 0.625733 0.383771
Si Si5 0.280142 0.339104 0.126142
O O1 0.841707 0.389758 0.498242
O O2 0.547663 0.205468 0.506625
O O3 0.977471 0.424831 0.344122
O O4 0.055156 0.104035 0.378846
O O5 0.768764 0.035759 0.330120
O O6 0.521867 0.061500 0.299594
O O7 0.992660 0.264297 0.184243
O O8 0.508180 0.535130 0.695081
O O9 0.246157 0.723544 0.868868
O O10 0.626832 0.717901 0.341234
#
# Coordination Sequence:
#
# PCOD9242292 Si02
#       5
#     4   4   4   4   4
#     4  10  19  42  65  90 122 165 208 253 297 376
#     4  11  22  41  63  90 127 162 208 252 308 356
#     4  11  19  41  62  94 123 162 204 259 302 362
#     4   9  22  35  67  86 128 159 201 255 303 363
#     4   9  22  40  64  87 125 166 199 259 301 369
#
# _framework density 26.262794
#
# number of rings (size 3 to 8) (size 9 to 14) (size 15 to 20)
#    1.200    0.800    4.000    1.200    0.000    2.400 
#    0.000    3.000    0.000    0.000    0.000    0.000 
#    0.000    0.000    0.000    0.000    0.000    0.000 
#
# Total GULP energy -111746.833760 kJ/mol
# GULP energy per Si atom -5587.341688 kJ/mol
# Density = 2.620302 g / cm^3
# Si number density = 26.262794 Si / 1000 Ang^3
#
#
#
# Elastic Constant Matrix: (Units=GPa)
#
#
# Indices 1 2 3 4 5 6 
#
# 1 41.7790 -3.5363 4.2072 0.0000 -0.6546 0.0000
# 2 -3.5363 84.9559 43.9144 0.0000 6.9115 0.0000
# 3 4.2072 43.9144 112.8441 0.0000 18.1921 0.0000
# 4 0.0000 0.0000 0.0000 47.7452 0.0000 6.8653
# 5 -0.6546 6.9115 18.1921 0.0000 58.6293 0.0000
# 6 0.0000 0.0000 0.0000 6.8653 0.0000 37.8697
#
#
#
# Elastic Compliance Matrix: (Units=1/GPa)
#
#
# Indices 1 2 3 4 5 6 
#
# 1 0.024275 0.001852 -0.001720 0.000000 0.000587 0.000000
# 2 0.001852 0.014876 -0.005873 0.000000 0.000089 0.000000
# 3 -0.001720 -0.005873 0.011687 0.000000 -0.002953 0.000000
# 4 0.000000 0.000000 0.000000 0.021505 0.000000 -0.003899
# 5 0.000587 0.000089 -0.002953 0.000000 0.017969 0.000000
# 6 0.000000 0.000000 0.000000 -0.003899 0.000000 0.027113
#
#
# Mechanical properties :
#
#
# Convention : Reuss Voigt Hill
#
# Bulk Modulus (GPa) = 25.40884 36.52774 30.96829
# Shear Modulus (GPa) = 35.20476 41.84842 38.52659
#
# Velocity S-wave (km/s) = 3.66523 3.99613 3.83425
# Velocity P-wave (km/s) = 5.25431 5.93556 5.60529
#
# Compressibility (1/GPa) = 0.03935638
#
# Stress axis : x y z
#
# Youngs Moduli (GPa) = 41.19519 67.22110 85.56173
#
# Poissons Ratio (x) = -0.12449 0.14719
# Poissons Ratio (y) = -0.07629 0.50248
# Poissons Ratio (z) = 0.07087 0.39477
#
# Static dielectric constant tensor:
#      x y z
#    x 2.119250 0.000000 0.039130 
#    y 0.000000 2.075920 0.000000 
#    z 0.039130 0.000000 2.008500 
# 
# From -- ./inp_files/71726.got.cif
#   From: 2010.05.17/outbox.cif.g08.bks.cpg/sg14_36_cif.got.tgz:71726.got - 2010.06.03 17:49:19.
