data_PCOD9242151
_publ_section_title
;
Structure prediction by ZEFSAII (Michael W. Deem and Ramdas Pophale) SiO2 
 PCOD9242151
Probable space group: P 21/C
;
_chemical_formula_sum "Si O2"
_cell_formula_units_Z 28
_cell_length_a 18.165997
_cell_length_b 9.104549
_cell_length_c 18.009336
_cell_angle_alpha 90.000000
_cell_angle_beta 28.148329
_cell_angle_gamma 90.000000
_cell_volume 1405.182115
_symmetry_space_group_name_H-M "P 21/C"
_symmetry_group_IT_number 14
_symmetry_cell_setting 'monoclinic'
loop_
_space_group_symop_operation_xyz
x,y,z
-x,1/2+y,1/2-z
-x,-y,-z
x,1/2-y,1/2+z
loop_
_atom_site_type_symbol
_atom_site_label
_atom_site_fract_x
_atom_site_fract_y
_atom_site_fract_z
Si Si1 0.642384 0.467429 0.426736
Si Si2 0.083873 0.172507 0.370975
Si Si3 0.861656 0.245118 0.797780
Si Si4 0.540460 0.464498 0.264866
Si Si5 0.999432 0.974488 0.090302
Si Si6 0.871402 0.574526 0.008750
Si Si7 0.300341 0.845278 0.901905
O O1 0.500000 0.500000 0.500000
O O2 0.782077 0.565185 0.273818
O O3 0.721022 0.308147 0.368238
O O4 0.578623 0.517964 0.561891
O O5 0.099564 0.179385 0.445958
O O6 0.100280 0.325413 0.315714
O O7 0.925528 0.086641 0.489478
O O8 0.928225 0.399039 0.706807
O O9 0.007627 0.132580 0.659776
O O10 0.791219 0.217971 0.942634
O O11 0.605213 0.300072 0.205655
O O12 0.433908 0.530571 0.294741
O O13 0.693812 0.565330 0.141557
O O14 0.170128 0.921636 0.966135
O O15 0.000000 0.000000 0.000000
#
# Coordination Sequence:
#
# PCOD9242151 Si02
#       7
#     4   4   4   4   4   4   4
#     4  10  21  40  67  95 130 174 227 271 334 414
#     4  10  20  37  67 100 125 177 220 273 334 403
#     4  10  25  42  66  97 135 177 227 279 337 408
#     4  11  24  43  67  95 139 176 230 276 347 404
#     4  12  25  43  69 104 138 170 234 289 340 401
#     4  10  19  39  68  92 131 176 226 268 329 416
#     4  11  28  44  66 100 136 185 224 285 348 412
#
# _framework density 19.926242999999999
#
# number of rings (size 3 to 8) (size 9 to 14) (size 15 to 20)
#    0.000    1.429    4.286    0.000    6.000    2.286 
#    0.000    0.714    0.000    0.000    0.000    0.000 
#    0.000    0.000    0.000    0.000    0.000    0.000 
#
# Total GULP energy -155957.432254 kJ/mol
# GULP energy per Si atom -5569.908295 kJ/mol
# Density = 1.988089 g / cm^3
# Si number density = 19.926243 Si / 1000 Ang^3
#
#
#
# Elastic Constant Matrix: (Units=GPa)
#
#
# Indices 1 2 3 4 5 6 
#
# 1 84.5968 44.1507 19.6780 0.0000 -28.3448 0.0000
# 2 44.1507 95.5148 19.4615 0.0000 -10.0584 0.0000
# 3 19.6780 19.4615 83.7144 0.0000 -7.1020 0.0000
# 4 0.0000 0.0000 0.0000 38.7146 0.0000 -3.0647
# 5 -28.3448 -10.0584 -7.1020 0.0000 21.6272 0.0000
# 6 0.0000 0.0000 0.0000 -3.0647 0.0000 17.8894
#
#
#
# Elastic Compliance Matrix: (Units=1/GPa)
#
#
# Indices 1 2 3 4 5 6 
#
# 1 0.027330 -0.009016 -0.001692 0.000000 0.031070 0.000000
# 2 -0.009016 0.014386 -0.001708 0.000000 -0.005687 0.000000
# 3 -0.001692 -0.001708 0.012842 0.000000 0.001205 0.000000
# 4 0.000000 0.000000 0.000000 0.026185 0.000000 0.004486
# 5 0.031070 -0.005687 0.001205 0.000000 0.084710 0.000000
# 6 0.000000 0.000000 0.000000 0.004486 0.000000 0.056668
#
#
# Mechanical properties :
#
#
# Convention : Reuss Voigt Hill
#
# Bulk Modulus (GPa) = 33.63995 47.82294 40.73144
# Shear Modulus (GPa) = 19.46561 27.68196 23.57378
#
# Velocity S-wave (km/s) = 3.12890 3.73127 3.44328
# Velocity P-wave (km/s) = 5.47469 6.52803 6.02443
#
# Compressibility (1/GPa) = 0.02972656
#
# Stress axis : x y z
#
# Youngs Moduli (GPa) = 36.58928 69.51021 77.86731
#
# Poissons Ratio (x) = 0.62673 0.13178
# Poissons Ratio (y) = 0.32991 0.13296
# Poissons Ratio (z) = 0.06192 0.11869
#
# Static dielectric constant tensor:
#      x y z
#    x 1.828580 0.000000 0.024230 
#    y 0.000000 1.788550 0.000000 
#    z 0.024230 0.000000 1.665990 
# 
# From -- ./inp_files/60298.got.cif
#   From: 2010.05.17/outbox.cif.g08.bks.cpg/sg14_31_cif.got.tgz:60298.got - 2010.06.03 17:49:19.
