data_PCOD9242643
_publ_section_title
;
Structure prediction by ZEFSAII (Michael W. Deem and Ramdas Pophale) SiO2 
 PCOD9242643
Probable space group: P 21/C
;
_chemical_formula_sum "Si O2"
_cell_formula_units_Z 24
_cell_length_a 9.392210
_cell_length_b 9.357149
_cell_length_c 18.139178
_cell_angle_alpha 90.000000
_cell_angle_beta 137.294504
_cell_angle_gamma 90.000000
_cell_volume 1081.200012
_symmetry_space_group_name_H-M "P 21/C"
_symmetry_group_IT_number 14
_symmetry_cell_setting 'monoclinic'
loop_
_space_group_symop_operation_xyz
x,y,z
-x,1/2+y,1/2-z
-x,-y,-z
x,1/2-y,1/2+z
loop_
_atom_site_type_symbol
_atom_site_label
_atom_site_fract_x
_atom_site_fract_y
_atom_site_fract_z
Si Si1 0.192097 0.342678 0.707541
Si Si2 0.600081 0.908434 0.934518
Si Si3 0.766380 0.159520 0.102528
Si Si4 0.310973 0.900266 0.166268
Si Si5 0.264171 0.340953 0.097530
Si Si6 0.684755 0.150863 0.435759
O O1 0.159276 0.490195 0.649675
O O2 0.170017 0.214432 0.639427
O O3 0.432317 0.346442 0.825540
O O4 0.017706 0.335739 0.704309
O O5 0.382001 0.849082 0.883627
O O6 0.753726 0.779537 0.971496
O O7 0.570308 0.999258 0.848497
O O8 0.700132 0.018563 0.030635
O O9 0.714588 0.293455 0.029763
O O10 0.485764 0.843157 0.288212
O O11 0.224702 0.768913 0.086651
O O12 0.223165 0.497791 0.050806
#
# Coordination Sequence:
#
# PCOD9242643 Si02
#       6
#     4   4   4   4   4   4
#     4   9  18  34  55  77 101 141 185 213 259 322
#     4   9  19  34  53  75 105 140 173 213 266 316
#     4  10  20  35  54  76 109 144 174 214 263 323
#     4   8  16  33  55  75 102 139 178 215 256 310
#     4   9  17  32  53  76 103 135 176 224 260 300
#     4   9  18  32  52  78 108 136 174 226 268 300
#
# _framework density 22.197558000000001
#
# number of rings (size 3 to 8) (size 9 to 14) (size 15 to 20)
#    0.000    3.000    0.000    1.000    0.000    7.333 
#    0.000   13.333    0.000    8.000    0.000    0.000 
#    0.000    0.000    0.000    0.000    0.000    0.000 
#
# Total GULP energy -133924.175238 kJ/mol
# GULP energy per Si atom -5580.173968 kJ/mol
# Density = 2.214704 g / cm^3
# Si number density = 22.197558 Si / 1000 Ang^3
#
#
#
# Elastic Constant Matrix: (Units=GPa)
#
#
# Indices 1 2 3 4 5 6 
#
# 1 121.3479 15.1693 11.2602 0.0000 21.5303 0.0000
# 2 15.1693 110.7427 4.1716 0.0000 -1.4913 0.0000
# 3 11.2602 4.1716 40.5442 0.0000 13.7880 0.0000
# 4 0.0000 0.0000 0.0000 12.1576 0.0000 0.5845
# 5 21.5303 -1.4913 13.7880 0.0000 28.8254 0.0000
# 6 0.0000 0.0000 0.0000 0.5845 0.0000 13.2745
#
#
#
# Elastic Compliance Matrix: (Units=1/GPa)
#
#
# Indices 1 2 3 4 5 6 
#
# 1 0.009721 -0.001427 -0.000070 0.000000 -0.007301 0.000000
# 2 -0.001427 0.009304 -0.001298 0.000000 0.002168 0.000000
# 3 -0.000070 -0.001298 0.029645 0.000000 -0.014195 0.000000
# 4 0.000000 0.000000 0.000000 0.082427 0.000000 -0.003629
# 5 -0.007301 0.002168 -0.014195 0.000000 0.047047 0.000000
# 6 0.000000 0.000000 0.000000 -0.003629 0.000000 0.075492
#
#
# Mechanical properties :
#
#
# Convention : Reuss Voigt Hill
#
# Bulk Modulus (GPa) = 23.21349 37.09299 30.15324
# Shear Modulus (GPa) = 18.27574 26.98709 22.63142
#
# Velocity S-wave (km/s) = 2.87247 3.49057 3.19650
# Velocity P-wave (km/s) = 4.63485 5.74388 5.21891
#
# Compressibility (1/GPa) = 0.04307841
#
# Stress axis : x y z
#
# Youngs Moduli (GPa) = 102.86887 107.48593 33.73278
#
# Poissons Ratio (x) = 0.15341 0.00236
# Poissons Ratio (y) = 0.14682 0.04379
# Poissons Ratio (z) = 0.00720 0.13954
#
# Static dielectric constant tensor:
#      x y z
#    x 1.804970 0.000000 0.038820 
#    y 0.000000 1.863720 0.000000 
#    z 0.038820 0.000000 1.836220 
# 
# From -- ./inp_files/52237.got.cif
#   From: 2010.05.17/outbox.cif.g08.bks.cpg/sg14_27_cif.got.tgz:52237.got - 2010.06.03 17:49:19.
