data_PCOD9242081
_publ_section_title
;
Structure prediction by ZEFSAII (Michael W. Deem and Ramdas Pophale) SiO2 
 PCOD9242081
Probable space group: P 21/C
;
_chemical_formula_sum "Si O2"
_cell_formula_units_Z 32
_cell_length_a 30.333450
_cell_length_b 11.475855
_cell_length_c 15.329367
_cell_angle_alpha 90.000000
_cell_angle_beta 19.353093
_cell_angle_gamma 90.000000
_cell_volume 1768.352891
_symmetry_space_group_name_H-M "P 21/C"
_symmetry_group_IT_number 14
_symmetry_cell_setting 'monoclinic'
loop_
_space_group_symop_operation_xyz
x,y,z
-x,1/2+y,1/2-z
-x,-y,-z
x,1/2-y,1/2+z
loop_
_atom_site_type_symbol
_atom_site_label
_atom_site_fract_x
_atom_site_fract_y
_atom_site_fract_z
Si Si1 0.190853 0.298743 0.946225
Si Si2 0.011629 0.641271 0.283615
Si Si3 0.400408 0.328610 0.172431
Si Si4 0.440892 0.887129 0.062324
Si Si5 0.668878 0.054581 0.098769
Si Si6 0.821460 0.272949 0.866606
Si Si7 0.024622 0.573848 0.541449
Si Si8 0.722267 0.036913 0.795610
O O1 0.301904 0.220070 0.783451
O O2 0.254167 0.401112 0.770278
O O3 0.087321 0.222235 0.084731
O O4 0.108518 0.364431 0.176119
O O5 0.069630 0.706756 0.261028
O O6 0.941544 0.522060 0.448350
O O7 0.140480 0.602625 0.986903
O O8 0.330108 0.425567 0.363126
O O9 0.455617 0.219026 0.124458
O O10 0.527726 0.388913 0.889435
O O11 0.308304 0.844673 0.360451
O O12 0.391881 0.917525 0.056857
O O13 0.500000 0.000000 0.000000
O O14 0.779947 0.139551 0.932415
O O15 0.686590 0.053744 0.962293
O O16 0.871711 0.328355 0.681949
O O17 0.000000 0.500000 0.500000
#
# Coordination Sequence:
#
# PCOD9242081 Si02
#       8
#     4   4   4   4   4   4   4   4
#     4  11  21  37  58  85 120 151 195 246 294 346
#     4   9  20  36  57  86 119 152 194 245 289 345
#     4  10  23  40  58  82 120 156 188 249 301 355
#     4  10  19  39  63  81 111 154 196 245 294 335
#     4  10  22  40  57  85 119 152 196 240 304 357
#     4   9  19  38  60  81 117 158 193 233 296 351
#     4   9  19  35  55  83 113 151 197 238 281 350
#     4  10  21  38  60  86 114 151 204 242 284 359
#
# _framework density 18.095935999999998
#
# number of rings (size 3 to 8) (size 9 to 14) (size 15 to 20)
#    0.000    2.250    1.250    1.500    0.000    5.000 
#    2.250    3.125    0.000    0.000    0.000    0.000 
#    0.000    0.000    0.000    0.000    0.000    0.000 
#
# Total GULP energy -178534.261724 kJ/mol
# GULP energy per Si atom -5579.195679 kJ/mol
# Density = 1.805475 g / cm^3
# Si number density = 18.095936 Si / 1000 Ang^3
#
#
#
# Elastic Constant Matrix: (Units=GPa)
#
#
# Indices 1 2 3 4 5 6 
#
# 1 95.4455 54.6427 35.0872 0.0000 -8.9250 0.0000
# 2 54.6427 127.9311 36.2943 0.0000 -12.0400 0.0000
# 3 35.0872 36.2943 35.3879 0.0000 -0.3983 0.0000
# 4 0.0000 0.0000 0.0000 24.3912 0.0000 1.6542
# 5 -8.9250 -12.0400 -0.3983 0.0000 37.7253 0.0000
# 6 0.0000 0.0000 0.0000 1.6542 0.0000 27.4563
#
#
#
# Elastic Compliance Matrix: (Units=1/GPa)
#
#
# Indices 1 2 3 4 5 6 
#
# 1 0.017928 -0.003298 -0.014359 0.000000 0.003037 0.000000
# 2 -0.003298 0.012085 -0.009091 0.000000 0.002981 0.000000
# 3 -0.014359 -0.009091 0.051754 0.000000 -0.005752 0.000000
# 4 0.000000 0.000000 0.000000 0.041167 0.000000 -0.002480
# 5 0.003037 0.002981 -0.005752 0.000000 0.028117 0.000000
# 6 0.000000 0.000000 0.000000 -0.002480 0.000000 0.036571
#
#
# Mechanical properties :
#
#
# Convention : Reuss Voigt Hill
#
# Bulk Modulus (GPa) = 35.37155 56.75698 46.06426
# Shear Modulus (GPa) = 19.95686 26.76393 23.36040
#
# Velocity S-wave (km/s) = 3.32450 3.84995 3.59683
# Velocity P-wave (km/s) = 5.85880 7.15510 6.53915
#
# Compressibility (1/GPa) = 0.02827131
#
# Stress axis : x y z
#
# Youngs Moduli (GPa) = 55.77938 82.74699 19.32212
#
# Poissons Ratio (x) = 0.27290 0.27744
# Poissons Ratio (y) = 0.18396 0.17566
# Poissons Ratio (z) = 0.80092 0.75226
#
# Static dielectric constant tensor:
#      x y z
#    x 1.589750 0.000000 0.003960 
#    y 0.000000 1.635150 0.000000 
#    z 0.003960 0.000000 1.617730 
# 
# From -- ./inp_files/52308.got.cif
#   From: 2010.05.17/outbox.cif.g08.bks.cpg/sg14_27_cif.got.tgz:52308.got - 2010.06.03 17:49:19.
