data_PCOD9242003
_publ_section_title
;
Structure prediction by ZEFSAII (Michael W. Deem and Ramdas Pophale) SiO2 
 PCOD9242003
Probable space group: P 21/C
;
_chemical_formula_sum "Si O2"
_cell_formula_units_Z 32
_cell_length_a 17.451893
_cell_length_b 9.656450
_cell_length_c 25.667741
_cell_angle_alpha 90.000000
_cell_angle_beta 160.166802
_cell_angle_gamma 90.000000
_cell_volume 1467.607138
_symmetry_space_group_name_H-M "P 21/C"
_symmetry_group_IT_number 14
_symmetry_cell_setting 'monoclinic'
loop_
_space_group_symop_operation_xyz
x,y,z
-x,1/2+y,1/2-z
-x,-y,-z
x,1/2-y,1/2+z
loop_
_atom_site_type_symbol
_atom_site_label
_atom_site_fract_x
_atom_site_fract_y
_atom_site_fract_z
Si Si1 0.934393 0.278901 0.592578
Si Si2 0.855008 0.046781 0.145907
Si Si3 0.515635 0.337472 0.162115
Si Si4 0.975538 0.342732 0.501477
Si Si5 0.460177 0.341982 0.813607
Si Si6 0.592833 0.680769 0.616033
Si Si7 0.411842 0.636248 0.912910
Si Si8 0.053390 0.227915 0.847393
O O1 0.943150 0.375039 0.649635
O O2 0.960261 0.353255 0.553987
O O3 0.683201 0.221497 0.432784
O O4 0.138452 0.166611 0.719055
O O5 0.969303 0.130029 0.266494
O O6 0.915006 0.886910 0.177806
O O7 0.582993 0.064136 0.977859
O O8 0.751504 0.275861 0.333872
O O9 0.518626 0.495366 0.183737
O O10 0.515617 0.356219 0.099876
O O11 0.286965 0.254119 0.026816
O O12 0.000000 0.500000 0.500000
O O13 0.219016 0.279574 0.641826
O O14 0.457456 0.302954 0.873631
O O15 0.511841 0.736324 0.509059
O O16 0.143671 0.661003 0.744122
O O17 0.500000 0.500000 0.000000
#
# Coordination Sequence:
#
# PCOD9242003 Si02
#       8
#     4   4   4   4   4   4   4   4
#     4  10  19  38  65  85 120 171 205 258 322 370
#     4  10  23  38  61  94 127 163 211 254 314 385
#     4  11  22  39  57  93 123 156 214 268 304 375
#     4   9  21  38  60  91 121 159 218 264 303 382
#     4   9  19  36  64  86 119 160 213 256 310 379
#     4   9  18  35  58  92 118 159 207 250 309 384
#     4  11  20  36  62  88 125 168 203 250 316 374
#     4  11  24  39  63  93 130 167 207 262 317 385
#
# _framework density 21.804200999999999
#
# number of rings (size 3 to 8) (size 9 to 14) (size 15 to 20)
#    0.000    2.000    1.250    2.250    7.000    1.000 
#    4.500    1.875    0.000    2.250    0.000    0.000 
#    0.000    0.000    0.000    0.000    0.000    0.000 
#
# Total GULP energy -178482.000666 kJ/mol
# GULP energy per Si atom -5577.562521 kJ/mol
# Density = 2.175457 g / cm^3
# Si number density = 21.804201 Si / 1000 Ang^3
#
#
#
# Elastic Constant Matrix: (Units=GPa)
#
#
# Indices 1 2 3 4 5 6 
#
# 1 60.9524 -7.7171 26.9733 0.0000 21.7832 0.0000
# 2 -7.7171 35.5519 13.4650 0.0000 11.4995 0.0000
# 3 26.9733 13.4650 158.8392 0.0000 38.0599 0.0000
# 4 0.0000 0.0000 0.0000 27.4570 0.0000 0.4825
# 5 21.7832 11.4995 38.0599 0.0000 35.2227 0.0000
# 6 0.0000 0.0000 0.0000 0.4825 0.0000 15.8245
#
#
#
# Elastic Compliance Matrix: (Units=1/GPa)
#
#
# Indices 1 2 3 4 5 6 
#
# 1 0.024731 0.011560 -0.000824 0.000000 -0.018179 0.000000
# 2 0.011560 0.036862 -0.000663 0.000000 -0.018468 0.000000
# 3 -0.000824 -0.000663 0.008525 0.000000 -0.008486 0.000000
# 4 0.000000 0.000000 0.000000 0.036440 0.000000 -0.001111
# 5 -0.018179 -0.018468 -0.008486 0.000000 0.054832 0.000000
# 6 0.000000 0.000000 0.000000 -0.001111 0.000000 0.063227
#
#
# Mechanical properties :
#
#
# Convention : Reuss Voigt Hill
#
# Bulk Modulus (GPa) = 11.07839 35.64287 23.36063
# Shear Modulus (GPa) = 21.31663 30.54232 25.92948
#
# Velocity S-wave (km/s) = 3.13011 3.74673 3.45221
# Velocity P-wave (km/s) = 4.26091 5.92449 5.16018
#
# Compressibility (1/GPa) = 0.09026583
#
# Stress axis : x y z
#
# Youngs Moduli (GPa) = 40.43463 27.12829 117.30075
#
# Poissons Ratio (x) = -0.31362 0.09664
# Poissons Ratio (y) = -0.46744 0.07775
# Poissons Ratio (z) = 0.03331 0.01798
#
# Static dielectric constant tensor:
#      x y z
#    x 1.841520 0.000000 0.027850 
#    y 0.000000 1.813370 0.000000 
#    z 0.027850 0.000000 1.904320 
# 
# From -- ./inp_files/77823.got.cif
#   From: 2010.05.17/outbox.cif.g08.bks.cpg/sg14_39_cif.got.tgz:77823.got - 2010.06.03 17:49:19.
