data_PCOD9242011
_publ_section_title
;
Structure prediction by ZEFSAII (Michael W. Deem and Ramdas Pophale) SiO2 
 PCOD9242011
Probable space group: P 21/C
;
_chemical_formula_sum "Si O2"
_cell_formula_units_Z 28
_cell_length_a 8.701136
_cell_length_b 10.259196
_cell_length_c 14.422567
_cell_angle_alpha 90.000000
_cell_angle_beta 107.102562
_cell_angle_gamma 90.000000
_cell_volume 1230.522974
_symmetry_space_group_name_H-M "P 21/C"
_symmetry_group_IT_number 14
_symmetry_cell_setting 'monoclinic'
loop_
_space_group_symop_operation_xyz
x,y,z
-x,1/2+y,1/2-z
-x,-y,-z
x,1/2-y,1/2+z
loop_
_atom_site_type_symbol
_atom_site_label
_atom_site_fract_x
_atom_site_fract_y
_atom_site_fract_z
Si Si1 0.627229 0.817458 0.628061
Si Si2 0.427820 0.026961 0.847880
Si Si3 0.066132 0.428650 0.735938
Si Si4 0.194702 0.523248 0.940115
Si Si5 0.782702 0.118515 0.876861
Si Si6 0.763956 0.184708 0.086801
Si Si7 0.715621 0.407249 0.851951
O O1 0.614691 0.663878 0.611903
O O2 0.770095 0.844947 0.726879
O O3 0.459667 0.874441 0.634252
O O4 0.684060 0.902309 0.551006
O O5 0.611293 0.044055 0.847822
O O6 0.382841 0.905230 0.904961
O O7 0.319505 0.004300 0.737575
O O8 0.059806 0.490120 0.838594
O O9 0.093811 0.537561 0.662453
O O10 0.914912 0.346669 0.678234
O O11 0.268931 0.661346 0.919403
O O12 0.171870 0.542999 0.044950
O O13 0.768691 0.262624 0.831140
O O14 0.814752 0.143889 0.991300
#
# Coordination Sequence:
#
# PCOD9242011 Si02
#       7
#     4   4   4   4   4   4   4
#     4   9  21  36  60  87 126 149 200 245 306 344
#     4  11  21  38  61  96 118 152 203 258 292 355
#     4  10  21  39  60  84 123 158 197 243 299 355
#     4   9  21  39  61  87 119 164 197 244 303 360
#     4  10  21  40  60  93 119 161 201 248 300 354
#     4  11  23  37  65  85 125 160 203 243 302 359
#     4  10  19  38  65  90 118 159 202 246 300 360
#
# _framework density 22.754553000000001
#
# number of rings (size 3 to 8) (size 9 to 14) (size 15 to 20)
#    0.857    1.143    1.429    2.143    2.000    0.000 
#    2.571    0.714    3.143    0.000    0.000    0.000 
#    0.000    0.000    0.000    0.000    0.000    0.000 
#
# Total GULP energy -156317.556082 kJ/mol
# GULP energy per Si atom -5582.769860 kJ/mol
# Density = 2.270276 g / cm^3
# Si number density = 22.754553 Si / 1000 Ang^3
#
#
#
# Elastic Constant Matrix: (Units=GPa)
#
#
# Indices 1 2 3 4 5 6 
#
# 1 56.8319 31.5970 37.1875 0.0000 0.7619 0.0000
# 2 31.5970 106.2522 44.6004 0.0000 -10.4336 0.0000
# 3 37.1875 44.6004 131.1030 0.0000 5.9043 0.0000
# 4 0.0000 0.0000 0.0000 35.4266 0.0000 -3.2829
# 5 0.7619 -10.4336 5.9043 0.0000 36.6342 0.0000
# 6 0.0000 0.0000 0.0000 -3.2829 0.0000 12.4568
#
#
#
# Elastic Compliance Matrix: (Units=1/GPa)
#
#
# Indices 1 2 3 4 5 6 
#
# 1 0.023662 -0.005078 -0.004933 0.000000 -0.001143 0.000000
# 2 -0.005078 0.012608 -0.003037 0.000000 0.004186 0.000000
# 3 -0.004933 -0.003037 0.010168 0.000000 -0.002401 0.000000
# 4 0.000000 0.000000 0.000000 0.028934 0.000000 0.007625
# 5 -0.001143 0.004186 -0.002401 0.000000 0.028900 0.000000
# 6 0.000000 0.000000 0.000000 0.007625 0.000000 0.082287
#
#
# Mechanical properties :
#
#
# Convention : Reuss Voigt Hill
#
# Bulk Modulus (GPa) = 49.16010 57.88410 53.52210
# Shear Modulus (GPa) = 22.78578 28.95702 25.87140
#
# Velocity S-wave (km/s) = 3.16788 3.57120 3.37557
# Velocity P-wave (km/s) = 5.91879 6.51907 6.22617
#
# Compressibility (1/GPa) = 0.02034170
#
# Stress axis : x y z
#
# Youngs Moduli (GPa) = 42.26157 79.31704 98.34698
#
# Poissons Ratio (x) = 0.40280 0.48511
# Poissons Ratio (y) = 0.21462 0.29869
# Poissons Ratio (z) = 0.20846 0.24089
#
# Static dielectric constant tensor:
#      x y z
#    x 1.854880 0.000000 -0.009110 
#    y 0.000000 1.802800 0.000000 
#    z -0.009110 0.000000 1.868330 
# 
# From -- ./inp_files/39927.got.cif
#   From: 2010.05.17/outbox.cif.g08.bks.cpg/sg14_20_cif.got.tgz:39927.got - 2010.06.03 17:49:19.
