data_PCOD9242448
_publ_section_title
;
Structure prediction by ZEFSAII (Michael W. Deem and Ramdas Pophale) SiO2 
 PCOD9242448
Probable space group: P 21/C
;
_chemical_formula_sum "Si O2"
_cell_formula_units_Z 24
_cell_length_a 17.841546
_cell_length_b 9.461367
_cell_length_c 10.542463
_cell_angle_alpha 90.000000
_cell_angle_beta 29.674928
_cell_angle_gamma 90.000000
_cell_volume 881.054026
_symmetry_space_group_name_H-M "P 21/C"
_symmetry_group_IT_number 14
_symmetry_cell_setting 'monoclinic'
loop_
_space_group_symop_operation_xyz
x,y,z
-x,1/2+y,1/2-z
-x,-y,-z
x,1/2-y,1/2+z
loop_
_atom_site_type_symbol
_atom_site_label
_atom_site_fract_x
_atom_site_fract_y
_atom_site_fract_z
Si Si1 0.624680 0.839683 0.170850
Si Si2 0.938305 0.368992 0.674685
Si Si3 0.314189 0.431666 0.993633
Si Si4 0.391942 0.003157 0.035792
Si Si5 0.095482 0.675645 0.002001
Si Si6 0.306540 0.932404 0.757071
O O1 0.728665 0.700477 0.031977
O O2 0.701747 0.985805 0.099858
O O3 0.465965 0.855939 0.481722
O O4 0.609140 0.852230 0.041201
O O5 0.961831 0.229933 0.552300
O O6 0.000000 0.500000 0.500000
O O7 0.760400 0.420608 0.943959
O O8 0.993649 0.365702 0.738432
O O9 0.495012 0.413545 0.719037
O O10 0.284766 0.444269 0.184987
O O11 0.226188 0.941334 0.291915
O O12 0.500000 0.000000 0.000000
O O13 0.181161 0.815595 0.926166
#
# Coordination Sequence:
#
# PCOD9242448 Si02
#       6
#     4   4   4   4   4   4
#     4  10  20  33  54  95 135 164 209 260 335 416
#     4  11  26  49  68  98 131 188 232 280 336 405
#     4  10  21  37  61  91 131 164 215 276 324 410
#     4  11  21  33  63  99 128 171 208 267 357 395
#     4  11  22  45  71  91 138 171 229 291 339 407
#     4   9  20  34  57  90 129 172 204 264 345 402
#
# _framework density 27.240100000000002
#
# number of rings (size 3 to 8) (size 9 to 14) (size 15 to 20)
#    0.000    1.667    3.333    1.000    2.333    1.333 
#    9.000    0.833    0.000    0.000    0.000    0.000 
#    0.000    0.000    0.000    0.000    0.000    0.000 
#
# Total GULP energy -133763.608549 kJ/mol
# GULP energy per Si atom -5573.483690 kJ/mol
# Density = 2.717810 g / cm^3
# Si number density = 27.240100 Si / 1000 Ang^3
#
#
#
# Elastic Constant Matrix: (Units=GPa)
#
#
# Indices 1 2 3 4 5 6 
#
# 1 89.1871 12.8486 34.0645 0.0000 23.5203 0.0000
# 2 12.8486 94.8155 33.0487 0.0000 18.5966 0.0000
# 3 34.0645 33.0487 139.0639 0.0000 26.2682 0.0000
# 4 0.0000 0.0000 0.0000 52.4877 0.0000 9.0446
# 5 23.5203 18.5966 26.2682 0.0000 41.8565 0.0000
# 6 0.0000 0.0000 0.0000 9.0446 0.0000 38.3711
#
#
#
# Elastic Compliance Matrix: (Units=1/GPa)
#
#
# Indices 1 2 3 4 5 6 
#
# 1 0.013714 0.000160 -0.002188 0.000000 -0.006404 0.000000
# 2 0.000160 0.012076 -0.002131 0.000000 -0.004118 0.000000
# 3 -0.002188 -0.002131 0.008874 0.000000 -0.003393 0.000000
# 4 0.000000 0.000000 0.000000 0.019859 0.000000 -0.004681
# 5 -0.006404 -0.004118 -0.003393 0.000000 0.031449 0.000000
# 6 0.000000 0.000000 0.000000 -0.004681 0.000000 0.027165
#
#
# Mechanical properties :
#
#
# Convention : Reuss Voigt Hill
#
# Bulk Modulus (GPa) = 37.95580 53.66558 45.81069
# Shear Modulus (GPa) = 38.39213 42.75005 40.57109
#
# Velocity S-wave (km/s) = 3.75827 3.96584 3.86345
# Velocity P-wave (km/s) = 5.72685 6.38077 6.06263
#
# Compressibility (1/GPa) = 0.02634643
#
# Stress axis : x y z
#
# Youngs Moduli (GPa) = 72.91919 82.81193 112.68589
#
# Poissons Ratio (x) = -0.01327 0.24651
# Poissons Ratio (y) = -0.01169 0.24016
# Poissons Ratio (z) = 0.15952 0.17649
#
# Static dielectric constant tensor:
#      x y z
#    x 2.403980 0.000000 -0.061770 
#    y 0.000000 2.474760 0.000000 
#    z -0.061770 0.000000 2.268290 
# 
# From -- ./inp_files/35667.got.cif
#   From: 2010.05.17/outbox.cif.g08.bks.cpg/sg14_18_cif.got.tgz:35667.got - 2010.06.03 17:49:19.
