data_PCOD9242628
_publ_section_title
;
Structure prediction by ZEFSAII (Michael W. Deem and Ramdas Pophale) SiO2 
 PCOD9242628
Probable space group: P 21/C
;
_chemical_formula_sum "Si O2"
_cell_formula_units_Z 26
_cell_length_a 13.725906
_cell_length_b 7.927922
_cell_length_c 18.886354
_cell_angle_alpha 90.000000
_cell_angle_beta 31.884314
_cell_angle_gamma 90.000000
_cell_volume 1085.554806
_symmetry_space_group_name_H-M "P 21/C"
_symmetry_group_IT_number 14
_symmetry_cell_setting 'monoclinic'
loop_
_space_group_symop_operation_xyz
x,y,z
-x,1/2+y,1/2-z
-x,-y,-z
x,1/2-y,1/2+z
loop_
_atom_site_type_symbol
_atom_site_label
_atom_site_fract_x
_atom_site_fract_y
_atom_site_fract_z
Si Si1 0.617572 0.872089 0.699747
Si Si2 0.000000 0.500000 0.000000
Si Si3 0.977796 0.735806 0.305728
Si Si4 0.951330 0.389099 0.883172
Si Si5 0.601178 0.566471 0.544804
Si Si6 0.396637 0.727516 0.053302
Si Si7 0.530265 0.429032 0.130978
O O1 0.521345 0.003463 0.813657
O O2 0.530441 0.897820 0.675414
O O3 0.603383 0.691871 0.743693
O O4 0.828612 0.923289 0.563101
O O5 0.947549 0.611034 0.104578
O O6 0.805219 0.628392 0.440280
O O7 0.961999 0.729989 0.230228
O O8 0.184124 0.675076 0.198879
O O9 0.965579 0.926603 0.338948
O O10 0.733885 0.348614 0.020475
O O11 0.617489 0.401958 0.483978
O O12 0.504493 0.711134 0.556314
O O13 0.489549 0.594803 0.940815
#
# Coordination Sequence:
#
# PCOD9242628 Si02
#       7
#     4   2   4   4   4   4   4
#     4  10  21  38  63  86 119 157 211 249 310 363
#     4  10  22  40  66  88 112 170 216 248 288 400
#     4  11  20  37  64  92 124 161 205 263 309 366
#     4  10  22  39  64  90 122 161 213 251 312 365
#     4  10  20  34  64  86 119 164 203 251 300 376
#     4   9  19  38  57  90 117 156 211 240 298 377
#     4   9  21  37  59  86 119 156 199 253 299 369
#
# _framework density 23.950887000000002
#
# number of rings (size 3 to 8) (size 9 to 14) (size 15 to 20)
#    0.000    2.154    1.538    0.923    8.615    0.000 
#    0.000    3.077    6.769    4.615    0.000    0.000 
#    0.000    0.000    0.000    0.000    0.000    0.000 
#
# Total GULP energy -144782.676280 kJ/mol
# GULP energy per Si atom -5568.564472 kJ/mol
# Density = 2.389637 g / cm^3
# Si number density = 23.950887 Si / 1000 Ang^3
#
#
#
# Elastic Constant Matrix: (Units=GPa)
#
#
# Indices 1 2 3 4 5 6 
#
# 1 133.4010 18.3840 22.4199 0.0000 38.0168 0.0000
# 2 18.3840 36.8492 8.6960 0.0000 8.0787 0.0000
# 3 22.4199 8.6960 54.2753 0.0000 1.9295 0.0000
# 4 0.0000 0.0000 0.0000 33.5017 0.0000 15.0249
# 5 38.0168 8.0787 1.9295 0.0000 28.4797 0.0000
# 6 0.0000 0.0000 0.0000 15.0249 0.0000 26.8436
#
#
#
# Elastic Compliance Matrix: (Units=1/GPa)
#
#
# Indices 1 2 3 4 5 6 
#
# 1 0.013379 -0.001852 -0.004625 0.000000 -0.017021 0.000000
# 2 -0.001852 0.030258 -0.003875 0.000000 -0.005849 0.000000
# 3 -0.004625 -0.003875 0.020747 0.000000 0.005867 0.000000
# 4 0.000000 0.000000 0.000000 0.039853 0.000000 -0.022307
# 5 -0.017021 -0.005849 0.005867 0.000000 0.059096 0.000000
# 6 0.000000 0.000000 0.000000 -0.022307 0.000000 0.049738
#
#
# Mechanical properties :
#
#
# Convention : Reuss Voigt Hill
#
# Bulk Modulus (GPa) = 22.89314 35.94727 29.42021
# Shear Modulus (GPa) = 20.13398 29.43337 24.78368
#
# Velocity S-wave (km/s) = 2.90252 3.50938 3.22028
# Velocity P-wave (km/s) = 4.56201 5.60913 5.11245
#
# Compressibility (1/GPa) = 0.04368121
#
# Stress axis : x y z
#
# Youngs Moduli (GPa) = 74.74166 33.04886 48.19894
#
# Poissons Ratio (x) = 0.06120 0.22292
# Poissons Ratio (y) = 0.13841 0.18678
# Poissons Ratio (z) = 0.34568 0.12807
#
# Static dielectric constant tensor:
#      x y z
#    x 1.878750 0.000000 0.026690 
#    y 0.000000 2.021850 0.000000 
#    z 0.026690 0.000000 2.015540 
# 
# From -- ./inp_files/56755.got.cif
#   From: 2010.05.17/outbox.cif.g08.bks.cpg/sg14_29_cif.got.tgz:56755.got - 2010.06.03 17:49:19.
