data_PCOD9242056
_publ_section_title
;
Structure prediction by ZEFSAII (Michael W. Deem and Ramdas Pophale) SiO2 
 PCOD9242056
Probable space group: P 21/C
;
_chemical_formula_sum "Si O2"
_cell_formula_units_Z 28
_cell_length_a 28.344995
_cell_length_b 8.477369
_cell_length_c 21.480810
_cell_angle_alpha 90.000000
_cell_angle_beta 16.363500
_cell_angle_gamma 90.000000
_cell_volume 1454.191636
_symmetry_space_group_name_H-M "P 21/C"
_symmetry_group_IT_number 14
_symmetry_cell_setting 'monoclinic'
loop_
_space_group_symop_operation_xyz
x,y,z
-x,1/2+y,1/2-z
-x,-y,-z
x,1/2-y,1/2+z
loop_
_atom_site_type_symbol
_atom_site_label
_atom_site_fract_x
_atom_site_fract_y
_atom_site_fract_z
Si Si1 0.550302 0.985829 0.833414
Si Si2 0.089647 0.363898 0.160939
Si Si3 0.966583 0.763269 0.030330
Si Si4 0.968703 0.532809 0.202295
Si Si5 0.081974 0.536270 0.499785
Si Si6 0.681860 0.184099 0.772025
Si Si7 0.766442 0.023315 0.837335
O O1 0.723064 0.910878 0.593164
O O2 0.596539 0.144919 0.813372
O O3 0.446907 0.876919 0.013099
O O4 0.427914 0.996281 0.929711
O O5 0.986696 0.392490 0.228268
O O6 0.073823 0.187037 0.204324
O O7 0.017673 0.467327 0.309307
O O8 0.851539 0.612299 0.187440
O O9 0.978162 0.863875 0.079160
O O10 0.151874 0.691635 0.784130
O O11 0.901623 0.868720 0.055285
O O12 0.831023 0.505404 0.324782
O O13 0.148982 0.575094 0.942688
O O14 0.248403 0.640125 0.303807
#
# Coordination Sequence:
#
# PCOD9242056 Si02
#       7
#     4   4   4   4   4   4   4
#     4  10  20  35  63  89 122 156 196 250 313 350
#     4  10  22  40  59  87 119 157 193 254 297 352
#     4  10  20  34  65  85 116 160 207 245 286 366
#     4  10  21  39  63  82 118 157 207 232 291 374
#     4  10  19  39  59  89 119 159 202 252 290 357
#     4   9  17  38  60  82 117 160 203 241 289 369
#     4  11  19  38  60  93 110 161 206 243 292 374
#
# _framework density 19.254683
#
# number of rings (size 3 to 8) (size 9 to 14) (size 15 to 20)
#    0.000    2.000    4.286    0.857    2.000    0.000 
#    2.571    0.714    6.286    0.000    0.000    0.000 
#    0.000    0.000    0.000    0.000    0.000    0.000 
#
# Total GULP energy -156162.879564 kJ/mol
# GULP energy per Si atom -5577.245699 kJ/mol
# Density = 1.921086 g / cm^3
# Si number density = 19.254683 Si / 1000 Ang^3
#
#
#
# Elastic Constant Matrix: (Units=GPa)
#
#
# Indices 1 2 3 4 5 6 
#
# 1 143.0422 47.3450 56.5954 0.0000 -15.9487 0.0000
# 2 47.3450 63.5316 33.7295 0.0000 4.8415 0.0000
# 3 56.5954 33.7295 81.0759 0.0000 -2.7287 0.0000
# 4 0.0000 0.0000 0.0000 8.5883 0.0000 -2.5449
# 5 -15.9487 4.8415 -2.7287 0.0000 33.8413 0.0000
# 6 0.0000 0.0000 0.0000 -2.5449 0.0000 47.7981
#
#
#
# Elastic Compliance Matrix: (Units=1/GPa)
#
#
# Indices 1 2 3 4 5 6 
#
# 1 0.011987 -0.006505 -0.005455 0.000000 0.006140 0.000000
# 2 -0.006505 0.024174 -0.005751 0.000000 -0.006988 0.000000
# 3 -0.005455 -0.005751 0.018526 0.000000 -0.000254 0.000000
# 4 0.000000 0.000000 0.000000 0.118305 0.000000 0.006299
# 5 0.006140 -0.006988 -0.000254 0.000000 0.033422 0.000000
# 6 0.000000 0.000000 0.000000 0.006299 0.000000 0.021257
#
#
# Mechanical properties :
#
#
# Convention : Reuss Voigt Hill
#
# Bulk Modulus (GPa) = 51.90795 62.55439 57.23117
# Shear Modulus (GPa) = 18.55202 28.04418 23.29810
#
# Velocity S-wave (km/s) = 3.10741 3.82053 3.48227
# Velocity P-wave (km/s) = 6.31599 7.21252 6.77909
#
# Compressibility (1/GPa) = 0.01926487
#
# Stress axis : x y z
#
# Youngs Moduli (GPa) = 83.42646 41.36750 53.97859
#
# Poissons Ratio (x) = 0.26908 0.29443
# Poissons Ratio (y) = 0.54266 0.31045
# Poissons Ratio (z) = 0.45506 0.23792
#
# Static dielectric constant tensor:
#      x y z
#    x 1.711290 0.000000 -0.002220 
#    y 0.000000 1.701150 0.000000 
#    z -0.002220 0.000000 1.658810 
# 
# From -- ./inp_files/70416.got.cif
#   From: 2010.05.17/outbox.cif.g08.bks.cpg/sg14_36_cif.got.tgz:70416.got - 2010.06.03 17:49:19.
