data_PCOD9242022
_publ_section_title
;
Structure prediction by ZEFSAII (Michael W. Deem and Ramdas Pophale) SiO2 
 PCOD9242022
Probable space group: P 21/C
;
_chemical_formula_sum "Si O2"
_cell_formula_units_Z 28
_cell_length_a 14.709648
_cell_length_b 17.027071
_cell_length_c 8.569065
_cell_angle_alpha 90.000000
_cell_angle_beta 28.981026
_cell_angle_gamma 90.000000
_cell_volume 1039.889836
_symmetry_space_group_name_H-M "P 21/C"
_symmetry_group_IT_number 14
_symmetry_cell_setting 'monoclinic'
loop_
_space_group_symop_operation_xyz
x,y,z
-x,1/2+y,1/2-z
-x,-y,-z
x,1/2-y,1/2+z
loop_
_atom_site_type_symbol
_atom_site_label
_atom_site_fract_x
_atom_site_fract_y
_atom_site_fract_z
Si Si1 0.475557 0.800862 0.123011
Si Si2 0.269535 0.100607 0.846818
Si Si3 0.904355 0.381018 0.226657
Si Si4 0.877860 0.018617 0.489560
Si Si5 0.638241 0.146345 0.401720
Si Si6 0.158872 0.258152 0.716837
Si Si7 0.695283 0.596329 0.056843
O O1 0.408870 0.728166 0.118698
O O2 0.325815 0.832802 0.472854
O O3 0.651079 0.772375 0.967754
O O4 0.548945 0.867727 0.897747
O O5 0.451891 0.091455 0.681707
O O6 0.358006 0.093592 0.543036
O O7 0.187698 0.185619 0.023139
O O8 0.083833 0.048477 0.131299
O O9 0.086966 0.436905 0.969901
O O10 0.790893 0.387647 0.555780
O O11 0.803623 0.418499 0.226350
O O12 0.982026 0.295453 0.069916
O O13 0.762245 0.987819 0.516919
O O14 0.148903 0.167349 0.684522
#
# Coordination Sequence:
#
# PCOD9242022 Si02
#       7
#     4   4   4   4   4   4   4
#     4  11  20  37  65  92 121 161 204 254 323 358
#     4  10  21  38  63  91 125 160 208 251 319 365
#     4  10  23  41  63  92 128 161 218 253 308 376
#     4  10  23  40  62  92 123 172 207 255 308 377
#     4  11  22  40  63  93 128 159 204 266 314 370
#     4  10  19  38  66  92 115 167 207 257 301 373
#     4  12  19  38  68  91 122 163 215 259 301 374
#
# _framework density 26.925929
#
# number of rings (size 3 to 8) (size 9 to 14) (size 15 to 20)
#    0.000    1.429    5.714    0.429    2.000    1.714 
#    2.571    0.714    9.429    0.000    0.000    0.000 
#    0.000    0.000    0.000    0.000    0.000    0.000 
#
# Total GULP energy -156692.525105 kJ/mol
# GULP energy per Si atom -5596.161611 kJ/mol
# Density = 2.686464 g / cm^3
# Si number density = 26.925929 Si / 1000 Ang^3
#
#
#
# Elastic Constant Matrix: (Units=GPa)
#
#
# Indices 1 2 3 4 5 6 
#
# 1 51.9018 12.5083 9.8956 0.0000 16.5634 0.0000
# 2 12.5083 97.2894 28.6883 0.0000 -9.4880 0.0000
# 3 9.8956 28.6883 129.6478 0.0000 31.3827 0.0000
# 4 0.0000 0.0000 0.0000 36.4315 0.0000 2.3036
# 5 16.5634 -9.4880 31.3827 0.0000 39.8034 0.0000
# 6 0.0000 0.0000 0.0000 2.3036 0.0000 43.5073
#
#
#
# Elastic Compliance Matrix: (Units=1/GPa)
#
#
# Indices 1 2 3 4 5 6 
#
# 1 0.024281 -0.005161 0.002512 0.000000 -0.013315 0.000000
# 2 -0.005161 0.013210 -0.004710 0.000000 0.009010 0.000000
# 3 0.002512 -0.004710 0.011232 0.000000 -0.011024 0.000000
# 4 0.000000 0.000000 0.000000 0.027541 0.000000 -0.001458
# 5 -0.013315 0.009010 -0.011024 0.000000 0.041504 0.000000
# 6 0.000000 0.000000 0.000000 -0.001458 0.000000 0.023062
#
#
# Mechanical properties :
#
#
# Convention : Reuss Voigt Hill
#
# Bulk Modulus (GPa) = 29.40800 42.33593 35.87197
# Shear Modulus (GPa) = 29.96112 39.13155 34.54634
#
# Velocity S-wave (km/s) = 3.33937 3.81636 3.58580
# Velocity P-wave (km/s) = 5.08075 5.93099 5.52226
#
# Compressibility (1/GPa) = 0.03400435
#
# Stress axis : x y z
#
# Youngs Moduli (GPa) = 41.18425 75.70179 89.02985
#
# Poissons Ratio (x) = 0.39069 -0.22361
# Poissons Ratio (y) = 0.21255 0.41934
# Poissons Ratio (z) = -0.10344 0.35656
#
# Static dielectric constant tensor:
#      x y z
#    x 2.172950 0.000000 -0.002530 
#    y 0.000000 2.145690 0.000000 
#    z -0.002530 0.000000 2.127420 
# 
# From -- ./inp_files/18154.got.cif
#   From: 2010.05.17/outbox.cif.g08.bks.cpg/sg14_10_cif.got.tgz:18154.got - 2010.06.03 17:49:19.
