data_PCOD9242047
_publ_section_title
;
Structure prediction by ZEFSAII (Michael W. Deem and Ramdas Pophale) SiO2 
 PCOD9242047
Probable space group: P 21/C
;
_chemical_formula_sum "Si O2"
_cell_formula_units_Z 24
_cell_length_a 19.280349
_cell_length_b 15.677598
_cell_length_c 9.924839
_cell_angle_alpha 90.000000
_cell_angle_beta 26.208752
_cell_angle_gamma 90.000000
_cell_volume 1324.918436
_symmetry_space_group_name_H-M "P 21/C"
_symmetry_group_IT_number 14
_symmetry_cell_setting 'monoclinic'
loop_
_space_group_symop_operation_xyz
x,y,z
-x,1/2+y,1/2-z
-x,-y,-z
x,1/2-y,1/2+z
loop_
_atom_site_type_symbol
_atom_site_label
_atom_site_fract_x
_atom_site_fract_y
_atom_site_fract_z
Si Si1 0.740043 0.331927 0.639215
Si Si2 0.604899 0.022853 0.689347
Si Si3 0.556875 0.925319 0.300871
Si Si4 0.906358 0.927443 0.081302
Si Si5 0.833493 0.185096 0.277906
Si Si6 0.123044 0.019051 0.168247
O O1 0.783722 0.267885 0.445991
O O2 0.811924 0.302783 0.656156
O O3 0.806791 0.426676 0.495775
O O4 0.552078 0.343947 0.979760
O O5 0.489239 0.045052 0.768013
O O6 0.715679 0.106051 0.519184
O O7 0.724613 0.947607 0.433272
O O8 0.500000 0.000000 0.000000
O O9 0.500000 0.000000 0.500000
O O10 0.740789 0.921012 0.007645
O O11 0.933148 0.940395 0.874910
O O12 0.990456 0.842298 0.986930
O O13 0.000000 0.000000 0.000000
O O14 0.000000 0.000000 0.500000
#
# Coordination Sequence:
#
# PCOD9242047 Si02
#       6
#     4   4   4   4   4   4
#     4  10  21  40  57  86 120 155 198 245 301 357
#     4  10  20  35  62  86 110 158 198 245 296 349
#     4   9  18  37  56  84 116 144 200 243 282 356
#     4  10  19  39  56  86 120 151 202 245 289 360
#     4  10  22  37  60  83 121 157 194 248 301 356
#     4  11  22  36  65  90 114 159 200 254 297 355
#
# _framework density 18.114322999999999
#
# number of rings (size 3 to 8) (size 9 to 14) (size 15 to 20)
#    0.000    2.000    6.667    0.000    7.000    1.333 
#    0.000    1.667    3.667    0.000    0.000    0.000 
#    0.000    0.000    0.000    0.000    0.000    0.000 
#
# Total GULP energy -133728.544936 kJ/mol
# GULP energy per Si atom -5572.022706 kJ/mol
# Density = 1.807309 g / cm^3
# Si number density = 18.114323 Si / 1000 Ang^3
#
#
#
# Elastic Constant Matrix: (Units=GPa)
#
#
# Indices 1 2 3 4 5 6 
#
# 1 129.9874 30.8477 46.3196 0.0000 0.3893 0.0000
# 2 30.8477 39.4612 -6.0482 0.0000 4.1552 0.0000
# 3 46.3196 -6.0482 66.6424 0.0000 12.3843 0.0000
# 4 0.0000 0.0000 0.0000 28.0203 0.0000 10.1992
# 5 0.3893 4.1552 12.3843 0.0000 30.0265 0.0000
# 6 0.0000 0.0000 0.0000 10.1992 0.0000 17.1111
#
#
#
# Elastic Compliance Matrix: (Units=1/GPa)
#
#
# Indices 1 2 3 4 5 6 
#
# 1 0.016670 -0.016103 -0.014536 0.000000 0.008008 0.000000
# 2 -0.016103 0.041935 0.017369 0.000000 -0.012758 0.000000
# 3 -0.014536 0.017369 0.029346 0.000000 -0.014319 0.000000
# 4 0.000000 0.000000 0.000000 0.045577 0.000000 -0.027167
# 5 0.008008 -0.012758 -0.014319 0.000000 0.040871 0.000000
# 6 0.000000 0.000000 0.000000 -0.027167 0.000000 0.074635
#
#
# Mechanical properties :
#
#
# Convention : Reuss Voigt Hill
#
# Bulk Modulus (GPa) = 16.28377 42.03657 29.16017
# Shear Modulus (GPa) = 16.88940 26.02969 21.45955
#
# Velocity S-wave (km/s) = 3.05680 3.79485 3.44564
# Velocity P-wave (km/s) = 4.63332 6.51596 5.65356
#
# Compressibility (1/GPa) = 0.06141085
#
# Stress axis : x y z
#
# Youngs Moduli (GPa) = 59.98745 23.84667 34.07638
#
# Poissons Ratio (x) = 0.38399 0.49533
# Poissons Ratio (y) = 0.96595 -0.59186
# Poissons Ratio (z) = 0.87198 -0.41419
#
# Static dielectric constant tensor:
#      x y z
#    x 1.594030 0.000000 -0.023160 
#    y 0.000000 1.638490 0.000000 
#    z -0.023160 0.000000 1.660880 
# 
# From -- ./inp_files/18092.got.cif
#   From: 2010.05.17/outbox.cif.g08.bks.cpg/sg14_10_cif.got.tgz:18092.got - 2010.06.03 17:49:19.
