data_PCOD9242226
_publ_section_title
;
Structure prediction by ZEFSAII (Michael W. Deem and Ramdas Pophale) SiO2 
 PCOD9242226
Probable space group: P 21/C
;
_chemical_formula_sum "Si O2"
_cell_formula_units_Z 32
_cell_length_a 9.199572
_cell_length_b 18.016897
_cell_length_c 11.112289
_cell_angle_alpha 90.000000
_cell_angle_beta 125.803955
_cell_angle_gamma 90.000000
_cell_volume 1493.772816
_symmetry_space_group_name_H-M "P 21/C"
_symmetry_group_IT_number 14
_symmetry_cell_setting 'monoclinic'
loop_
_space_group_symop_operation_xyz
x,y,z
-x,1/2+y,1/2-z
-x,-y,-z
x,1/2-y,1/2+z
loop_
_atom_site_type_symbol
_atom_site_label
_atom_site_fract_x
_atom_site_fract_y
_atom_site_fract_z
Si Si1 0.733055 0.850861 0.294476
Si Si2 0.003638 0.354993 0.676729
Si Si3 0.732170 0.562831 0.026297
Si Si4 0.413782 0.078072 0.004235
Si Si5 0.663417 0.080378 0.638596
Si Si6 0.022777 0.805842 0.251665
Si Si7 0.721038 0.808507 0.897328
Si Si8 0.808722 0.475186 0.453345
O O1 0.745432 0.918255 0.393180
O O2 0.673547 0.775096 0.332298
O O3 0.923974 0.837993 0.322164
O O4 0.603670 0.873652 0.123518
O O5 0.932915 0.278197 0.693912
O O6 0.841933 0.398775 0.537677
O O7 0.096524 0.403045 0.825221
O O8 0.165667 0.342100 0.659445
O O9 0.712116 0.478348 0.058248
O O10 0.544397 0.601205 0.976638
O O11 0.438496 0.139279 0.125327
O O12 0.239535 0.039652 0.977689
O O13 0.500000 0.000000 0.000000
O O14 0.807860 0.145829 0.705788
O O15 0.682824 0.037631 0.776926
O O16 0.869104 0.802075 0.075164
O O17 0.000000 0.500000 0.500000
#
# Coordination Sequence:
#
# PCOD9242226 Si02
#       8
#     4   4   4   4   4   4   4   4
#     4  10  22  39  64  93 130 173 213 274 334 402
#     4  11  21  38  68  95 122 178 226 263 328 412
#     4  11  23  39  63  96 135 169 210 274 352 390
#     4  11  23  40  64  99 133 171 226 282 333 402
#     4  11  23  41  65  95 132 170 219 280 332 407
#     4  10  21  41  66  93 125 169 228 270 323 402
#     4  10  19  40  68  91 124 177 222 267 329 402
#     4  12  20  40  71  92 122 180 229 266 322 411
#
# _framework density 21.422266
#
# number of rings (size 3 to 8) (size 9 to 14) (size 15 to 20)
#    0.000    1.250    5.000    1.500    0.000    1.500 
#    2.250    2.500    0.000    0.000    0.000    0.000 
#    0.000    0.000    0.000    0.000    0.000    0.000 
#
# Total GULP energy -178411.250734 kJ/mol
# GULP energy per Si atom -5575.351585 kJ/mol
# Density = 2.137351 g / cm^3
# Si number density = 21.422266 Si / 1000 Ang^3
#
#
#
# Elastic Constant Matrix: (Units=GPa)
#
#
# Indices 1 2 3 4 5 6 
#
# 1 45.9712 22.6541 19.9251 0.0000 -7.9814 0.0000
# 2 22.6541 89.7728 17.8002 0.0000 -5.8044 0.0000
# 3 19.9251 17.8002 38.2431 0.0000 -14.2574 0.0000
# 4 0.0000 0.0000 0.0000 37.4360 0.0000 -9.7861
# 5 -7.9814 -5.8044 -14.2574 0.0000 26.3533 0.0000
# 6 0.0000 0.0000 0.0000 -9.7861 0.0000 34.3425
#
#
#
# Elastic Compliance Matrix: (Units=1/GPa)
#
#
# Indices 1 2 3 4 5 6 
#
# 1 0.029967 -0.004930 -0.012952 0.000000 0.000983 0.000000
# 2 -0.004930 0.013088 -0.003764 0.000000 -0.000647 0.000000
# 3 -0.012952 -0.003764 0.041183 0.000000 0.017529 0.000000
# 4 0.000000 0.000000 0.000000 0.028862 0.000000 0.008224
# 5 0.000983 -0.000647 0.017529 0.000000 0.047584 0.000000
# 6 0.000000 0.000000 0.000000 0.008224 0.000000 0.031462
#
#
# Mechanical properties :
#
#
# Convention : Reuss Voigt Hill
#
# Bulk Modulus (GPa) = 24.42273 32.74955 28.58614
# Shear Modulus (GPa) = 20.07325 27.20021 23.63673
#
# Velocity S-wave (km/s) = 3.06441 3.56717 3.32531
# Velocity P-wave (km/s) = 4.89349 5.68218 5.30251
#
# Compressibility (1/GPa) = 0.04094546
#
# Stress axis : x y z
#
# Youngs Moduli (GPa) = 33.37047 76.40617 24.28158
#
# Poissons Ratio (x) = 0.37672 0.31449
# Poissons Ratio (y) = 0.16453 0.09140
# Poissons Ratio (z) = 0.43220 0.28761
#
# Static dielectric constant tensor:
#      x y z
#    x 1.731660 0.000000 0.012940 
#    y 0.000000 1.832540 0.000000 
#    z 0.012940 0.000000 1.790010 
# 
# From -- ./inp_files/26280.got.cif
#   From: 2010.05.17/outbox.cif.g08.bks.cpg/sg14_14_cif.got.tgz:26280.got - 2010.06.03 17:49:19.
