data_PCOD9242309
_publ_section_title
;
Structure prediction by ZEFSAII (Michael W. Deem and Ramdas Pophale) SiO2 
 PCOD9242309
Probable space group: P 21/C
;
_chemical_formula_sum "Si O2"
_cell_formula_units_Z 32
_cell_length_a 11.637688
_cell_length_b 17.696440
_cell_length_c 13.673986
_cell_angle_alpha 90.000000
_cell_angle_beta 147.912338
_cell_angle_gamma 90.000000
_cell_volume 1495.956682
_symmetry_space_group_name_H-M "P 21/C"
_symmetry_group_IT_number 14
_symmetry_cell_setting 'monoclinic'
loop_
_space_group_symop_operation_xyz
x,y,z
-x,1/2+y,1/2-z
-x,-y,-z
x,1/2-y,1/2+z
loop_
_atom_site_type_symbol
_atom_site_label
_atom_site_fract_x
_atom_site_fract_y
_atom_site_fract_z
Si Si1 0.388340 0.624049 0.524406
Si Si2 0.475321 0.046922 0.699310
Si Si3 0.467109 0.306594 0.567314
Si Si4 0.945792 0.540781 0.238729
Si Si5 0.338811 0.854064 0.319687
Si Si6 0.352976 0.414782 0.803171
Si Si7 0.998510 0.137214 0.780210
Si Si8 0.411529 0.707405 0.125514
O O1 0.527929 0.564029 0.688518
O O2 0.457456 0.635933 0.462149
O O3 0.411322 0.705996 0.592179
O O4 0.144201 0.594487 0.355732
O O5 0.245357 0.050762 0.478976
O O6 0.625052 0.112184 0.759966
O O7 0.591585 0.971521 0.744779
O O8 0.526645 0.222611 0.573536
O O9 0.216401 0.321051 0.408587
O O10 0.583298 0.308726 0.755866
O O11 0.850425 0.563026 0.277156
O O12 0.018439 0.453312 0.288815
O O13 0.450314 0.914092 0.474729
O O14 0.094975 0.844490 0.179075
O O15 0.380158 0.333407 0.773000
O O16 0.803766 0.167830 0.572043
#
# Coordination Sequence:
#
# PCOD9242309 Si02
#       8
#     4   4   4   4   4   4   4   4
#     4  12  28  42  68 106 141 182 237 279 358 427
#     4  11  21  43  71 105 136 175 228 307 336 392
#     4  12  27  47  65 101 147 183 225 290 344 433
#     4  11  24  44  75 105 133 181 234 297 341 403
#     4  10  19  42  73 100 133 173 235 285 343 396
#     4  10  20  42  76  99 135 176 239 295 337 391
#     4  11  24  46  74 100 136 183 230 283 355 406
#     4  11  25  46  68 103 139 185 230 291 350 411
#
# _framework density 21.390993999999999
#
# number of rings (size 3 to 8) (size 9 to 14) (size 15 to 20)
#    0.000    1.000    7.500    0.750    5.250    3.000 
#    2.250    1.250    0.000    0.000    0.000    0.000 
#    0.000    0.000    0.000    0.000    0.000    0.000 
#
# Total GULP energy -178720.151590 kJ/mol
# GULP energy per Si atom -5585.004737 kJ/mol
# Density = 2.134231 g / cm^3
# Si number density = 21.390994 Si / 1000 Ang^3
#
#
#
# Elastic Constant Matrix: (Units=GPa)
#
#
# Indices 1 2 3 4 5 6 
#
# 1 50.3250 10.1990 16.0434 0.0000 14.0928 0.0000
# 2 10.1990 42.5880 16.1547 0.0000 27.5102 0.0000
# 3 16.0434 16.1547 76.1179 0.0000 13.8311 0.0000
# 4 0.0000 0.0000 0.0000 -17.8679 0.0000 4.9489
# 5 14.0928 27.5102 13.8311 0.0000 42.7148 0.0000
# 6 0.0000 0.0000 0.0000 4.9489 0.0000 41.5181
#
#
#
# Elastic Compliance Matrix: (Units=1/GPa)
#
#
# Indices 1 2 3 4 5 6 
#
# 1 0.022812 0.000037 -0.003659 0.000000 -0.006365 0.000000
# 2 0.000037 0.041430 -0.004197 0.000000 -0.025336 0.000000
# 3 -0.003659 -0.004197 0.014970 0.000000 -0.000937 0.000000
# 4 0.000000 0.000000 0.000000 -0.054178 0.000000 0.006458
# 5 -0.006365 -0.025336 -0.000937 0.000000 0.042132 0.000000
# 6 0.000000 0.000000 0.000000 0.006458 0.000000 0.023316
#
#
# Mechanical properties :
#
#
# Convention : Reuss Voigt Hill
#
# Bulk Modulus (GPa) = 15.72999 28.20279 21.96639
# Shear Modulus (GPa) = 39.27342 21.71527 30.49434
#
# Velocity S-wave (km/s) = 4.28948 3.18961 3.77977
# Velocity P-wave (km/s) = 5.64822 5.17474 5.41665
#
# Compressibility (1/GPa) = 0.06357282
#
# Stress axis : x y z
#
# Youngs Moduli (GPa) = 43.83568 24.13718 66.80137
#
# Poissons Ratio (x) = -0.00088 0.24445
# Poissons Ratio (y) = -0.00160 0.28035
# Poissons Ratio (z) = 0.16041 0.10130
#
# Static dielectric constant tensor:
#      x y z
#    x 1.815280 0.000000 -0.036410 
#    y 0.000000 1.816320 0.000000 
#    z -0.036410 0.000000 1.801030 
# 
# From -- ./inp_files/45472.got.cif
#   From: 2010.05.17/outbox.cif.g08.bks.cpg/sg14_23_cif.got.tgz:45472.got - 2010.06.03 17:49:19.
