data_PCOD9242040
_publ_section_title
;
Structure prediction by ZEFSAII (Michael W. Deem and Ramdas Pophale) SiO2 
 PCOD9242040
Probable space group: P 21/C
;
_chemical_formula_sum "Si O2"
_cell_formula_units_Z 32
_cell_length_a 11.386311
_cell_length_b 18.969762
_cell_length_c 13.686153
_cell_angle_alpha 90.000000
_cell_angle_beta 147.346213
_cell_angle_gamma 90.000000
_cell_volume 1595.023897
_symmetry_space_group_name_H-M "P 21/C"
_symmetry_group_IT_number 14
_symmetry_cell_setting 'monoclinic'
loop_
_space_group_symop_operation_xyz
x,y,z
-x,1/2+y,1/2-z
-x,-y,-z
x,1/2-y,1/2+z
loop_
_atom_site_type_symbol
_atom_site_label
_atom_site_fract_x
_atom_site_fract_y
_atom_site_fract_z
Si Si1 0.214787 0.919339 0.180718
Si Si2 0.033429 0.530235 0.750677
Si Si3 0.490982 0.443859 0.830226
Si Si4 0.827896 0.919221 0.298251
Si Si5 0.436778 0.676424 0.498110
Si Si6 0.296189 0.574681 0.223552
Si Si7 0.057276 0.871173 0.864701
Si Si8 0.425222 0.333296 0.953394
O O1 0.057016 0.933673 0.161921
O O2 0.415890 0.873716 0.361309
O O3 0.314125 0.994823 0.218687
O O4 0.105209 0.881609 0.012727
O O5 0.893544 0.573474 0.730548
O O6 0.948139 0.450795 0.681761
O O7 0.279177 0.526812 0.965945
O O8 0.540261 0.423427 0.753596
O O9 0.433249 0.378181 0.858411
O O10 0.051827 0.908723 0.514195
O O11 0.720373 0.993803 0.252368
O O12 0.655338 0.858334 0.194006
O O13 0.365858 0.627306 0.357390
O O14 0.246051 0.671573 0.443834
O O15 0.487495 0.755282 0.501596
O O16 0.822853 0.836438 0.685092
#
# Coordination Sequence:
#
# PCOD9242040 Si02
#       8
#     4   4   4   4   4   4   4   4
#     4  11  22  40  70  99 121 168 222 274 313 373
#     4  10  19  38  68  99 128 157 212 276 319 364
#     4  10  20  40  69  94 127 164 220 270 320 367
#     4  10  22  40  66 100 128 166 215 271 318 379
#     4  12  27  42  64  93 138 172 212 257 328 405
#     4  10  22  40  68  95 129 167 215 267 325 375
#     4  12  24  41  69  95 126 167 221 264 324 376
#     4  11  26  44  60  93 135 172 206 267 322 389
#
# _framework density 20.062394999999999
#
# number of rings (size 3 to 8) (size 9 to 14) (size 15 to 20)
#    0.000    1.250    3.750    2.250    1.750    6.000 
#    0.000    0.000    0.000    0.000    0.000    0.000 
#    0.000    0.000    0.000    0.000    0.000    0.000 
#
# Total GULP energy -179071.855695 kJ/mol
# GULP energy per Si atom -5595.995490 kJ/mol
# Density = 2.001673 g / cm^3
# Si number density = 20.062395 Si / 1000 Ang^3
#
#
#
# Elastic Constant Matrix: (Units=GPa)
#
#
# Indices 1 2 3 4 5 6 
#
# 1 35.5549 -7.0861 8.6631 0.0000 6.7573 0.0000
# 2 -7.0861 65.7069 18.2114 0.0000 1.3376 0.0000
# 3 8.6631 18.2114 49.2138 0.0000 -1.2777 0.0000
# 4 0.0000 0.0000 0.0000 3.2623 0.0000 6.5381
# 5 6.7573 1.3376 -1.2777 0.0000 32.3680 0.0000
# 6 0.0000 0.0000 0.0000 6.5381 0.0000 14.2262
#
#
#
# Elastic Compliance Matrix: (Units=1/GPa)
#
#
# Indices 1 2 3 4 5 6 
#
# 1 0.032697 0.005934 -0.008143 0.000000 -0.007393 0.000000
# 2 0.005934 0.018064 -0.007789 0.000000 -0.002293 0.000000
# 3 -0.008143 -0.007789 0.024713 0.000000 0.002997 0.000000
# 4 0.000000 0.000000 0.000000 3.883605 0.000000 -1.784845
# 5 -0.007393 -0.002293 0.002997 0.000000 0.032651 0.000000
# 6 0.000000 0.000000 0.000000 -1.784845 0.000000 0.890580
#
#
# Mechanical properties :
#
#
# Convention : Reuss Voigt Hill
#
# Bulk Modulus (GPa) = 18.02519 21.11694 19.57107
# Shear Modulus (GPa) = 1.01609 18.68377 9.84993
#
# Velocity S-wave (km/s) = 0.71244 3.05500 2.21818
# Velocity P-wave (km/s) = 3.11140 4.79505 4.04187
#
# Compressibility (1/GPa) = 0.05547790
#
# Stress axis : x y z
#
# Youngs Moduli (GPa) = 30.58361 55.35742 40.46455
#
# Poissons Ratio (x) = -0.32848 0.32952
# Poissons Ratio (y) = -0.18147 0.31517
# Poissons Ratio (z) = 0.24905 0.43116
#
# Static dielectric constant tensor:
#      x y z
#    x 1.710330 0.000000 0.002350 
#    y 0.000000 1.654180 0.000000 
#    z 0.002350 0.000000 1.728320 
# 
# From -- ./inp_files/45403.got.cif
#   From: 2010.05.17/outbox.cif.g08.bks.cpg/sg14_23_cif.got.tgz:45403.got - 2010.06.03 17:49:19.
