data_PCOD9242923
_publ_section_title
;
Structure prediction by ZEFSAII (Michael W. Deem and Ramdas Pophale) SiO2 
 PCOD9242923
Probable space group: P 21/C
;
_chemical_formula_sum "Si O2"
_cell_formula_units_Z 30
_cell_length_a 9.506658
_cell_length_b 11.399514
_cell_length_c 16.858341
_cell_angle_alpha 90.000000
_cell_angle_beta 40.328222
_cell_angle_gamma 90.000000
_cell_volume 1182.345243
_symmetry_space_group_name_H-M "P 21/C"
_symmetry_group_IT_number 14
_symmetry_cell_setting 'monoclinic'
loop_
_space_group_symop_operation_xyz
x,y,z
-x,1/2+y,1/2-z
-x,-y,-z
x,1/2-y,1/2+z
loop_
_atom_site_type_symbol
_atom_site_label
_atom_site_fract_x
_atom_site_fract_y
_atom_site_fract_z
Si Si1 0.801057 0.851529 0.846724
Si Si2 0.857200 0.130380 0.120414
Si Si3 0.382118 0.826896 0.197696
Si Si4 0.639514 0.860204 0.507149
Si Si5 0.768221 0.105434 0.431223
Si Si6 0.280299 0.388122 0.328730
Si Si7 0.500000 0.000000 0.000000
Si Si8 0.468415 0.702129 0.370941
O O1 0.774578 0.721718 0.889339
O O2 0.567662 0.878395 0.899182
O O3 0.003974 0.873433 0.707004
O O4 0.743266 0.952400 0.933115
O O5 0.824839 0.247287 0.187380
O O6 0.665433 0.137864 0.137619
O O7 0.794331 0.005205 0.186423
O O8 0.082629 0.129826 0.975603
O O9 0.487755 0.899865 0.224557
O O10 0.368581 0.899327 0.122725
O O11 0.563930 0.724351 0.108862
O O12 0.416282 0.890416 0.557175
O O13 0.757654 0.979255 0.476944
O O14 0.699293 0.206925 0.519712
O O15 0.330251 0.277913 0.249749
#
# Coordination Sequence:
#
# PCOD9242923 Si02
#       8
#     4   4   4   4   4   4   2   4
#     4  10  21  36  58  83 115 155 197 247 299 351
#     4  10  21  37  59  84 115 152 193 241 299 359
#     4  10  21  38  58  83 118 153 195 250 299 357
#     4   9  21  37  53  83 118 152 200 249 297 363
#     4  10  20  36  58  81 115 159 197 243 305 361
#     4  10  21  37  59  86 115 155 197 241 304 363
#     4  10  22  38  56  86 118 148 196 248 294 348
#     4  10  20  37  57  84 115 148 197 248 292 354
#
# _framework density 25.373298999999999
#
# number of rings (size 3 to 8) (size 9 to 14) (size 15 to 20)
#    0.000    2.133    0.000    2.400    0.000    6.400 
#    0.000    6.667    0.000    8.800    0.000    0.000 
#    0.000    0.000    0.000    0.000    0.000    0.000 
#
# Total GULP energy -167403.411834 kJ/mol
# GULP energy per Si atom -5580.113728 kJ/mol
# Density = 2.531555 g / cm^3
# Si number density = 25.373299 Si / 1000 Ang^3
#
#
#
# Elastic Constant Matrix: (Units=GPa)
#
#
# Indices 1 2 3 4 5 6 
#
# 1 79.9421 11.9875 -0.5294 0.0000 2.2371 0.0000
# 2 11.9875 146.6063 61.2447 0.0000 -2.5576 0.0000
# 3 -0.5294 61.2447 135.5537 0.0000 -3.5976 0.0000
# 4 0.0000 0.0000 0.0000 35.5090 0.0000 12.2639
# 5 2.2371 -2.5576 -3.5976 0.0000 30.7250 0.0000
# 6 0.0000 0.0000 0.0000 12.2639 0.0000 16.0075
#
#
#
# Elastic Compliance Matrix: (Units=1/GPa)
#
#
# Indices 1 2 3 4 5 6 
#
# 1 0.012738 -0.001317 0.000619 0.000000 -0.000965 0.000000
# 2 -0.001317 0.008546 -0.003857 0.000000 0.000356 0.000000
# 3 0.000619 -0.003857 0.009141 0.000000 0.000704 0.000000
# 4 0.000000 0.000000 0.000000 0.038295 0.000000 -0.029339
# 5 -0.000965 0.000356 0.000704 0.000000 0.032729 0.000000
# 6 0.000000 0.000000 0.000000 -0.029339 0.000000 0.084948
#
#
# Mechanical properties :
#
#
# Convention : Reuss Voigt Hill
#
# Bulk Modulus (GPa) = 46.91508 56.38973 51.65240
# Shear Modulus (GPa) = 24.67781 35.74158 30.20970
#
# Velocity S-wave (km/s) = 3.12202 3.75724 3.45426
# Velocity P-wave (km/s) = 5.61481 6.41052 6.02581
#
# Compressibility (1/GPa) = 0.02131511
#
# Stress axis : x y z
#
# Youngs Moduli (GPa) = 78.50750 117.01228 109.39886
#
# Poissons Ratio (x) = 0.15411 -0.06774
# Poissons Ratio (y) = 0.10339 0.42194
# Poissons Ratio (z) = -0.04861 0.45131
#
# Static dielectric constant tensor:
#      x y z
#    x 2.077650 0.000000 0.030030 
#    y 0.000000 2.099950 0.000000 
#    z 0.030030 0.000000 2.017240 
# 
# From -- ./inp_files/35223.got.cif
#   From: 2010.05.17/outbox.cif.g08.bks.cpg/sg14_18_cif.got.tgz:35223.got - 2010.06.03 17:49:19.
