data_PCOD9242707
_publ_section_title
;
Structure prediction by ZEFSAII (Michael W. Deem and Ramdas Pophale) SiO2 
 PCOD9242707
Probable space group: P 21/C
;
_chemical_formula_sum "Si O2"
_cell_formula_units_Z 32
_cell_length_a 19.980415
_cell_length_b 14.644413
_cell_length_c 8.923427
_cell_angle_alpha 90.000000
_cell_angle_beta 32.246707
_cell_angle_gamma 90.000000
_cell_volume 1393.144679
_symmetry_space_group_name_H-M "P 21/C"
_symmetry_group_IT_number 14
_symmetry_cell_setting 'monoclinic'
loop_
_space_group_symop_operation_xyz
x,y,z
-x,1/2+y,1/2-z
-x,-y,-z
x,1/2-y,1/2+z
loop_
_atom_site_type_symbol
_atom_site_label
_atom_site_fract_x
_atom_site_fract_y
_atom_site_fract_z
Si Si1 0.308855 0.654602 0.891365
Si Si2 0.178357 0.512174 0.721106
Si Si3 0.966100 0.646485 0.124932
Si Si4 0.626073 0.715912 0.051130
Si Si5 0.177077 0.009616 0.569966
Si Si6 0.578525 0.623521 0.450925
Si Si7 0.369931 0.845022 0.924778
Si Si8 0.908304 0.830461 0.060096
O O1 0.190453 0.587529 0.128283
O O2 0.431149 0.604634 0.731561
O O3 0.312828 0.756079 0.950806
O O4 0.326654 0.661258 0.679262
O O5 0.152903 0.419752 0.680015
O O6 0.136864 0.493788 0.972808
O O7 0.313460 0.561132 0.467705
O O8 0.083229 0.589262 0.840089
O O9 0.946547 0.742511 0.082638
O O10 0.988735 0.660189 0.258343
O O11 0.595452 0.694218 0.281051
O O12 0.520215 0.664007 0.153701
O O13 0.614130 0.821932 0.032241
O O14 0.768106 0.686375 0.760872
O O15 0.321070 0.046453 0.275782
O O16 0.103797 0.081864 0.809984
#
# Coordination Sequence:
#
# PCOD9242707 Si02
#       8
#     4   4   4   4   4   4   4   4
#     4   9  18  32  52  82 115 153 188 228 286 343
#     4  10  23  42  59  83 115 152 194 237 286 336
#     4  11  24  41  62  85 115 154 195 236 280 337
#     4   9  17  31  54  84 112 146 188 227 281 341
#     4  10  20  35  57  84 113 146 192 236 281 339
#     4   9  16  29  51  79 115 150 184 228 279 340
#     4   9  19  35  56  81 117 152 188 237 285 333
#     4  11  22  39  62  88 115 149 189 235 286 338
#
# _framework density 22.969617
#
# number of rings (size 3 to 8) (size 9 to 14) (size 15 to 20)
#    0.000    2.250    0.000    3.375    0.000    4.500 
#    0.000    1.875    0.000    0.000    0.000    0.000 
#    0.000    0.000    0.000    0.000    0.000    0.000 
#
# Total GULP energy -178723.430428 kJ/mol
# GULP energy per Si atom -5585.107201 kJ/mol
# Density = 2.291734 g / cm^3
# Si number density = 22.969617 Si / 1000 Ang^3
#
#
#
# Elastic Constant Matrix: (Units=GPa)
#
#
# Indices 1 2 3 4 5 6 
#
# 1 68.6238 36.6098 9.2429 0.0000 1.9699 0.0000
# 2 36.6098 87.5696 12.7783 0.0000 16.6795 0.0000
# 3 9.2429 12.7783 20.0328 0.0000 -2.2602 0.0000
# 4 0.0000 0.0000 0.0000 25.8865 0.0000 -3.0710
# 5 1.9699 16.6795 -2.2602 0.0000 15.0882 0.0000
# 6 0.0000 0.0000 0.0000 -3.0710 0.0000 43.3776
#
#
#
# Elastic Compliance Matrix: (Units=1/GPa)
#
#
# Indices 1 2 3 4 5 6 
#
# 1 0.019612 -0.009256 -0.002318 0.000000 0.007324 0.000000
# 2 -0.009256 0.021826 -0.012448 0.000000 -0.024785 0.000000
# 3 -0.002318 -0.012448 0.061555 0.000000 0.023285 0.000000
# 4 0.000000 0.000000 0.000000 0.038957 0.000000 0.002758
# 5 0.007324 -0.024785 0.023285 0.000000 0.096207 0.000000
# 6 0.000000 0.000000 0.000000 0.002758 0.000000 0.023249
#
#
# Mechanical properties :
#
#
# Convention : Reuss Voigt Hill
#
# Bulk Modulus (GPa) = 18.19876 32.60980 25.40428
# Shear Modulus (GPa) = 15.25470 24.71015 19.98242
#
# Velocity S-wave (km/s) = 2.57986 3.28346 2.95269
# Velocity P-wave (km/s) = 4.10054 5.34814 4.76534
#
# Compressibility (1/GPa) = 0.05494880
#
# Stress axis : x y z
#
# Youngs Moduli (GPa) = 50.98895 45.81637 16.24560
#
# Poissons Ratio (x) = 0.42407 0.03766
# Poissons Ratio (y) = 0.47195 0.20223
# Poissons Ratio (z) = 0.11821 0.57033
#
# Static dielectric constant tensor:
#      x y z
#    x 1.881310 0.000000 -0.078900 
#    y 0.000000 1.870830 0.000000 
#    z -0.078900 0.000000 1.884220 
# 
# From -- ./inp_files/19063.got.cif
#   From: 2010.05.17/outbox.cif.g08.bks.cpg/sg14_10_cif.got.tgz:19063.got - 2010.06.03 17:49:19.
