data_PCOD9242510
_publ_section_title
;
Structure prediction by ZEFSAII (Michael W. Deem and Ramdas Pophale) SiO2 
 PCOD9242510
Probable space group: P 21/C
;
_chemical_formula_sum "Si O2"
_cell_formula_units_Z 32
_cell_length_a 5.113332
_cell_length_b 8.718120
_cell_length_c 28.146760
_cell_angle_alpha 90.000000
_cell_angle_beta 70.280955
_cell_angle_gamma 90.000000
_cell_volume 1181.164175
_symmetry_space_group_name_H-M "P 21/C"
_symmetry_group_IT_number 14
_symmetry_cell_setting 'monoclinic'
loop_
_space_group_symop_operation_xyz
x,y,z
-x,1/2+y,1/2-z
-x,-y,-z
x,1/2-y,1/2+z
loop_
_atom_site_type_symbol
_atom_site_label
_atom_site_fract_x
_atom_site_fract_y
_atom_site_fract_z
Si Si1 0.639977 0.379994 0.783272
Si Si2 0.180861 0.464344 0.359635
Si Si3 0.084773 0.072045 0.558014
Si Si4 0.350711 0.718265 0.630576
Si Si5 0.617183 0.010637 0.057410
Si Si6 0.310312 0.703926 0.998739
Si Si7 0.776366 0.775603 0.261542
Si Si8 0.164307 0.276924 0.637489
O O1 0.595419 0.374058 0.844025
O O2 0.387065 0.322001 0.767108
O O3 0.901978 0.267561 0.761792
O O4 0.722198 0.545633 0.759252
O O5 0.963249 0.333941 0.358111
O O6 0.103199 0.616948 0.337213
O O7 0.144433 0.513632 0.417247
O O8 0.370999 0.147339 0.520381
O O9 0.072742 0.130909 0.612512
O O10 0.832829 0.134119 0.541171
O O11 0.133312 0.889711 0.548903
O O12 0.509298 0.665215 0.572020
O O13 0.510373 0.601585 0.657498
O O14 0.706990 0.111370 0.006860
O O15 0.371224 0.117663 0.093682
O O16 0.694185 0.749288 0.321229
#
# Coordination Sequence:
#
# PCOD9242510 Si02
#       8
#     4   4   4   4   4   4   4   4
#     4  12  28  46  60  92 112 162 192 266 295 366
#     4   9  17  28  56  78 101 145 177 232 267 348
#     4   9  16  26  43  68 112 144 179 225 280 338
#     4   9  19  33  55  72 109 135 187 225 289 326
#     4   8  17  28  53  80 107 145 184 229 282 339
#     4   9  15  25  41  75 109 143 179 226 278 333
#     4  12  30  42  66  84 124 149 210 242 316 352
#     4  10  20  34  53  81 108 154 188 235 293 352
#
# _framework density 27.091918
#
# number of rings (size 3 to 8) (size 9 to 14) (size 15 to 20)
#    0.750    1.500    1.250    1.500   10.500    0.000 
#    0.000    0.000    0.000    0.000    0.000    0.875 
#    0.000    1.000    0.000    3.625    0.000    0.875 
#
# Total GULP energy -178826.996326 kJ/mol
# GULP energy per Si atom -5588.343635 kJ/mol
# Density = 2.703026 g / cm^3
# Si number density = 27.091918 Si / 1000 Ang^3
#
#
#
# Elastic Constant Matrix: (Units=GPa)
#
#
# Indices 1 2 3 4 5 6 
#
# 1 148.5787 29.6485 30.5301 0.0000 23.9473 0.0000
# 2 29.6485 87.5062 15.6510 0.0000 -10.8150 0.0000
# 3 30.5301 15.6510 80.9337 0.0000 4.9347 0.0000
# 4 0.0000 0.0000 0.0000 39.4350 0.0000 1.2364
# 5 23.9473 -10.8150 4.9347 0.0000 26.8938 0.0000
# 6 0.0000 0.0000 0.0000 1.2364 0.0000 23.6808
#
#
#
# Elastic Compliance Matrix: (Units=1/GPa)
#
#
# Indices 1 2 3 4 5 6 
#
# 1 0.009565 -0.004045 -0.002233 0.000000 -0.009734 0.000000
# 2 -0.004045 0.014325 -0.001836 0.000000 0.009699 0.000000
# 3 -0.002233 -0.001836 0.013629 0.000000 -0.001251 0.000000
# 4 0.000000 0.000000 0.000000 0.025400 0.000000 -0.001326
# 5 -0.009734 0.009699 -0.001251 0.000000 0.049981 0.000000
# 6 0.000000 0.000000 0.000000 -0.001326 0.000000 0.042298
#
#
# Mechanical properties :
#
#
# Convention : Reuss Voigt Hill
#
# Bulk Modulus (GPa) = 46.96242 52.07533 49.51887
# Shear Modulus (GPa) = 28.00784 34.08120 31.04452
#
# Velocity S-wave (km/s) = 3.21878 3.55065 3.38878
# Velocity P-wave (km/s) = 5.58446 6.00608 5.79910
#
# Compressibility (1/GPa) = 0.02129362
#
# Stress axis : x y z
#
# Youngs Moduli (GPa) = 104.54614 69.80717 73.37154
#
# Poissons Ratio (x) = 0.28234 0.16381
# Poissons Ratio (y) = 0.42284 0.13470
# Poissons Ratio (z) = 0.23341 0.12816
#
# Static dielectric constant tensor:
#      x y z
#    x 2.058190 0.000000 -0.036440 
#    y 0.000000 2.181740 0.000000 
#    z -0.036440 0.000000 2.291890 
# 
# From -- ./inp_files/75824.got.cif
#   From: 2010.05.17/outbox.cif.g08.bks.cpg/sg14_38_cif.got.tgz:75824.got - 2010.06.03 17:49:19.
