data_PCOD9242196
_publ_section_title
;
Structure prediction by ZEFSAII (Michael W. Deem and Ramdas Pophale) SiO2 
 PCOD9242196
Probable space group: P 21/C
;
_chemical_formula_sum "Si O2"
_cell_formula_units_Z 28
_cell_length_a 9.057409
_cell_length_b 12.097697
_cell_length_c 13.061672
_cell_angle_alpha 90.000000
_cell_angle_beta 131.951859
_cell_angle_gamma 90.000000
_cell_volume 1064.405712
_symmetry_space_group_name_H-M "P 21/C"
_symmetry_group_IT_number 14
_symmetry_cell_setting 'monoclinic'
loop_
_space_group_symop_operation_xyz
x,y,z
-x,1/2+y,1/2-z
-x,-y,-z
x,1/2-y,1/2+z
loop_
_atom_site_type_symbol
_atom_site_label
_atom_site_fract_x
_atom_site_fract_y
_atom_site_fract_z
Si Si1 0.456886 0.673942 0.237784
Si Si2 0.853799 0.061291 0.321038
Si Si3 0.505490 0.405144 0.342493
Si Si4 0.702644 0.686330 0.555296
Si Si5 0.888262 0.109695 0.651395
Si Si6 0.116587 0.858469 0.899164
Si Si7 0.308662 0.410791 0.835601
O O1 0.220130 0.672355 0.157699
O O2 0.514375 0.799468 0.236491
O O3 0.603827 0.656679 0.402738
O O4 0.515299 0.605498 0.162539
O O5 0.863614 0.094650 0.206651
O O6 0.653774 0.996116 0.258915
O O7 0.027579 0.969563 0.401945
O O8 0.437069 0.369762 0.424369
O O9 0.738206 0.425123 0.460249
O O10 0.923245 0.642468 0.687144
O O11 0.690857 0.818027 0.574234
O O12 0.825104 0.229545 0.582002
O O13 0.731680 0.033196 0.639357
O O14 0.887739 0.874108 0.818865
#
# Coordination Sequence:
#
# PCOD9242196 Si02
#       7
#     4   4   4   4   4   4   4
#     4  11  22  38  59  93 119 160 207 249 301 365
#     4  10  21  39  68  85 117 171 203 238 307 366
#     4  10  21  39  61  87 122 156 205 253 293 368
#     4   9  19  39  61  82 121 161 203 247 299 368
#     4   9  20  38  63  85 121 162 200 253 310 357
#     4  10  19  40  64  86 119 162 203 252 305 357
#     4   9  21  38  57  88 124 153 199 259 304 354
#
# _framework density 26.305758000000001
#
# number of rings (size 3 to 8) (size 9 to 14) (size 15 to 20)
#    0.000    2.286    1.429    1.286    4.000    1.714 
#   10.286    2.143    0.000    0.000    0.000    0.000 
#    0.000    0.000    0.000    0.000    0.000    0.000 
#
# Total GULP energy -156466.324222 kJ/mol
# GULP energy per Si atom -5588.083008 kJ/mol
# Density = 2.624589 g / cm^3
# Si number density = 26.305758 Si / 1000 Ang^3
#
#
#
# Elastic Constant Matrix: (Units=GPa)
#
#
# Indices 1 2 3 4 5 6 
#
# 1 77.6796 22.3939 8.9474 0.0000 3.0623 0.0000
# 2 22.3939 102.9603 13.6957 0.0000 -12.1591 0.0000
# 3 8.9474 13.6957 82.2776 0.0000 2.7448 0.0000
# 4 0.0000 0.0000 0.0000 18.4024 0.0000 19.4288
# 5 3.0623 -12.1591 2.7448 0.0000 30.8862 0.0000
# 6 0.0000 0.0000 0.0000 19.4288 0.0000 43.0251
#
#
#
# Elastic Compliance Matrix: (Units=1/GPa)
#
#
# Indices 1 2 3 4 5 6 
#
# 1 0.014011 -0.003233 -0.000899 0.000000 -0.002582 0.000000
# 2 -0.003233 0.011216 -0.001678 0.000000 0.004885 0.000000
# 3 -0.000899 -0.001678 0.012588 0.000000 -0.001690 0.000000
# 4 0.000000 0.000000 0.000000 0.103854 0.000000 -0.046897
# 5 -0.002582 0.004885 -0.001690 0.000000 0.034706 0.000000
# 6 0.000000 0.000000 0.000000 -0.046897 0.000000 0.044420
#
#
# Mechanical properties :
#
#
# Convention : Reuss Voigt Hill
#
# Bulk Modulus (GPa) = 38.17780 39.22128 38.69954
# Shear Modulus (GPa) = 20.73434 32.98811 26.86122
#
# Velocity S-wave (km/s) = 2.81055 3.54506 3.19896
# Velocity P-wave (km/s) = 5.00768 5.63017 5.32802
#
# Compressibility (1/GPa) = 0.02619324
#
# Stress axis : x y z
#
# Youngs Moduli (GPa) = 71.37421 89.16062 79.44359
#
# Poissons Ratio (x) = 0.28822 0.07145
# Poissons Ratio (y) = 0.23072 0.13334
# Poissons Ratio (z) = 0.06419 0.14964
#
# Static dielectric constant tensor:
#      x y z
#    x 2.213310 0.000000 -0.075250 
#    y 0.000000 2.373750 0.000000 
#    z -0.075250 0.000000 2.233720 
# 
# From -- ./inp_files/40392.got.cif
#   From: 2010.05.17/outbox.cif.g08.bks.cpg/sg14_21_cif.got.tgz:40392.got - 2010.06.03 17:49:19.
