data_PCOD9242603
_publ_section_title
;
Structure prediction by ZEFSAII (Michael W. Deem and Ramdas Pophale) SiO2 
 PCOD9242603
Probable space group: P 21/C
;
_chemical_formula_sum "Si O2"
_cell_formula_units_Z 24
_cell_length_a 9.034942
_cell_length_b 24.412574
_cell_length_c 5.295899
_cell_angle_alpha 90.000000
_cell_angle_beta 111.800562
_cell_angle_gamma 90.000000
_cell_volume 1084.556572
_symmetry_space_group_name_H-M "P 21/C"
_symmetry_group_IT_number 14
_symmetry_cell_setting 'monoclinic'
loop_
_space_group_symop_operation_xyz
x,y,z
-x,1/2+y,1/2-z
-x,-y,-z
x,1/2-y,1/2+z
loop_
_atom_site_type_symbol
_atom_site_label
_atom_site_fract_x
_atom_site_fract_y
_atom_site_fract_z
Si Si1 0.265029 0.889021 0.589479
Si Si2 0.856845 0.494993 0.215656
Si Si3 0.525501 0.284758 0.736187
Si Si4 0.041808 0.109309 0.369655
Si Si5 0.213033 0.142827 0.958641
Si Si6 0.423638 0.042569 0.140862
O O1 0.154211 0.931020 0.360528
O O2 0.334721 0.828297 0.607859
O O3 0.427114 0.923046 0.672268
O O4 0.150955 0.888225 0.763511
O O5 0.900902 0.545694 0.057737
O O6 0.688366 0.512704 0.229881
O O7 0.000000 0.500000 0.500000
O O8 0.539458 0.260286 0.464173
O O9 0.348944 0.312745 0.614854
O O10 0.118154 0.130003 0.156254
O O11 0.100662 0.148049 0.640399
O O12 0.313531 0.088780 0.949467
O O13 0.500000 0.000000 0.000000
#
# Coordination Sequence:
#
# PCOD9242603 Si02
#       6
#     4   4   4   4   4   4
#     4  11  23  39  65  96 136 176 219 277 331 393
#     4  11  22  38  63 100 145 184 220 264 330 410
#     4  11  26  48  70  95 127 171 226 284 338 390
#     4  11  22  41  65  99 134 171 214 264 331 409
#     4  10  23  42  66  90 125 168 215 268 327 394
#     4  10  20  34  58  94 130 172 215 259 324 396
#
# _framework density 22.128861000000001
#
# number of rings (size 3 to 8) (size 9 to 14) (size 15 to 20)
#    0.000    1.333    0.000    6.000    0.000    8.000 
#    0.000    5.000    0.000    0.000    0.000    0.000 
#    0.000    0.000    0.000    0.000    0.000    0.000 
#
# Total GULP energy -133683.988899 kJ/mol
# GULP energy per Si atom -5570.166204 kJ/mol
# Density = 2.207849 g / cm^3
# Si number density = 22.128861 Si / 1000 Ang^3
#
#
#
# Elastic Constant Matrix: (Units=GPa)
#
#
# Indices 1 2 3 4 5 6 
#
# 1 147.7768 25.3076 14.8990 0.0000 4.6946 0.0000
# 2 25.3076 61.4758 12.6605 0.0000 5.4992 0.0000
# 3 14.8990 12.6605 92.7711 0.0000 13.2299 0.0000
# 4 0.0000 0.0000 0.0000 26.5714 0.0000 3.0050
# 5 4.6946 5.4992 13.2299 0.0000 15.2864 0.0000
# 6 0.0000 0.0000 0.0000 3.0050 0.0000 40.3270
#
#
#
# Elastic Compliance Matrix: (Units=1/GPa)
#
#
# Indices 1 2 3 4 5 6 
#
# 1 0.007341 -0.002821 -0.000704 0.000000 -0.000630 0.000000
# 2 -0.002821 0.018111 -0.001384 0.000000 -0.004451 0.000000
# 3 -0.000704 -0.001384 0.012525 0.000000 -0.010126 0.000000
# 4 0.000000 0.000000 0.000000 0.037954 0.000000 -0.002828
# 5 -0.000630 -0.004451 -0.010126 0.000000 0.075976 0.000000
# 6 0.000000 0.000000 0.000000 -0.002828 0.000000 0.025008
#
#
# Mechanical properties :
#
#
# Convention : Reuss Voigt Hill
#
# Bulk Modulus (GPa) = 35.51142 45.30644 40.40893
# Shear Modulus (GPa) = 25.49465 33.04741 29.27103
#
# Velocity S-wave (km/s) = 3.39794 3.86866 3.64091
# Velocity P-wave (km/s) = 5.61044 6.36189 5.99795
#
# Compressibility (1/GPa) = 0.02815996
#
# Stress axis : x y z
#
# Youngs Moduli (GPa) = 136.22054 55.21529 79.83900
#
# Poissons Ratio (x) = 0.15574 0.05622
# Poissons Ratio (y) = 0.38423 0.11048
# Poissons Ratio (z) = 0.09592 0.07641
#
# Static dielectric constant tensor:
#      x y z
#    x 1.893370 0.000000 0.016150 
#    y 0.000000 1.818030 0.000000 
#    z 0.016150 0.000000 1.899170 
# 
# From -- ./inp_files/1683.got.cif
#   From: 2010.05.17/outbox.cif.g08.bks.cpg/sg14_1_cif.got.tgz:1683.got - 2010.06.03 17:49:19.
