data_PCOD9242127
_publ_section_title
;
Structure prediction by ZEFSAII (Michael W. Deem and Ramdas Pophale) SiO2 
 PCOD9242127
Probable space group: P 21/C
;
_chemical_formula_sum "Si O2"
_cell_formula_units_Z 28
_cell_length_a 11.718753
_cell_length_b 14.820506
_cell_length_c 7.763403
_cell_angle_alpha 90.000000
_cell_angle_beta 120.551895
_cell_angle_gamma 90.000000
_cell_volume 1161.141124
_symmetry_space_group_name_H-M "P 21/C"
_symmetry_group_IT_number 14
_symmetry_cell_setting 'monoclinic'
loop_
_space_group_symop_operation_xyz
x,y,z
-x,1/2+y,1/2-z
-x,-y,-z
x,1/2-y,1/2+z
loop_
_atom_site_type_symbol
_atom_site_label
_atom_site_fract_x
_atom_site_fract_y
_atom_site_fract_z
Si Si1 0.015329 0.179284 0.769887
Si Si2 0.345827 0.706473 0.266318
Si Si3 0.734392 0.603068 0.678433
Si Si4 0.781935 0.043539 0.497004
Si Si5 0.479026 0.852325 0.201927
Si Si6 0.896566 0.338731 0.514086
Si Si7 0.708174 0.497435 0.319508
O O1 0.149143 0.173157 0.766919
O O2 0.914339 0.103271 0.620398
O O3 0.954315 0.279433 0.710868
O O4 0.016628 0.154337 0.970828
O O5 0.325038 0.622420 0.124327
O O6 0.473878 0.765338 0.317894
O O7 0.366361 0.668067 0.471209
O O8 0.222292 0.776125 0.158416
O O9 0.789122 0.520441 0.837264
O O10 0.611403 0.633906 0.698524
O O11 0.692882 0.572796 0.453749
O O12 0.743875 0.991853 0.644913
O O13 0.425731 0.937787 0.265997
O O14 0.831000 0.435524 0.483499
#
# Coordination Sequence:
#
# PCOD9242127 Si02
#       7
#     4   4   4   4   4   4   4
#     4  10  22  39  62  93 121 160 206 250 305 361
#     4  10  19  39  66  89 118 161 217 252 286 364
#     4  12  25  40  59  95 135 155 192 258 318 363
#     4  10  22  41  67  90 117 164 211 251 299 359
#     4  11  22  39  63  93 124 161 205 252 303 362
#     4   9  19  38  65  88 113 161 215 250 287 360
#     4  10  21  41  65  91 117 165 209 250 300 359
#
# _framework density 24.114208999999999
#
# number of rings (size 3 to 8) (size 9 to 14) (size 15 to 20)
#    0.000    1.714    1.429    5.143    2.000    4.000 
#    5.143    0.000    0.000    0.000    0.000    0.000 
#    0.000    0.000    0.000    0.000    0.000    0.000 
#
# Total GULP energy -156431.586139 kJ/mol
# GULP energy per Si atom -5586.842362 kJ/mol
# Density = 2.405932 g / cm^3
# Si number density = 24.114209 Si / 1000 Ang^3
#
#
#
# Elastic Constant Matrix: (Units=GPa)
#
#
# Indices 1 2 3 4 5 6 
#
# 1 114.1559 -0.9629 2.3835 0.0000 -11.2705 0.0000
# 2 -0.9629 29.8014 2.7140 0.0000 0.6043 0.0000
# 3 2.3835 2.7140 46.7692 0.0000 -18.8213 0.0000
# 4 0.0000 0.0000 0.0000 -35.6686 0.0000 -26.7154
# 5 -11.2705 0.6043 -18.8213 0.0000 24.4965 0.0000
# 6 0.0000 0.0000 0.0000 -26.7154 0.0000 23.5055
#
#
#
# Elastic Compliance Matrix: (Units=1/GPa)
#
#
# Indices 1 2 3 4 5 6 
#
# 1 0.009281 0.000021 0.001801 0.000000 0.005653 0.000000
# 2 0.000021 0.033928 -0.003333 0.000000 -0.003388 0.000000
# 3 0.001801 -0.003333 0.031629 0.000000 0.025212 0.000000
# 4 0.000000 0.000000 0.000000 -0.015144 0.000000 -0.017212
# 5 0.005653 -0.003388 0.025212 0.000000 0.062878 0.000000
# 6 0.000000 0.000000 0.000000 -0.017212 0.000000 0.022981
#
#
# Mechanical properties :
#
#
# Convention : Reuss Voigt Hill
#
# Bulk Modulus (GPa) = 13.92458 22.11061 18.01759
# Shear Modulus (GPa) = 28.98310 14.90613 21.94462
#
# Velocity S-wave (km/s) = 3.47062 2.48895 3.01994
# Velocity P-wave (km/s) = 4.67410 4.17719 4.43261
#
# Compressibility (1/GPa) = 0.07181546
#
# Stress axis : x y z
#
# Youngs Moduli (GPa) = 107.75119 29.47376 31.61611
#
# Poissons Ratio (x) = -0.00063 -0.05693
# Poissons Ratio (y) = -0.00229 0.10539
# Poissons Ratio (z) = -0.19403 0.09825
#
# Static dielectric constant tensor:
#      x y z
#    x 1.943820 0.000000 0.027290 
#    y 0.000000 1.953230 0.000000 
#    z 0.027290 0.000000 1.948020 
# 
# From -- ./inp_files/13236.got.cif
#   From: 2010.05.17/outbox.cif.g08.bks.cpg/sg14_7_cif.got.tgz:13236.got - 2010.06.03 17:49:19.
