data_PCOD9242135
_publ_section_title
;
Structure prediction by ZEFSAII (Michael W. Deem and Ramdas Pophale) SiO2 
 PCOD9242135
Probable space group: P 21/C
;
_chemical_formula_sum "Si O2"
_cell_formula_units_Z 26
_cell_length_a 17.857577
_cell_length_b 6.737761
_cell_length_c 23.764719
_cell_angle_alpha 90.000000
_cell_angle_beta 158.060863
_cell_angle_gamma 90.000000
_cell_volume 1068.323161
_symmetry_space_group_name_H-M "P 21/C"
_symmetry_group_IT_number 14
_symmetry_cell_setting 'monoclinic'
loop_
_space_group_symop_operation_xyz
x,y,z
-x,1/2+y,1/2-z
-x,-y,-z
x,1/2-y,1/2+z
loop_
_atom_site_type_symbol
_atom_site_label
_atom_site_fract_x
_atom_site_fract_y
_atom_site_fract_z
Si Si1 0.332443 0.970153 0.724781
Si Si2 0.314380 0.088206 0.249744
Si Si3 0.765039 0.990591 0.032280
Si Si4 0.122196 0.550552 0.509321
Si Si5 0.853213 0.286694 0.705481
Si Si6 0.500000 0.500000 0.000000
Si Si7 0.994643 0.585288 0.082035
O O1 0.382243 0.204828 0.769793
O O2 0.552895 0.879890 0.877974
O O3 0.191630 0.959537 0.571540
O O4 0.183218 0.921854 0.671739
O O5 0.268528 0.941607 0.165307
O O6 0.447124 0.016142 0.394134
O O7 0.094191 0.132660 0.123478
O O8 0.802565 0.106360 0.999936
O O9 0.766286 0.121983 0.088753
O O10 0.950889 0.842549 0.170839
O O11 0.080617 0.312886 0.472475
O O12 0.925312 0.454940 0.799938
O O13 0.689767 0.151498 0.622857
#
# Coordination Sequence:
#
# PCOD9242135 Si02
#       7
#     4   4   4   4   4   2   4
#     4  10  21  39  67  93 124 163 218 257 317 376
#     4  10  19  39  67  89 119 172 214 246 310 395
#     4  11  23  43  61  97 130 166 210 276 321 373
#     4   9  20  41  64  87 128 166 211 259 315 381
#     4  11  25  43  64  92 135 166 215 262 330 375
#     4  12  20  42  70  92 122 178 216 258 316 398
#     4   9  20  42  61  91 125 163 210 261 303 396
#
# _framework density 24.337206999999999
#
# number of rings (size 3 to 8) (size 9 to 14) (size 15 to 20)
#    0.000    1.846    4.615    0.000    0.000    3.077 
#    2.769   16.923    0.000    0.000    0.000    0.000 
#    0.000    0.000    0.000    0.000    0.000    0.000 
#
# Total GULP energy -144872.836135 kJ/mol
# GULP energy per Si atom -5572.032159 kJ/mol
# Density = 2.428181 g / cm^3
# Si number density = 24.337207 Si / 1000 Ang^3
#
#
#
# Elastic Constant Matrix: (Units=GPa)
#
#
# Indices 1 2 3 4 5 6 
#
# 1 127.8936 16.7344 69.0977 0.0000 -35.5071 0.0000
# 2 16.7344 27.2019 17.7086 0.0000 1.4230 0.0000
# 3 69.0977 17.7086 165.2380 0.0000 -35.5542 0.0000
# 4 0.0000 0.0000 0.0000 20.8039 0.0000 -3.2688
# 5 -35.5071 1.4230 -35.5542 0.0000 45.3080 0.0000
# 6 0.0000 0.0000 0.0000 -3.2688 0.0000 23.7076
#
#
#
# Elastic Compliance Matrix: (Units=1/GPa)
#
#
# Indices 1 2 3 4 5 6 
#
# 1 0.012250 -0.006080 -0.002845 0.000000 0.007559 0.000000
# 2 -0.006080 0.043706 -0.004166 0.000000 -0.009406 0.000000
# 3 -0.002845 -0.004166 0.008706 0.000000 0.004734 0.000000
# 4 0.000000 0.000000 0.000000 0.049132 0.000000 0.006774
# 5 0.007559 -0.009406 0.004734 0.000000 0.032005 0.000000
# 6 0.000000 0.000000 0.000000 0.006774 0.000000 0.043115
#
#
# Mechanical properties :
#
#
# Convention : Reuss Voigt Hill
#
# Bulk Modulus (GPa) = 25.98560 58.60165 42.29363
# Shear Modulus (GPa) = 21.93740 32.41676 27.17708
#
# Velocity S-wave (km/s) = 3.00558 3.65359 3.34531
# Velocity P-wave (km/s) = 4.76919 6.47531 5.68660
#
# Compressibility (1/GPa) = 0.03848285
#
# Stress axis : x y z
#
# Youngs Moduli (GPa) = 81.63343 22.88009 114.85859
#
# Poissons Ratio (x) = 0.13910 0.32672
# Poissons Ratio (y) = 0.49630 0.47845
# Poissons Ratio (z) = 0.23221 0.09531
#
# Static dielectric constant tensor:
#      x y z
#    x 1.911490 0.000000 -0.032000 
#    y 0.000000 2.106890 0.000000 
#    z -0.032000 0.000000 1.900840 
# 
# From -- ./inp_files/74301.got.cif
#   From: 2010.05.17/outbox.cif.g08.bks.cpg/sg14_38_cif.got.tgz:74301.got - 2010.06.03 17:49:19.
