data_PCOD9242565
_publ_section_title
;
Structure prediction by ZEFSAII (Michael W. Deem and Ramdas Pophale) SiO2 
 PCOD9242565
Probable space group: P 21/C
;
_chemical_formula_sum "Si O2"
_cell_formula_units_Z 32
_cell_length_a 12.122173
_cell_length_b 8.188573
_cell_length_c 23.826699
_cell_angle_alpha 90.000000
_cell_angle_beta 51.391019
_cell_angle_gamma 90.000000
_cell_volume 1848.155837
_symmetry_space_group_name_H-M "P 21/C"
_symmetry_group_IT_number 14
_symmetry_cell_setting 'monoclinic'
loop_
_space_group_symop_operation_xyz
x,y,z
-x,1/2+y,1/2-z
-x,-y,-z
x,1/2-y,1/2+z
loop_
_atom_site_type_symbol
_atom_site_label
_atom_site_fract_x
_atom_site_fract_y
_atom_site_fract_z
Si Si1 0.545884 0.199422 0.438347
Si Si2 0.301303 0.558243 0.011960
Si Si3 0.307619 0.503016 0.207671
Si Si4 0.856214 0.789657 0.788895
Si Si5 0.020920 0.452416 0.161170
Si Si6 0.405357 0.811833 0.366576
Si Si7 0.262633 0.680600 0.791285
Si Si8 0.578271 0.985278 0.857293
O O1 0.619027 0.194597 0.475643
O O2 0.529564 0.374711 0.415355
O O3 0.399112 0.102378 0.488398
O O4 0.648064 0.091594 0.364901
O O5 0.148767 0.525266 0.085207
O O6 0.308236 0.608477 0.945251
O O7 0.192822 0.363470 0.233659
O O8 0.451966 0.419847 0.183062
O O9 0.256307 0.640404 0.266119
O O10 0.925135 0.705339 0.821101
O O11 0.708857 0.886870 0.844139
O O12 0.961597 0.912915 0.723991
O O13 0.890779 0.400526 0.163409
O O14 0.329175 0.808306 0.331364
O O15 0.460085 0.638894 0.373111
O O16 0.358870 0.574885 0.717878
#
# Coordination Sequence:
#
# PCOD9242565 Si02
#       8
#     4   4   4   4   4   4   4   4
#     4   9  18  36  57  82 109 137 180 228 281 315
#     4  10  21  35  55  78 116 148 173 222 279 338
#     4   9  17  35  58  79 105 137 184 236 269 305
#     4  10  20  34  56  83 108 134 184 232 277 321
#     4  11  22  35  54  82 111 148 178 222 282 333
#     4  10  20  35  55  82 110 147 184 223 269 327
#     4  10  20  35  56  79 112 146 183 225 269 325
#     4   9  20  35  58  89 103 138 191 235 273 307
#
# _framework density 17.314556
#
# number of rings (size 3 to 8) (size 9 to 14) (size 15 to 20)
#    0.000    2.250    1.250    1.500    5.250    1.000 
#    0.000    1.250    0.000    1.500    0.000    0.000 
#    0.000    0.000    0.000    0.000    0.000    0.000 
#
# Total GULP energy -178571.860737 kJ/mol
# GULP energy per Si atom -5580.370648 kJ/mol
# Density = 1.727515 g / cm^3
# Si number density = 17.314556 Si / 1000 Ang^3
#
#
#
# Elastic Constant Matrix: (Units=GPa)
#
#
# Indices 1 2 3 4 5 6 
#
# 1 73.7671 20.0015 27.2077 0.0000 2.6414 0.0000
# 2 20.0015 71.9252 7.0205 0.0000 -5.5400 0.0000
# 3 27.2077 7.0205 43.2085 0.0000 -8.5112 0.0000
# 4 0.0000 0.0000 0.0000 19.8344 0.0000 2.9434
# 5 2.6414 -5.5400 -8.5112 0.0000 20.1762 0.0000
# 6 0.0000 0.0000 0.0000 2.9434 0.0000 12.9391
#
#
#
# Elastic Compliance Matrix: (Units=1/GPa)
#
#
# Indices 1 2 3 4 5 6 
#
# 1 0.020470 -0.005093 -0.014032 0.000000 -0.009998 0.000000
# 2 -0.005093 0.015583 0.001799 0.000000 0.005704 0.000000
# 3 -0.014032 0.001799 0.035059 0.000000 0.017120 0.000000
# 4 0.000000 0.000000 0.000000 0.052179 0.000000 -0.011870
# 5 -0.009998 0.005704 0.017120 0.000000 0.059661 0.000000
# 6 0.000000 0.000000 0.000000 -0.011870 0.000000 0.079985
#
#
# Mechanical properties :
#
#
# Convention : Reuss Voigt Hill
#
# Bulk Modulus (GPa) = 27.42656 33.04002 30.23329
# Shear Modulus (GPa) = 16.14238 19.56802 17.85520
#
# Velocity S-wave (km/s) = 3.05667 3.36542 3.21475
# Velocity P-wave (km/s) = 5.32280 5.85021 5.59273
#
# Compressibility (1/GPa) = 0.03646100
#
# Stress axis : x y z
#
# Youngs Moduli (GPa) = 48.85086 64.17066 28.52311
#
# Poissons Ratio (x) = 0.32682 0.40023
# Poissons Ratio (y) = 0.24880 -0.05130
# Poissons Ratio (z) = 0.68546 -0.11542
#
# Static dielectric constant tensor:
#      x y z
#    x 1.573460 0.000000 -0.004810 
#    y 0.000000 1.596040 0.000000 
#    z -0.004810 0.000000 1.569260 
# 
# From -- ./inp_files/72979.got.cif
#   From: 2010.05.17/outbox.cif.g08.bks.cpg/sg14_37_cif.got.tgz:72979.got - 2010.06.03 17:49:19.
