data_PCOD9242418
_publ_section_title
;
Structure prediction by ZEFSAII (Michael W. Deem and Ramdas Pophale) SiO2 
 PCOD9242418
Probable space group: P 21/C
;
_chemical_formula_sum "Si O2"
_cell_formula_units_Z 24
_cell_length_a 19.936041
_cell_length_b 6.322256
_cell_length_c 18.771239
_cell_angle_alpha 90.000000
_cell_angle_beta 20.536023
_cell_angle_gamma 90.000000
_cell_volume 829.963198
_symmetry_space_group_name_H-M "P 21/C"
_symmetry_group_IT_number 14
_symmetry_cell_setting 'monoclinic'
loop_
_space_group_symop_operation_xyz
x,y,z
-x,1/2+y,1/2-z
-x,-y,-z
x,1/2-y,1/2+z
loop_
_atom_site_type_symbol
_atom_site_label
_atom_site_fract_x
_atom_site_fract_y
_atom_site_fract_z
Si Si1 0.886888 0.885550 0.929439
Si Si2 0.708813 0.337212 0.774367
Si Si3 0.916835 0.710126 0.658111
Si Si4 0.441327 0.292291 0.159830
Si Si5 0.290551 0.656373 0.975839
Si Si6 0.645536 0.667681 0.542329
O O1 0.733339 0.960050 0.023008
O O2 0.066467 0.796044 0.707946
O O3 0.768038 0.734376 0.101772
O O4 0.972833 0.065122 0.893883
O O5 0.800142 0.540186 0.726392
O O6 0.595251 0.459057 0.824352
O O7 0.896530 0.202358 0.568627
O O8 0.554263 0.221087 0.977424
O O9 0.768502 0.856578 0.848201
O O10 0.587218 0.250569 0.079129
O O11 0.417494 0.657958 0.777842
O O12 0.302546 0.405931 0.984625
#
# Coordination Sequence:
#
# PCOD9242418 Si02
#       6
#     4   4   4   4   4   4
#     4   9  18  30  46  69 105 136 167 205 252 317
#     4   9  15  27  51  74 107 128 166 228 267 300
#     4   9  17  31  48  78 106 132 173 217 267 301
#     4   9  16  28  48  75 101 131 164 214 274 298
#     4  10  20  35  51  76 109 137 175 216 256 318
#     4  10  20  33  50  75 109 141 171 210 259 313
#
# _framework density 28.916948000000001
#
# number of rings (size 3 to 8) (size 9 to 14) (size 15 to 20)
#    0.000    2.667    3.333    0.000    0.000    6.667 
#    0.000    0.000    0.000    0.000    0.000   23.333 
#    0.000    0.167    0.000    0.000    0.000    0.000 
#
# Total GULP energy -134058.979140 kJ/mol
# GULP energy per Si atom -5585.790797 kJ/mol
# Density = 2.885113 g / cm^3
# Si number density = 28.916948 Si / 1000 Ang^3
#
#
#
# Elastic Constant Matrix: (Units=GPa)
#
#
# Indices 1 2 3 4 5 6 
#
# 1 137.9680 31.2157 34.4163 0.0000 -8.0470 0.0000
# 2 31.2157 32.0406 41.9529 0.0000 -1.6398 0.0000
# 3 34.4163 41.9529 358.0577 0.0000 7.3244 0.0000
# 4 0.0000 0.0000 0.0000 32.4272 0.0000 -1.3660
# 5 -8.0470 -1.6398 7.3244 0.0000 40.3220 0.0000
# 6 0.0000 0.0000 0.0000 -1.3660 0.0000 46.5746
#
#
#
# Elastic Compliance Matrix: (Units=1/GPa)
#
#
# Indices 1 2 3 4 5 6 
#
# 1 0.009395 -0.009280 0.000154 0.000000 0.001470 0.000000
# 2 -0.009280 0.046244 -0.004544 0.000000 0.000854 0.000000
# 3 0.000154 -0.004544 0.003326 0.000000 -0.000758 0.000000
# 4 0.000000 0.000000 0.000000 0.030876 0.000000 0.000906
# 5 0.001470 0.000854 -0.000758 0.000000 0.025266 0.000000
# 6 0.000000 0.000000 0.000000 0.000906 0.000000 0.021497
#
#
# Mechanical properties :
#
#
# Convention : Reuss Voigt Hill
#
# Bulk Modulus (GPa) = 31.61905 82.58178 57.10041
# Shear Modulus (GPa) = 28.65560 51.89686 40.27623
#
# Velocity S-wave (km/s) = 3.15137 4.24097 3.73610
# Velocity P-wave (km/s) = 4.91932 7.25268 6.19682
#
# Compressibility (1/GPa) = 0.03162650
#
# Stress axis : x y z
#
# Youngs Moduli (GPa) = 106.44123 21.62425 300.66758
#
# Poissons Ratio (x) = 0.20067 -0.04636
# Poissons Ratio (y) = 0.98774 1.36620
# Poissons Ratio (z) = -0.01641 0.09826
#
# Static dielectric constant tensor:
#      x y z
#    x 2.243110 0.000000 0.051970 
#    y 0.000000 2.723660 0.000000 
#    z 0.051970 0.000000 2.260810 
# 
# From -- ./inp_files/70125.got.cif
#   From: 2010.05.17/outbox.cif.g08.bks.cpg/sg14_36_cif.got.tgz:70125.got - 2010.06.03 17:49:19.
