data_PCOD9242879
_publ_section_title
;
Structure prediction by ZEFSAII (Michael W. Deem and Ramdas Pophale) SiO2 
 PCOD9242879
Probable space group: P 21/C
;
_chemical_formula_sum "Si O2"
_cell_formula_units_Z 32
_cell_length_a 9.794528
_cell_length_b 18.266008
_cell_length_c 8.150201
_cell_angle_alpha 90.000000
_cell_angle_beta 82.897919
_cell_angle_gamma 90.000000
_cell_volume 1446.939855
_symmetry_space_group_name_H-M "P 21/C"
_symmetry_group_IT_number 14
_symmetry_cell_setting 'monoclinic'
loop_
_space_group_symop_operation_xyz
x,y,z
-x,1/2+y,1/2-z
-x,-y,-z
x,1/2-y,1/2+z
loop_
_atom_site_type_symbol
_atom_site_label
_atom_site_fract_x
_atom_site_fract_y
_atom_site_fract_z
Si Si1 0.095436 0.602619 0.977901
Si Si2 0.414055 0.151932 0.595989
Si Si3 0.179653 0.940953 0.103225
Si Si4 0.331147 0.195209 0.977348
Si Si5 0.309058 0.696917 0.086821
Si Si6 0.821012 0.949994 0.387711
Si Si7 0.905043 0.592587 0.503161
Si Si8 0.395102 0.651399 0.435548
O O1 0.155215 0.591168 0.786334
O O2 0.931745 0.595248 0.980076
O O3 0.158598 0.674729 0.048213
O O4 0.150466 0.533974 0.075308
O O5 0.380324 0.172372 0.788621
O O6 0.349636 0.218884 0.501359
O O7 0.576120 0.154752 0.539796
O O8 0.333070 0.078416 0.562900
O O9 0.068718 0.903416 0.996223
O O10 0.329411 0.922750 0.012572
O O11 0.140753 0.026358 0.107130
O O12 0.178237 0.165230 0.025975
O O13 0.440560 0.155956 0.081324
O O14 0.340220 0.671304 0.265091
O O15 0.340676 0.782368 0.058993
O O16 0.857673 0.933280 0.192770
#
# Coordination Sequence:
#
# PCOD9242879 Si02
#       8
#     4   4   4   4   4   4   4   4
#     4  10  20  36  57  81 109 141 178 220 266 315
#     4  10  20  36  56  79 108 139 176 220 266 316
#     4  10  20  36  57  81 109 141 178 220 266 315
#     4  10  20  36  56  79 108 139 176 220 266 316
#     4  11  22  37  56  79 108 141 179 220 265 316
#     4   9  20  37  56  80 109 141 178 220 265 316
#     4   9  20  37  56  80 109 141 178 220 265 316
#     4  11  22  37  56  79 108 141 179 220 265 316
#
# _framework density 22.115639999999999
#
# number of rings (size 3 to 8) (size 9 to 14) (size 15 to 20)
#    0.000    2.000    0.000    5.250    0.000    5.000 
#    0.000    2.500    0.000    0.000    0.000    0.000 
#    0.000    0.000    0.000    0.000    0.000    0.000 
#
# Total GULP energy -178845.439734 kJ/mol
# GULP energy per Si atom -5588.919992 kJ/mol
# Density = 2.206530 g / cm^3
# Si number density = 22.115640 Si / 1000 Ang^3
#
#
#
# Elastic Constant Matrix: (Units=GPa)
#
#
# Indices 1 2 3 4 5 6 
#
# 1 42.2397 14.8825 -0.5629 0.0000 1.6515 0.0000
# 2 14.8825 16.6424 -3.1973 0.0000 8.2960 0.0000
# 3 -0.5629 -3.1973 58.6460 0.0000 15.5488 0.0000
# 4 0.0000 0.0000 0.0000 22.8780 0.0000 0.8788
# 5 1.6515 8.2960 15.5488 0.0000 24.7543 0.0000
# 6 0.0000 0.0000 0.0000 0.8788 0.0000 41.7309
#
#
#
# Elastic Compliance Matrix: (Units=1/GPa)
#
#
# Indices 1 2 3 4 5 6 
#
# 1 0.038213 -0.043254 -0.006190 0.000000 0.015834 0.000000
# 2 -0.043254 0.129503 0.020861 0.000000 -0.053619 0.000000
# 3 -0.006190 0.020861 0.023844 0.000000 -0.021556 0.000000
# 4 0.000000 0.000000 0.000000 0.043746 0.000000 -0.000921
# 5 0.015834 -0.053619 -0.021556 0.000000 0.070850 0.000000
# 6 0.000000 0.000000 0.000000 -0.000921 0.000000 0.023982
#
#
# Mechanical properties :
#
#
# Convention : Reuss Voigt Hill
#
# Bulk Modulus (GPa) = 7.44072 15.53030 11.48551
# Shear Modulus (GPa) = 11.57137 24.96636 18.26886
#
# Velocity S-wave (km/s) = 2.28988 3.36356 2.87725
# Velocity P-wave (km/s) = 3.21919 4.70343 4.03023
#
# Compressibility (1/GPa) = 0.13439551
#
# Stress axis : x y z
#
# Youngs Moduli (GPa) = 26.16938 7.72182 41.93856
#
# Poissons Ratio (x) = 0.33400 0.25958
# Poissons Ratio (y) = 1.13193 -0.87488
# Poissons Ratio (z) = 0.16198 -0.16109
#
# Static dielectric constant tensor:
#      x y z
#    x 1.807730 0.000000 0.004900 
#    y 0.000000 1.779720 0.000000 
#    z 0.004900 0.000000 1.820250 
# 
# From -- ./inp_files/10219.got.cif
#   From: 2010.05.17/outbox.cif.g08.bks.cpg/sg14_6_cif.got.tgz:10219.got - 2010.06.03 17:49:19.
