data_PCOD9242261
_publ_section_title
;
Structure prediction by ZEFSAII (Michael W. Deem and Ramdas Pophale) SiO2 
 PCOD9242261
Probable space group: P 21/C
;
_chemical_formula_sum "Si O2"
_cell_formula_units_Z 32
_cell_length_a 8.092825
_cell_length_b 14.794281
_cell_length_c 10.713595
_cell_angle_alpha 90.000000
_cell_angle_beta 75.928803
_cell_angle_gamma 90.000000
_cell_volume 1244.223634
_symmetry_space_group_name_H-M "P 21/C"
_symmetry_group_IT_number 14
_symmetry_cell_setting 'monoclinic'
loop_
_space_group_symop_operation_xyz
x,y,z
-x,1/2+y,1/2-z
-x,-y,-z
x,1/2-y,1/2+z
loop_
_atom_site_type_symbol
_atom_site_label
_atom_site_fract_x
_atom_site_fract_y
_atom_site_fract_z
Si Si1 0.370589 0.872240 0.770520
Si Si2 0.539913 0.815014 0.510136
Si Si3 0.235009 0.029807 0.643710
Si Si4 0.990176 0.275764 0.621840
Si Si5 0.702023 0.058753 0.836931
Si Si6 0.599970 0.883463 0.965080
Si Si7 0.025493 0.164171 0.846957
Si Si8 0.800821 0.392793 0.050900
O O1 0.489049 0.808467 0.664294
O O2 0.183966 0.830524 0.819015
O O3 0.455239 0.891377 0.885087
O O4 0.360990 0.963726 0.693392
O O5 0.662546 0.897411 0.455201
O O6 0.632567 0.722784 0.456238
O O7 0.361830 0.835154 0.470557
O O8 0.123973 0.081232 0.765737
O O9 0.141058 0.961137 0.567156
O O10 0.056720 0.249818 0.748854
O O11 0.069632 0.323792 0.484152
O O12 0.939875 0.178374 0.571578
O O13 0.827276 0.135587 0.869450
O O14 0.742592 0.053421 0.683901
O O15 0.728571 0.962448 0.900973
O O16 0.507363 0.090147 0.893172
#
# Coordination Sequence:
#
# PCOD9242261 Si02
#       8
#     4   4   4   4   4   4   4   4
#     4  11  21  42  68  90 126 168 218 271 331 387
#     4  11  21  39  62  96 125 164 217 272 328 386
#     4  11  25  41  63  94 136 173 212 268 332 395
#     4  11  22  43  73  93 127 177 223 270 317 403
#     4  10  21  38  63  92 130 163 213 267 327 384
#     4  11  21  37  62  98 122 161 218 280 325 370
#     4  11  24  46  63 100 132 178 222 255 331 400
#     4  10  19  41  67  90 120 173 215 263 322 392
#
# _framework density 25.718848000000001
#
# number of rings (size 3 to 8) (size 9 to 14) (size 15 to 20)
#    0.000    1.250    2.500    6.000    0.000    2.500 
#    9.000    0.000    0.000    0.000    0.000    0.000 
#    0.000    0.000    0.000    0.000    0.000    0.000 
#
# Total GULP energy -179171.066978 kJ/mol
# GULP energy per Si atom -5599.095843 kJ/mol
# Density = 2.566031 g / cm^3
# Si number density = 25.718848 Si / 1000 Ang^3
#
#
#
# Elastic Constant Matrix: (Units=GPa)
#
#
# Indices 1 2 3 4 5 6 
#
# 1 36.0081 3.6652 7.5783 0.0000 1.8356 0.0000
# 2 3.6652 128.3989 49.7630 0.0000 -3.7295 0.0000
# 3 7.5783 49.7630 142.6631 0.0000 -19.2888 0.0000
# 4 0.0000 0.0000 0.0000 46.9753 0.0000 -11.4230
# 5 1.8356 -3.7295 -19.2888 0.0000 32.1301 0.0000
# 6 0.0000 0.0000 0.0000 -11.4230 0.0000 22.9173
#
#
#
# Elastic Compliance Matrix: (Units=1/GPa)
#
#
# Indices 1 2 3 4 5 6 
#
# 1 0.028310 -0.000187 -0.001807 0.000000 -0.002724 0.000000
# 2 -0.000187 0.009032 -0.003262 0.000000 -0.000899 0.000000
# 3 -0.001807 -0.003262 0.008931 0.000000 0.005086 0.000000
# 4 0.000000 0.000000 0.000000 0.024224 0.000000 0.012074
# 5 -0.002724 -0.000899 0.005086 0.000000 0.034228 0.000000
# 6 0.000000 0.000000 0.000000 0.012074 0.000000 0.049654
#
#
# Mechanical properties :
#
#
# Convention : Reuss Voigt Hill
#
# Bulk Modulus (GPa) = 27.96370 47.67591 37.81981
# Shear Modulus (GPa) = 28.27895 36.80877 32.54386
#
# Velocity S-wave (km/s) = 3.31953 3.78722 3.56106
# Velocity P-wave (km/s) = 5.05854 6.14017 5.62541
#
# Compressibility (1/GPa) = 0.03576065
#
# Stress axis : x y z
#
# Youngs Moduli (GPa) = 35.32362 110.72106 111.96915
#
# Poissons Ratio (x) = 0.02070 0.20231
# Poissons Ratio (y) = 0.00660 0.36525
# Poissons Ratio (z) = 0.06383 0.36118
#
# Static dielectric constant tensor:
#      x y z
#    x 2.110210 0.000000 -0.020850 
#    y 0.000000 2.056160 0.000000 
#    z -0.020850 0.000000 2.022000 
# 
# From -- ./inp_files/29813.got.cif
#   From: 2010.05.17/outbox.cif.g08.bks.cpg/sg14_15_cif.got.tgz:29813.got - 2010.06.03 17:49:19.
