data_PCOD9242336
_publ_section_title
;
Structure prediction by ZEFSAII (Michael W. Deem and Ramdas Pophale) SiO2 
 PCOD9242336
Probable space group: P 21/C
;
_chemical_formula_sum "Si O2"
_cell_formula_units_Z 28
_cell_length_a 14.450063
_cell_length_b 13.001363
_cell_length_c 11.480502
_cell_angle_alpha 90.000000
_cell_angle_beta 152.395352
_cell_angle_gamma 90.000000
_cell_volume 999.414097
_symmetry_space_group_name_H-M "P 21/C"
_symmetry_group_IT_number 14
_symmetry_cell_setting 'monoclinic'
loop_
_space_group_symop_operation_xyz
x,y,z
-x,1/2+y,1/2-z
-x,-y,-z
x,1/2-y,1/2+z
loop_
_atom_site_type_symbol
_atom_site_label
_atom_site_fract_x
_atom_site_fract_y
_atom_site_fract_z
Si Si1 0.922374 0.876725 0.014295
Si Si2 0.653107 0.494697 0.346013
Si Si3 0.665744 0.367521 0.144688
Si Si4 0.860968 0.637488 0.984154
Si Si5 0.220379 0.294239 0.867159
Si Si6 0.469099 0.393934 0.579304
Si Si7 0.836889 0.158908 0.358748
O O1 0.863873 0.951647 0.052230
O O2 0.916404 0.759960 0.052305
O O3 0.765770 0.863873 0.733055
O O4 0.127077 0.905111 0.180781
O O5 0.662408 0.392101 0.279321
O O6 0.589879 0.509036 0.407456
O O7 0.501673 0.571272 0.109867
O O8 0.679469 0.245790 0.139819
O O9 0.674152 0.613544 0.692928
O O10 0.804103 0.627075 0.054558
O O11 0.054649 0.599978 0.126854
O O12 0.019259 0.224826 0.619844
O O13 0.398286 0.210089 0.069582
O O14 0.700921 0.397619 0.801884
#
# Coordination Sequence:
#
# PCOD9242336 Si02
#       7
#     4   4   4   4   4   4   4
#     4   9  18  32  50  71 102 130 165 204 263 295
#     4  11  19  31  51  77 106 131 166 210 256 312
#     4   9  20  32  48  74 107 135 165 204 259 313
#     4   9  18  32  47  73 101 126 169 215 247 301
#     4   9  18  32  49  71 101 128 166 219 243 305
#     4  10  20  29  51  76 102 134 170 213 255 293
#     4   9  20  32  48  74 102 136 166 205 261 298
#
# _framework density 28.016413
#
# number of rings (size 3 to 8) (size 9 to 14) (size 15 to 20)
#    0.000    3.143    1.429    2.143    4.000    0.000 
#    0.000    0.000    0.000    3.429    0.000   13.000 
#    0.000    0.000    0.000    0.000    0.000    0.000 
#
# Total GULP energy -156598.321906 kJ/mol
# GULP energy per Si atom -5592.797211 kJ/mol
# Density = 2.795265 g / cm^3
# Si number density = 28.016413 Si / 1000 Ang^3
#
#
#
# Elastic Constant Matrix: (Units=GPa)
#
#
# Indices 1 2 3 4 5 6 
#
# 1 169.4957 19.4356 44.1154 0.0000 20.7195 0.0000
# 2 19.4356 67.1752 18.3250 0.0000 12.1856 0.0000
# 3 44.1154 18.3250 63.4390 0.0000 20.6907 0.0000
# 4 0.0000 0.0000 0.0000 32.1171 0.0000 9.5993
# 5 20.7195 12.1856 20.6907 0.0000 49.0548 0.0000
# 6 0.0000 0.0000 0.0000 9.5993 0.0000 42.8048
#
#
#
# Elastic Compliance Matrix: (Units=1/GPa)
#
#
# Indices 1 2 3 4 5 6 
#
# 1 0.007282 -0.000688 -0.004543 0.000000 -0.000989 0.000000
# 2 -0.000688 0.016466 -0.003523 0.000000 -0.002314 0.000000
# 3 -0.004543 -0.003523 0.022064 0.000000 -0.006512 0.000000
# 4 0.000000 0.000000 0.000000 0.033373 0.000000 -0.007484
# 5 -0.000989 -0.002314 -0.006512 0.000000 0.024125 0.000000
# 6 0.000000 0.000000 0.000000 -0.007484 0.000000 0.025040
#
#
# Mechanical properties :
#
#
# Convention : Reuss Voigt Hill
#
# Bulk Modulus (GPa) = 35.33081 51.54023 43.43552
# Shear Modulus (GPa) = 32.19725 39.34427 35.77076
#
# Velocity S-wave (km/s) = 3.39370 3.75150 3.57708
# Velocity P-wave (km/s) = 5.29098 6.09930 5.70946
#
# Compressibility (1/GPa) = 0.02830391
#
# Stress axis : x y z
#
# Youngs Moduli (GPa) = 137.32565 60.72973 45.32309
#
# Poissons Ratio (x) = 0.04180 0.20588
# Poissons Ratio (y) = 0.09452 0.15968
# Poissons Ratio (z) = 0.62381 0.21397
#
# Static dielectric constant tensor:
#      x y z
#    x 2.261640 0.000000 -0.025350 
#    y 0.000000 2.290370 0.000000 
#    z -0.025350 0.000000 2.234680 
# 
# From -- ./inp_files/33108.got.cif
#   From: 2010.05.17/outbox.cif.g08.bks.cpg/sg14_17_cif.got.tgz:33108.got - 2010.06.03 17:49:19.
