data_PCOD9242617
_publ_section_title
;
Structure prediction by ZEFSAII (Michael W. Deem and Ramdas Pophale) SiO2 
 PCOD9242617
Probable space group: P 21/C
;
_chemical_formula_sum "Si O2"
_cell_formula_units_Z 30
_cell_length_a 20.541784
_cell_length_b 8.422296
_cell_length_c 18.097012
_cell_angle_alpha 90.000000
_cell_angle_beta 27.236739
_cell_angle_gamma 90.000000
_cell_volume 1432.934091
_symmetry_space_group_name_H-M "P 21/C"
_symmetry_group_IT_number 14
_symmetry_cell_setting 'monoclinic'
loop_
_space_group_symop_operation_xyz
x,y,z
-x,1/2+y,1/2-z
-x,-y,-z
x,1/2-y,1/2+z
loop_
_atom_site_type_symbol
_atom_site_label
_atom_site_fract_x
_atom_site_fract_y
_atom_site_fract_z
Si Si1 0.824476 0.758626 0.458879
Si Si2 0.123462 0.191334 0.426826
Si Si3 0.874382 0.379935 0.885121
Si Si4 0.206704 0.615278 0.756326
Si Si5 0.189866 0.672925 0.413137
Si Si6 0.000000 0.000000 0.000000
Si Si7 0.378409 0.716465 0.446955
Si Si8 0.406544 0.020199 0.795815
O O1 0.805598 0.782200 0.565921
O O2 0.698544 0.646664 0.559130
O O3 0.968143 0.662748 0.298598
O O4 0.839932 0.935147 0.411932
O O5 0.955093 0.147330 0.609615
O O6 0.111783 0.351353 0.391754
O O7 0.197597 0.051945 0.306645
O O8 0.856509 0.317768 0.987255
O O9 0.764549 0.276448 0.948898
O O10 0.231827 0.753435 0.791508
O O11 0.324616 0.630301 0.574666
O O12 0.313417 0.578171 0.330614
O O13 0.058637 0.561074 0.523046
O O14 0.472485 0.873218 0.363222
O O15 0.455140 0.598303 0.311735
#
# Coordination Sequence:
#
# PCOD9242617 Si02
#       8
#     4   4   4   4   4   2   4   4
#     4  12  22  39  64  97 126 170 216 277 320 398
#     4  10  20  37  62  97 130 167 205 278 318 396
#     4  11  23  38  66  95 132 168 224 264 336 385
#     4  10  21  39  65  93 135 169 214 263 345 383
#     4  10  21  38  64  96 131 170 210 281 322 400
#     4  10  20  34  60  92 134 164 206 256 338 376
#     4  11  24  46  65  95 128 182 217 277 323 405
#     4  11  25  43  67  91 133 172 230 269 332 387
#
# _framework density 20.936066
#
# number of rings (size 3 to 8) (size 9 to 14) (size 15 to 20)
#    0.000    1.333    4.000    2.400    0.000    0.533 
#    0.000    2.000    0.000    0.000    0.000    0.000 
#    0.000    0.000    0.000    0.000    0.000    0.000 
#
# Total GULP energy -167053.848632 kJ/mol
# GULP energy per Si atom -5568.461621 kJ/mol
# Density = 2.088842 g / cm^3
# Si number density = 20.936066 Si / 1000 Ang^3
#
#
#
# Elastic Constant Matrix: (Units=GPa)
#
#
# Indices 1 2 3 4 5 6 
#
# 1 37.5497 -2.4215 7.2068 0.0000 12.3994 0.0000
# 2 -2.4215 78.1874 14.7183 0.0000 5.8068 0.0000
# 3 7.2068 14.7183 61.8907 0.0000 2.6395 0.0000
# 4 0.0000 0.0000 0.0000 33.8182 0.0000 -3.8092
# 5 12.3994 5.8068 2.6395 0.0000 16.4847 0.0000
# 6 0.0000 0.0000 0.0000 -3.8092 0.0000 33.1197
#
#
#
# Elastic Compliance Matrix: (Units=1/GPa)
#
#
# Indices 1 2 3 4 5 6 
#
# 1 0.037158 0.004049 -0.004065 0.000000 -0.028725 0.000000
# 2 0.004049 0.014131 -0.003514 0.000000 -0.007461 0.000000
# 3 -0.004065 -0.003514 0.017402 0.000000 0.001509 0.000000
# 4 0.000000 0.000000 0.000000 0.029958 0.000000 0.003446
# 5 -0.028725 -0.007461 0.001509 0.000000 0.084655 0.000000
# 6 0.000000 0.000000 0.000000 0.003446 0.000000 0.030590
#
#
# Mechanical properties :
#
#
# Convention : Reuss Voigt Hill
#
# Bulk Modulus (GPa) = 16.22525 24.07056 20.14791
# Shear Modulus (GPa) = 20.70429 27.22616 23.96523
#
# Velocity S-wave (km/s) = 3.14814 3.61008 3.38699
# Velocity P-wave (km/s) = 4.58051 5.37578 4.99400
#
# Compressibility (1/GPa) = 0.06163232
#
# Stress axis : x y z
#
# Youngs Moduli (GPa) = 26.91216 70.76775 57.46436
#
# Poissons Ratio (x) = -0.28656 0.23358
# Poissons Ratio (y) = -0.10898 0.20192
# Poissons Ratio (z) = 0.10939 0.24866
#
# Static dielectric constant tensor:
#      x y z
#    x 1.750730 0.000000 -0.010510 
#    y 0.000000 1.808940 0.000000 
#    z -0.010510 0.000000 1.754360 
# 
# From -- ./inp_files/61134.got.cif
#   From: 2010.05.17/outbox.cif.g08.bks.cpg/sg14_31_cif.got.tgz:61134.got - 2010.06.03 17:49:19.
