data_PCOD9242542
_publ_section_title
;
Structure prediction by ZEFSAII (Michael W. Deem and Ramdas Pophale) SiO2 
 PCOD9242542
Probable space group: P 21/C
;
_chemical_formula_sum "Si O2"
_cell_formula_units_Z 32
_cell_length_a 21.121099
_cell_length_b 14.882165
_cell_length_c 8.894740
_cell_angle_alpha 90.000000
_cell_angle_beta 142.537650
_cell_angle_gamma 90.000000
_cell_volume 1700.555628
_symmetry_space_group_name_H-M "P 21/C"
_symmetry_group_IT_number 14
_symmetry_cell_setting 'monoclinic'
loop_
_space_group_symop_operation_xyz
x,y,z
-x,1/2+y,1/2-z
-x,-y,-z
x,1/2-y,1/2+z
loop_
_atom_site_type_symbol
_atom_site_label
_atom_site_fract_x
_atom_site_fract_y
_atom_site_fract_z
Si Si1 0.922750 0.500958 0.083188
Si Si2 0.748455 0.864350 0.294204
Si Si3 0.276544 0.836613 0.071480
Si Si4 0.147709 0.005565 0.902409
Si Si5 0.279265 0.324454 0.607131
Si Si6 0.591405 0.026594 0.060757
Si Si7 0.506313 0.402192 0.087423
Si Si8 0.224834 0.848762 0.618462
O O1 0.856776 0.583322 0.025441
O O2 0.889063 0.501859 0.842459
O O3 0.878405 0.410279 0.075817
O O4 0.046593 0.507973 0.314533
O O5 0.739058 0.776643 0.376670
O O6 0.656330 0.937184 0.140977
O O7 0.739994 0.833380 0.106272
O O8 0.401545 0.844116 0.315033
O O9 0.225545 0.748549 0.046261
O O10 0.250728 0.840079 0.845066
O O11 0.229732 0.924590 0.064048
O O12 0.202665 0.100832 0.034682
O O13 0.396585 0.353503 0.867093
O O14 0.681562 0.095201 0.283157
O O15 0.500000 0.000000 0.000000
O O16 0.539820 0.074941 0.820202
O O17 0.500000 0.500000 0.000000
#
# Coordination Sequence:
#
# PCOD9242542 Si02
#       8
#     4   4   4   4   4   4   4   4
#     4   8  17  37  58  75 107 144 181 230 269 326
#     4  10  22  37  55  82 114 143 188 229 276 329
#     4  10  20  34  55  80 108 140 182 218 269 323
#     4   9  17  35  59  78 103 147 185 218 278 328
#     4  11  22  36  56  85 112 147 186 226 274 333
#     4  10  22  38  54  79 111 152 185 220 271 327
#     4  11  20  37  55  76 114 147 179 221 264 324
#     4   9  20  36  53  81 107 138 182 224 267 321
#
# _framework density 18.81738
#
# number of rings (size 3 to 8) (size 9 to 14) (size 15 to 20)
#    0.000    2.250    2.500    1.500    3.500    3.000 
#    0.000    0.000    0.000    1.500    0.000    0.000 
#    0.000    0.000    0.000    0.000    0.000    0.000 
#
# Total GULP energy -178469.759120 kJ/mol
# GULP energy per Si atom -5577.179972 kJ/mol
# Density = 1.877455 g / cm^3
# Si number density = 18.817380 Si / 1000 Ang^3
#
#
#
# Elastic Constant Matrix: (Units=GPa)
#
#
# Indices 1 2 3 4 5 6 
#
# 1 52.4125 0.3928 11.3054 0.0000 21.8788 0.0000
# 2 0.3928 76.3937 -0.4284 0.0000 1.0699 0.0000
# 3 11.3054 -0.4284 30.4960 0.0000 20.9297 0.0000
# 4 0.0000 0.0000 0.0000 14.3727 0.0000 -6.6113
# 5 21.8788 1.0699 20.9297 0.0000 23.4662 0.0000
# 6 0.0000 0.0000 0.0000 -6.6113 0.0000 36.4766
#
#
#
# Elastic Compliance Matrix: (Units=1/GPa)
#
#
# Indices 1 2 3 4 5 6 
#
# 1 0.038044 0.000781 0.026491 0.000000 -0.059134 0.000000
# 2 0.000781 0.013142 0.002078 0.000000 -0.003181 0.000000
# 3 0.026491 0.002078 0.103167 0.000000 -0.116809 0.000000
# 4 0.000000 0.000000 0.000000 0.075904 0.000000 0.013758
# 5 -0.059134 -0.003181 -0.116809 0.000000 0.202076 0.000000
# 6 0.000000 0.000000 0.000000 0.013758 0.000000 0.029908
#
#
# Mechanical properties :
#
#
# Convention : Reuss Voigt Hill
#
# Bulk Modulus (GPa) = 4.69364 20.20466 12.44915
# Shear Modulus (GPa) = 10.53612 24.73194 17.63403
#
# Velocity S-wave (km/s) = 2.36882 3.62928 3.06455
# Velocity P-wave (km/s) = 3.15934 5.32191 4.37631
#
# Compressibility (1/GPa) = 0.21305410
#
# Stress axis : x y z
#
# Youngs Moduli (GPa) = 26.28557 76.09033 9.69305
#
# Poissons Ratio (x) = -0.05944 -0.25678
# Poissons Ratio (y) = -0.02053 -0.02014
# Poissons Ratio (z) = -0.69634 -0.15814
#
# Static dielectric constant tensor:
#      x y z
#    x 1.672830 0.000000 -0.012590 
#    y 0.000000 1.669150 0.000000 
#    z -0.012590 0.000000 1.678700 
# 
# From -- ./inp_files/19075.got.cif
#   From: 2010.05.17/outbox.cif.g08.bks.cpg/sg14_10_cif.got.tgz:19075.got - 2010.06.03 17:49:19.
