data_PCOD9242383
_publ_section_title
;
Structure prediction by ZEFSAII (Michael W. Deem and Ramdas Pophale) SiO2 
 PCOD9242383
Probable space group: P 21/C
;
_chemical_formula_sum "Si O2"
_cell_formula_units_Z 26
_cell_length_a 27.464926
_cell_length_b 6.626856
_cell_length_c 9.316127
_cell_angle_alpha 90.000000
_cell_angle_beta 35.917722
_cell_angle_gamma 90.000000
_cell_volume 994.673082
_symmetry_space_group_name_H-M "P 21/C"
_symmetry_group_IT_number 14
_symmetry_cell_setting 'monoclinic'
loop_
_space_group_symop_operation_xyz
x,y,z
-x,1/2+y,1/2-z
-x,-y,-z
x,1/2-y,1/2+z
loop_
_atom_site_type_symbol
_atom_site_label
_atom_site_fract_x
_atom_site_fract_y
_atom_site_fract_z
Si Si1 0.000000 0.500000 0.500000
Si Si2 0.153992 0.449373 0.341447
Si Si3 0.217730 0.567214 0.468044
Si Si4 0.136469 0.980319 0.455975
Si Si5 0.602718 0.037856 0.428376
Si Si6 0.278059 0.093631 0.320806
Si Si7 0.573932 0.711297 0.712596
O O1 0.910988 0.503108 0.627425
O O2 0.950921 0.429247 0.765196
O O3 0.160399 0.589520 0.465083
O O4 0.130414 0.224285 0.445871
O O5 0.247444 0.455374 0.053345
O O6 0.160230 0.600422 0.742544
O O7 0.246232 0.329114 0.388116
O O8 0.309907 0.653957 0.275645
O O9 0.218523 0.967722 0.357911
O O10 0.588434 0.936928 0.618928
O O11 0.601870 0.864635 0.303550
O O12 0.522660 0.166611 0.578385
O O13 0.368697 0.085105 0.035922
#
# Coordination Sequence:
#
# PCOD9242383 Si02
#       7
#     2   4   4   4   4   4   4
#     4  10  20  32  52  80 102 136 160 222 286 318
#     4   9  18  31  52  79 104 130 180 221 268 313
#     4   9  16  29  50  77 101 136 174 229 264 318
#     4   9  16  31  52  77 104 129 176 223 267 314
#     4  10  21  34  55  83 116 147 188 231 279 322
#     4   8  15  29  50  75 103 133 173 226 267 312
#     4  10  20  35  53  84 114 149 186 234 273 326
#
# _framework density 26.139243
#
# number of rings (size 3 to 8) (size 9 to 14) (size 15 to 20)
#    0.000    2.769    1.538    0.923    6.462    1.231 
#    0.000    0.000    0.000    7.385    0.000    0.000 
#    0.000    0.000    0.000    0.000    0.000    0.000 
#
# Total GULP energy -144808.875297 kJ/mol
# GULP energy per Si atom -5569.572127 kJ/mol
# Density = 2.607975 g / cm^3
# Si number density = 26.139243 Si / 1000 Ang^3
#
#
#
# Elastic Constant Matrix: (Units=GPa)
#
#
# Indices 1 2 3 4 5 6 
#
# 1 133.0839 -9.8990 36.5709 0.0000 -12.8762 0.0000
# 2 -9.8990 41.2885 -9.5686 0.0000 -16.6362 0.0000
# 3 36.5709 -9.5686 142.7313 0.0000 -6.2089 0.0000
# 4 0.0000 0.0000 0.0000 0.0722 0.0000 5.7813
# 5 -12.8762 -16.6362 -6.2089 0.0000 43.2276 0.0000
# 6 0.0000 0.0000 0.0000 5.7813 0.0000 24.4968
#
#
#
# Elastic Compliance Matrix: (Units=1/GPa)
#
#
# Indices 1 2 3 4 5 6 
#
# 1 0.008580 0.003021 -0.001846 0.000000 0.003453 0.000000
# 2 0.003021 0.030581 0.001839 0.000000 0.012933 0.000000
# 3 -0.001846 0.001839 0.007657 0.000000 0.001258 0.000000
# 4 0.000000 0.000000 0.000000 -0.773876 0.000000 0.182638
# 5 0.003453 0.012933 0.001258 0.000000 0.029320 0.000000
# 6 0.000000 0.000000 0.000000 0.182638 0.000000 -0.002282
#
#
# Mechanical properties :
#
#
# Convention : Reuss Voigt Hill
#
# Bulk Modulus (GPa) = 18.92290 39.03447 28.97868
# Shear Modulus (GPa) = -7.26289 33.55936 13.14824
#
# Velocity S-wave (km/s) = -1.66870 3.58700 2.24522
# Velocity P-wave (km/s) = 1.88208 5.66755 4.22276
#
# Compressibility (1/GPa) = 0.05284603
#
# Stress axis : x y z
#
# Youngs Moduli (GPa) = 116.54974 32.69973 130.59849
#
# Poissons Ratio (x) = -0.09878 0.24104
# Poissons Ratio (y) = -0.35206 -0.24014
# Poissons Ratio (z) = 0.21511 -0.06013
#
# Static dielectric constant tensor:
#      x y z
#    x 2.013540 0.000000 0.040530 
#    y 0.000000 2.324250 0.000000 
#    z 0.040530 0.000000 1.968100 
# 
# From -- ./inp_files/15303.got.cif
#   From: 2010.05.17/outbox.cif.g08.bks.cpg/sg14_8_cif.got.tgz:15303.got - 2010.06.03 17:49:19.
