data_PCOD9242747
_publ_section_title
;
Structure prediction by ZEFSAII (Michael W. Deem and Ramdas Pophale) SiO2 
 PCOD9242747
Probable space group: P 21/C
;
_chemical_formula_sum "Si O2"
_cell_formula_units_Z 20
_cell_length_a 9.146958
_cell_length_b 9.304112
_cell_length_c 10.176152
_cell_angle_alpha 90.000000
_cell_angle_beta 128.201102
_cell_angle_gamma 90.000000
_cell_volume 680.568891
_symmetry_space_group_name_H-M "P 21/C"
_symmetry_group_IT_number 14
_symmetry_cell_setting 'monoclinic'
loop_
_space_group_symop_operation_xyz
x,y,z
-x,1/2+y,1/2-z
-x,-y,-z
x,1/2-y,1/2+z
loop_
_atom_site_type_symbol
_atom_site_label
_atom_site_fract_x
_atom_site_fract_y
_atom_site_fract_z
Si Si1 0.981456 0.546806 0.839494
Si Si2 0.375675 0.517539 0.080459
Si Si3 0.718159 0.179705 0.211111
Si Si4 0.775608 0.014638 0.869215
Si Si5 0.325252 0.202373 0.955380
O O1 0.891565 0.396915 0.737696
O O2 0.838817 0.676898 0.739547
O O3 0.000000 0.500000 0.000000
O O4 0.189632 0.585049 0.907322
O O5 0.352684 0.565524 0.218262
O O6 0.597033 0.540291 0.175988
O O7 0.330576 0.349198 0.039613
O O8 0.755464 0.316507 0.324267
O O9 0.535921 0.192226 0.018661
O O10 0.722661 0.924135 0.968833
O O11 0.000000 0.000000 0.000000
#
# Coordination Sequence:
#
# PCOD9242747 Si02
#       5
#     4   4   4   4   4
#     4  10  20  35  58  88 122 161 205 254 303 366
#     4   9  20  37  58  89 124 160 208 254 307 374
#     4   9  19  37  61  90 123 160 204 256 315 376
#     4  10  20  37  62  92 127 163 202 257 315 374
#     4  10  20  36  61  89 123 166 207 253 310 370
#
# _framework density 29.387177999999999
#
# number of rings (size 3 to 8) (size 9 to 14) (size 15 to 20)
#    0.000    2.400    0.000    1.800    0.000    3.200 
#    0.000    1.000    0.000   16.800    0.000    0.000 
#    0.000    0.000    0.000    0.000    0.000    0.000 
#
# Total GULP energy -111566.693764 kJ/mol
# GULP energy per Si atom -5578.334688 kJ/mol
# Density = 2.932029 g / cm^3
# Si number density = 29.387178 Si / 1000 Ang^3
#
#
#
# Elastic Constant Matrix: (Units=GPa)
#
#
# Indices 1 2 3 4 5 6 
#
# 1 134.7884 5.1481 74.8513 0.0000 57.4661 0.0000
# 2 5.1481 117.7394 75.1047 0.0000 -2.1548 0.0000
# 3 74.8513 75.1047 200.0764 0.0000 79.9976 0.0000
# 4 0.0000 0.0000 0.0000 66.2106 0.0000 7.8626
# 5 57.4661 -2.1548 79.9976 0.0000 93.1944 0.0000
# 6 0.0000 0.0000 0.0000 7.8626 0.0000 41.6787
#
#
#
# Elastic Compliance Matrix: (Units=1/GPa)
#
#
# Indices 1 2 3 4 5 6 
#
# 1 0.010706 0.001249 -0.002811 0.000000 -0.004160 0.000000
# 2 0.001249 0.013915 -0.008392 0.000000 0.006755 0.000000
# 3 -0.002811 -0.008392 0.013070 0.000000 -0.009680 0.000000
# 4 0.000000 0.000000 0.000000 0.015449 0.000000 -0.002915
# 5 -0.004160 0.006755 -0.009680 0.000000 0.021761 0.000000
# 6 0.000000 0.000000 0.000000 -0.002915 0.000000 0.024543
#
#
# Mechanical properties :
#
#
# Convention : Reuss Voigt Hill
#
# Bulk Modulus (GPa) = 56.23026 84.75694 70.49360
# Shear Modulus (GPa) = 39.91075 60.05007 49.98041
#
# Velocity S-wave (km/s) = 3.68924 4.52531 4.12850
# Velocity P-wave (km/s) = 6.10927 7.49725 6.83856
#
# Compressibility (1/GPa) = 0.01778402
#
# Stress axis : x y z
#
# Youngs Moduli (GPa) = 93.40837 71.86358 76.51051
#
# Poissons Ratio (x) = -0.08973 0.21503
# Poissons Ratio (y) = -0.11663 0.64204
# Poissons Ratio (z) = 0.26253 0.60305
#
# Static dielectric constant tensor:
#      x y z
#    x 2.418860 0.000000 0.041560 
#    y 0.000000 2.359750 0.000000 
#    z 0.041560 0.000000 2.608520 
# 
# From -- ./inp_files/29268.got.cif
#   From: 2010.05.17/outbox.cif.g08.bks.cpg/sg14_15_cif.got.tgz:29268.got - 2010.06.03 17:49:19.
