data_PCOD9242822
_publ_section_title
;
Structure prediction by ZEFSAII (Michael W. Deem and Ramdas Pophale) SiO2 
 PCOD9242822
Probable space group: P 21/C
;
_chemical_formula_sum "Si O2"
_cell_formula_units_Z 32
_cell_length_a 7.281431
_cell_length_b 31.909583
_cell_length_c 5.467559
_cell_angle_alpha 90.000000
_cell_angle_beta 103.168530
_cell_angle_gamma 90.000000
_cell_volume 1236.967757
_symmetry_space_group_name_H-M "P 21/C"
_symmetry_group_IT_number 14
_symmetry_cell_setting 'monoclinic'
loop_
_space_group_symop_operation_xyz
x,y,z
-x,1/2+y,1/2-z
-x,-y,-z
x,1/2-y,1/2+z
loop_
_atom_site_type_symbol
_atom_site_label
_atom_site_fract_x
_atom_site_fract_y
_atom_site_fract_z
Si Si1 0.210692 0.367469 0.428527
Si Si2 0.189671 0.050335 0.198066
Si Si3 0.017732 0.583627 0.975021
Si Si4 0.769778 0.459707 0.333105
Si Si5 0.159139 0.273344 0.543235
Si Si6 0.443429 0.624991 0.758808
Si Si7 0.259427 0.650091 0.215255
Si Si8 0.740628 0.242404 0.406570
O O1 0.273260 0.407504 0.607406
O O2 0.210262 0.322406 0.551579
O O3 0.338466 0.366189 0.224494
O O4 0.013991 0.384337 0.260188
O O5 0.161377 0.059240 0.476550
O O6 0.295158 0.007580 0.167148
O O7 0.970204 0.043779 0.040721
O O8 0.096821 0.615835 0.196015
O O9 0.164105 0.549367 0.926234
O O10 0.622260 0.422406 0.330657
O O11 0.218149 0.249812 0.809504
O O12 0.929612 0.270116 0.468281
O O13 0.356034 0.652671 0.509030
O O14 0.383704 0.634869 0.018741
O O15 0.190888 0.694971 0.105867
O O16 0.632841 0.246696 0.626920
#
# Coordination Sequence:
#
# PCOD9242822 Si02
#       8
#     4   4   4   4   4   4   4   4
#     4  11  26  40  65  98 132 174 219 266 341 395
#     4  10  20  37  68  92 131 171 229 275 318 391
#     4  10  20  37  66  95 124 174 224 276 312 391
#     4   9  20  39  60  99 130 174 223 274 328 374
#     4  10  23  40  64  93 126 162 212 275 320 383
#     4  11  25  44  64  96 139 177 208 269 332 403
#     4  11  23  42  67  90 127 172 216 263 327 385
#     4  10  20  35  62  93 118 151 210 271 312 377
#
# _framework density 25.869713000000001
#
# number of rings (size 3 to 8) (size 9 to 14) (size 15 to 20)
#    0.000    1.750    1.250    2.625    7.000    0.500 
#    0.000    4.375    0.000    0.000    0.000    0.000 
#    0.000    0.000    0.000    0.000    0.000    0.000 
#
# Total GULP energy -178721.074649 kJ/mol
# GULP energy per Si atom -5585.033583 kJ/mol
# Density = 2.581083 g / cm^3
# Si number density = 25.869713 Si / 1000 Ang^3
#
#
#
# Elastic Constant Matrix: (Units=GPa)
#
#
# Indices 1 2 3 4 5 6 
#
# 1 45.5734 23.2302 19.5620 0.0000 -6.0110 0.0000
# 2 23.2302 190.1159 40.5965 0.0000 -20.0801 0.0000
# 3 19.5620 40.5965 131.5972 0.0000 -22.8806 0.0000
# 4 0.0000 0.0000 0.0000 30.9791 0.0000 -3.4868
# 5 -6.0110 -20.0801 -22.8806 0.0000 35.1827 0.0000
# 6 0.0000 0.0000 0.0000 -3.4868 0.0000 3.4777
#
#
#
# Elastic Compliance Matrix: (Units=1/GPa)
#
#
# Indices 1 2 3 4 5 6 
#
# 1 0.024426 -0.002285 -0.002737 0.000000 0.001089 0.000000
# 2 -0.002285 0.006022 -0.001114 0.000000 0.002322 0.000000
# 3 -0.002737 -0.001114 0.009198 0.000000 0.004878 0.000000
# 4 0.000000 0.000000 0.000000 0.036386 0.000000 0.036481
# 5 0.001089 0.002322 0.004878 0.000000 0.033107 0.000000
# 6 0.000000 0.000000 0.000000 0.036481 0.000000 0.324126
#
#
# Mechanical properties :
#
#
# Convention : Reuss Voigt Hill
#
# Bulk Modulus (GPa) = 36.53173 59.34042 47.93607
# Shear Modulus (GPa) = 10.99721 32.85443 21.92582
#
# Velocity S-wave (km/s) = 2.06403 3.56757 2.91443
# Velocity P-wave (km/s) = 4.45336 6.32124 5.46765
#
# Compressibility (1/GPa) = 0.02737347
#
# Stress axis : x y z
#
# Youngs Moduli (GPa) = 40.94042 166.04676 108.72336
#
# Poissons Ratio (x) = 0.37945 0.29753
# Poissons Ratio (y) = 0.09356 0.12116
# Poissons Ratio (z) = 0.11204 0.18505
#
# Static dielectric constant tensor:
#      x y z
#    x 2.073680 0.000000 0.046190 
#    y 0.000000 1.990520 0.000000 
#    z 0.046190 0.000000 2.160030 
# 
# From -- ./inp_files/2135.got.cif
#   From: 2010.05.17/outbox.cif.g08.bks.cpg/sg14_2_cif.got.tgz:2135.got - 2010.06.03 17:49:19.
