data_PCOD9242854
_publ_section_title
;
Structure prediction by ZEFSAII (Michael W. Deem and Ramdas Pophale) SiO2 
 PCOD9242854
Probable space group: P 21/C
;
_chemical_formula_sum "Si O2"
_cell_formula_units_Z 28
_cell_length_a 17.602832
_cell_length_b 12.497232
_cell_length_c 13.900646
_cell_angle_alpha 90.000000
_cell_angle_beta 23.367952
_cell_angle_gamma 90.000000
_cell_volume 1212.891171
_symmetry_space_group_name_H-M "P 21/C"
_symmetry_group_IT_number 14
_symmetry_cell_setting 'monoclinic'
loop_
_space_group_symop_operation_xyz
x,y,z
-x,1/2+y,1/2-z
-x,-y,-z
x,1/2-y,1/2+z
loop_
_atom_site_type_symbol
_atom_site_label
_atom_site_fract_x
_atom_site_fract_y
_atom_site_fract_z
Si Si1 0.336509 0.796988 0.302629
Si Si2 0.735125 0.875097 0.889667
Si Si3 0.919612 0.383527 0.477886
Si Si4 0.022820 0.747110 0.914734
Si Si5 0.374102 0.886084 0.043055
Si Si6 0.187727 0.342812 0.006004
Si Si7 0.004745 0.059597 0.244025
O O1 0.253543 0.680483 0.372326
O O2 0.350672 0.855861 0.182369
O O3 0.177798 0.862116 0.547598
O O4 0.544417 0.803194 0.107854
O O5 0.900323 0.827897 0.629711
O O6 0.670335 0.990515 0.924173
O O7 0.825090 0.895802 0.889164
O O8 0.927850 0.351386 0.579177
O O9 0.922879 0.505205 0.438722
O O10 0.109478 0.334409 0.205337
O O11 0.891316 0.748047 0.973287
O O12 0.221423 0.686701 0.664116
O O13 0.588618 0.858181 0.763149
O O14 0.081675 0.454156 0.099865
#
# Coordination Sequence:
#
# PCOD9242854 Si02
#       7
#     4   4   4   4   4   4   4
#     4  11  20  33  54  80 115 141 175 222 275 336
#     4  12  18  30  55  82 108 141 170 224 295 328
#     4   9  22  38  48  82 119 141 181 225 266 330
#     4  11  20  33  54  78 114 146 173 219 283 329
#     4  11  18  30  54  87 109 132 173 221 291 339
#     4  10  20  36  52  80 117 140 175 227 271 331
#     4  10  20  36  51  80 117 137 179 224 267 333
#
# _framework density 23.085338
#
# number of rings (size 3 to 8) (size 9 to 14) (size 15 to 20)
#    0.857    0.571    7.143    1.714    0.000    0.000 
#    7.714    0.000    0.000    0.857    0.000    5.000 
#    0.000    0.000    0.000    0.000    0.000    0.000 
#
# Total GULP energy -156546.251146 kJ/mol
# GULP energy per Si atom -5590.937541 kJ/mol
# Density = 2.303279 g / cm^3
# Si number density = 23.085338 Si / 1000 Ang^3
#
#
#
# Elastic Constant Matrix: (Units=GPa)
#
#
# Indices 1 2 3 4 5 6 
#
# 1 78.9289 37.5306 33.8917 0.0000 -23.0453 0.0000
# 2 37.5306 64.6639 24.9544 0.0000 -12.0758 0.0000
# 3 33.8917 24.9544 122.6847 0.0000 -39.0274 0.0000
# 4 0.0000 0.0000 0.0000 28.9775 0.0000 3.9492
# 5 -23.0453 -12.0758 -39.0274 0.0000 36.5457 0.0000
# 6 0.0000 0.0000 0.0000 3.9492 0.0000 42.8607
#
#
#
# Elastic Compliance Matrix: (Units=1/GPa)
#
#
# Indices 1 2 3 4 5 6 
#
# 1 0.020200 -0.009789 -0.000857 0.000000 0.008588 0.000000
# 2 -0.009789 0.021728 -0.002113 0.000000 -0.001250 0.000000
# 3 -0.000857 -0.002113 0.012757 0.000000 0.012385 0.000000
# 4 0.000000 0.000000 0.000000 0.034948 0.000000 -0.003220
# 5 0.008588 -0.001250 0.012385 0.000000 0.045591 0.000000
# 6 0.000000 0.000000 0.000000 -0.003220 0.000000 0.023628
#
#
# Mechanical properties :
#
#
# Convention : Reuss Voigt Hill
#
# Bulk Modulus (GPa) = 34.28568 51.00345 42.64456
# Shear Modulus (GPa) = 25.76063 33.00350 29.38207
#
# Velocity S-wave (km/s) = 3.34411 3.78515 3.57144
# Velocity P-wave (km/s) = 5.45846 6.42219 5.95984
#
# Compressibility (1/GPa) = 0.02916670
#
# Stress axis : x y z
#
# Youngs Moduli (GPa) = 49.50497 46.02287 78.38631
#
# Poissons Ratio (x) = 0.45054 0.06719
# Poissons Ratio (y) = 0.48463 0.16562
# Poissons Ratio (z) = 0.04244 0.09724
#
# Static dielectric constant tensor:
#      x y z
#    x 1.901310 0.000000 0.025590 
#    y 0.000000 1.951900 0.000000 
#    z 0.025590 0.000000 1.802520 
# 
# From -- ./inp_files/61405.got.cif
#   From: 2010.05.17/outbox.cif.g08.bks.cpg/sg14_31_cif.got.tgz:61405.got - 2010.06.03 17:49:19.
