data_PCOD9242278
_publ_section_title
;
Structure prediction by ZEFSAII (Michael W. Deem and Ramdas Pophale) SiO2 
 PCOD9242278
Probable space group: P 21/C
;
_chemical_formula_sum "Si O2"
_cell_formula_units_Z 20
_cell_length_a 20.197908
_cell_length_b 8.331116
_cell_length_c 26.254684
_cell_angle_alpha 90.000000
_cell_angle_beta 10.919997
_cell_angle_gamma 90.000000
_cell_volume 836.919731
_symmetry_space_group_name_H-M "P 21/C"
_symmetry_group_IT_number 14
_symmetry_cell_setting 'monoclinic'
loop_
_space_group_symop_operation_xyz
x,y,z
-x,1/2+y,1/2-z
-x,-y,-z
x,1/2-y,1/2+z
loop_
_atom_site_type_symbol
_atom_site_label
_atom_site_fract_x
_atom_site_fract_y
_atom_site_fract_z
Si Si1 0.798772 0.132118 0.767035
Si Si2 0.552652 0.413689 0.014538
Si Si3 0.743826 0.380429 0.033078
Si Si4 0.369173 0.259892 0.999938
Si Si5 0.237955 0.863314 0.890968
O O1 0.687471 0.212455 0.798000
O O2 0.773301 0.258466 0.832621
O O3 0.136347 0.025069 0.519894
O O4 0.500000 0.000000 0.000000
O O5 0.712690 0.552320 0.927857
O O6 0.161993 0.364809 0.326177
O O7 0.500000 0.500000 0.000000
O O8 0.034419 0.343549 0.770156
O O9 0.753165 0.224008 0.061216
O O10 0.384160 0.454038 0.283797
O O11 0.519180 0.259637 0.830111
#
# Coordination Sequence:
#
# PCOD9242278 Si02
#       5
#     4   4   4   4   4
#     4   9  18  42  66  89 131 166 206 271 314 374
#     4  10  19  41  70  89 130 166 216 265 314 387
#     4  11  26  42  63  96 136 166 214 276 324 380
#     4  10  23  43  66  96 125 171 223 258 319 394
#     4  12  25  42  67  97 129 176 212 266 338 373
#
# _framework density 23.897155000000001
#
# number of rings (size 3 to 8) (size 9 to 14) (size 15 to 20)
#    0.000    1.600    6.000    0.600    5.600    4.000 
#    0.000    0.000    0.000    0.000    0.000    0.000 
#    0.000    0.000    0.000    0.000    0.000    0.000 
#
# Total GULP energy -111667.976022 kJ/mol
# GULP energy per Si atom -5583.398801 kJ/mol
# Density = 2.384276 g / cm^3
# Si number density = 23.897155 Si / 1000 Ang^3
#
#
#
# Elastic Constant Matrix: (Units=GPa)
#
#
# Indices 1 2 3 4 5 6 
#
# 1 58.4959 10.2533 32.8927 0.0000 15.2493 0.0000
# 2 10.2533 89.7070 25.7378 0.0000 -7.7882 0.0000
# 3 32.8927 25.7378 84.0825 0.0000 7.7702 0.0000
# 4 0.0000 0.0000 0.0000 55.3520 0.0000 -6.2924
# 5 15.2493 -7.7882 7.7702 0.0000 36.4194 0.0000
# 6 0.0000 0.0000 0.0000 -6.2924 0.0000 35.1835
#
#
#
# Elastic Compliance Matrix: (Units=1/GPa)
#
#
# Indices 1 2 3 4 5 6 
#
# 1 0.024223 -0.001124 -0.008337 0.000000 -0.008604 0.000000
# 2 -0.001124 0.012721 -0.003825 0.000000 0.004007 0.000000
# 3 -0.008337 -0.003825 0.016402 0.000000 -0.000826 0.000000
# 4 0.000000 0.000000 0.000000 0.018441 0.000000 0.003298
# 5 -0.008604 0.004007 -0.000826 0.000000 0.032094 0.000000
# 6 0.000000 0.000000 0.000000 0.003298 0.000000 0.029012
#
#
# Mechanical properties :
#
#
# Convention : Reuss Voigt Hill
#
# Bulk Modulus (GPa) = 37.34793 41.11700 39.23247
# Shear Modulus (GPa) = 29.69328 36.28442 32.98885
#
# Velocity S-wave (km/s) = 3.52880 3.90084 3.71947
# Velocity P-wave (km/s) = 5.68030 6.12633 5.90752
#
# Compressibility (1/GPa) = 0.02677524
#
# Stress axis : x y z
#
# Youngs Moduli (GPa) = 41.28294 78.60992 60.96987
#
# Poissons Ratio (x) = 0.08833 0.50830
# Poissons Ratio (y) = 0.04639 0.23319
# Poissons Ratio (z) = 0.34417 0.30065
#
# Static dielectric constant tensor:
#      x y z
#    x 2.000590 0.000000 -0.084800 
#    y 0.000000 1.905180 0.000000 
#    z -0.084800 0.000000 2.055280 
# 
# From -- ./inp_files/80623.got.cif
#   From: 2010.05.17/outbox.cif.g08.bks.cpg/sg14_41_cif.got.tgz:80623.got - 2010.06.03 17:49:19.
