data_PCOD9242440
_publ_section_title
;
Structure prediction by ZEFSAII (Michael W. Deem and Ramdas Pophale) SiO2 
 PCOD9242440
Probable space group: P 21/C
;
_chemical_formula_sum "Si O2"
_cell_formula_units_Z 32
_cell_length_a 5.092103
_cell_length_b 13.466848
_cell_length_c 25.555243
_cell_angle_alpha 90.000000
_cell_angle_beta 63.008231
_cell_angle_gamma 90.000000
_cell_volume 1561.549734
_symmetry_space_group_name_H-M "P 21/C"
_symmetry_group_IT_number 14
_symmetry_cell_setting 'monoclinic'
loop_
_space_group_symop_operation_xyz
x,y,z
-x,1/2+y,1/2-z
-x,-y,-z
x,1/2-y,1/2+z
loop_
_atom_site_type_symbol
_atom_site_label
_atom_site_fract_x
_atom_site_fract_y
_atom_site_fract_z
Si Si1 0.712099 0.130601 0.010774
Si Si2 0.763483 0.129391 0.815594
Si Si3 0.175157 0.255747 0.601703
Si Si4 0.366568 0.414077 0.439033
Si Si5 0.866435 0.681049 0.234426
Si Si6 0.075484 0.934601 0.819695
Si Si7 0.533039 0.178696 0.665587
Si Si8 0.344445 0.509371 0.772905
O O1 0.483526 0.218572 0.045087
O O2 0.671498 0.033667 0.052294
O O3 0.615316 0.105287 0.960322
O O4 0.063904 0.142320 0.981547
O O5 0.454699 0.123217 0.873488
O O6 0.910637 0.235864 0.805855
O O7 0.783347 0.094018 0.753522
O O8 0.934707 0.042358 0.830094
O O9 0.298848 0.198938 0.641443
O O10 0.046983 0.366172 0.623995
O O11 0.867920 0.200073 0.615814
O O12 0.577057 0.744633 0.278778
O O13 0.835152 0.589212 0.197074
O O14 0.992543 0.625900 0.274588
O O15 0.417685 0.957759 0.786914
O O16 0.522524 0.068809 0.690854
#
# Coordination Sequence:
#
# PCOD9242440 Si02
#       8
#     4   4   4   4   4   4   4   4
#     4  10  21  37  55  81 115 143 198 242 289 347
#     4  11  22  36  55  82 121 160 192 229 296 349
#     4  11  21  37  57  83 111 157 192 234 286 343
#     4  10  22  35  55  83 112 152 187 240 293 348
#     4  10  22  35  53  84 118 157 195 234 281 357
#     4  10  20  33  53  79 117 155 188 228 285 339
#     4  11  22  35  56  84 113 154 197 227 282 347
#     4  11  22  36  56  82 125 156 194 242 278 353
#
# _framework density 20.492462
#
# number of rings (size 3 to 8) (size 9 to 14) (size 15 to 20)
#    0.000    1.500    3.750    2.250    3.500    1.000 
#    0.000    0.000    0.000    0.000    0.000    5.250 
#    0.000    0.000    0.000    0.000    0.000    0.000 
#
# Total GULP energy -178281.893952 kJ/mol
# GULP energy per Si atom -5571.309186 kJ/mol
# Density = 2.044582 g / cm^3
# Si number density = 20.492462 Si / 1000 Ang^3
#
#
#
# Elastic Constant Matrix: (Units=GPa)
#
#
# Indices 1 2 3 4 5 6 
#
# 1 78.1074 18.6576 6.8997 0.0000 -10.7102 0.0000
# 2 18.6576 100.6711 31.4474 0.0000 7.3438 0.0000
# 3 6.8997 31.4474 53.3960 0.0000 -21.5927 0.0000
# 4 0.0000 0.0000 0.0000 20.9645 0.0000 -6.1576
# 5 -10.7102 7.3438 -21.5927 0.0000 22.5897 0.0000
# 6 0.0000 0.0000 0.0000 -6.1576 0.0000 25.8267
#
#
#
# Elastic Compliance Matrix: (Units=1/GPa)
#
#
# Indices 1 2 3 4 5 6 
#
# 1 0.016694 -0.008191 0.011320 0.000000 0.021398 0.000000
# 2 -0.008191 0.022848 -0.027666 0.000000 -0.037756 0.000000
# 3 0.011320 -0.027666 0.064171 0.000000 0.075699 0.000000
# 4 0.000000 0.000000 0.000000 0.051291 0.000000 0.012229
# 5 0.021398 -0.037756 0.075699 0.000000 0.139045 0.000000
# 6 0.000000 0.000000 0.000000 0.012229 0.000000 0.041635
#
#
# Mechanical properties :
#
#
# Convention : Reuss Voigt Hill
#
# Bulk Modulus (GPa) = 18.30201 38.46489 28.38345
# Shear Modulus (GPa) = 12.40786 25.55417 18.98101
#
# Velocity S-wave (km/s) = 2.46333 3.53512 3.04673
# Velocity P-wave (km/s) = 4.12809 5.95599 5.12420
#
# Compressibility (1/GPa) = 0.05463882
#
# Stress axis : x y z
#
# Youngs Moduli (GPa) = 59.90323 43.76799 15.58342
#
# Poissons Ratio (x) = 0.35850 -0.17640
# Poissons Ratio (y) = 0.49066 0.43113
# Poissons Ratio (z) = -0.67810 1.21087
#
# Static dielectric constant tensor:
#      x y z
#    x 1.825640 0.000000 -0.044500 
#    y 0.000000 1.783890 0.000000 
#    z -0.044500 0.000000 1.838110 
# 
# From -- ./inp_files/78932.got.cif
#   From: 2010.05.17/outbox.cif.g08.bks.cpg/sg14_40_cif.got.tgz:78932.got - 2010.06.03 17:49:19.
