data_PCOD9242318
_publ_section_title
;
Structure prediction by ZEFSAII (Michael W. Deem and Ramdas Pophale) SiO2 
 PCOD9242318
Probable space group: P 21/C
;
_chemical_formula_sum "Si O2"
_cell_formula_units_Z 20
_cell_length_a 9.828851
_cell_length_b 14.614857
_cell_length_c 8.996523
_cell_angle_alpha 90.000000
_cell_angle_beta 135.753322
_cell_angle_gamma 90.000000
_cell_volume 901.718945
_symmetry_space_group_name_H-M "P 21/C"
_symmetry_group_IT_number 14
_symmetry_cell_setting 'monoclinic'
loop_
_space_group_symop_operation_xyz
x,y,z
-x,1/2+y,1/2-z
-x,-y,-z
x,1/2-y,1/2+z
loop_
_atom_site_type_symbol
_atom_site_label
_atom_site_fract_x
_atom_site_fract_y
_atom_site_fract_z
Si Si1 0.322866 0.223303 0.355423
Si Si2 0.338009 0.434202 0.442215
Si Si3 0.527757 0.433416 0.885751
Si Si4 0.916550 0.116727 0.544227
Si Si5 0.961142 0.725083 0.127322
O O1 0.381071 0.326624 0.443580
O O2 0.503045 0.166671 0.437754
O O3 0.206877 0.178114 0.402593
O O4 0.166396 0.226361 0.100092
O O5 0.500000 0.500000 0.500000
O O6 0.116129 0.441383 0.212448
O O7 0.357291 0.449176 0.632913
O O8 0.728782 0.436662 0.953483
O O9 0.500000 0.500000 0.000000
O O10 0.904957 0.159212 0.368514
O O11 0.945777 0.201274 0.686487
#
# Coordination Sequence:
#
# PCOD9242318 Si02
#       5
#     4   4   4   4   4
#     4  10  19  43  66  91 131 167 214 275 320 384
#     4  10  24  46  64  97 133 172 218 271 325 390
#     4  12  27  40  64 101 132 175 219 265 330 389
#     4  10  22  42  65  99 129 172 222 266 330 389
#     4   8  18  39  68  89 125 166 219 260 326 382
#
# _framework density 22.179860000000001
#
# number of rings (size 3 to 8) (size 9 to 14) (size 15 to 20)
#    0.000    2.400    4.000    0.000    8.400    1.600 
#    0.000    0.000    0.000    0.000    0.000    0.000 
#    0.000    0.000    0.000    0.000    0.000    0.000 
#
# Total GULP energy -111562.857576 kJ/mol
# GULP energy per Si atom -5578.142879 kJ/mol
# Density = 2.212938 g / cm^3
# Si number density = 22.179860 Si / 1000 Ang^3
#
#
#
# Elastic Constant Matrix: (Units=GPa)
#
#
# Indices 1 2 3 4 5 6 
#
# 1 153.2171 24.3782 27.6282 0.0000 -4.3069 0.0000
# 2 24.3782 55.6478 6.0168 0.0000 -1.9779 0.0000
# 3 27.6282 6.0168 59.8763 0.0000 -18.9572 0.0000
# 4 0.0000 0.0000 0.0000 20.0589 0.0000 -7.0587
# 5 -4.3069 -1.9779 -18.9572 0.0000 48.4974 0.0000
# 6 0.0000 0.0000 0.0000 -7.0587 0.0000 51.5594
#
#
#
# Elastic Compliance Matrix: (Units=1/GPa)
#
#
# Indices 1 2 3 4 5 6 
#
# 1 0.007603 -0.002985 -0.003462 0.000000 -0.000800 0.000000
# 2 -0.002985 0.019339 -0.000457 0.000000 0.000345 0.000000
# 3 -0.003462 -0.000457 0.020817 0.000000 0.007811 0.000000
# 4 0.000000 0.000000 0.000000 0.052377 0.000000 0.007171
# 5 -0.000800 0.000345 0.007811 0.000000 0.023616 0.000000
# 6 0.000000 0.000000 0.000000 0.007171 0.000000 0.020377
#
#
# Mechanical properties :
#
#
# Convention : Reuss Voigt Hill
#
# Bulk Modulus (GPa) = 29.45207 42.75419 36.10313
# Shear Modulus (GPa) = 29.54137 38.07100 33.80618
#
# Velocity S-wave (km/s) = 3.65348 4.14752 3.90832
# Velocity P-wave (km/s) = 5.57717 6.50030 6.05635
#
# Compressibility (1/GPa) = 0.03395347
#
# Stress axis : x y z
#
# Youngs Moduli (GPa) = 131.52119 51.70769 48.03692
#
# Poissons Ratio (x) = 0.15435 0.16628
# Poissons Ratio (y) = 0.39259 0.02194
# Poissons Ratio (z) = 0.45527 0.02362
#
# Static dielectric constant tensor:
#      x y z
#    x 1.859620 0.000000 0.015930 
#    y 0.000000 1.928390 0.000000 
#    z 0.015930 0.000000 1.834520 
# 
# From -- ./inp_files/9242.got.cif
#   From: 2010.05.17/outbox.cif.g08.bks.cpg/sg14_5_cif.got.tgz:9242.got - 2010.06.03 17:49:19.
