data_PCOD9242506
_publ_section_title
;
Structure prediction by ZEFSAII (Michael W. Deem and Ramdas Pophale) SiO2 
 PCOD9242506
Probable space group: P 21/C
;
_chemical_formula_sum "Si O2"
_cell_formula_units_Z 32
_cell_length_a 22.166832
_cell_length_b 5.704261
_cell_length_c 22.465930
_cell_angle_alpha 90.000000
_cell_angle_beta 28.733712
_cell_angle_gamma 90.000000
_cell_volume 1365.643180
_symmetry_space_group_name_H-M "P 21/C"
_symmetry_group_IT_number 14
_symmetry_cell_setting 'monoclinic'
loop_
_space_group_symop_operation_xyz
x,y,z
-x,1/2+y,1/2-z
-x,-y,-z
x,1/2-y,1/2+z
loop_
_atom_site_type_symbol
_atom_site_label
_atom_site_fract_x
_atom_site_fract_y
_atom_site_fract_z
Si Si1 0.000381 0.250681 0.052847
Si Si2 0.472803 0.453862 0.197762
Si Si3 0.584510 0.959306 0.112306
Si Si4 0.831921 0.771049 0.408663
Si Si5 0.742224 0.122800 0.720869
Si Si6 0.169299 0.910715 0.484013
Si Si7 0.020028 0.011453 0.818190
Si Si8 0.272559 0.118114 0.773744
O O1 0.890130 0.363519 0.110032
O O2 0.939947 0.068622 0.151361
O O3 0.062145 0.433486 0.045326
O O4 0.121543 0.134028 0.916036
O O5 0.531957 0.710556 0.130899
O O6 0.455405 0.461613 0.283809
O O7 0.341580 0.403658 0.277743
O O8 0.547800 0.213021 0.118142
O O9 0.733695 0.932496 0.983420
O O10 0.962178 0.684323 0.324572
O O11 0.777265 0.951735 0.505288
O O12 0.866956 0.878337 0.315481
O O13 0.737796 0.123016 0.652111
O O14 0.691340 0.371522 0.787388
O O15 0.692896 0.870129 0.783627
O O16 0.098369 0.681428 0.567366
#
# Coordination Sequence:
#
# PCOD9242506 Si02
#       8
#     4   4   4   4   4   4   4   4
#     4  10  22  35  54  88 117 150 185 236 286 352
#     4  10  21  37  54  84 107 151 195 238 296 329
#     4  10  22  36  57  77 115 147 198 245 273 344
#     4  11  23  36  54  85 115 165 191 230 288 344
#     4  11  22  34  59  87 120 148 186 233 300 344
#     4  10  20  34  53  78 120 152 183 229 275 357
#     4  11  21  35  55  80 121 152 194 223 280 361
#     4  11  20  35  56  83 118 147 180 237 294 348
#
# _framework density 23.432179999999999
#
# number of rings (size 3 to 8) (size 9 to 14) (size 15 to 20)
#    0.000    1.500    2.500    4.875    3.500    1.000 
#    0.000    0.000    0.000    0.000    0.000    5.250 
#    0.000    0.000    0.000    0.000    0.000    0.000 
#
# Total GULP energy -178568.129617 kJ/mol
# GULP energy per Si atom -5580.254051 kJ/mol
# Density = 2.337885 g / cm^3
# Si number density = 23.432180 Si / 1000 Ang^3
#
#
#
# Elastic Constant Matrix: (Units=GPa)
#
#
# Indices 1 2 3 4 5 6 
#
# 1 56.6937 22.7154 9.3463 0.0000 -5.9961 0.0000
# 2 22.7154 153.5744 5.8048 0.0000 -4.1929 0.0000
# 3 9.3463 5.8048 30.7146 0.0000 0.6321 0.0000
# 4 0.0000 0.0000 0.0000 14.2842 0.0000 -18.6128
# 5 -5.9961 -4.1929 0.6321 0.0000 19.2349 0.0000
# 6 0.0000 0.0000 0.0000 -18.6128 0.0000 27.8005
#
#
#
# Elastic Compliance Matrix: (Units=1/GPa)
#
#
# Indices 1 2 3 4 5 6 
#
# 1 0.020271 -0.002617 -0.005796 0.000000 0.005939 0.000000
# 2 -0.002617 0.006938 -0.000530 0.000000 0.000714 0.000000
# 3 -0.005796 -0.000530 0.034484 0.000000 -0.003055 0.000000
# 4 0.000000 0.000000 0.000000 0.548631 0.000000 0.367315
# 5 0.005939 0.000714 -0.003055 0.000000 0.054096 0.000000
# 6 0.000000 0.000000 0.000000 0.367315 0.000000 0.281892
#
#
# Mechanical properties :
#
#
# Convention : Reuss Voigt Hill
#
# Bulk Modulus (GPa) = 22.82674 35.19063 29.00869
# Shear Modulus (GPa) = 5.10829 25.80500 15.45665
#
# Velocity S-wave (km/s) = 1.47809 3.32213 2.57112
# Velocity P-wave (km/s) = 3.56031 5.45583 4.60662
#
# Compressibility (1/GPa) = 0.04380827
#
# Stress axis : x y z
#
# Youngs Moduli (GPa) = 49.33194 144.13160 28.99858
#
# Poissons Ratio (x) = 0.37720 0.16807
# Poissons Ratio (y) = 0.12910 0.01536
# Poissons Ratio (z) = 0.28592 0.07633
#
# Static dielectric constant tensor:
#      x y z
#    x 1.875370 0.000000 -0.026600 
#    y 0.000000 2.075430 0.000000 
#    z -0.026600 0.000000 1.845710 
# 
# From -- ./inp_files/74799.got.cif
#   From: 2010.05.17/outbox.cif.g08.bks.cpg/sg14_38_cif.got.tgz:74799.got - 2010.06.03 17:49:19.
