data_PCOD9242144
_publ_section_title
;
Structure prediction by ZEFSAII (Michael W. Deem and Ramdas Pophale) SiO2 
 PCOD9242144
Probable space group: P 21/C
;
_chemical_formula_sum "Si O2"
_cell_formula_units_Z 24
_cell_length_a 15.957573
_cell_length_b 7.346724
_cell_length_c 14.141834
_cell_angle_alpha 90.000000
_cell_angle_beta 147.312652
_cell_angle_gamma 90.000000
_cell_volume 895.372759
_symmetry_space_group_name_H-M "P 21/C"
_symmetry_group_IT_number 14
_symmetry_cell_setting 'monoclinic'
loop_
_space_group_symop_operation_xyz
x,y,z
-x,1/2+y,1/2-z
-x,-y,-z
x,1/2-y,1/2+z
loop_
_atom_site_type_symbol
_atom_site_label
_atom_site_fract_x
_atom_site_fract_y
_atom_site_fract_z
Si Si1 0.284404 0.856497 0.238526
Si Si2 0.059134 0.759119 0.677096
Si Si3 0.587738 0.070608 0.283899
Si Si4 0.265606 0.082648 0.919266
Si Si5 0.598483 0.752145 0.142080
Si Si6 0.135626 0.428187 0.866357
O O1 0.124836 0.787502 0.135886
O O2 0.327587 0.739086 0.187315
O O3 0.428523 0.812527 0.446204
O O4 0.296180 0.074315 0.237583
O O5 0.040525 0.568767 0.713391
O O6 0.915423 0.886305 0.573652
O O7 0.194034 0.884101 0.851615
O O8 0.582032 0.897438 0.208881
O O9 0.690947 0.009451 0.469182
O O10 0.407032 0.108925 0.126420
O O11 0.330916 0.135623 0.878739
O O12 0.138816 0.235586 0.818949
#
# Coordination Sequence:
#
# PCOD9242144 Si02
#       6
#     4   4   4   4   4   4
#     4  10  20  38  69  92 127 173 211 262 320 384
#     4  12  23  45  64  88 133 181 209 253 332 396
#     4  11  24  40  65 104 124 158 224 282 303 365
#     4  11  22  42  66  90 133 173 211 261 327 385
#     4  10  19  39  67  96 123 165 218 259 325 377
#     4  12  28  41  64  98 131 174 216 261 326 389
#
# _framework density 26.804480999999999
#
# number of rings (size 3 to 8) (size 9 to 14) (size 15 to 20)
#    0.000    1.000    6.667    1.000    2.333    2.000 
#    0.000    0.833    0.000    0.000    0.000    0.000 
#    0.000    0.000    0.000    0.000    0.000    0.000 
#
# Total GULP energy -134400.570160 kJ/mol
# GULP energy per Si atom -5600.023757 kJ/mol
# Density = 2.674347 g / cm^3
# Si number density = 26.804481 Si / 1000 Ang^3
#
#
#
# Elastic Constant Matrix: (Units=GPa)
#
#
# Indices 1 2 3 4 5 6 
#
# 1 81.0524 34.9413 -0.1812 0.0000 11.1357 0.0000
# 2 34.9413 158.1124 3.3591 0.0000 5.6349 0.0000
# 3 -0.1812 3.3591 33.3934 0.0000 4.1634 0.0000
# 4 0.0000 0.0000 0.0000 29.7429 0.0000 1.3097
# 5 11.1357 5.6349 4.1634 0.0000 26.3536 0.0000
# 6 0.0000 0.0000 0.0000 1.3097 0.0000 50.8513
#
#
#
# Elastic Compliance Matrix: (Units=1/GPa)
#
#
# Indices 1 2 3 4 5 6 
#
# 1 0.014408 -0.003007 0.001081 0.000000 -0.005616 0.000000
# 2 -0.003007 0.007008 -0.000707 0.000000 -0.000116 0.000000
# 3 0.001081 -0.000707 0.030665 0.000000 -0.005150 0.000000
# 4 0.000000 0.000000 0.000000 0.033660 0.000000 -0.000867
# 5 -0.005616 -0.000116 -0.005150 0.000000 0.041157 0.000000
# 6 0.000000 0.000000 0.000000 -0.000867 0.000000 0.019688
#
#
# Mechanical properties :
#
#
# Convention : Reuss Voigt Hill
#
# Bulk Modulus (GPa) = 21.36035 38.75516 30.05776
# Shear Modulus (GPa) = 29.85856 37.01883 33.43869
#
# Velocity S-wave (km/s) = 3.34119 3.72030 3.53583
# Velocity P-wave (km/s) = 4.78236 5.73969 5.28276
#
# Compressibility (1/GPa) = 0.04681571
#
# Stress axis : x y z
#
# Youngs Moduli (GPa) = 69.40636 142.68890 32.61033
#
# Poissons Ratio (x) = 0.42904 -0.03525
# Poissons Ratio (y) = 0.20869 0.02305
# Poissons Ratio (z) = -0.07502 0.10085
#
# Static dielectric constant tensor:
#      x y z
#    x 2.088640 0.000000 0.064870 
#    y 0.000000 2.017720 0.000000 
#    z 0.064870 0.000000 2.126740 
# 
# From -- ./inp_files/60202.got.cif
#   From: 2010.05.17/outbox.cif.g08.bks.cpg/sg14_31_cif.got.tgz:60202.got - 2010.06.03 17:49:19.
