data_PCOD9242580
_publ_section_title
;
Structure prediction by ZEFSAII (Michael W. Deem and Ramdas Pophale) SiO2 
 PCOD9242580
Probable space group: P 21/C
;
_chemical_formula_sum "Si O2"
_cell_formula_units_Z 28
_cell_length_a 27.038001
_cell_length_b 8.959344
_cell_length_c 18.588008
_cell_angle_alpha 90.000000
_cell_angle_beta 161.925550
_cell_angle_gamma 90.000000
_cell_volume 1397.008277
_symmetry_space_group_name_H-M "P 21/C"
_symmetry_group_IT_number 14
_symmetry_cell_setting 'monoclinic'
loop_
_space_group_symop_operation_xyz
x,y,z
-x,1/2+y,1/2-z
-x,-y,-z
x,1/2-y,1/2+z
loop_
_atom_site_type_symbol
_atom_site_label
_atom_site_fract_x
_atom_site_fract_y
_atom_site_fract_z
Si Si1 0.292530 0.275822 0.608024
Si Si2 0.699241 0.890307 0.082094
Si Si3 0.468105 0.939825 0.376620
Si Si4 0.412227 0.138067 0.916148
Si Si5 0.455689 0.697550 0.660730
Si Si6 0.929273 0.804603 0.825889
Si Si7 0.235478 0.940674 0.305081
O O1 0.323516 0.455152 0.649005
O O2 0.303804 0.216576 0.704863
O O3 0.446204 0.207375 0.778442
O O4 0.143980 0.221398 0.354629
O O5 0.582200 0.757664 0.893004
O O6 0.621499 0.036449 0.938948
O O7 0.688814 0.906368 0.153256
O O8 0.871254 0.841468 0.290128
O O9 0.461970 0.761931 0.379513
O O10 0.500000 0.000000 0.500000
O O11 0.625819 0.983458 0.549762
O O12 0.500000 0.000000 0.000000
O O13 0.316341 0.817013 0.466369
O O14 0.848385 0.940859 0.758597
O O15 0.112664 0.851261 0.084146
#
# Coordination Sequence:
#
# PCOD9242580 Si02
#       7
#     4   4   4   4   4   4   4
#     4   9  19  35  56  86 116 151 199 247 299 365
#     4  11  21  34  59  86 120 153 201 255 309 358
#     4   9  19  36  61  84 113 154 199 245 304 349
#     4  11  20  33  57  89 118 151 195 260 307 353
#     4  10  20  34  57  85 111 149 202 255 295 364
#     4  10  21  36  60  86 119 165 197 241 303 377
#     4  10  20  37  59  86 122 156 201 243 302 364
#
# _framework density 20.042829999999999
#
# number of rings (size 3 to 8) (size 9 to 14) (size 15 to 20)
#    0.000    2.000    2.857    1.714    4.000    0.571 
#    0.000    0.000    6.286    3.429    0.000    0.000 
#    0.000    0.000    0.000    0.000    0.000    0.000 
#
# Total GULP energy -156021.713652 kJ/mol
# GULP energy per Si atom -5572.204059 kJ/mol
# Density = 1.999721 g / cm^3
# Si number density = 20.042830 Si / 1000 Ang^3
#
#
#
# Elastic Constant Matrix: (Units=GPa)
#
#
# Indices 1 2 3 4 5 6 
#
# 1 84.8035 14.2857 -4.5901 0.0000 -21.7875 0.0000
# 2 14.2857 109.5516 23.2579 0.0000 1.6979 0.0000
# 3 -4.5901 23.2579 56.5895 0.0000 -13.0616 0.0000
# 4 0.0000 0.0000 0.0000 25.7330 0.0000 -8.7868
# 5 -21.7875 1.6979 -13.0616 0.0000 21.3208 0.0000
# 6 0.0000 0.0000 0.0000 -8.7868 0.0000 29.7120
#
#
#
# Elastic Compliance Matrix: (Units=1/GPa)
#
#
# Indices 1 2 3 4 5 6 
#
# 1 0.020204 -0.005191 0.010055 0.000000 0.027219 0.000000
# 2 -0.005191 0.011615 -0.007725 0.000000 -0.010962 0.000000
# 3 0.010055 -0.007725 0.028156 0.000000 0.028139 0.000000
# 4 0.000000 0.000000 0.000000 0.043226 0.000000 0.012783
# 5 0.027219 -0.010962 0.028139 0.000000 0.092829 0.000000
# 6 0.000000 0.000000 0.000000 0.012783 0.000000 0.037437
#
#
# Mechanical properties :
#
#
# Convention : Reuss Voigt Hill
#
# Bulk Modulus (GPa) = 18.43230 35.20576 26.81903
# Shear Modulus (GPa) = 19.43460 29.88591 24.66025
#
# Velocity S-wave (km/s) = 3.11730 3.86567 3.51148
# Velocity P-wave (km/s) = 4.70884 6.12600 5.46357
#
# Compressibility (1/GPa) = 0.05425259
#
# Stress axis : x y z
#
# Youngs Moduli (GPa) = 49.49580 86.09580 35.51584
#
# Poissons Ratio (x) = 0.44693 -0.35710
# Poissons Ratio (y) = 0.25694 0.27436
# Poissons Ratio (z) = -0.49767 0.66508
#
# Static dielectric constant tensor:
#      x y z
#    x 1.737780 0.000000 -0.007260 
#    y 0.000000 1.776300 0.000000 
#    z -0.007260 0.000000 1.724610 
# 
# From -- ./inp_files/70682.got.cif
#   From: 2010.05.17/outbox.cif.g08.bks.cpg/sg14_36_cif.got.tgz:70682.got - 2010.06.03 17:49:19.
