data_PCOD9242618
_publ_section_title
;
Structure prediction by ZEFSAII (Michael W. Deem and Ramdas Pophale) SiO2 
 PCOD9242618
Probable space group: P 21/C
;
_chemical_formula_sum "Si O2"
_cell_formula_units_Z 28
_cell_length_a 12.278958
_cell_length_b 12.786672
_cell_length_c 13.070000
_cell_angle_alpha 90.000000
_cell_angle_beta 149.570513
_cell_angle_gamma 90.000000
_cell_volume 1039.333335
_symmetry_space_group_name_H-M "P 21/C"
_symmetry_group_IT_number 14
_symmetry_cell_setting 'monoclinic'
loop_
_space_group_symop_operation_xyz
x,y,z
-x,1/2+y,1/2-z
-x,-y,-z
x,1/2-y,1/2+z
loop_
_atom_site_type_symbol
_atom_site_label
_atom_site_fract_x
_atom_site_fract_y
_atom_site_fract_z
Si Si1 0.669427 0.012935 0.398245
Si Si2 0.853254 0.808123 0.452301
Si Si3 0.692503 0.444862 0.276169
Si Si4 0.737737 0.497194 0.587947
Si Si5 0.513227 0.827633 0.025128
Si Si6 0.012559 0.100651 0.871669
Si Si7 0.249569 0.728390 0.123680
O O1 0.819970 0.923444 0.470820
O O2 0.556585 0.969582 0.409273
O O3 0.462416 0.010567 0.152307
O O4 0.727036 0.135796 0.438750
O O5 0.911137 0.719063 0.581781
O O6 0.632043 0.773927 0.215434
O O7 0.036449 0.798497 0.514910
O O8 0.826935 0.547708 0.415196
O O9 0.757149 0.350688 0.407784
O O10 0.783857 0.405122 0.241981
O O11 0.701759 0.384498 0.607963
O O12 0.681877 0.580751 0.630607
O O13 0.948362 0.531469 0.696900
O O14 0.447377 0.774368 0.865964
#
# Coordination Sequence:
#
# PCOD9242618 Si02
#       7
#     4   4   4   4   4   4   4
#     4   9  18  30  56  88 108 149 199 240 289 337
#     4  10  20  34  61  89 118 149 194 244 293 349
#     4   9  19  33  57  83 114 162 195 228 293 360
#     4   8  16  32  55  82 115 155 190 238 288 342
#     4   9  18  34  59  89 114 149 197 242 290 337
#     4   9  18  35  58  84 120 163 192 230 302 357
#     4  10  20  36  60  87 119 150 199 249 291 338
#
# _framework density 26.940346999999999
#
# number of rings (size 3 to 8) (size 9 to 14) (size 15 to 20)
#    0.000    2.857    0.000    1.286    6.000    0.000 
#    0.000    0.714   44.000   22.286    0.000    0.000 
#    0.000    0.000    0.000    0.000    0.000    0.000 
#
# Total GULP energy -156516.190282 kJ/mol
# GULP energy per Si atom -5589.863939 kJ/mol
# Density = 2.687903 g / cm^3
# Si number density = 26.940347 Si / 1000 Ang^3
#
#
#
# Elastic Constant Matrix: (Units=GPa)
#
#
# Indices 1 2 3 4 5 6 
#
# 1 100.8516 40.7254 20.2633 0.0000 43.9370 0.0000
# 2 40.7254 169.5118 41.5321 0.0000 18.0429 0.0000
# 3 20.2633 41.5321 54.4761 0.0000 7.3929 0.0000
# 4 0.0000 0.0000 0.0000 35.0861 0.0000 5.2053
# 5 43.9370 18.0429 7.3929 0.0000 64.2183 0.0000
# 6 0.0000 0.0000 0.0000 5.2053 0.0000 40.7082
#
#
#
# Elastic Compliance Matrix: (Units=1/GPa)
#
#
# Indices 1 2 3 4 5 6 
#
# 1 0.015553 -0.001975 -0.002957 0.000000 -0.009746 0.000000
# 2 -0.001975 0.007636 -0.005058 0.000000 -0.000212 0.000000
# 3 -0.002957 -0.005058 0.023208 0.000000 0.000773 0.000000
# 4 0.000000 0.000000 0.000000 0.029052 0.000000 -0.003715
# 5 -0.009746 -0.000212 0.000773 0.000000 0.022210 0.000000
# 6 0.000000 0.000000 0.000000 -0.003715 0.000000 0.025040
#
#
# Mechanical properties :
#
#
# Convention : Reuss Voigt Hill
#
# Bulk Modulus (GPa) = 37.85458 58.87568 48.36513
# Shear Modulus (GPa) = 33.00663 42.82376 37.91520
#
# Velocity S-wave (km/s) = 3.50405 3.99128 3.75557
# Velocity P-wave (km/s) = 5.51841 6.56825 6.06609
#
# Compressibility (1/GPa) = 0.02641688
#
# Stress axis : x y z
#
# Youngs Moduli (GPa) = 64.29617 130.96642 43.08871
#
# Poissons Ratio (x) = 0.25863 0.12742
# Poissons Ratio (y) = 0.12697 0.21794
# Poissons Ratio (z) = 0.19013 0.66242
#
# Static dielectric constant tensor:
#      x y z
#    x 2.151870 0.000000 -0.015450 
#    y 0.000000 2.088880 0.000000 
#    z -0.015450 0.000000 2.210110 
# 
# From -- ./inp_files/57607.got.cif
#   From: 2010.05.17/outbox.cif.g08.bks.cpg/sg14_29_cif.got.tgz:57607.got - 2010.06.03 17:49:19.
