data_PCOD9242463
_publ_section_title
;
Structure prediction by ZEFSAII (Michael W. Deem and Ramdas Pophale) SiO2 
 PCOD9242463
Probable space group: P 21/C
;
_chemical_formula_sum "Si O2"
_cell_formula_units_Z 28
_cell_length_a 21.231779
_cell_length_b 9.103422
_cell_length_c 14.242282
_cell_angle_alpha 90.000000
_cell_angle_beta 32.343131
_cell_angle_gamma 90.000000
_cell_volume 1472.702695
_symmetry_space_group_name_H-M "P 21/C"
_symmetry_group_IT_number 14
_symmetry_cell_setting 'monoclinic'
loop_
_space_group_symop_operation_xyz
x,y,z
-x,1/2+y,1/2-z
-x,-y,-z
x,1/2-y,1/2+z
loop_
_atom_site_type_symbol
_atom_site_label
_atom_site_fract_x
_atom_site_fract_y
_atom_site_fract_z
Si Si1 0.861490 0.494792 0.188434
Si Si2 0.757346 0.774234 0.681675
Si Si3 0.487370 0.668003 0.479624
Si Si4 0.324385 0.096237 0.542785
Si Si5 0.307900 0.753682 0.549769
Si Si6 0.247249 0.341947 0.495341
Si Si7 0.402311 0.622110 0.247567
O O1 0.801770 0.578119 0.175321
O O2 0.804436 0.334505 0.270656
O O3 0.824923 0.576933 0.331216
O O4 0.000000 0.500000 0.000000
O O5 0.749233 0.660244 0.777190
O O6 0.823807 0.718914 0.505203
O O7 0.623732 0.788388 0.812628
O O8 0.500000 0.500000 0.500000
O O9 0.419643 0.686296 0.466750
O O10 0.414596 0.782838 0.637098
O O11 0.303084 0.203451 0.481106
O O12 0.462559 0.101402 0.392684
O O13 0.294205 0.926717 0.572239
O O14 0.334379 0.719189 0.408652
O O15 0.336613 0.465472 0.340015
#
# Coordination Sequence:
#
# PCOD9242463 Si02
#       7
#     4   4   4   4   4   4   4
#     4  10  23  44  60  80 115 155 197 254 299 337
#     4  10  20  38  59  81 121 153 190 240 295 350
#     4  11  21  34  58  93 123 156 193 237 294 362
#     4  10  20  33  56  88 121 157 189 239 294 355
#     4  11  22  35  59  87 117 154 198 238 294 356
#     4  10  21  38  58  84 116 158 200 240 295 352
#     4  10  21  33  55  87 127 160 186 237 293 358
#
# _framework density 19.012663
#
# number of rings (size 3 to 8) (size 9 to 14) (size 15 to 20)
#    0.000    1.714    1.429    3.429    6.000    2.286 
#    0.000    8.571    0.000    0.000    0.000    0.000 
#    0.000    0.000    0.000    0.000    0.000    0.000 
#
# Total GULP energy -156078.599796 kJ/mol
# GULP energy per Si atom -5574.235707 kJ/mol
# Density = 1.896939 g / cm^3
# Si number density = 19.012663 Si / 1000 Ang^3
#
#
#
# Elastic Constant Matrix: (Units=GPa)
#
#
# Indices 1 2 3 4 5 6 
#
# 1 43.6112 -2.8051 13.2171 0.0000 21.0056 0.0000
# 2 -2.8051 113.7469 15.9266 0.0000 6.8174 0.0000
# 3 13.2171 15.9266 54.9076 0.0000 -3.6375 0.0000
# 4 0.0000 0.0000 0.0000 6.3182 0.0000 5.6261
# 5 21.0056 6.8174 -3.6375 0.0000 25.3472 0.0000
# 6 0.0000 0.0000 0.0000 5.6261 0.0000 18.7079
#
#
#
# Elastic Compliance Matrix: (Units=1/GPa)
#
#
# Indices 1 2 3 4 5 6 
#
# 1 0.050889 0.006441 -0.017190 0.000000 -0.046372 0.000000
# 2 0.006441 0.010191 -0.005090 0.000000 -0.008809 0.000000
# 3 -0.017190 -0.005090 0.025100 0.000000 0.019217 0.000000
# 4 0.000000 0.000000 0.000000 0.216158 0.000000 -0.065006
# 5 -0.046372 -0.008809 0.019217 0.000000 0.083008 0.000000
# 6 0.000000 0.000000 0.000000 -0.065006 0.000000 0.073003
#
#
# Mechanical properties :
#
#
# Convention : Reuss Voigt Hill
#
# Bulk Modulus (GPa) = 18.34800 29.43811 23.89305
# Shear Modulus (GPa) = 9.83874 22.46980 16.15427
#
# Velocity S-wave (km/s) = 2.27729 3.44151 2.91805
# Velocity P-wave (km/s) = 4.07261 5.59545 4.89363
#
# Compressibility (1/GPa) = 0.05450186
#
# Stress axis : x y z
#
# Youngs Moduli (GPa) = 19.65047 98.12591 39.84070
#
# Poissons Ratio (x) = -0.63205 0.68487
# Poissons Ratio (y) = -0.12657 0.20279
# Poissons Ratio (z) = 0.33780 0.49947
#
# Static dielectric constant tensor:
#      x y z
#    x 1.675760 0.000000 0.047020 
#    y 0.000000 1.732660 0.000000 
#    z 0.047020 0.000000 1.685290 
# 
# From -- ./inp_files/43314.got.cif
#   From: 2010.05.17/outbox.cif.g08.bks.cpg/sg14_22_cif.got.tgz:43314.got - 2010.06.03 17:49:19.
