data_PCOD9242648
_publ_section_title
;
Structure prediction by ZEFSAII (Michael W. Deem and Ramdas Pophale) SiO2 
 PCOD9242648
Probable space group: P 21/C
;
_chemical_formula_sum "Si O2"
_cell_formula_units_Z 32
_cell_length_a 7.472965
_cell_length_b 8.873231
_cell_length_c 22.526861
_cell_angle_alpha 90.000000
_cell_angle_beta 125.379766
_cell_angle_gamma 90.000000
_cell_volume 1217.895631
_symmetry_space_group_name_H-M "P 21/C"
_symmetry_group_IT_number 14
_symmetry_cell_setting 'monoclinic'
loop_
_space_group_symop_operation_xyz
x,y,z
-x,1/2+y,1/2-z
-x,-y,-z
x,1/2-y,1/2+z
loop_
_atom_site_type_symbol
_atom_site_label
_atom_site_fract_x
_atom_site_fract_y
_atom_site_fract_z
Si Si1 0.918388 0.427129 0.136063
Si Si2 0.375261 0.310864 0.437072
Si Si3 0.267877 0.109281 0.307092
Si Si4 0.144103 0.594434 0.359686
Si Si5 0.365818 0.811095 0.186868
Si Si6 0.234886 0.102229 0.509252
Si Si7 0.342405 0.579746 0.275483
Si Si8 0.187821 0.723078 0.038352
O O1 0.144601 0.478703 0.209963
O O2 0.734946 0.461991 0.151209
O O3 0.900918 0.252564 0.117983
O O4 0.885595 0.522682 0.070611
O O5 0.239460 0.230438 0.356374
O O6 0.238009 0.463028 0.418874
O O7 0.387272 0.213181 0.499996
O O8 0.623841 0.317291 0.459109
O O9 0.453140 0.194506 0.305237
O O10 0.074362 0.076901 0.222903
O O11 0.325154 0.596425 0.342120
O O12 0.322092 0.742664 0.242194
O O13 0.448358 0.980354 0.201094
O O14 0.177451 0.789860 0.102840
O O15 0.071164 0.194148 0.520708
O O16 0.291986 0.947737 0.555013
#
# Coordination Sequence:
#
# PCOD9242648 Si02
#       8
#     4   4   4   4   4   4   4   4
#     4  10  20  35  54  84 112 156 192 232 299 354
#     4  10  20  37  59  83 115 156 199 242 293 354
#     4   9  18  33  53  78 112 153 189 229 286 362
#     4  11  19  35  54  80 123 150 186 240 300 363
#     4  11  21  37  56  86 119 145 194 248 300 353
#     4  10  21  38  65  82 111 156 207 250 289 340
#     4  11  22  36  54  86 118 156 186 242 301 365
#     4  10  20  39  61  87 111 152 208 251 281 351
#
# _framework density 26.274830999999999
#
# number of rings (size 3 to 8) (size 9 to 14) (size 15 to 20)
#    0.000    1.750    5.000    1.125    1.750    1.000 
#    0.000    0.625    0.000    3.000    0.000    0.000 
#    0.000    0.000    0.000    0.000    0.000    0.000 
#
# Total GULP energy -178517.026157 kJ/mol
# GULP energy per Si atom -5578.657067 kJ/mol
# Density = 2.621503 g / cm^3
# Si number density = 26.274831 Si / 1000 Ang^3
#
#
#
# Elastic Constant Matrix: (Units=GPa)
#
#
# Indices 1 2 3 4 5 6 
#
# 1 84.0668 22.2459 8.7747 0.0000 -18.1738 0.0000
# 2 22.2459 85.4343 24.3639 0.0000 -11.6685 0.0000
# 3 8.7747 24.3639 72.0808 0.0000 -11.5743 0.0000
# 4 0.0000 0.0000 0.0000 32.3395 0.0000 0.0380
# 5 -18.1738 -11.6685 -11.5743 0.0000 22.3913 0.0000
# 6 0.0000 0.0000 0.0000 0.0380 0.0000 36.2304
#
#
#
# Elastic Compliance Matrix: (Units=1/GPa)
#
#
# Indices 1 2 3 4 5 6 
#
# 1 0.014913 -0.002600 0.000861 0.000000 0.011195 0.000000
# 2 -0.002600 0.013918 -0.003884 0.000000 0.003135 0.000000
# 3 0.000861 -0.003884 0.016214 0.000000 0.007056 0.000000
# 4 0.000000 0.000000 0.000000 0.030922 0.000000 -0.000032
# 5 0.011195 0.003135 0.007056 0.000000 0.059027 0.000000
# 6 0.000000 0.000000 0.000000 -0.000032 0.000000 0.027601
#
#
# Mechanical properties :
#
#
# Convention : Reuss Voigt Hill
#
# Bulk Modulus (GPa) = 29.58684 39.15012 34.36848
# Shear Modulus (GPa) = 27.01111 30.60540 28.80825
#
# Velocity S-wave (km/s) = 3.20976 3.41665 3.31482
# Velocity P-wave (km/s) = 5.00217 5.52243 5.26872
#
# Compressibility (1/GPa) = 0.03379882
#
# Stress axis : x y z
#
# Youngs Moduli (GPa) = 67.05340 71.85063 61.67324
#
# Poissons Ratio (x) = 0.18680 -0.05309
# Poissons Ratio (y) = 0.17433 0.23957
# Poissons Ratio (z) = -0.05772 0.27910
#
# Static dielectric constant tensor:
#      x y z
#    x 2.159140 0.000000 0.041000 
#    y 0.000000 2.088700 0.000000 
#    z 0.041000 0.000000 2.077610 
# 
# From -- ./inp_files/71966.got.cif
#   From: 2010.05.17/outbox.cif.g08.bks.cpg/sg14_36_cif.got.tgz:71966.got - 2010.06.03 17:49:19.
