data_PCOD9242803
_publ_section_title
;
Structure prediction by ZEFSAII (Michael W. Deem and Ramdas Pophale) SiO2 
 PCOD9242803
Probable space group: P 21/C
;
_chemical_formula_sum "Si O2"
_cell_formula_units_Z 32
_cell_length_a 23.822859
_cell_length_b 8.156026
_cell_length_c 19.811970
_cell_angle_alpha 90.000000
_cell_angle_beta 156.647047
_cell_angle_gamma 90.000000
_cell_volume 1525.904652
_symmetry_space_group_name_H-M "P 21/C"
_symmetry_group_IT_number 14
_symmetry_cell_setting 'monoclinic'
loop_
_space_group_symop_operation_xyz
x,y,z
-x,1/2+y,1/2-z
-x,-y,-z
x,1/2-y,1/2+z
loop_
_atom_site_type_symbol
_atom_site_label
_atom_site_fract_x
_atom_site_fract_y
_atom_site_fract_z
Si Si1 0.360671 0.015992 0.022641
Si Si2 0.733571 0.517910 0.366399
Si Si3 0.573117 0.721939 0.078532
Si Si4 0.836290 0.334241 0.969698
Si Si5 0.437175 0.401608 0.079507
Si Si6 0.671619 0.974821 0.405568
Si Si7 0.303573 0.580500 0.314939
Si Si8 0.862160 0.846140 0.127147
O O1 0.510466 0.929474 0.205055
O O2 0.409374 0.208979 0.066867
O O3 0.238987 0.031105 0.943415
O O4 0.287298 0.931239 0.877218
O O5 0.667859 0.645103 0.241532
O O6 0.792359 0.349698 0.403697
O O7 0.862702 0.589744 0.551839
O O8 0.597723 0.464137 0.261321
O O9 0.586623 0.605472 0.027750
O O10 0.626970 0.902876 0.120894
O O11 0.412267 0.769147 0.920829
O O12 0.731827 0.406146 0.913199
O O13 0.817512 0.418103 0.875916
O O14 0.990455 0.337618 0.172335
O O15 0.350612 0.510931 0.038430
O O16 0.781471 0.825827 0.530090
#
# Coordination Sequence:
#
# PCOD9242803 Si02
#       8
#     4   4   4   4   4   4   4   4
#     4  10  20  39  63  91 116 158 210 260 304 361
#     4  12  21  37  61  92 124 157 212 259 305 371
#     4  10  20  37  62  97 121 158 209 265 310 361
#     4  12  24  40  58  90 128 168 202 250 320 382
#     4  10  20  35  61  93 118 148 203 268 299 352
#     4  11  21  42  64  86 124 162 207 260 311 361
#     4  10  20  38  63  87 129 165 203 255 319 368
#     4  11  25  39  61  89 126 166 203 254 317 382
#
# _framework density 20.971164000000002
#
# number of rings (size 3 to 8) (size 9 to 14) (size 15 to 20)
#    0.000    1.250    3.750    4.125    0.000    0.500 
#    2.250    0.000    0.000   13.500    0.000    0.000 
#    0.000    0.000    0.000    0.000    0.000    0.000 
#
# Total GULP energy -178162.653432 kJ/mol
# GULP energy per Si atom -5567.582920 kJ/mol
# Density = 2.092343 g / cm^3
# Si number density = 20.971164 Si / 1000 Ang^3
#
#
#
# Elastic Constant Matrix: (Units=GPa)
#
#
# Indices 1 2 3 4 5 6 
#
# 1 65.5135 20.8253 33.6868 0.0000 -26.4618 0.0000
# 2 20.8253 39.9347 25.5007 0.0000 -13.6241 0.0000
# 3 33.6868 25.5007 107.1327 0.0000 -25.0821 0.0000
# 4 0.0000 0.0000 0.0000 -7.0260 0.0000 4.4856
# 5 -26.4618 -13.6241 -25.0821 0.0000 32.8511 0.0000
# 6 0.0000 0.0000 0.0000 4.4856 0.0000 4.3510
#
#
#
# Elastic Compliance Matrix: (Units=1/GPa)
#
#
# Indices 1 2 3 4 5 6 
#
# 1 0.024790 -0.005895 -0.002787 0.000000 0.015395 0.000000
# 2 -0.005895 0.032954 -0.004752 0.000000 0.005290 0.000000
# 3 -0.002787 -0.004752 0.012609 0.000000 0.005411 0.000000
# 4 0.000000 0.000000 0.000000 -0.085834 0.000000 0.088490
# 5 0.015395 0.005290 0.005411 0.000000 0.049166 0.000000
# 6 0.000000 0.000000 0.000000 0.088490 0.000000 0.138606
#
#
# Mechanical properties :
#
#
# Convention : Reuss Voigt Hill
#
# Bulk Modulus (GPa) = 22.99720 41.40071 32.19895
# Shear Modulus (GPa) = 23.40234 14.87310 19.13772
#
# Velocity S-wave (km/s) = 3.34418 2.66600 3.02416
# Velocity P-wave (km/s) = 5.08933 5.40938 5.25179
#
# Compressibility (1/GPa) = 0.04348356
#
# Stress axis : x y z
#
# Youngs Moduli (GPa) = 40.33964 30.34504 79.31155
#
# Poissons Ratio (x) = 0.17889 0.22106
# Poissons Ratio (y) = 0.23782 0.37687
# Poissons Ratio (z) = 0.11244 0.14419
#
# Static dielectric constant tensor:
#      x y z
#    x 1.819440 0.000000 -0.028660 
#    y 0.000000 1.798400 0.000000 
#    z -0.028660 0.000000 1.737530 
# 
# From -- ./inp_files/70541.got.cif
#   From: 2010.05.17/outbox.cif.g08.bks.cpg/sg14_36_cif.got.tgz:70541.got - 2010.06.03 17:49:19.
