data_PCOD9242735
_publ_section_title
;
Structure prediction by ZEFSAII (Michael W. Deem and Ramdas Pophale) SiO2 
 PCOD9242735
Probable space group: P 21/C
;
_chemical_formula_sum "Si O2"
_cell_formula_units_Z 32
_cell_length_a 11.208648
_cell_length_b 26.219233
_cell_length_c 5.261559
_cell_angle_alpha 90.000000
_cell_angle_beta 106.459589
_cell_angle_gamma 90.000000
_cell_volume 1482.911518
_symmetry_space_group_name_H-M "P 21/C"
_symmetry_group_IT_number 14
_symmetry_cell_setting 'monoclinic'
loop_
_space_group_symop_operation_xyz
x,y,z
-x,1/2+y,1/2-z
-x,-y,-z
x,1/2-y,1/2+z
loop_
_atom_site_type_symbol
_atom_site_label
_atom_site_fract_x
_atom_site_fract_y
_atom_site_fract_z
Si Si1 0.892880 0.282164 0.242423
Si Si2 0.064283 0.085590 0.264554
Si Si3 0.214580 0.390218 0.350388
Si Si4 0.808216 0.719482 0.540560
Si Si5 0.807066 0.011919 0.600292
Si Si6 0.400691 0.465300 0.694540
Si Si7 0.364004 0.561891 0.372474
Si Si8 0.187697 0.884606 0.066568
O O1 0.863819 0.242329 0.452265
O O2 0.826492 0.335460 0.265982
O O3 0.042607 0.290557 0.348163
O O4 0.149702 0.108541 0.538332
O O5 0.073773 0.024741 0.318735
O O6 0.116652 0.095424 0.013741
O O7 0.931457 0.112621 0.190593
O O8 0.258209 0.333455 0.439383
O O9 0.324028 0.430819 0.449799
O O10 0.780520 0.739967 0.244215
O O11 0.758947 0.033167 0.304985
O O12 0.820168 0.062320 0.779832
O O13 0.695176 0.975215 0.635055
O O14 0.421973 0.523035 0.611488
O O15 0.533927 0.437442 0.789411
O O16 0.313745 0.611841 0.478668
#
# Coordination Sequence:
#
# PCOD9242735 Si02
#       8
#     4   4   4   4   4   4   4   4
#     4  10  23  39  59  83 115 156 198 249 294 352
#     4  11  23  36  58  89 127 160 188 234 302 365
#     4  11  21  38  60  86 119 155 194 248 294 350
#     4  10  20  35  58  84 112 149 194 245 302 355
#     4  10  21  37  56  89 122 164 195 247 292 356
#     4   9  20  38  57  86 114 159 207 241 285 346
#     4  10  20  37  60  82 120 158 205 237 286 353
#     4  11  24  36  58  88 121 159 198 244 302 363
#
# _framework density 21.579169
#
# number of rings (size 3 to 8) (size 9 to 14) (size 15 to 20)
#    0.000    1.750    2.500    1.500    7.000    0.500 
#    0.000    0.000    0.000    1.500    0.000    0.000 
#    0.000    0.000    0.000    0.000    0.000    0.000 
#
# Total GULP energy -178633.937444 kJ/mol
# GULP energy per Si atom -5582.310545 kJ/mol
# Density = 2.153005 g / cm^3
# Si number density = 21.579169 Si / 1000 Ang^3
#
#
#
# Elastic Constant Matrix: (Units=GPa)
#
#
# Indices 1 2 3 4 5 6 
#
# 1 54.8856 18.9605 13.0745 0.0000 -3.3493 0.0000
# 2 18.9605 89.8730 11.1934 0.0000 -7.0009 0.0000
# 3 13.0745 11.1934 52.8922 0.0000 -11.0058 0.0000
# 4 0.0000 0.0000 0.0000 24.5518 0.0000 -14.7647
# 5 -3.3493 -7.0009 -11.0058 0.0000 19.6991 0.0000
# 6 0.0000 0.0000 0.0000 -14.7647 0.0000 28.4896
#
#
#
# Elastic Compliance Matrix: (Units=1/GPa)
#
#
# Indices 1 2 3 4 5 6 
#
# 1 0.020553 -0.003819 -0.004331 0.000000 -0.000282 0.000000
# 2 -0.003819 0.012304 -0.001002 0.000000 0.003164 0.000000
# 3 -0.004331 -0.001002 0.022588 0.000000 0.011527 0.000000
# 4 0.000000 0.000000 0.000000 0.059171 0.000000 0.030665
# 5 -0.000282 0.003164 0.011527 0.000000 0.058280 0.000000
# 6 0.000000 0.000000 0.000000 0.030665 0.000000 0.050993
#
#
# Mechanical properties :
#
#
# Convention : Reuss Voigt Hill
#
# Bulk Modulus (GPa) = 26.92398 31.56754 29.24576
# Shear Modulus (GPa) = 19.64076 24.84292 22.24184
#
# Velocity S-wave (km/s) = 3.02018 3.39668 3.21395
# Velocity P-wave (km/s) = 4.96648 5.48122 5.23018
#
# Compressibility (1/GPa) = 0.03714162
#
# Stress axis : x y z
#
# Youngs Moduli (GPa) = 48.65367 81.27679 44.27219
#
# Poissons Ratio (x) = 0.31037 0.19175
# Poissons Ratio (y) = 0.18579 0.04434
# Poissons Ratio (z) = 0.21073 0.08140
#
# Static dielectric constant tensor:
#      x y z
#    x 1.878160 0.000000 -0.010650 
#    y 0.000000 1.801450 0.000000 
#    z -0.010650 0.000000 1.814790 
# 
# From -- ./inp_files/3225.got.cif
#   From: 2010.05.17/outbox.cif.g08.bks.cpg/sg14_2_cif.got.tgz:3225.got - 2010.06.03 17:49:19.
