data_PCOD9242843
_publ_section_title
;
Structure prediction by ZEFSAII (Michael W. Deem and Ramdas Pophale) SiO2 
 PCOD9242843
Probable space group: P 21/C
;
_chemical_formula_sum "Si O2"
_cell_formula_units_Z 28
_cell_length_a 9.144613
_cell_length_b 15.873000
_cell_length_c 19.536734
_cell_angle_alpha 90.000000
_cell_angle_beta 30.535921
_cell_angle_gamma 90.000000
_cell_volume 1440.811240
_symmetry_space_group_name_H-M "P 21/C"
_symmetry_group_IT_number 14
_symmetry_cell_setting 'monoclinic'
loop_
_space_group_symop_operation_xyz
x,y,z
-x,1/2+y,1/2-z
-x,-y,-z
x,1/2-y,1/2+z
loop_
_atom_site_type_symbol
_atom_site_label
_atom_site_fract_x
_atom_site_fract_y
_atom_site_fract_z
Si Si1 0.887596 0.385627 0.977756
Si Si2 0.018687 0.962822 0.843973
Si Si3 0.972491 0.147363 0.790632
Si Si4 0.452609 0.746567 0.941205
Si Si5 0.421495 0.484838 0.800010
Si Si6 0.097700 0.395549 0.746326
Si Si7 0.583928 0.062620 0.846541
O O1 0.212925 0.404957 0.870538
O O2 0.891464 0.398765 0.894472
O O3 0.738167 0.294554 0.042868
O O4 0.709579 0.457159 0.087579
O O5 0.068441 0.902632 0.758140
O O6 0.267218 0.959370 0.799839
O O7 0.989058 0.060260 0.828702
O O8 0.729724 0.928864 0.995419
O O9 0.800511 0.131795 0.789255
O O10 0.298001 0.177059 0.643635
O O11 0.778157 0.215358 0.911350
O O12 0.668434 0.822872 0.838101
O O13 0.422092 0.542143 0.731357
O O14 0.291072 0.478330 0.670051
#
# Coordination Sequence:
#
# PCOD9242843 Si02
#       7
#     4   4   4   4   4   4   4
#     4  10  22  39  57  91 128 167 203 254 315 379
#     4  11  19  38  66  96 116 162 216 262 301 371
#     4  11  22  37  66  94 122 160 214 265 314 362
#     4  12  20  38  65  90 125 158 209 266 318 360
#     4  10  22  39  60  90 127 163 206 251 314 385
#     4  10  20  35  65  90 117 156 219 263 299 364
#     4  10  20  39  62  92 121 160 207 259 304 381
#
# _framework density 19.433496999999999
#
# number of rings (size 3 to 8) (size 9 to 14) (size 15 to 20)
#    0.000    1.429    5.714    1.286    0.000    0.571 
#    5.143    0.000   15.714    0.000    0.000    0.000 
#    0.000    0.000    0.000    0.000    0.000    0.000 
#
# Total GULP energy -155872.822611 kJ/mol
# GULP energy per Si atom -5566.886522 kJ/mol
# Density = 1.938927 g / cm^3
# Si number density = 19.433497 Si / 1000 Ang^3
#
#
#
# Elastic Constant Matrix: (Units=GPa)
#
#
# Indices 1 2 3 4 5 6 
#
# 1 98.1918 36.6746 52.5827 0.0000 -8.1962 0.0000
# 2 36.6746 69.9215 22.0104 0.0000 -5.3640 0.0000
# 3 52.5827 22.0104 89.1070 0.0000 -15.5961 0.0000
# 4 0.0000 0.0000 0.0000 3.4501 0.0000 -17.3337
# 5 -8.1962 -5.3640 -15.5961 0.0000 14.8058 0.0000
# 6 0.0000 0.0000 0.0000 -17.3337 0.0000 23.6071
#
#
#
# Elastic Compliance Matrix: (Units=1/GPa)
#
#
# Indices 1 2 3 4 5 6 
#
# 1 0.017165 -0.006357 -0.008949 0.000000 -0.002227 0.000000
# 2 -0.006357 0.017908 -0.000187 0.000000 0.002772 0.000000
# 3 -0.008949 -0.000187 0.019213 0.000000 0.015217 0.000000
# 4 0.000000 0.000000 0.000000 -0.107790 0.000000 -0.079146
# 5 -0.002227 0.002772 0.015217 0.000000 0.083342 0.000000
# 6 0.000000 0.000000 0.000000 -0.079146 0.000000 -0.015753
#
#
# Mechanical properties :
#
#
# Convention : Reuss Voigt Hill
#
# Bulk Modulus (GPa) = 42.91883 53.30618 48.11251
# Shear Modulus (GPa) = 94.63519 18.10278 56.36899
#
# Velocity S-wave (km/s) = 6.98589 3.05540 5.39157
# Velocity P-wave (km/s) = 9.33826 6.31956 7.97308
#
# Compressibility (1/GPa) = 0.02329980
#
# Stress axis : x y z
#
# Youngs Moduli (GPa) = 58.25950 55.84239 52.04928
#
# Poissons Ratio (x) = 0.35499 0.46576
# Poissons Ratio (y) = 0.37035 0.00973
# Poissons Ratio (z) = 0.52134 0.01044
#
# Static dielectric constant tensor:
#      x y z
#    x 1.693430 0.000000 0.001880 
#    y 0.000000 1.759130 0.000000 
#    z 0.001880 0.000000 1.709560 
# 
# From -- ./inp_files/65893.got.cif
#   From: 2010.05.17/outbox.cif.g08.bks.cpg/sg14_33_cif.got.tgz:65893.got - 2010.06.03 17:49:19.
