data_PCOD9242460
_publ_section_title
;
Structure prediction by ZEFSAII (Michael W. Deem and Ramdas Pophale) SiO2 
 PCOD9242460
Probable space group: P 21/C
;
_chemical_formula_sum "Si O2"
_cell_formula_units_Z 16
_cell_length_a 7.241480
_cell_length_b 8.575416
_cell_length_c 10.594297
_cell_angle_alpha 90.000000
_cell_angle_beta 68.407263
_cell_angle_gamma 90.000000
_cell_volume 611.723307
_symmetry_space_group_name_H-M "P 21/C"
_symmetry_group_IT_number 14
_symmetry_cell_setting 'monoclinic'
loop_
_space_group_symop_operation_xyz
x,y,z
-x,1/2+y,1/2-z
-x,-y,-z
x,1/2-y,1/2+z
loop_
_atom_site_type_symbol
_atom_site_label
_atom_site_fract_x
_atom_site_fract_y
_atom_site_fract_z
Si Si1 0.823140 0.641193 0.068993
Si Si2 0.465091 0.440737 0.152209
Si Si3 0.943002 0.038981 0.289701
Si Si4 0.337070 0.373941 0.563068
O O1 0.672059 0.504419 0.156946
O O2 0.994195 0.676766 0.127396
O O3 0.693268 0.787160 0.062782
O O4 0.917764 0.591310 0.908568
O O5 0.414765 0.258652 0.142769
O O6 0.261731 0.532866 0.234447
O O7 0.500000 0.500000 0.000000
O O8 0.129743 0.046591 0.152185
O O9 0.500000 0.500000 0.500000
#
# Coordination Sequence:
#
# PCOD9242460 Si02
#       4
#     4   4   4   4
#     4   9  20  37  57  77 107 150 179 217 280 327
#     4   8  18  35  54  75 107 145 176 217 272 325
#     4   9  18  35  57  78 108 144 181 219 270 328
#     4  10  20  33  56  86 109 135 184 233 265 319
#
# _framework density 26.155614
#
# number of rings (size 3 to 8) (size 9 to 14) (size 15 to 20)
#    0.000    3.500    0.000    0.000    0.000   14.000 
#    0.000    7.500    0.000   45.000    0.000    0.000 
#    0.000    0.000    0.000    0.000    0.000    0.000 
#
# Total GULP energy -89160.246864 kJ/mol
# GULP energy per Si atom -5572.515429 kJ/mol
# Density = 2.609608 g / cm^3
# Si number density = 26.155614 Si / 1000 Ang^3
#
#
#
# Elastic Constant Matrix: (Units=GPa)
#
#
# Indices 1 2 3 4 5 6 
#
# 1 138.6022 71.2307 46.0789 0.0000 -35.0955 0.0000
# 2 71.2307 120.9171 40.5160 0.0000 -33.3635 0.0000
# 3 46.0789 40.5160 108.0564 0.0000 -42.2148 0.0000
# 4 0.0000 0.0000 0.0000 28.0875 0.0000 -2.7114
# 5 -35.0955 -33.3635 -42.2148 0.0000 61.1549 0.0000
# 6 0.0000 0.0000 0.0000 -2.7114 0.0000 48.4949
#
#
#
# Elastic Compliance Matrix: (Units=1/GPa)
#
#
# Indices 1 2 3 4 5 6 
#
# 1 0.011132 -0.005321 -0.001904 0.000000 0.002172 0.000000
# 2 -0.005321 0.012660 -0.001332 0.000000 0.002934 0.000000
# 3 -0.001904 -0.001332 0.013494 0.000000 0.007496 0.000000
# 4 0.000000 0.000000 0.000000 0.035796 0.000000 0.002001
# 5 0.002172 0.002934 0.007496 0.000000 0.024373 0.000000
# 6 0.000000 0.000000 0.000000 0.002001 0.000000 0.020733
#
#
# Mechanical properties :
#
#
# Convention : Reuss Voigt Hill
#
# Bulk Modulus (GPa) = 49.56871 75.91410 62.74140
# Shear Modulus (GPa) = 35.20496 41.53079 38.36787
#
# Velocity S-wave (km/s) = 3.67274 3.98909 3.83418
# Velocity P-wave (km/s) = 6.08095 7.09254 6.60614
#
# Compressibility (1/GPa) = 0.02017402
#
# Stress axis : x y z
#
# Youngs Moduli (GPa) = 89.83037 78.98688 74.10710
#
# Poissons Ratio (x) = 0.42027 0.14108
# Poissons Ratio (y) = 0.47796 0.09869
# Poissons Ratio (z) = 0.17101 0.10519
#
# Static dielectric constant tensor:
#      x y z
#    x 2.233470 0.000000 0.003880 
#    y 0.000000 2.209970 0.000000 
#    z 0.003880 0.000000 2.176110 
# 
# From -- ./inp_files/27685.got.cif
#   From: 2010.05.17/outbox.cif.g08.bks.cpg/sg14_14_cif.got.tgz:27685.got - 2010.06.03 17:49:19.
