data_PCOD9242827
_publ_section_title
;
Structure prediction by ZEFSAII (Michael W. Deem and Ramdas Pophale) SiO2 
 PCOD9242827
Probable space group: P 21/C
;
_chemical_formula_sum "Si O2"
_cell_formula_units_Z 28
_cell_length_a 10.222362
_cell_length_b 18.122334
_cell_length_c 7.532069
_cell_angle_alpha 90.000000
_cell_angle_beta 44.958433
_cell_angle_gamma 90.000000
_cell_volume 985.937483
_symmetry_space_group_name_H-M "P 21/C"
_symmetry_group_IT_number 14
_symmetry_cell_setting 'monoclinic'
loop_
_space_group_symop_operation_xyz
x,y,z
-x,1/2+y,1/2-z
-x,-y,-z
x,1/2-y,1/2+z
loop_
_atom_site_type_symbol
_atom_site_label
_atom_site_fract_x
_atom_site_fract_y
_atom_site_fract_z
Si Si1 0.947726 0.920271 0.817241
Si Si2 0.993012 0.634901 0.651115
Si Si3 0.571255 0.870712 0.054246
Si Si4 0.537788 0.232543 0.125536
Si Si5 0.678281 0.480173 0.077195
Si Si6 0.407228 0.599283 0.211793
Si Si7 0.057997 0.702228 0.941979
O O1 0.909157 0.910436 0.064742
O O2 0.100144 0.983116 0.633080
O O3 0.047831 0.848451 0.629552
O O4 0.747896 0.921269 0.921242
O O5 0.195092 0.597186 0.478514
O O6 0.949190 0.656365 0.895487
O O7 0.991778 0.717265 0.564733
O O8 0.594024 0.814059 0.873708
O O9 0.528978 0.812797 0.254035
O O10 0.400517 0.926658 0.195515
O O11 0.543896 0.184610 0.302761
O O12 0.740919 0.220297 0.840649
O O13 0.563535 0.554420 0.167195
O O14 0.616200 0.435966 0.959053
#
# Coordination Sequence:
#
# PCOD9242827 Si02
#       7
#     4   4   4   4   4   4   4
#     4  11  24  41  65  94 131 173 213 270 328 391
#     4  10  20  35  62  96 123 171 212 265 328 391
#     4  12  25  40  66  97 133 165 219 271 329 386
#     4  11  22  40  63 100 129 168 214 274 327 387
#     4  10  21  47  67  90 129 177 217 267 326 396
#     4   9  21  40  71  90 127 176 217 265 333 386
#     4  11  19  37  65  90 128 166 212 259 334 386
#
# _framework density 28.399365
#
# number of rings (size 3 to 8) (size 9 to 14) (size 15 to 20)
#    0.000    1.429    2.857    4.286    2.000    0.571 
#    2.571    7.143    0.000    0.000    0.000    0.000 
#    0.000    0.000    0.000    0.000    0.000    0.000 
#
# Total GULP energy -156668.586811 kJ/mol
# GULP energy per Si atom -5595.306672 kJ/mol
# Density = 2.833473 g / cm^3
# Si number density = 28.399365 Si / 1000 Ang^3
#
#
#
# Elastic Constant Matrix: (Units=GPa)
#
#
# Indices 1 2 3 4 5 6 
#
# 1 108.0603 12.5859 39.1755 0.0000 1.6581 0.0000
# 2 12.5859 101.8505 42.5953 0.0000 -11.3895 0.0000
# 3 39.1755 42.5953 115.9914 0.0000 1.9172 0.0000
# 4 0.0000 0.0000 0.0000 25.1953 0.0000 4.9793
# 5 1.6581 -11.3895 1.9172 0.0000 56.3288 0.0000
# 6 0.0000 0.0000 0.0000 4.9793 0.0000 48.0285
#
#
#
# Elastic Compliance Matrix: (Units=1/GPa)
#
#
# Indices 1 2 3 4 5 6 
#
# 1 0.010551 0.000200 -0.003634 0.000000 -0.000146 0.000000
# 2 0.000200 0.011964 -0.004503 0.000000 0.002566 0.000000
# 3 -0.003634 -0.004503 0.011522 0.000000 -0.001196 0.000000
# 4 0.000000 0.000000 0.000000 0.040520 0.000000 -0.004201
# 5 -0.000146 0.002566 -0.001196 0.000000 0.018317 0.000000
# 6 0.000000 0.000000 0.000000 -0.004201 0.000000 0.021256
#
#
# Mechanical properties :
#
#
# Convention : Reuss Voigt Hill
#
# Bulk Modulus (GPa) = 55.06295 57.17951 56.12123
# Shear Modulus (GPa) = 36.74843 41.34689 39.04766
#
# Velocity S-wave (km/s) = 3.60111 3.81978 3.71205
# Velocity P-wave (km/s) = 6.05983 6.29540 6.17874
#
# Compressibility (1/GPa) = 0.01816103
#
# Stress axis : x y z
#
# Youngs Moduli (GPa) = 94.78085 83.58399 86.78766
#
# Poissons Ratio (x) = -0.01670 0.31542
# Poissons Ratio (y) = -0.01894 0.39084
# Poissons Ratio (z) = 0.34447 0.37641
#
# Static dielectric constant tensor:
#      x y z
#    x 2.255930 0.000000 0.034830 
#    y 0.000000 2.232450 0.000000 
#    z 0.034830 0.000000 2.266210 
# 
# From -- ./inp_files/14272.got.cif
#   From: 2010.05.17/outbox.cif.g08.bks.cpg/sg14_8_cif.got.tgz:14272.got - 2010.06.03 17:49:19.
