data_PCOD9242026
_publ_section_title
;
Structure prediction by ZEFSAII (Michael W. Deem and Ramdas Pophale) SiO2 
 PCOD9242026
Probable space group: P 21/C
;
_chemical_formula_sum "Si O2"
_cell_formula_units_Z 20
_cell_length_a 11.770264
_cell_length_b 7.822249
_cell_length_c 8.877950
_cell_angle_alpha 90.000000
_cell_angle_beta 87.976651
_cell_angle_gamma 90.000000
_cell_volume 816.882660
_symmetry_space_group_name_H-M "P 21/C"
_symmetry_group_IT_number 14
_symmetry_cell_setting 'monoclinic'
loop_
_space_group_symop_operation_xyz
x,y,z
-x,1/2+y,1/2-z
-x,-y,-z
x,1/2-y,1/2+z
loop_
_atom_site_type_symbol
_atom_site_label
_atom_site_fract_x
_atom_site_fract_y
_atom_site_fract_z
Si Si1 0.977190 0.253105 0.770960
Si Si2 0.864276 0.652840 0.001527
Si Si3 0.837669 0.441698 0.526382
Si Si4 0.384846 0.051803 0.083442
Si Si5 0.622008 0.928816 0.553923
O O1 0.881849 0.339233 0.668965
O O2 0.919018 0.119393 0.887332
O O3 0.076499 0.181703 0.660059
O O4 0.041996 0.387545 0.876895
O O5 0.756053 0.525175 0.010971
O O6 0.839640 0.853216 0.046353
O O7 0.709414 0.419881 0.474094
O O8 0.384537 0.059929 0.264497
O O9 0.371185 0.243235 0.022817
O O10 0.500000 0.000000 0.000000
O O11 0.500000 0.000000 0.500000
#
# Coordination Sequence:
#
# PCOD9242026 Si02
#       5
#     4   4   4   4   4
#     4  10  19  38  66  97 136 182 220 273 347 415
#     4  10  21  41  64  95 138 179 227 289 343 411
#     4  10  23  41  62  97 141 181 231 287 348 416
#     4  11  25  47  69  97 137 177 231 297 346 412
#     4  11  24  45  72  98 130 185 237 282 350 414
#
# _framework density 24.483319999999999
#
# number of rings (size 3 to 8) (size 9 to 14) (size 15 to 20)
#    0.000    1.600    0.000    6.000    0.000    4.800 
#    0.000   37.000    0.000    0.000    0.000    0.000 
#    0.000    0.000    0.000    0.000    0.000    0.000 
#
# Total GULP energy -111625.412550 kJ/mol
# GULP energy per Si atom -5581.270627 kJ/mol
# Density = 2.442759 g / cm^3
# Si number density = 24.483320 Si / 1000 Ang^3
#
#
#
# Elastic Constant Matrix: (Units=GPa)
#
#
# Indices 1 2 3 4 5 6 
#
# 1 205.0935 25.4012 92.8762 0.0000 24.1060 0.0000
# 2 25.4012 55.1868 35.0887 0.0000 20.8273 0.0000
# 3 92.8762 35.0887 200.2006 0.0000 19.8646 0.0000
# 4 0.0000 0.0000 0.0000 35.7425 0.0000 1.1705
# 5 24.1060 20.8273 19.8646 0.0000 32.7843 0.0000
# 6 0.0000 0.0000 0.0000 1.1705 0.0000 47.1730
#
#
#
# Elastic Compliance Matrix: (Units=1/GPa)
#
#
# Indices 1 2 3 4 5 6 
#
# 1 0.006460 -0.000122 -0.002673 0.000000 -0.003053 0.000000
# 2 -0.000122 0.025465 -0.002990 0.000000 -0.014276 0.000000
# 3 -0.002673 -0.002990 0.006783 0.000000 -0.000245 0.000000
# 4 0.000000 0.000000 0.000000 0.028001 0.000000 -0.000695
# 5 -0.003053 -0.014276 -0.000245 0.000000 0.041966 0.000000
# 6 0.000000 0.000000 0.000000 -0.000695 0.000000 0.021216
#
#
# Mechanical properties :
#
#
# Convention : Reuss Voigt Hill
#
# Bulk Modulus (GPa) = 36.84675 85.24591 61.04633
# Shear Modulus (GPa) = 33.22115 43.61428 38.41772
#
# Velocity S-wave (km/s) = 3.68759 4.22523 3.96553
# Velocity P-wave (km/s) = 5.76312 7.66139 6.77903
#
# Compressibility (1/GPa) = 0.02713943
#
# Stress axis : x y z
#
# Youngs Moduli (GPa) = 154.79693 39.26900 147.42112
#
# Poissons Ratio (x) = 0.00479 0.39400
# Poissons Ratio (y) = 0.01886 0.44082
# Poissons Ratio (z) = 0.41371 0.11742
#
# Static dielectric constant tensor:
#      x y z
#    x 1.996450 0.000000 0.082650 
#    y 0.000000 2.010570 0.000000 
#    z 0.082650 0.000000 1.909440 
# 
# From -- ./inp_files/11848.got.cif
#   From: 2010.05.17/outbox.cif.g08.bks.cpg/sg14_6_cif.got.tgz:11848.got - 2010.06.03 17:49:19.
