data_PCOD9242909
_publ_section_title
;
Structure prediction by ZEFSAII (Michael W. Deem and Ramdas Pophale) SiO2 
 PCOD9242909
Probable space group: P 21/C
;
_chemical_formula_sum "Si O2"
_cell_formula_units_Z 20
_cell_length_a 5.119755
_cell_length_b 5.102471
_cell_length_c 28.464941
_cell_angle_alpha 90.000000
_cell_angle_beta 100.675056
_cell_angle_gamma 90.000000
_cell_volume 730.731973
_symmetry_space_group_name_H-M "P 21/C"
_symmetry_group_IT_number 14
_symmetry_cell_setting 'monoclinic'
loop_
_space_group_symop_operation_xyz
x,y,z
-x,1/2+y,1/2-z
-x,-y,-z
x,1/2-y,1/2+z
loop_
_atom_site_type_symbol
_atom_site_label
_atom_site_fract_x
_atom_site_fract_y
_atom_site_fract_z
Si Si1 0.996486 0.912425 0.554836
Si Si2 0.835754 0.298191 0.745249
Si Si3 0.251752 0.641057 0.153951
Si Si4 0.734789 0.508193 0.645811
Si Si5 0.491858 0.905196 0.052093
O O1 0.129245 0.036090 0.607286
O O2 0.193834 0.661365 0.556678
O O3 0.696067 0.838554 0.557013
O O4 0.000000 0.000000 0.500000
O O5 0.718689 0.420379 0.789424
O O6 0.696803 0.334307 0.690499
O O7 0.911890 0.995061 0.752556
O O8 0.533518 0.750512 0.147655
O O9 0.026517 0.871106 0.149982
O O10 0.627693 0.398434 0.593361
O O11 0.500000 0.000000 0.000000
#
# Coordination Sequence:
#
# PCOD9242909 Si02
#       5
#     4   4   4   4   4
#     4  10  20  36  57  84 119 156 200 251 305 364
#     4  10  22  42  66  94 126 166 210 258 312 372
#     4   9  20  38  58  84 121 162 204 253 308 367
#     4   9  20  38  58  84 121 162 204 253 308 367
#     4  10  20  36  57  84 119 156 200 251 305 364
#
# _framework density 27.369814000000002
#
# number of rings (size 3 to 8) (size 9 to 14) (size 15 to 20)
#    0.000    2.400    0.000    1.200    0.000    8.000 
#    0.000   10.000    0.000    0.000    0.000    0.000 
#    0.000    0.000    0.000    0.000    0.000    0.000 
#
# Total GULP energy -111589.276928 kJ/mol
# GULP energy per Si atom -5579.463846 kJ/mol
# Density = 2.730752 g / cm^3
# Si number density = 27.369814 Si / 1000 Ang^3
#
#
#
# Elastic Constant Matrix: (Units=GPa)
#
#
# Indices 1 2 3 4 5 6 
#
# 1 106.7363 29.6046 19.7599 0.0000 -29.6433 0.0000
# 2 29.6046 64.3485 10.7693 0.0000 6.0426 0.0000
# 3 19.7599 10.7693 238.7935 0.0000 -12.1444 0.0000
# 4 0.0000 0.0000 0.0000 35.5589 0.0000 -5.7038
# 5 -29.6433 6.0426 -12.1444 0.0000 46.0950 0.0000
# 6 0.0000 0.0000 0.0000 -5.7038 0.0000 27.4032
#
#
#
# Elastic Compliance Matrix: (Units=1/GPa)
#
#
# Indices 1 2 3 4 5 6 
#
# 1 0.014306 -0.007474 -0.000334 0.000000 0.010092 0.000000
# 2 -0.007474 0.019801 -0.000660 0.000000 -0.007576 0.000000
# 3 -0.000334 -0.000660 0.004296 0.000000 0.001004 0.000000
# 4 0.000000 0.000000 0.000000 0.029094 0.000000 0.006056
# 5 0.010092 -0.007576 0.001004 0.000000 0.029442 0.000000
# 6 0.000000 0.000000 0.000000 0.006056 0.000000 0.037752
#
#
# Mechanical properties :
#
#
# Convention : Reuss Voigt Hill
#
# Bulk Modulus (GPa) = 46.57893 58.90509 52.74201
# Shear Modulus (GPa) = 31.48972 45.12774 38.30873
#
# Velocity S-wave (km/s) = 3.39562 4.06496 3.74528
# Velocity P-wave (km/s) = 5.69464 6.60307 6.16561
#
# Compressibility (1/GPa) = 0.02146893
#
# Stress axis : x y z
#
# Youngs Moduli (GPa) = 69.89867 50.50344 232.76762
#
# Poissons Ratio (x) = 0.37745 0.07763
# Poissons Ratio (y) = 0.52241 0.15358
# Poissons Ratio (z) = 0.02331 0.03332
#
# Static dielectric constant tensor:
#      x y z
#    x 2.068140 0.000000 0.032400 
#    y 0.000000 2.149780 0.000000 
#    z 0.032400 0.000000 2.366710 
# 
# From -- ./inp_files/78485.got.cif
#   From: 2010.05.17/outbox.cif.g08.bks.cpg/sg14_40_cif.got.tgz:78485.got - 2010.06.03 17:49:19.
