data_PCOD9242592
_publ_section_title
;
Structure prediction by ZEFSAII (Michael W. Deem and Ramdas Pophale) SiO2 
 PCOD9242592
Probable space group: P 21/C
;
_chemical_formula_sum "Si O2"
_cell_formula_units_Z 32
_cell_length_a 14.824597
_cell_length_b 18.098353
_cell_length_c 8.054274
_cell_angle_alpha 90.000000
_cell_angle_beta 140.519423
_cell_angle_gamma 90.000000
_cell_volume 1373.979388
_symmetry_space_group_name_H-M "P 21/C"
_symmetry_group_IT_number 14
_symmetry_cell_setting 'monoclinic'
loop_
_space_group_symop_operation_xyz
x,y,z
-x,1/2+y,1/2-z
-x,-y,-z
x,1/2-y,1/2+z
loop_
_atom_site_type_symbol
_atom_site_label
_atom_site_fract_x
_atom_site_fract_y
_atom_site_fract_z
Si Si1 0.768433 0.776343 0.246155
Si Si2 0.077824 0.723994 0.336336
Si Si3 0.974325 0.034542 0.722912
Si Si4 0.865848 0.089525 0.914849
Si Si5 0.255776 0.367002 0.629303
Si Si6 0.466130 0.692602 0.411892
Si Si7 0.203767 0.642092 0.205839
Si Si8 0.433472 0.859229 0.488160
O O1 0.919801 0.782782 0.545816
O O2 0.743079 0.688151 0.212015
O O3 0.767023 0.814697 0.065347
O O4 0.636408 0.811060 0.159741
O O5 0.092944 0.675524 0.525164
O O6 0.130712 0.804567 0.462512
O O7 0.170285 0.681612 0.330316
O O8 0.124310 0.078021 0.945412
O O9 0.024977 0.950450 0.805476
O O10 0.888368 0.052325 0.769384
O O11 0.875529 0.064378 0.434810
O O12 0.701703 0.089353 0.733915
O O13 0.415438 0.396360 0.836060
O O14 0.430411 0.779275 0.391723
O O15 0.370386 0.645630 0.402230
O O16 0.427694 0.665117 0.173238
#
# Coordination Sequence:
#
# PCOD9242592 Si02
#       8
#     4   4   4   4   4   4   4   4
#     4  10  20  35  56  89 115 144 182 236 290 338
#     4  12  22  36  61  89 114 147 191 239 290 344
#     4  11  23  41  57  83 114 158 199 239 287 340
#     4  11  25  39  58  83 117 155 198 240 289 343
#     4  10  21  36  59  85 116 149 188 238 290 344
#     4  10  20  34  58  85 117 143 184 236 288 337
#     4  12  21  36  61  88 114 150 191 238 289 343
#     4  10  20  37  57  86 116 148 188 237 292 344
#
# _framework density 23.290013999999999
#
# number of rings (size 3 to 8) (size 9 to 14) (size 15 to 20)
#    0.000    1.250    5.000    1.500    1.750    1.000 
#    0.000    0.000    0.000    0.750    0.000    0.000 
#    0.000    0.000    0.000    0.000    0.000    0.000 
#
# Total GULP energy -178893.838086 kJ/mol
# GULP energy per Si atom -5590.432440 kJ/mol
# Density = 2.323700 g / cm^3
# Si number density = 23.290014 Si / 1000 Ang^3
#
#
#
# Elastic Constant Matrix: (Units=GPa)
#
#
# Indices 1 2 3 4 5 6 
#
# 1 103.5551 6.6456 29.1863 0.0000 22.5702 0.0000
# 2 6.6456 29.1192 -17.4649 0.0000 8.5132 0.0000
# 3 29.1863 -17.4649 60.5184 0.0000 17.1027 0.0000
# 4 0.0000 0.0000 0.0000 29.9554 0.0000 2.2175
# 5 22.5702 8.5132 17.1027 0.0000 47.7770 0.0000
# 6 0.0000 0.0000 0.0000 2.2175 0.0000 19.0407
#
#
#
# Elastic Compliance Matrix: (Units=1/GPa)
#
#
# Indices 1 2 3 4 5 6 
#
# 1 0.012648 -0.006737 -0.007448 0.000000 -0.002108 0.000000
# 2 -0.006737 0.053923 0.022948 0.000000 -0.014640 0.000000
# 3 -0.007448 0.022948 0.029927 0.000000 -0.011283 0.000000
# 4 0.000000 0.000000 0.000000 0.033673 0.000000 -0.003922
# 5 -0.002108 -0.014640 -0.011283 0.000000 0.028574 0.000000
# 6 0.000000 0.000000 0.000000 -0.003922 0.000000 0.052976
#
#
# Mechanical properties :
#
#
# Convention : Reuss Voigt Hill
#
# Bulk Modulus (GPa) = 8.77016 25.54743 17.15880
# Shear Modulus (GPa) = 21.53280 31.00967 26.27123
#
# Velocity S-wave (km/s) = 3.04394 3.65287 3.36222
# Velocity P-wave (km/s) = 4.01596 5.36511 4.73879
#
# Compressibility (1/GPa) = 0.11402294
#
# Stress axis : x y z
#
# Youngs Moduli (GPa) = 79.06530 18.54500 33.41439
#
# Poissons Ratio (x) = 0.12494 0.24888
# Poissons Ratio (y) = 0.53269 -0.76680
# Poissons Ratio (z) = 0.58889 -0.42557
#
# Static dielectric constant tensor:
#      x y z
#    x 1.921460 0.000000 0.005790 
#    y 0.000000 1.865280 0.000000 
#    z 0.005790 0.000000 1.900040 
# 
# From -- ./inp_files/14188.got.cif
#   From: 2010.05.17/outbox.cif.g08.bks.cpg/sg14_8_cif.got.tgz:14188.got - 2010.06.03 17:49:19.
