data_PCOD9242420
_publ_section_title
;
Structure prediction by ZEFSAII (Michael W. Deem and Ramdas Pophale) SiO2 
 PCOD9242420
Probable space group: P 21/C
;
_chemical_formula_sum "Si O2"
_cell_formula_units_Z 28
_cell_length_a 14.646600
_cell_length_b 15.686780
_cell_length_c 5.119627
_cell_angle_alpha 90.000000
_cell_angle_beta 67.670650
_cell_angle_gamma 90.000000
_cell_volume 1088.072479
_symmetry_space_group_name_H-M "P 21/C"
_symmetry_group_IT_number 14
_symmetry_cell_setting 'monoclinic'
loop_
_space_group_symop_operation_xyz
x,y,z
-x,1/2+y,1/2-z
-x,-y,-z
x,1/2-y,1/2+z
loop_
_atom_site_type_symbol
_atom_site_label
_atom_site_fract_x
_atom_site_fract_y
_atom_site_fract_z
Si Si1 0.834295 0.881371 0.577023
Si Si2 0.217783 0.690273 0.910838
Si Si3 0.957720 0.091812 0.633089
Si Si4 0.632370 0.869377 0.921982
Si Si5 0.611789 0.975162 0.443639
Si Si6 0.815225 0.002361 0.100968
Si Si7 0.419082 0.701804 0.528856
O O1 0.734947 0.825500 0.717407
O O2 0.834110 0.935993 0.312215
O O3 0.946145 0.847501 0.470864
O O4 0.817082 0.947005 0.834291
O O5 0.211123 0.762635 0.692672
O O6 0.128497 0.626937 0.955024
O O7 0.325331 0.649116 0.735196
O O8 0.000000 0.000000 0.500000
O O9 0.900737 0.071461 0.964715
O O10 0.623914 0.949951 0.732136
O O11 0.630904 0.894822 0.227432
O O12 0.529121 0.825536 0.973428
O O13 0.703983 0.035265 0.265363
O O14 0.500000 0.000000 0.500000
O O15 0.409074 0.716330 0.232144
#
# Coordination Sequence:
#
# PCOD9242420 Si02
#       7
#     4   4   4   4   4   4   4
#     4   9  19  35  54  85 120 147 191 253 295 346
#     4  10  24  43  61  89 125 160 202 263 318 368
#     4  10  21  40  66  90 122 165 217 254 307 377
#     4  10  20  36  56  79 117 151 188 245 297 353
#     4  10  20  33  50  84 118 146 186 236 302 360
#     4   9  19  33  53  83 118 153 191 242 297 354
#     4  10  21  40  61  84 115 159 209 249 301 376
#
# _framework density 25.733578999999999
#
# number of rings (size 3 to 8) (size 9 to 14) (size 15 to 20)
#    0.000    2.286    0.000    1.714    2.000    4.571 
#    5.143    1.429    0.000    0.000    0.000    0.000 
#    0.000    0.000    0.000    0.000    0.000    0.000 
#
# Total GULP energy -156351.798610 kJ/mol
# GULP energy per Si atom -5583.992808 kJ/mol
# Density = 2.567501 g / cm^3
# Si number density = 25.733579 Si / 1000 Ang^3
#
#
#
# Elastic Constant Matrix: (Units=GPa)
#
#
# Indices 1 2 3 4 5 6 
#
# 1 163.4783 13.6333 60.0261 0.0000 -62.0229 0.0000
# 2 13.6333 34.5046 33.4389 0.0000 -6.7343 0.0000
# 3 60.0261 33.4389 138.9460 0.0000 -2.6055 0.0000
# 4 0.0000 0.0000 0.0000 28.0917 0.0000 3.1944
# 5 -62.0229 -6.7343 -2.6055 0.0000 83.2892 0.0000
# 6 0.0000 0.0000 0.0000 3.1944 0.0000 42.2818
#
#
#
# Elastic Compliance Matrix: (Units=1/GPa)
#
#
# Indices 1 2 3 4 5 6 
#
# 1 0.010879 0.002209 -0.005079 0.000000 0.008121 0.000000
# 2 0.002209 0.038896 -0.010231 0.000000 0.004470 0.000000
# 3 -0.005079 -0.010231 0.011774 0.000000 -0.004241 0.000000
# 4 0.000000 0.000000 0.000000 0.035906 0.000000 -0.002713
# 5 0.008121 0.004470 -0.004241 0.000000 0.018282 0.000000
# 6 0.000000 0.000000 0.000000 -0.002713 0.000000 0.023856
#
#
# Mechanical properties :
#
#
# Convention : Reuss Voigt Hill
#
# Bulk Modulus (GPa) = 28.29166 61.23615 44.76391
# Shear Modulus (GPa) = 28.15657 46.05458 37.10558
#
# Velocity S-wave (km/s) = 3.31139 4.23504 3.80137
# Velocity P-wave (km/s) = 5.06343 6.91100 6.05806
#
# Compressibility (1/GPa) = 0.03534610
#
# Stress axis : x y z
#
# Youngs Moduli (GPa) = 91.92282 25.70926 84.93342
#
# Poissons Ratio (x) = -0.05678 0.43137
# Poissons Ratio (y) = -0.20303 0.86897
# Poissons Ratio (z) = 0.46687 0.26304
#
# Static dielectric constant tensor:
#      x y z
#    x 2.180430 0.000000 -0.075560 
#    y 0.000000 1.966850 0.000000 
#    z -0.075560 0.000000 2.004210 
# 
# From -- ./inp_files/3774.got.cif
#   From: 2010.05.17/outbox.cif.g08.bks.cpg/sg14_2_cif.got.tgz:3774.got - 2010.06.03 17:49:19.
