data_PCOD9242057
_publ_section_title
;
Structure prediction by ZEFSAII (Michael W. Deem and Ramdas Pophale) SiO2 
 PCOD9242057
Probable space group: P 21/C
;
_chemical_formula_sum "Si O2"
_cell_formula_units_Z 20
_cell_length_a 7.085964
_cell_length_b 17.420470
_cell_length_c 8.566614
_cell_angle_alpha 90.000000
_cell_angle_beta 53.028295
_cell_angle_gamma 90.000000
_cell_volume 844.847179
_symmetry_space_group_name_H-M "P 21/C"
_symmetry_group_IT_number 14
_symmetry_cell_setting 'monoclinic'
loop_
_space_group_symop_operation_xyz
x,y,z
-x,1/2+y,1/2-z
-x,-y,-z
x,1/2-y,1/2+z
loop_
_atom_site_type_symbol
_atom_site_label
_atom_site_fract_x
_atom_site_fract_y
_atom_site_fract_z
Si Si1 0.342607 0.407787 0.633019
Si Si2 0.307111 0.656937 0.325392
Si Si3 0.134554 0.959614 0.689897
Si Si4 0.407876 0.418502 0.242408
Si Si5 0.528186 0.741044 0.926261
O O1 0.537431 0.410503 0.672000
O O2 0.430147 0.428240 0.416611
O O3 0.303088 0.314931 0.651268
O O4 0.111126 0.457295 0.777287
O O5 0.113932 0.611678 0.323615
O O6 0.288475 0.719638 0.472059
O O7 0.464090 0.702813 0.121581
O O8 0.351555 0.941261 0.467928
O O9 0.202022 0.034092 0.756713
O O10 0.376348 0.328107 0.224630
#
# Coordination Sequence:
#
# PCOD9242057 Si02
#       5
#     4   4   4   4   4
#     4  10  19  39  60  82 117 153 194 235 288 348
#     4   9  19  37  57  85 117 147 197 243 276 347
#     4  10  22  38  63  85 117 158 191 229 308 342
#     4  10  20  40  59  87 124 147 188 257 276 338
#     4   9  17  38  57  79 124 146 185 257 275 324
#
# _framework density 23.672919
#
# number of rings (size 3 to 8) (size 9 to 14) (size 15 to 20)
#    1.200    1.200    2.000    0.600    0.000    0.800 
#   14.400   13.000    0.000    0.000    0.000    0.000 
#    0.000    0.000    0.000    0.000    0.000    0.000 
#
# Total GULP energy -111526.837809 kJ/mol
# GULP energy per Si atom -5576.341890 kJ/mol
# Density = 2.361904 g / cm^3
# Si number density = 23.672919 Si / 1000 Ang^3
#
#
#
# Elastic Constant Matrix: (Units=GPa)
#
#
# Indices 1 2 3 4 5 6 
#
# 1 58.4374 11.1503 3.2317 0.0000 8.6261 0.0000
# 2 11.1503 111.3975 6.4347 0.0000 3.3233 0.0000
# 3 3.2317 6.4347 76.4169 0.0000 9.8506 0.0000
# 4 0.0000 0.0000 0.0000 27.1734 0.0000 8.0703
# 5 8.6261 3.3233 9.8506 0.0000 25.6566 0.0000
# 6 0.0000 0.0000 0.0000 8.0703 0.0000 36.4627
#
#
#
# Elastic Compliance Matrix: (Units=1/GPa)
#
#
# Indices 1 2 3 4 5 6 
#
# 1 0.018306 -0.001662 0.000138 0.000000 -0.005993 0.000000
# 2 -0.001662 0.009192 -0.000655 0.000000 -0.000381 0.000000
# 3 0.000138 -0.000655 0.013814 0.000000 -0.005265 0.000000
# 4 0.000000 0.000000 0.000000 0.039390 0.000000 -0.008718
# 5 -0.005993 -0.000381 -0.005265 0.000000 0.043062 0.000000
# 6 0.000000 0.000000 0.000000 -0.008718 0.000000 0.029355
#
#
# Mechanical properties :
#
#
# Convention : Reuss Voigt Hill
#
# Bulk Modulus (GPa) = 27.05871 31.98725 29.52298
# Shear Modulus (GPa) = 29.44732 32.88755 31.16743
#
# Velocity S-wave (km/s) = 3.53076 3.73130 3.63242
# Velocity P-wave (km/s) = 5.29875 5.66613 5.48551
#
# Compressibility (1/GPa) = 0.03695668
#
# Stress axis : x y z
#
# Youngs Moduli (GPa) = 54.62597 108.78613 72.38960
#
# Poissons Ratio (x) = 0.18076 -0.01001
# Poissons Ratio (y) = 0.09076 0.04739
# Poissons Ratio (z) = -0.00755 0.07122
#
# Static dielectric constant tensor:
#      x y z
#    x 1.899730 0.000000 0.019730 
#    y 0.000000 1.922490 0.000000 
#    z 0.019730 0.000000 1.869490 
# 
# From -- ./inp_files/5689.got.cif
#   From: 2010.05.17/outbox.cif.g08.bks.cpg/sg14_3_cif.got.tgz:5689.got - 2010.06.03 17:49:19.
