data_PCOD9242837
_publ_section_title
;
Structure prediction by ZEFSAII (Michael W. Deem and Ramdas Pophale) SiO2 
 PCOD9242837
Probable space group: P 21/C
;
_chemical_formula_sum "Si O2"
_cell_formula_units_Z 32
_cell_length_a 11.203896
_cell_length_b 20.954014
_cell_length_c 7.784585
_cell_angle_alpha 90.000000
_cell_angle_beta 44.852892
_cell_angle_gamma 90.000000
_cell_volume 1288.958215
_symmetry_space_group_name_H-M "P 21/C"
_symmetry_group_IT_number 14
_symmetry_cell_setting 'monoclinic'
loop_
_space_group_symop_operation_xyz
x,y,z
-x,1/2+y,1/2-z
-x,-y,-z
x,1/2-y,1/2+z
loop_
_atom_site_type_symbol
_atom_site_label
_atom_site_fract_x
_atom_site_fract_y
_atom_site_fract_z
Si Si1 0.180831 0.422098 0.904003
Si Si2 0.794018 0.449890 0.233706
Si Si3 0.806282 0.781613 0.562599
Si Si4 0.685412 0.325560 0.510528
Si Si5 0.149902 0.784919 0.833262
Si Si6 0.155052 0.576528 0.219845
Si Si7 0.228768 0.052983 0.754714
Si Si8 0.370915 0.178055 0.584919
O O1 0.255498 0.475814 0.700119
O O2 0.201336 0.348840 0.827678
O O3 0.243021 0.433307 0.034581
O O4 0.980758 0.437413 0.118263
O O5 0.681422 0.395395 0.431606
O O6 0.817193 0.440033 0.006722
O O7 0.781474 0.804532 0.393118
O O8 0.973555 0.742244 0.440758
O O9 0.650117 0.734828 0.759927
O O10 0.841759 0.310878 0.480865
O O11 0.719281 0.273009 0.329960
O O12 0.530757 0.321172 0.798480
O O13 0.200584 0.849489 0.684652
O O14 0.251551 0.523692 0.239709
O O15 0.958393 0.568120 0.478868
O O16 0.348541 0.109468 0.699024
#
# Coordination Sequence:
#
# PCOD9242837 Si02
#       8
#     4   4   4   4   4   4   4   4
#     4   9  19  36  61  91 122 158 216 270 305 362
#     4  10  20  36  60  93 125 159 207 266 320 371
#     4  11  22  39  65  92 120 164 219 260 308 376
#     4  12  25  42  61  92 134 168 204 264 333 386
#     4  12  23  39  65  93 122 167 217 265 309 380
#     4  10  20  35  64  93 120 160 216 268 304 368
#     4   9  19  39  60  91 126 160 208 267 318 367
#     4  11  24  42  62  91 132 168 203 265 331 380
#
# _framework density 24.826250999999999
#
# number of rings (size 3 to 8) (size 9 to 14) (size 15 to 20)
#    0.000    1.500    2.500    3.000    1.750    1.000 
#    0.000    7.500    0.000    0.000    0.000    0.000 
#    0.000    0.000    0.000    0.000    0.000    0.000 
#
# Total GULP energy -178625.080883 kJ/mol
# GULP energy per Si atom -5582.033778 kJ/mol
# Density = 2.476975 g / cm^3
# Si number density = 24.826251 Si / 1000 Ang^3
#
#
#
# Elastic Constant Matrix: (Units=GPa)
#
#
# Indices 1 2 3 4 5 6 
#
# 1 34.2288 -6.2550 -5.7986 0.0000 0.8627 0.0000
# 2 -6.2550 149.2876 10.7407 0.0000 23.1741 0.0000
# 3 -5.7986 10.7407 58.9482 0.0000 -2.1598 0.0000
# 4 0.0000 0.0000 0.0000 34.6422 0.0000 10.5833
# 5 0.8627 23.1741 -2.1598 0.0000 11.0717 0.0000
# 6 0.0000 0.0000 0.0000 10.5833 0.0000 10.8067
#
#
#
# Elastic Compliance Matrix: (Units=1/GPa)
#
#
# Indices 1 2 3 4 5 6 
#
# 1 0.030147 0.002053 0.002365 0.000000 -0.006185 0.000000
# 2 0.002053 0.010470 -0.002533 0.000000 -0.022569 0.000000
# 3 0.002365 -0.002533 0.017974 0.000000 0.008623 0.000000
# 4 0.000000 0.000000 0.000000 0.041190 0.000000 -0.040339
# 5 -0.006185 -0.022569 0.008623 0.000000 0.139724 0.000000
# 6 0.000000 0.000000 0.000000 -0.040339 0.000000 0.132041
#
#
# Mechanical properties :
#
#
# Convention : Reuss Voigt Hill
#
# Bulk Modulus (GPa) = 16.03555 26.64876 21.34216
# Shear Modulus (GPa) = 12.86794 27.55595 20.21195
#
# Velocity S-wave (km/s) = 2.27913 3.33521 2.85640
# Velocity P-wave (km/s) = 3.66047 5.05855 4.41520
#
# Compressibility (1/GPa) = 0.06236145
#
# Stress axis : x y z
#
# Youngs Moduli (GPa) = 33.17096 95.50977 55.63567
#
# Poissons Ratio (x) = -0.19609 -0.13157
# Poissons Ratio (y) = -0.06810 0.14091
# Poissons Ratio (z) = -0.07844 0.24190
#
# Static dielectric constant tensor:
#      x y z
#    x 2.064340 0.000000 -0.001000 
#    y 0.000000 2.118970 0.000000 
#    z -0.001000 0.000000 2.006080 
# 
# From -- ./inp_files/16857.got.cif
#   From: 2010.05.17/outbox.cif.g08.bks.cpg/sg14_9_cif.got.tgz:16857.got - 2010.06.03 17:49:19.
