data_PCOD9242328
_publ_section_title
;
Structure prediction by ZEFSAII (Michael W. Deem and Ramdas Pophale) SiO2 
 PCOD9242328
Probable space group: P 21/C
;
_chemical_formula_sum "Si O2"
_cell_formula_units_Z 24
_cell_length_a 6.867521
_cell_length_b 12.895708
_cell_length_c 12.934141
_cell_angle_alpha 90.000000
_cell_angle_beta 50.661367
_cell_angle_gamma 90.000000
_cell_volume 885.919425
_symmetry_space_group_name_H-M "P 21/C"
_symmetry_group_IT_number 14
_symmetry_cell_setting 'monoclinic'
loop_
_space_group_symop_operation_xyz
x,y,z
-x,1/2+y,1/2-z
-x,-y,-z
x,1/2-y,1/2+z
loop_
_atom_site_type_symbol
_atom_site_label
_atom_site_fract_x
_atom_site_fract_y
_atom_site_fract_z
Si Si1 0.094678 0.459561 0.082209
Si Si2 0.328972 0.654243 0.952506
Si Si3 0.436960 0.151724 0.165969
Si Si4 0.201589 0.497960 0.630211
Si Si5 0.282785 0.050788 0.840274
Si Si6 0.197476 0.235174 0.455128
O O1 0.875415 0.438795 0.239263
O O2 0.246219 0.564286 0.058968
O O3 0.258722 0.355810 0.016242
O O4 0.000000 0.500000 0.000000
O O5 0.429447 0.766164 0.953156
O O6 0.014041 0.029088 0.876677
O O7 0.094083 0.702486 0.965012
O O8 0.195552 0.115980 0.182123
O O9 0.600049 0.055450 0.155122
O O10 0.339967 0.204321 0.302264
O O11 0.500000 0.500000 0.500000
O O12 0.528773 0.595996 0.810460
O O13 0.240901 0.141619 0.940277
#
# Coordination Sequence:
#
# PCOD9242328 Si02
#       6
#     4   4   4   4   4   4
#     4  10  19  45  79 102 147 206 245 303 394 453
#     4  10  20  40  76 106 140 204 249 305 378 456
#     4  11  22  46  73 105 158 198 246 318 390 449
#     4  12  26  45  75 114 153 195 256 330 382 448
#     4  11  25  44  77 114 148 200 258 314 383 461
#     4  10  20  44  73 107 152 201 244 314 375 456
#
# _framework density 27.090499000000001
#
# number of rings (size 3 to 8) (size 9 to 14) (size 15 to 20)
#    0.000    1.333    5.000    2.000    0.000    3.333 
#    0.000   18.333    0.000    0.000    0.000    0.000 
#    0.000    1.333    0.000    0.000    0.000    0.000 
#
# Total GULP energy -133819.446106 kJ/mol
# GULP energy per Si atom -5575.810254 kJ/mol
# Density = 2.702884 g / cm^3
# Si number density = 27.090499 Si / 1000 Ang^3
#
#
#
# Elastic Constant Matrix: (Units=GPa)
#
#
# Indices 1 2 3 4 5 6 
#
# 1 130.8315 66.6914 46.5288 0.0000 -10.4703 0.0000
# 2 66.6914 211.0524 55.2496 0.0000 -18.0535 0.0000
# 3 46.5288 55.2496 162.5732 0.0000 -24.0855 0.0000
# 4 0.0000 0.0000 0.0000 44.6531 0.0000 -11.9417
# 5 -10.4703 -18.0535 -24.0855 0.0000 37.8945 0.0000
# 6 0.0000 0.0000 0.0000 -11.9417 0.0000 31.3046
#
#
#
# Elastic Compliance Matrix: (Units=1/GPa)
#
#
# Indices 1 2 3 4 5 6 
#
# 1 0.009613 -0.002530 -0.001851 0.000000 0.000275 0.000000
# 2 -0.002530 0.005944 -0.001082 0.000000 0.001445 0.000000
# 3 -0.001851 -0.001082 0.007613 0.000000 0.003812 0.000000
# 4 0.000000 0.000000 0.000000 0.024939 0.000000 0.009513
# 5 0.000275 0.001445 0.003812 0.000000 0.029576 0.000000
# 6 0.000000 0.000000 0.000000 0.009513 0.000000 0.035573
#
#
# Mechanical properties :
#
#
# Convention : Reuss Voigt Hill
#
# Bulk Modulus (GPa) = 81.66237 93.48851 87.57544
# Shear Modulus (GPa) = 38.98123 45.16958 42.07541
#
# Velocity S-wave (km/s) = 3.79743 4.08776 3.94527
# Velocity P-wave (km/s) = 7.03115 7.54084 7.29045
#
# Compressibility (1/GPa) = 0.01224554
#
# Stress axis : x y z
#
# Youngs Moduli (GPa) = 104.02401 168.22499 131.34890
#
# Poissons Ratio (x) = 0.42556 0.24312
# Poissons Ratio (y) = 0.26315 0.14213
# Poissons Ratio (z) = 0.19254 0.18203
#
# Static dielectric constant tensor:
#      x y z
#    x 2.406190 0.000000 0.080780 
#    y 0.000000 2.370800 0.000000 
#    z 0.080780 0.000000 2.281690 
# 
# From -- ./inp_files/57396.got.cif
#   From: 2010.05.17/outbox.cif.g08.bks.cpg/sg14_29_cif.got.tgz:57396.got - 2010.06.03 17:49:19.
