data_PCOD9242485
_publ_section_title
;
Structure prediction by ZEFSAII (Michael W. Deem and Ramdas Pophale) SiO2 
 PCOD9242485
Probable space group: P 21/C
;
_chemical_formula_sum "Si O2"
_cell_formula_units_Z 32
_cell_length_a 12.431984
_cell_length_b 7.205651
_cell_length_c 20.522790
_cell_angle_alpha 90.000000
_cell_angle_beta 125.106119
_cell_angle_gamma 90.000000
_cell_volume 1504.008363
_symmetry_space_group_name_H-M "P 21/C"
_symmetry_group_IT_number 14
_symmetry_cell_setting 'monoclinic'
loop_
_space_group_symop_operation_xyz
x,y,z
-x,1/2+y,1/2-z
-x,-y,-z
x,1/2-y,1/2+z
loop_
_atom_site_type_symbol
_atom_site_label
_atom_site_fract_x
_atom_site_fract_y
_atom_site_fract_z
Si Si1 0.694165 0.648514 0.747599
Si Si2 0.377035 0.078938 0.639020
Si Si3 0.360905 0.747752 0.954388
Si Si4 0.402282 0.650417 0.608069
Si Si5 0.142606 0.245840 0.310336
Si Si6 0.839089 0.183992 0.724111
Si Si7 0.331235 0.578769 0.721747
Si Si8 0.652653 0.809603 0.510703
O O1 0.708300 0.568403 0.825154
O O2 0.554256 0.587568 0.667985
O O3 0.809887 0.633027 0.735307
O O4 0.678302 0.868366 0.756817
O O5 0.521129 0.150563 0.711366
O O6 0.326131 0.194810 0.559655
O O7 0.400217 0.871428 0.621547
O O8 0.250852 0.781654 0.861861
O O9 0.349334 0.529340 0.970374
O O10 0.350713 0.866780 0.016885
O O11 0.507563 0.764972 0.976888
O O12 0.319593 0.573387 0.639888
O O13 0.237680 0.278815 0.404863
O O14 0.990849 0.264538 0.274871
O O15 0.164100 0.033215 0.296477
O O16 0.770468 0.196012 0.770802
#
# Coordination Sequence:
#
# PCOD9242485 Si02
#       8
#     4   4   4   4   4   4   4   4
#     4   9  17  30  48  72 101 129 156 195 250 296
#     4   9  16  28  51  77  96 120 161 208 244 281
#     4   9  15  29  53  76  95 123 168 210 240 279
#     4   9  16  28  51  77  96 120 161 208 244 281
#     4  10  20  34  52  73 100 133 165 200 245 294
#     4  10  20  34  52  73 100 133 165 200 245 294
#     4   9  17  30  48  72 101 129 156 195 250 296
#     4   9  15  29  53  76  95 123 168 210 240 279
#
# _framework density 21.276478999999998
#
# number of rings (size 3 to 8) (size 9 to 14) (size 15 to 20)
#    0.000    2.750    2.500    0.000    0.000    1.000 
#    0.000    2.500    0.000    9.000    0.000    0.000 
#    0.000    0.000    0.000    0.000    0.000    0.000 
#
# Total GULP energy -178718.994841 kJ/mol
# GULP energy per Si atom -5584.968589 kJ/mol
# Density = 2.122805 g / cm^3
# Si number density = 21.276479 Si / 1000 Ang^3
#
#
#
# Elastic Constant Matrix: (Units=GPa)
#
#
# Indices 1 2 3 4 5 6 
#
# 1 151.3830 23.8995 88.0077 0.0000 -11.1038 0.0000
# 2 23.8995 43.5440 25.4212 0.0000 -13.2008 0.0000
# 3 88.0077 25.4212 131.6726 0.0000 -9.6633 0.0000
# 4 0.0000 0.0000 0.0000 26.7837 0.0000 -8.1481
# 5 -11.1038 -13.2008 -9.6633 0.0000 29.7003 0.0000
# 6 0.0000 0.0000 0.0000 -8.1481 0.0000 30.0314
#
#
#
# Elastic Compliance Matrix: (Units=1/GPa)
#
#
# Indices 1 2 3 4 5 6 
#
# 1 0.010982 -0.001635 -0.006942 0.000000 0.001120 0.000000
# 2 -0.001635 0.029480 -0.003772 0.000000 0.011264 0.000000
# 3 -0.006942 -0.003772 0.012959 0.000000 -0.000056 0.000000
# 4 0.000000 0.000000 0.000000 0.040695 0.000000 0.011041
# 5 0.001120 0.011264 -0.000056 0.000000 0.039077 0.000000
# 6 0.000000 0.000000 0.000000 0.011041 0.000000 0.036294
#
#
# Mechanical properties :
#
#
# Convention : Reuss Voigt Hill
#
# Bulk Modulus (GPa) = 34.81659 66.80627 50.81143
# Shear Modulus (GPa) = 24.53874 29.92116 27.22995
#
# Velocity S-wave (km/s) = 3.39975 3.75414 3.58133
# Velocity P-wave (km/s) = 5.64008 7.08934 6.40582
#
# Compressibility (1/GPa) = 0.02872194
#
# Stress axis : x y z
#
# Youngs Moduli (GPa) = 91.05775 33.92171 77.16716
#
# Poissons Ratio (x) = 0.05546 0.53572
# Poissons Ratio (y) = 0.14888 0.29108
# Poissons Ratio (z) = 0.63215 0.12795
#
# Static dielectric constant tensor:
#      x y z
#    x 1.759000 0.000000 -0.052710 
#    y 0.000000 1.896390 0.000000 
#    z -0.052710 0.000000 1.741990 
# 
# From -- ./inp_files/57596.got.cif
#   From: 2010.05.17/outbox.cif.g08.bks.cpg/sg14_29_cif.got.tgz:57596.got - 2010.06.03 17:49:19.
