data_PCOD9242653
_publ_section_title
;
Structure prediction by ZEFSAII (Michael W. Deem and Ramdas Pophale) SiO2 
 PCOD9242653
Probable space group: P 21/C
;
_chemical_formula_sum "Si O2"
_cell_formula_units_Z 20
_cell_length_a 11.674483
_cell_length_b 19.871576
_cell_length_c 5.023003
_cell_angle_alpha 90.000000
_cell_angle_beta 51.161169
_cell_angle_gamma 90.000000
_cell_volume 907.658387
_symmetry_space_group_name_H-M "P 21/C"
_symmetry_group_IT_number 14
_symmetry_cell_setting 'monoclinic'
loop_
_space_group_symop_operation_xyz
x,y,z
-x,1/2+y,1/2-z
-x,-y,-z
x,1/2-y,1/2+z
loop_
_atom_site_type_symbol
_atom_site_label
_atom_site_fract_x
_atom_site_fract_y
_atom_site_fract_z
Si Si1 0.831331 0.512828 0.191599
Si Si2 0.197081 0.284631 0.919894
Si Si3 0.563968 0.431163 0.538110
Si Si4 0.449621 0.790565 0.194094
Si Si5 0.747901 0.588051 0.809415
O O1 0.717828 0.453898 0.438522
O O2 0.788757 0.574890 0.446416
O O3 0.801048 0.527396 0.924701
O O4 0.000000 0.500000 0.000000
O O5 0.137717 0.227250 0.209992
O O6 0.185092 0.349625 0.126022
O O7 0.372617 0.283846 0.595150
O O8 0.500000 0.500000 0.500000
O O9 0.587125 0.368035 0.310055
O O10 0.429850 0.407772 0.921960
O O11 0.394891 0.739134 0.049053
#
# Coordination Sequence:
#
# PCOD9242653 Si02
#       5
#     4   4   4   4   4
#     4  11  22  36  54  79 110 144 179 229 281 325
#     4   9  16  28  49  76 103 132 169 218 268 317
#     4   9  20  36  59  85 110 144 190 235 275 330
#     4   9  18  31  50  78 110 140 176 226 280 327
#     4  10  20  35  55  80 107 138 181 224 269 323
#
# _framework density 22.034718999999999
#
# number of rings (size 3 to 8) (size 9 to 14) (size 15 to 20)
#    0.000    2.400    0.000    2.400    0.000   12.800 
#    0.000    0.000    0.000    7.200    0.000    0.000 
#    0.000    0.000    0.000    0.000    0.000    0.000 
#
# Total GULP energy -111438.011939 kJ/mol
# GULP energy per Si atom -5571.900597 kJ/mol
# Density = 2.198457 g / cm^3
# Si number density = 22.034719 Si / 1000 Ang^3
#
#
#
# Elastic Constant Matrix: (Units=GPa)
#
#
# Indices 1 2 3 4 5 6 
#
# 1 76.7161 -0.2124 25.6987 0.0000 -5.5193 0.0000
# 2 -0.2124 66.5401 -6.6556 0.0000 -9.4063 0.0000
# 3 25.6987 -6.6556 37.7984 0.0000 3.0205 0.0000
# 4 0.0000 0.0000 0.0000 14.4532 0.0000 11.7851
# 5 -5.5193 -9.4063 3.0205 0.0000 35.6481 0.0000
# 6 0.0000 0.0000 0.0000 11.7851 0.0000 13.0069
#
#
#
# Elastic Compliance Matrix: (Units=1/GPa)
#
#
# Indices 1 2 3 4 5 6 
#
# 1 0.017382 -0.000665 -0.012218 0.000000 0.003551 0.000000
# 2 -0.000665 0.015862 0.002939 0.000000 0.003834 0.000000
# 3 -0.012218 0.002939 0.035611 0.000000 -0.004134 0.000000
# 4 0.000000 0.000000 0.000000 0.264890 0.000000 -0.240007
# 5 0.003551 0.003834 -0.004134 0.000000 0.029964 0.000000
# 6 0.000000 0.000000 0.000000 -0.240007 0.000000 0.294344
#
#
# Mechanical properties :
#
#
# Convention : Reuss Voigt Hill
#
# Bulk Modulus (GPa) = 20.42231 24.30179 22.36205
# Shear Modulus (GPa) = 7.20187 23.43657 15.31922
#
# Velocity S-wave (km/s) = 1.80984 3.26486 2.63958
# Velocity P-wave (km/s) = 3.69536 5.02645 4.41140
#
# Compressibility (1/GPa) = 0.04896606
#
# Stress axis : x y z
#
# Youngs Moduli (GPa) = 57.53172 63.04266 28.08112
#
# Poissons Ratio (x) = 0.04190 0.34311
# Poissons Ratio (y) = 0.03824 -0.08252
# Poissons Ratio (z) = 0.70295 -0.18526
#
# Static dielectric constant tensor:
#      x y z
#    x 1.822350 0.000000 0.014080 
#    y 0.000000 1.978610 0.000000 
#    z 0.014080 0.000000 1.797390 
# 
# From -- ./inp_files/1125.got.cif
#   From: 2010.05.17/outbox.cif.g08.bks.cpg/sg14_1_cif.got.tgz:1125.got - 2010.06.03 17:49:19.
