data_PCOD9242918
_publ_section_title
;
Structure prediction by ZEFSAII (Michael W. Deem and Ramdas Pophale) SiO2 
 PCOD9242918
Probable space group: P 21/C
;
_chemical_formula_sum "Si O2"
_cell_formula_units_Z 32
_cell_length_a 12.960000
_cell_length_b 12.182538
_cell_length_c 17.481442
_cell_angle_alpha 90.000000
_cell_angle_beta 25.478730
_cell_angle_gamma 90.000000
_cell_volume 1187.315687
_symmetry_space_group_name_H-M "P 21/C"
_symmetry_group_IT_number 14
_symmetry_cell_setting 'monoclinic'
loop_
_space_group_symop_operation_xyz
x,y,z
-x,1/2+y,1/2-z
-x,-y,-z
x,1/2-y,1/2+z
loop_
_atom_site_type_symbol
_atom_site_label
_atom_site_fract_x
_atom_site_fract_y
_atom_site_fract_z
Si Si1 0.123415 0.169362 0.877836
Si Si2 0.682229 0.089519 0.911977
Si Si3 0.122317 0.884587 0.451796
Si Si4 0.970993 0.399078 0.816549
Si Si5 0.315138 0.581522 0.421592
Si Si6 0.543631 0.797869 0.637030
Si Si7 0.930302 0.635033 0.412908
Si Si8 0.590001 0.719236 0.945140
O O1 0.039004 0.119719 0.016028
O O2 0.364661 0.159643 0.665918
O O3 0.094402 0.298647 0.910585
O O4 0.936992 0.126751 0.939338
O O5 0.925302 0.022823 0.748933
O O6 0.620446 0.125750 0.039204
O O7 0.640847 0.201219 0.896350
O O8 0.500000 0.000000 0.000000
O O9 0.343126 0.802826 0.275277
O O10 0.179841 0.892253 0.504489
O O11 0.000000 0.000000 0.500000
O O12 0.900245 0.385161 0.774414
O O13 0.185965 0.306402 0.686766
O O14 0.484944 0.613715 0.240049
O O15 0.279217 0.454598 0.461214
O O16 0.799771 0.749053 0.487438
O O17 0.559000 0.849742 0.542657
#
# Coordination Sequence:
#
# PCOD9242918 Si02
#       8
#     4   4   4   4   4   4   4   4
#     4  10  21  37  57  80 113 160 196 233 292 358
#     4   9  16  31  59  85 105 143 191 242 291 339
#     4  10  20  36  57  88 122 148 192 253 300 346
#     4   8  17  32  54  82 111 145 188 238 289 342
#     4  10  21  37  56  83 116 146 193 250 295 347
#     4  10  21  36  56  87 118 150 189 243 300 349
#     4  10  20  38  59  77 111 160 198 233 292 362
#     4   9  17  33  55  80 111 146 191 230 283 351
#
# _framework density 26.951550999999998
#
# number of rings (size 3 to 8) (size 9 to 14) (size 15 to 20)
#    0.000    2.500    0.000    2.625    0.000    6.000 
#    0.000   25.625    0.000    0.000    0.000    0.000 
#    0.000    0.000    0.000    0.000    0.000    0.000 
#
# Total GULP energy -178215.775150 kJ/mol
# GULP energy per Si atom -5569.242973 kJ/mol
# Density = 2.689021 g / cm^3
# Si number density = 26.951551 Si / 1000 Ang^3
#
#
#
# Elastic Constant Matrix: (Units=GPa)
#
#
# Indices 1 2 3 4 5 6 
#
# 1 122.2753 3.3787 62.6485 0.0000 63.0207 0.0000
# 2 3.3787 44.3556 23.6574 0.0000 14.6980 0.0000
# 3 62.6485 23.6574 128.0271 0.0000 41.6466 0.0000
# 4 0.0000 0.0000 0.0000 36.3174 0.0000 -0.6345
# 5 63.0207 14.6980 41.6466 0.0000 61.7935 0.0000
# 6 0.0000 0.0000 0.0000 -0.6345 0.0000 36.3038
#
#
#
# Elastic Compliance Matrix: (Units=1/GPa)
#
#
# Indices 1 2 3 4 5 6 
#
# 1 0.020568 0.007594 -0.005196 0.000000 -0.019281 0.000000
# 2 0.007594 0.028466 -0.005449 0.000000 -0.010843 0.000000
# 3 -0.005196 -0.005449 0.011802 0.000000 -0.001359 0.000000
# 4 0.000000 0.000000 0.000000 0.027543 0.000000 0.000481
# 5 -0.019281 -0.010843 -0.001359 0.000000 0.039342 0.000000
# 6 0.000000 0.000000 0.000000 0.000481 0.000000 0.027554
#
#
# Mechanical properties :
#
#
# Convention : Reuss Voigt Hill
#
# Bulk Modulus (GPa) = 18.27021 52.66968 35.46994
# Shear Modulus (GPa) = 27.83630 40.54783 34.19206
#
# Velocity S-wave (km/s) = 3.21725 3.88296 3.56567
# Velocity P-wave (km/s) = 4.53812 6.29984 5.49010
#
# Compressibility (1/GPa) = 0.05473392
#
# Stress axis : x y z
#
# Youngs Moduli (GPa) = 48.61959 35.12994 84.72851
#
# Poissons Ratio (x) = -0.26676 0.44024
# Poissons Ratio (y) = -0.36919 0.46166
# Poissons Ratio (z) = 0.25262 0.19141
#
# Static dielectric constant tensor:
#      x y z
#    x 2.285920 0.000000 0.093880 
#    y 0.000000 2.094630 0.000000 
#    z 0.093880 0.000000 2.297880 
# 
# From -- ./inp_files/45083.got.cif
#   From: 2010.05.17/outbox.cif.g08.bks.cpg/sg14_23_cif.got.tgz:45083.got - 2010.06.03 17:49:19.
