data_PCOD9242562
_publ_section_title
;
Structure prediction by ZEFSAII (Michael W. Deem and Ramdas Pophale) SiO2 
 PCOD9242562
Probable space group: P 21/C
;
_chemical_formula_sum "Si O2"
_cell_formula_units_Z 30
_cell_length_a 16.961620
_cell_length_b 7.120200
_cell_length_c 26.828738
_cell_angle_alpha 90.000000
_cell_angle_beta 157.128414
_cell_angle_gamma 90.000000
_cell_volume 1259.324094
_symmetry_space_group_name_H-M "P 21/C"
_symmetry_group_IT_number 14
_symmetry_cell_setting 'monoclinic'
loop_
_space_group_symop_operation_xyz
x,y,z
-x,1/2+y,1/2-z
-x,-y,-z
x,1/2-y,1/2+z
loop_
_atom_site_type_symbol
_atom_site_label
_atom_site_fract_x
_atom_site_fract_y
_atom_site_fract_z
Si Si1 0.324255 0.769932 0.445167
Si Si2 0.674100 0.486434 0.809271
Si Si3 0.155122 0.554824 0.645730
Si Si4 0.906882 0.781105 0.258576
Si Si5 0.980071 0.877617 0.412289
Si Si6 0.292402 0.116805 0.131787
Si Si7 0.648294 0.420436 0.140174
Si Si8 0.500000 0.500000 0.500000
O O1 0.436911 0.966882 0.519106
O O2 0.469779 0.597410 0.541014
O O3 0.103092 0.763708 0.337647
O O4 0.354593 0.748672 0.401218
O O5 0.631214 0.704755 0.794178
O O6 0.448733 0.406975 0.678414
O O7 0.816944 0.488039 0.844474
O O8 0.809485 0.416701 0.935657
O O9 0.269704 0.549939 0.659548
O O10 0.289969 0.627634 0.768765
O O11 0.092544 0.336700 0.619013
O O12 0.937414 0.652052 0.518027
O O13 0.813243 0.573975 0.216540
O O14 0.981197 0.881357 0.353178
O O15 0.729044 0.896991 0.129110
#
# Coordination Sequence:
#
# PCOD9242562 Si02
#       8
#     4   4   4   4   4   4   4   2
#     4  10  20  37  61  83 119 156 194 241 299 348
#     4  10  20  36  56  84 114 150 185 243 285 348
#     4   9  19  37  56  81 110 149 189 236 276 353
#     4  10  20  38  61  86 114 160 193 241 295 354
#     4   9  20  37  58  80 114 147 196 234 284 345
#     4  10  20  34  56  81 114 147 188 229 297 338
#     4   9  20  37  57  85 112 152 196 236 288 351
#     4  10  22  38  58  92 124 148 202 254 290 356
#
# _framework density 23.822301
#
# number of rings (size 3 to 8) (size 9 to 14) (size 15 to 20)
#    0.000    2.400    0.000    1.600    1.867    2.133 
#   14.400    0.000    0.000    0.000    0.000    0.000 
#    0.000    0.000    0.000    0.000    0.000    0.000 
#
# Total GULP energy -167107.369522 kJ/mol
# GULP energy per Si atom -5570.245651 kJ/mol
# Density = 2.376808 g / cm^3
# Si number density = 23.822301 Si / 1000 Ang^3
#
#
#
# Elastic Constant Matrix: (Units=GPa)
#
#
# Indices 1 2 3 4 5 6 
#
# 1 93.9164 21.5248 63.6122 0.0000 18.7316 0.0000
# 2 21.5248 62.1951 26.5794 0.0000 17.8410 0.0000
# 3 63.6122 26.5794 88.0418 0.0000 35.1975 0.0000
# 4 0.0000 0.0000 0.0000 28.7782 0.0000 2.9139
# 5 18.7316 17.8410 35.1975 0.0000 59.0841 0.0000
# 6 0.0000 0.0000 0.0000 2.9139 0.0000 22.6034
#
#
#
# Elastic Compliance Matrix: (Units=1/GPa)
#
#
# Indices 1 2 3 4 5 6 
#
# 1 0.021395 -0.001370 -0.016405 0.000000 0.003404 0.000000
# 2 -0.001370 0.018950 -0.003435 0.000000 -0.003241 0.000000
# 3 -0.016405 -0.003435 0.028555 0.000000 -0.010772 0.000000
# 4 0.000000 0.000000 0.000000 0.035208 0.000000 -0.004539
# 5 0.003404 -0.003241 -0.010772 0.000000 0.023242 0.000000
# 6 0.000000 0.000000 0.000000 -0.004539 0.000000 0.044826
#
#
# Mechanical properties :
#
#
# Convention : Reuss Voigt Hill
#
# Bulk Modulus (GPa) = 37.76564 51.95402 44.85983
# Shear Modulus (GPa) = 22.37895 30.92228 26.65061
#
# Velocity S-wave (km/s) = 3.06831 3.60674 3.34836
# Velocity P-wave (km/s) = 5.33293 6.26108 5.81555
#
# Compressibility (1/GPa) = 0.02647910
#
# Stress axis : x y z
#
# Youngs Moduli (GPa) = 46.74080 52.76907 35.01986
#
# Poissons Ratio (x) = 0.07229 0.57451
# Poissons Ratio (y) = 0.06403 0.12031
# Poissons Ratio (z) = 0.76680 0.18129
#
# Static dielectric constant tensor:
#      x y z
#    x 1.929270 0.000000 -0.003150 
#    y 0.000000 -5.257650 0.000000 
#    z -0.003150 0.000000 -0.191320 
# 
# From -- ./inp_files/31914.got.cif
#   From: 2010.05.17/outbox.cif.g08.bks.cpg/sg14_16_cif.got.tgz:31914.got - 2010.06.03 17:49:19.
