data_PCOD9242875
_publ_section_title
;
Structure prediction by ZEFSAII (Michael W. Deem and Ramdas Pophale) SiO2 
 PCOD9242875
Probable space group: P 21/C
;
_chemical_formula_sum "Si O2"
_cell_formula_units_Z 32
_cell_length_a 5.637163
_cell_length_b 20.098203
_cell_length_c 15.069041
_cell_angle_alpha 90.000000
_cell_angle_beta 62.428161
_cell_angle_gamma 90.000000
_cell_volume 1513.381641
_symmetry_space_group_name_H-M "P 21/C"
_symmetry_group_IT_number 14
_symmetry_cell_setting 'monoclinic'
loop_
_space_group_symop_operation_xyz
x,y,z
-x,1/2+y,1/2-z
-x,-y,-z
x,1/2-y,1/2+z
loop_
_atom_site_type_symbol
_atom_site_label
_atom_site_fract_x
_atom_site_fract_y
_atom_site_fract_z
Si Si1 0.384884 0.406122 0.776975
Si Si2 0.484371 0.464820 0.150504
Si Si3 0.186119 0.545721 0.064383
Si Si4 0.133269 0.733182 0.709285
Si Si5 0.400807 0.686627 0.411018
Si Si6 0.436467 0.316894 0.231108
Si Si7 0.507736 0.830318 0.565988
Si Si8 0.135881 0.280320 0.563677
O O1 0.524928 0.476354 0.775299
O O2 0.481098 0.371748 0.671098
O O3 0.450922 0.351606 0.840087
O O4 0.075210 0.421532 0.848690
O O5 0.261116 0.485537 0.117012
O O6 0.473739 0.391471 0.190356
O O7 0.762266 0.472247 0.047326
O O8 0.414928 0.603158 0.034595
O O9 0.381406 0.694554 0.713029
O O10 0.257484 0.780685 0.613617
O O11 0.882577 0.694835 0.710648
O O12 0.006659 0.773793 0.815136
O O13 0.462933 0.759893 0.356185
O O14 0.582865 0.683033 0.467080
O O15 0.079222 0.685852 0.463475
O O16 0.768838 0.792982 0.484339
#
# Coordination Sequence:
#
# PCOD9242875 Si02
#       8
#     4   4   4   4   4   4   4   4
#     4  11  22  36  60  83 130 163 202 246 307 373
#     4  10  23  35  53  90 119 174 197 243 302 385
#     4  10  21  36  53  84 129 160 206 228 308 389
#     4  10  21  36  56  86 117 152 203 249 295 355
#     4  10  21  39  56  85 116 156 204 254 284 357
#     4  10  20  36  56  77 119 152 200 245 288 343
#     4  11  22  35  61  88 121 165 194 258 310 360
#     4  10  21  35  57  87 115 154 200 248 301 349
#
# _framework density 21.144698000000002
#
# number of rings (size 3 to 8) (size 9 to 14) (size 15 to 20)
#    0.000    1.750    2.500    3.375    8.750    0.000 
#    0.000    0.000    0.000    0.000    0.000    5.250 
#    0.000    0.000    0.000    0.000    0.000    0.000 
#
# Total GULP energy -178456.710188 kJ/mol
# GULP energy per Si atom -5576.772193 kJ/mol
# Density = 2.109657 g / cm^3
# Si number density = 21.144698 Si / 1000 Ang^3
#
#
#
# Elastic Constant Matrix: (Units=GPa)
#
#
# Indices 1 2 3 4 5 6 
#
# 1 120.0756 3.4268 1.0411 0.0000 -8.7635 0.0000
# 2 3.4268 55.9578 3.3909 0.0000 6.5603 0.0000
# 3 1.0411 3.3909 27.5354 0.0000 1.1600 0.0000
# 4 0.0000 0.0000 0.0000 31.2747 0.0000 7.1697
# 5 -8.7635 6.5603 1.1600 0.0000 20.0362 0.0000
# 6 0.0000 0.0000 0.0000 7.1697 0.0000 5.6283
#
#
#
# Elastic Compliance Matrix: (Units=1/GPa)
#
#
# Indices 1 2 3 4 5 6 
#
# 1 0.008662 -0.000992 -0.000380 0.000000 0.004135 0.000000
# 2 -0.000992 0.018812 -0.002006 0.000000 -0.006477 0.000000
# 3 -0.000380 -0.002006 0.036647 0.000000 -0.001631 0.000000
# 4 0.000000 0.000000 0.000000 0.045164 0.000000 -0.057533
# 5 0.004135 -0.006477 -0.001631 0.000000 0.053934 0.000000
# 6 0.000000 0.000000 0.000000 -0.057533 0.000000 0.250962
#
#
# Mechanical properties :
#
#
# Convention : Reuss Voigt Hill
#
# Bulk Modulus (GPa) = 17.43229 24.36516 20.89872
# Shear Modulus (GPa) = 11.36212 24.43517 17.89865
#
# Velocity S-wave (km/s) = 2.32060 3.40312 2.91260
# Velocity P-wave (km/s) = 3.92968 5.19517 4.60609
#
# Compressibility (1/GPa) = 0.05736481
#
# Stress axis : x y z
#
# Youngs Moduli (GPa) = 115.45344 53.15657 27.28733
#
# Poissons Ratio (x) = 0.05274 0.01036
# Poissons Ratio (y) = 0.11456 0.05475
# Poissons Ratio (z) = 0.04382 0.10665
#
# Static dielectric constant tensor:
#      x y z
#    x 1.916370 0.000000 0.009850 
#    y 0.000000 1.757460 0.000000 
#    z 0.009850 0.000000 1.805510 
# 
# From -- ./inp_files/49270.got.cif
#   From: 2010.05.17/outbox.cif.g08.bks.cpg/sg14_25_cif.got.tgz:49270.got - 2010.06.03 17:49:19.
