data_PCOD9242915
_publ_section_title
;
Structure prediction by ZEFSAII (Michael W. Deem and Ramdas Pophale) SiO2 
 PCOD9242915
Probable space group: P 21/C
;
_chemical_formula_sum "Si O2"
_cell_formula_units_Z 24
_cell_length_a 14.141351
_cell_length_b 7.603107
_cell_length_c 18.197804
_cell_angle_alpha 90.000000
_cell_angle_beta 26.176964
_cell_angle_gamma 90.000000
_cell_volume 863.142335
_symmetry_space_group_name_H-M "P 21/C"
_symmetry_group_IT_number 14
_symmetry_cell_setting 'monoclinic'
loop_
_space_group_symop_operation_xyz
x,y,z
-x,1/2+y,1/2-z
-x,-y,-z
x,1/2-y,1/2+z
loop_
_atom_site_type_symbol
_atom_site_label
_atom_site_fract_x
_atom_site_fract_y
_atom_site_fract_z
Si Si1 0.162670 0.413082 0.207786
Si Si2 0.547434 0.715694 0.393700
Si Si3 0.802464 0.372942 0.240400
Si Si4 0.311390 0.487582 0.438976
Si Si5 0.870707 0.415986 0.912859
Si Si6 0.330547 0.774799 0.805455
O O1 0.315008 0.381156 0.171485
O O2 0.253624 0.520849 0.074180
O O3 0.942772 0.514161 0.379289
O O4 0.063952 0.220225 0.256919
O O5 0.729603 0.562933 0.259681
O O6 0.390858 0.681564 0.571902
O O7 0.400234 0.652084 0.427145
O O8 0.817243 0.242746 0.162027
O O9 0.010354 0.408118 0.142603
O O10 0.444752 0.318738 0.369297
O O11 0.363067 0.535935 0.318398
O O12 0.772844 0.339612 0.056466
#
# Coordination Sequence:
#
# PCOD9242915 Si02
#       6
#     4   4   4   4   4   4
#     4  10  21  36  59  83 113 148 193 233 275 337
#     4   9  18  34  60  81 108 151 195 224 274 341
#     4   9  17  34  59  82 106 151 194 231 271 334
#     4  10  21  40  55  85 116 149 185 240 278 337
#     4  10  20  36  57  88 112 146 191 238 278 332
#     4  10  22  34  58  84 118 145 189 234 287 325
#
# _framework density 27.805382000000002
#
# number of rings (size 3 to 8) (size 9 to 14) (size 15 to 20)
#    0.000    2.333    1.667    0.500    4.667    1.333 
#    0.000    5.833    0.000    0.000    0.000    0.000 
#    0.000    0.000    0.000    0.000    0.000    0.000 
#
# Total GULP energy -134189.171393 kJ/mol
# GULP energy per Si atom -5591.215475 kJ/mol
# Density = 2.774210 g / cm^3
# Si number density = 27.805382 Si / 1000 Ang^3
#
#
#
# Elastic Constant Matrix: (Units=GPa)
#
#
# Indices 1 2 3 4 5 6 
#
# 1 139.1271 3.4570 28.8085 0.0000 2.7298 0.0000
# 2 3.4570 66.0749 -2.3604 0.0000 8.4530 0.0000
# 3 28.8085 -2.3604 72.6072 0.0000 -4.7387 0.0000
# 4 0.0000 0.0000 0.0000 28.5032 0.0000 7.3856
# 5 2.7298 8.4530 -4.7387 0.0000 41.8225 0.0000
# 6 0.0000 0.0000 0.0000 7.3856 0.0000 34.0994
#
#
#
# Elastic Compliance Matrix: (Units=1/GPa)
#
#
# Indices 1 2 3 4 5 6 
#
# 1 0.007874 -0.000425 -0.003190 0.000000 -0.000789 0.000000
# 2 -0.000425 0.015566 0.000475 0.000000 -0.003065 0.000000
# 3 -0.003190 0.000475 0.015173 0.000000 0.001831 0.000000
# 4 0.000000 0.000000 0.000000 0.037170 0.000000 -0.008051
# 5 -0.000789 -0.003065 0.001831 0.000000 0.024789 0.000000
# 6 0.000000 0.000000 0.000000 -0.008051 0.000000 0.031070
#
#
# Mechanical properties :
#
#
# Convention : Reuss Voigt Hill
#
# Bulk Modulus (GPa) = 30.92797 37.51327 34.22062
# Shear Modulus (GPa) = 33.62496 37.41196 35.51846
#
# Velocity S-wave (km/s) = 3.48127 3.67208 3.57794
# Velocity P-wave (km/s) = 5.22553 5.61244 5.42244
#
# Compressibility (1/GPa) = 0.03233320
#
# Stress axis : x y z
#
# Youngs Moduli (GPa) = 126.99747 64.24434 65.90556
#
# Poissons Ratio (x) = 0.02730 0.21021
# Poissons Ratio (y) = 0.05396 -0.03128
# Poissons Ratio (z) = 0.40507 -0.03049
#
# Static dielectric constant tensor:
#      x y z
#    x 2.153170 0.000000 -0.028600 
#    y 0.000000 2.298910 0.000000 
#    z -0.028600 0.000000 2.154680 
# 
# From -- ./inp_files/39244.got.cif
#   From: 2010.05.17/outbox.cif.g08.bks.cpg/sg14_20_cif.got.tgz:39244.got - 2010.06.03 17:49:19.
