data_PCOD9242259
_publ_section_title
;
Structure prediction by ZEFSAII (Michael W. Deem and Ramdas Pophale) SiO2 
 PCOD9242259
Probable space group: P 21/C
;
_chemical_formula_sum "Si O2"
_cell_formula_units_Z 24
_cell_length_a 12.464490
_cell_length_b 13.680643
_cell_length_c 11.005257
_cell_angle_alpha 90.000000
_cell_angle_beta 37.407362
_cell_angle_gamma 90.000000
_cell_volume 1140.017984
_symmetry_space_group_name_H-M "P 21/C"
_symmetry_group_IT_number 14
_symmetry_cell_setting 'monoclinic'
loop_
_space_group_symop_operation_xyz
x,y,z
-x,1/2+y,1/2-z
-x,-y,-z
x,1/2-y,1/2+z
loop_
_atom_site_type_symbol
_atom_site_label
_atom_site_fract_x
_atom_site_fract_y
_atom_site_fract_z
Si Si1 0.507525 0.383146 0.495282
Si Si2 0.930121 0.328210 0.483599
Si Si3 0.542889 0.110052 0.687930
Si Si4 0.315247 0.200716 0.691693
Si Si5 0.564724 0.069598 0.331709
Si Si6 0.802138 0.254894 0.344856
O O1 0.500000 0.500000 0.500000
O O2 0.565387 0.359894 0.305271
O O3 0.329682 0.318713 0.678270
O O4 0.649845 0.335611 0.458828
O O5 0.772006 0.407820 0.634321
O O6 0.910615 0.283129 0.366659
O O7 0.897121 0.258823 0.630754
O O8 0.135014 0.351866 0.316995
O O9 0.378010 0.160762 0.766578
O O10 0.707291 0.152383 0.464236
O O11 0.509813 0.994034 0.711723
O O12 0.460443 0.166953 0.460913
O O13 0.500000 0.000000 0.500000
#
# Coordination Sequence:
#
# PCOD9242259 Si02
#       6
#     4   4   4   4   4   4
#     4  11  22  42  66  94 130 175 215 268 328 389
#     4  12  23  42  66  96 132 173 217 267 327 386
#     4  10  20  41  68  94 128 170 216 266 328 383
#     4  10  24  40  67  95 128 172 221 264 329 392
#     4  10  19  41  66  93 127 169 211 270 320 383
#     4  11  22  42  65  90 137 169 211 274 320 381
#
# _framework density 21.052299000000001
#
# number of rings (size 3 to 8) (size 9 to 14) (size 15 to 20)
#    0.000    1.333    6.667    1.000    2.333    4.000 
#    0.000    2.500    0.000    0.000    0.000    0.000 
#    0.000    0.000    0.000    0.000    0.000    0.000 
#
# Total GULP energy -133655.480293 kJ/mol
# GULP energy per Si atom -5568.978346 kJ/mol
# Density = 2.100438 g / cm^3
# Si number density = 21.052299 Si / 1000 Ang^3
#
#
#
# Elastic Constant Matrix: (Units=GPa)
#
#
# Indices 1 2 3 4 5 6 
#
# 1 117.0066 0.5876 25.0368 0.0000 13.5512 0.0000
# 2 0.5876 109.6638 12.0290 0.0000 4.6368 0.0000
# 3 25.0368 12.0290 46.1532 0.0000 -2.1743 0.0000
# 4 0.0000 0.0000 0.0000 16.6231 0.0000 6.5970
# 5 13.5512 4.6368 -2.1743 0.0000 38.2409 0.0000
# 6 0.0000 0.0000 0.0000 6.5970 0.0000 26.9095
#
#
#
# Elastic Compliance Matrix: (Units=1/GPa)
#
#
# Indices 1 2 3 4 5 6 
#
# 1 0.010295 0.000773 -0.005978 0.000000 -0.004082 0.000000
# 2 0.000773 0.009508 -0.002973 0.000000 -0.001596 0.000000
# 3 -0.005978 -0.002973 0.025871 0.000000 0.003950 0.000000
# 4 0.000000 0.000000 0.000000 0.066641 0.000000 -0.016337
# 5 -0.004082 -0.001596 0.003950 0.000000 0.028014 0.000000
# 6 0.000000 0.000000 0.000000 -0.016337 0.000000 0.041167
#
#
# Mechanical properties :
#
#
# Convention : Reuss Voigt Hill
#
# Bulk Modulus (GPa) = 34.10884 38.68115 36.39500
# Shear Modulus (GPa) = 24.08196 32.03272 28.05734
#
# Velocity S-wave (km/s) = 3.38585 3.90497 3.65464
# Velocity P-wave (km/s) = 5.61448 6.22459 5.92739
#
# Compressibility (1/GPa) = 0.02931791
#
# Stress axis : x y z
#
# Youngs Moduli (GPa) = 97.13839 105.17242 38.65343
#
# Poissons Ratio (x) = -0.08132 0.23108
# Poissons Ratio (y) = -0.07511 0.11491
# Poissons Ratio (z) = 0.58072 0.31265
#
# Static dielectric constant tensor:
#      x y z
#    x 1.810600 0.000000 0.025840 
#    y 0.000000 1.854410 0.000000 
#    z 0.025840 0.000000 1.805340 
# 
# From -- ./inp_files/29723.got.cif
#   From: 2010.05.17/outbox.cif.g08.bks.cpg/sg14_15_cif.got.tgz:29723.got - 2010.06.03 17:49:19.
