data_PCOD9242167
_publ_section_title
;
Structure prediction by ZEFSAII (Michael W. Deem and Ramdas Pophale) SiO2 
 PCOD9242167
Probable space group: P 21/C
;
_chemical_formula_sum "Si O2"
_cell_formula_units_Z 28
_cell_length_a 16.911247
_cell_length_b 10.523643
_cell_length_c 14.174365
_cell_angle_alpha 90.000000
_cell_angle_beta 156.450622
_cell_angle_gamma 90.000000
_cell_volume 1007.870660
_symmetry_space_group_name_H-M "P 21/C"
_symmetry_group_IT_number 14
_symmetry_cell_setting 'monoclinic'
loop_
_space_group_symop_operation_xyz
x,y,z
-x,1/2+y,1/2-z
-x,-y,-z
x,1/2-y,1/2+z
loop_
_atom_site_type_symbol
_atom_site_label
_atom_site_fract_x
_atom_site_fract_y
_atom_site_fract_z
Si Si1 0.266652 0.101405 0.927692
Si Si2 0.599200 0.850928 0.408875
Si Si3 0.029451 0.687383 0.632732
Si Si4 0.238751 0.431200 0.196101
Si Si5 0.289018 0.487290 0.659264
Si Si6 0.263521 0.910340 0.546295
Si Si7 0.555405 0.239655 0.966883
O O1 0.227017 0.251194 0.876364
O O2 0.219558 0.036611 0.974478
O O3 0.506306 0.121359 0.187886
O O4 0.204755 0.030015 0.766484
O O5 0.497503 0.815366 0.196117
O O6 0.429266 0.888416 0.299849
O O7 0.715318 0.979040 0.508691
O O8 0.887278 0.807030 0.467308
O O9 0.898787 0.557540 0.483865
O O10 0.124137 0.688899 0.842289
O O11 0.218230 0.718857 0.774456
O O12 0.193423 0.536334 0.068880
O O13 0.460160 0.369675 0.427359
O O14 0.439150 0.372180 0.845776
#
# Coordination Sequence:
#
# PCOD9242167 Si02
#       7
#     4   4   4   4   4   4   4
#     4  10  19  40  59  88 121 150 191 245 300 338
#     4   9  16  34  61  80 109 160 192 234 288 346
#     4  11  20  37  59  86 114 155 207 234 282 362
#     4  10  23  37  60  88 123 148 186 256 296 328
#     4   9  19  34  60  81 112 149 199 236 280 356
#     4  10  20  37  65  83 113 162 201 229 287 357
#     4   9  18  37  54  79 115 155 193 231 285 361
#
# _framework density 27.781344000000001
#
# number of rings (size 3 to 8) (size 9 to 14) (size 15 to 20)
#    0.000    2.286    4.286    1.286    2.000    0.000 
#    2.571    4.286    0.000    0.000    0.000    0.000 
#    0.000    0.000    0.000    0.000    0.000    0.000 
#
# Total GULP energy -156528.859798 kJ/mol
# GULP energy per Si atom -5590.316421 kJ/mol
# Density = 2.771811 g / cm^3
# Si number density = 27.781344 Si / 1000 Ang^3
#
#
#
# Elastic Constant Matrix: (Units=GPa)
#
#
# Indices 1 2 3 4 5 6 
#
# 1 112.0328 2.5852 23.7691 0.0000 -1.2819 0.0000
# 2 2.5852 32.2489 5.3490 0.0000 -7.3562 0.0000
# 3 23.7691 5.3490 71.2762 0.0000 17.3721 0.0000
# 4 0.0000 0.0000 0.0000 37.3655 0.0000 5.7007
# 5 -1.2819 -7.3562 17.3721 0.0000 47.8588 0.0000
# 6 0.0000 0.0000 0.0000 5.7007 0.0000 26.2542
#
#
#
# Elastic Compliance Matrix: (Units=1/GPa)
#
#
# Indices 1 2 3 4 5 6 
#
# 1 0.009714 0.000194 -0.003647 0.000000 0.001614 0.000000
# 2 0.000194 0.033195 -0.004170 0.000000 0.006621 0.000000
# 3 -0.003647 -0.004170 0.017267 0.000000 -0.007006 0.000000
# 4 0.000000 0.000000 0.000000 0.027680 0.000000 -0.006010
# 5 0.001614 0.006621 -0.007006 0.000000 0.024499 0.000000
# 6 0.000000 0.000000 0.000000 -0.006010 0.000000 0.039394
#
#
# Mechanical properties :
#
#
# Convention : Reuss Voigt Hill
#
# Bulk Modulus (GPa) = 22.25661 30.99606 26.62634
# Shear Modulus (GPa) = 27.47699 34.55268 31.01484
#
# Velocity S-wave (km/s) = 3.14832 3.53049 3.34487
# Velocity P-wave (km/s) = 4.60919 5.27262 4.95203
#
# Compressibility (1/GPa) = 0.04493046
#
# Stress axis : x y z
#
# Youngs Moduli (GPa) = 102.94676 30.12484 57.91476
#
# Poissons Ratio (x) = -0.00586 0.21123
# Poissons Ratio (y) = -0.02001 0.24149
# Poissons Ratio (z) = 0.37548 0.12561
#
# Static dielectric constant tensor:
#      x y z
#    x 2.182760 0.000000 0.090330 
#    y 0.000000 2.489030 0.000000 
#    z 0.090330 0.000000 2.236160 
# 
# From -- ./inp_files/61325.got.cif
#   From: 2010.05.17/outbox.cif.g08.bks.cpg/sg14_31_cif.got.tgz:61325.got - 2010.06.03 17:49:19.
