data_PCOD9242325
_publ_section_title
;
Structure prediction by ZEFSAII (Michael W. Deem and Ramdas Pophale) SiO2 
 PCOD9242325
Probable space group: P 21/C
;
_chemical_formula_sum "Si O2"
_cell_formula_units_Z 24
_cell_length_a 12.805091
_cell_length_b 8.053596
_cell_length_c 14.405194
_cell_angle_alpha 90.000000
_cell_angle_beta 136.164423
_cell_angle_gamma 90.000000
_cell_volume 1028.889166
_symmetry_space_group_name_H-M "P 21/C"
_symmetry_group_IT_number 14
_symmetry_cell_setting 'monoclinic'
loop_
_space_group_symop_operation_xyz
x,y,z
-x,1/2+y,1/2-z
-x,-y,-z
x,1/2-y,1/2+z
loop_
_atom_site_type_symbol
_atom_site_label
_atom_site_fract_x
_atom_site_fract_y
_atom_site_fract_z
Si Si1 0.234170 0.697073 0.934850
Si Si2 0.011701 0.301542 0.978288
Si Si3 0.239231 0.137284 0.760161
Si Si4 0.678072 0.318245 0.802668
Si Si5 0.491461 0.810160 0.464410
Si Si6 0.001559 0.074030 0.278368
O O1 0.346014 0.758914 0.927305
O O2 0.097813 0.828039 0.859290
O O3 0.500000 0.500000 0.000000
O O4 0.322845 0.669985 0.087168
O O5 0.145062 0.242413 0.130376
O O6 0.000000 0.500000 0.000000
O O7 0.842904 0.238177 0.885903
O O8 0.045424 0.300778 0.890838
O O9 0.149650 0.528692 0.849137
O O10 0.316113 0.999049 0.742621
O O11 0.117171 0.050478 0.748840
O O12 0.362748 0.220277 0.903369
O O13 0.546064 0.218372 0.667316
#
# Coordination Sequence:
#
# PCOD9242325 Si02
#       6
#     4   4   4   4   4   4
#     4  12  23  42  68 100 128 171 219 272 321 393
#     4   8  14  37  68  87 108 167 221 255 296 388
#     4  10  19  44  70  85 127 183 209 262 335 395
#     4  10  20  43  68  89 127 174 228 251 317 410
#     4  12  28  42  60 102 143 160 212 288 330 370
#     4  10  21  39  68  97 123 167 227 264 314 392
#
# _framework density 23.326127
#
# number of rings (size 3 to 8) (size 9 to 14) (size 15 to 20)
#    0.000    2.000    8.333    0.500    2.333    1.333 
#    3.000    1.667    0.000    0.000    0.000    0.000 
#    0.000    0.000    0.000    0.000    0.000    0.000 
#
# Total GULP energy -134014.443569 kJ/mol
# GULP energy per Si atom -5583.935149 kJ/mol
# Density = 2.327304 g / cm^3
# Si number density = 23.326127 Si / 1000 Ang^3
#
#
#
# Elastic Constant Matrix: (Units=GPa)
#
#
# Indices 1 2 3 4 5 6 
#
# 1 41.9198 2.9066 16.8696 0.0000 -9.3257 0.0000
# 2 2.9066 37.3558 44.7792 0.0000 -9.5770 0.0000
# 3 16.8696 44.7792 194.1930 0.0000 -21.1858 0.0000
# 4 0.0000 0.0000 0.0000 31.0275 0.0000 8.7164
# 5 -9.3257 -9.5770 -21.1858 0.0000 29.9853 0.0000
# 6 0.0000 0.0000 0.0000 8.7164 0.0000 18.6772
#
#
#
# Elastic Compliance Matrix: (Units=1/GPa)
#
#
# Indices 1 2 3 4 5 6 
#
# 1 0.026153 0.002245 -0.001976 0.000000 0.007455 0.000000
# 2 0.002245 0.038310 -0.008254 0.000000 0.007102 0.000000
# 3 -0.001976 -0.008254 0.007444 0.000000 0.002008 0.000000
# 4 0.000000 0.000000 0.000000 0.037093 0.000000 -0.017311
# 5 0.007455 0.007102 0.002008 0.000000 0.039355 0.000000
# 6 0.000000 0.000000 0.000000 -0.017311 0.000000 0.061620
#
#
# Mechanical properties :
#
#
# Convention : Reuss Voigt Hill
#
# Bulk Modulus (GPa) = 17.87745 44.73105 31.30425
# Shear Modulus (GPa) = 20.44231 29.86555 25.15393
#
# Velocity S-wave (km/s) = 2.96357 3.58208 3.28740
# Velocity P-wave (km/s) = 4.40353 6.02714 5.27814
#
# Compressibility (1/GPa) = 0.05593639
#
# Stress axis : x y z
#
# Youngs Moduli (GPa) = 38.23636 26.10274 134.34265
#
# Poissons Ratio (x) = -0.05861 0.26552
# Poissons Ratio (y) = -0.08585 1.10889
# Poissons Ratio (z) = 0.07557 0.21546
#
# Static dielectric constant tensor:
#      x y z
#    x 1.896330 0.000000 0.007020 
#    y 0.000000 1.949830 0.000000 
#    z 0.007020 0.000000 1.932080 
# 
# From -- ./inp_files/69027.got.cif
#   From: 2010.05.17/outbox.cif.g08.bks.cpg/sg14_35_cif.got.tgz:69027.got - 2010.06.03 17:49:19.
