data_PCOD9242975
_publ_section_title
;
Structure prediction by ZEFSAII (Michael W. Deem and Ramdas Pophale) SiO2 
 PCOD9242975
Probable space group: P 21/C
;
_chemical_formula_sum "Si O2"
_cell_formula_units_Z 20
_cell_length_a 11.092300
_cell_length_b 5.197262
_cell_length_c 14.888711
_cell_angle_alpha 90.000000
_cell_angle_beta 102.085507
_cell_angle_gamma 90.000000
_cell_volume 839.304287
_symmetry_space_group_name_H-M "P 21/C"
_symmetry_group_IT_number 14
_symmetry_cell_setting 'monoclinic'
loop_
_space_group_symop_operation_xyz
x,y,z
-x,1/2+y,1/2-z
-x,-y,-z
x,1/2-y,1/2+z
loop_
_atom_site_type_symbol
_atom_site_label
_atom_site_fract_x
_atom_site_fract_y
_atom_site_fract_z
Si Si1 0.959247 0.940117 0.295097
Si Si2 0.566100 0.062138 0.868351
Si Si3 0.818486 0.566686 0.063679
Si Si4 0.704793 0.939887 0.345866
Si Si5 0.315650 0.931013 0.912730
O O1 0.040583 0.995419 0.396700
O O2 0.009521 0.154682 0.234049
O O3 0.815739 0.974751 0.293812
O O4 0.605667 0.332144 0.833026
O O5 0.635758 0.831329 0.829483
O O6 0.421970 0.008222 0.859887
O O7 0.620412 0.067083 0.978632
O O8 0.739731 0.352770 0.105980
O O9 0.787408 0.849150 0.095612
O O10 0.772289 0.555342 0.954364
#
# Coordination Sequence:
#
# PCOD9242975 Si02
#       5
#     4   4   4   4   4
#     4  12  25  40  57  78 112 150 186 230 277 322
#     4   9  17  31  56  88 114 137 174 227 277 321
#     4  10  20  36  59  84 110 143 185 226 268 325
#     4  10  20  36  59  84 110 143 185 226 268 325
#     4   9  17  31  56  88 114 137 174 227 277 321
#
# _framework density 23.829260000000001
#
# number of rings (size 3 to 8) (size 9 to 14) (size 15 to 20)
#    0.000    2.000    0.000    4.200    0.000    4.800 
#    0.000    8.000    0.000   24.000    0.000    0.000 
#    0.000    0.000    0.000    0.000    0.000    0.000 
#
# Total GULP energy -112032.524027 kJ/mol
# GULP energy per Si atom -5601.626201 kJ/mol
# Density = 2.377502 g / cm^3
# Si number density = 23.829260 Si / 1000 Ang^3
#
#
#
# Elastic Constant Matrix: (Units=GPa)
#
#
# Indices 1 2 3 4 5 6 
#
# 1 88.4133 -24.3742 7.5103 0.0000 0.7241 0.0000
# 2 -24.3742 82.9403 5.1873 0.0000 0.4500 0.0000
# 3 7.5103 5.1873 85.3929 0.0000 1.3950 0.0000
# 4 0.0000 0.0000 0.0000 6.2230 0.0000 -4.1280
# 5 0.7241 0.4500 1.3950 0.0000 39.8889 0.0000
# 6 0.0000 0.0000 0.0000 -4.1280 0.0000 29.7540
#
#
#
# Elastic Compliance Matrix: (Units=1/GPa)
#
#
# Indices 1 2 3 4 5 6 
#
# 1 0.012457 0.003744 -0.001319 0.000000 -0.000222 0.000000
# 2 0.003744 0.013229 -0.001130 0.000000 -0.000178 0.000000
# 3 -0.001319 -0.001130 0.011901 0.000000 -0.000380 0.000000
# 4 0.000000 0.000000 0.000000 0.176981 0.000000 0.024554
# 5 -0.000222 -0.000178 -0.000380 0.000000 0.025089 0.000000
# 6 0.000000 0.000000 0.000000 0.024554 0.000000 0.037015
#
#
# Mechanical properties :
#
#
# Convention : Reuss Voigt Hill
#
# Bulk Modulus (GPa) = 24.88977 25.93258 25.41118
# Shear Modulus (GPa) = 17.39284 33.06807 25.23046
#
# Velocity S-wave (km/s) = 2.70459 3.72924 3.25745
# Velocity P-wave (km/s) = 4.49675 5.42672 4.98347
#
# Compressibility (1/GPa) = 0.04017715
#
# Stress axis : x y z
#
# Youngs Moduli (GPa) = 80.27805 75.59194 84.02330
#
# Poissons Ratio (x) = -0.28305 0.11086
# Poissons Ratio (y) = -0.30060 0.09495
# Poissons Ratio (z) = 0.10592 0.08542
#
# Static dielectric constant tensor:
#      x y z
#    x 1.851140 0.000000 0.069980 
#    y 0.000000 1.799760 0.000000 
#    z 0.069980 0.000000 1.988690 
# 
# From -- ./inp_files/2648.got.cif
#   From: 2010.05.17/outbox.cif.g08.bks.cpg/sg14_2_cif.got.tgz:2648.got - 2010.06.03 17:49:19.
