data_PCOD9242689
_publ_section_title
;
Structure prediction by ZEFSAII (Michael W. Deem and Ramdas Pophale) SiO2 
 PCOD9242689
Probable space group: P 21/C
;
_chemical_formula_sum "Si O2"
_cell_formula_units_Z 28
_cell_length_a 8.668406
_cell_length_b 8.547009
_cell_length_c 18.075292
_cell_angle_alpha 90.000000
_cell_angle_beta 96.135683
_cell_angle_gamma 90.000000
_cell_volume 1331.507906
_symmetry_space_group_name_H-M "P 21/C"
_symmetry_group_IT_number 14
_symmetry_cell_setting 'monoclinic'
loop_
_space_group_symop_operation_xyz
x,y,z
-x,1/2+y,1/2-z
-x,-y,-z
x,1/2-y,1/2+z
loop_
_atom_site_type_symbol
_atom_site_label
_atom_site_fract_x
_atom_site_fract_y
_atom_site_fract_z
Si Si1 0.619818 0.639671 0.750313
Si Si2 0.264756 0.246467 0.401683
Si Si3 0.020732 0.619990 0.673013
Si Si4 0.432267 0.656247 0.032891
Si Si5 0.904864 0.757074 0.823182
Si Si6 0.668167 0.305523 0.805653
Si Si7 0.880682 0.423651 0.052636
O O1 0.673110 0.723666 0.677740
O O2 0.722408 0.715936 0.820567
O O3 0.661894 0.457587 0.753630
O O4 0.437465 0.674768 0.740142
O O5 0.416548 0.270859 0.461097
O O6 0.112558 0.355065 0.395593
O O7 0.199194 0.071169 0.409548
O O8 0.071670 0.441401 0.679140
O O9 0.165124 0.734674 0.668548
O O10 0.957525 0.673779 0.749784
O O11 0.397530 0.638869 0.118390
O O12 0.500000 0.500000 0.000000
O O13 0.263502 0.677050 0.987411
O O14 0.012155 0.681514 0.890390
O O15 0.000000 0.500000 0.000000
#
# Coordination Sequence:
#
# PCOD9242689 Si02
#       7
#     4   4   4   4   4   4   4
#     4  10  20  35  56  86 117 145 185 246 294 341
#     4   9  19  37  57  81 113 148 191 244 293 337
#     4  11  21  37  61  86 114 149 193 255 301 346
#     4   9  20  37  58  83 116 155 192 232 283 352
#     4  11  22  37  58  88 118 153 196 244 305 348
#     4  11  21  37  62  90 117 151 197 242 296 352
#     4  11  21  38  62  84 114 161 201 233 287 368
#
# _framework density 21.028787999999999
#
# number of rings (size 3 to 8) (size 9 to 14) (size 15 to 20)
#    0.000    1.714    0.000    6.857    0.000    2.286 
#    0.000    3.571    0.000    3.429    0.000    0.000 
#    0.000    0.000    0.000    0.000    0.000    0.000 
#
# Total GULP energy -156039.781815 kJ/mol
# GULP energy per Si atom -5572.849351 kJ/mol
# Density = 2.098093 g / cm^3
# Si number density = 21.028788 Si / 1000 Ang^3
#
#
#
# Elastic Constant Matrix: (Units=GPa)
#
#
# Indices 1 2 3 4 5 6 
#
# 1 126.0651 7.0200 55.1571 0.0000 50.9998 0.0000
# 2 7.0200 65.1094 22.0570 0.0000 5.7952 0.0000
# 3 55.1571 22.0570 95.8581 0.0000 46.3170 0.0000
# 4 0.0000 0.0000 0.0000 29.0458 0.0000 12.2512
# 5 50.9998 5.7952 46.3170 0.0000 65.4345 0.0000
# 6 0.0000 0.0000 0.0000 12.2512 0.0000 20.4584
#
#
#
# Elastic Compliance Matrix: (Units=1/GPa)
#
#
# Indices 1 2 3 4 5 6 
#
# 1 0.012436 0.000611 -0.003931 0.000000 -0.006964 0.000000
# 2 0.000611 0.016841 -0.004979 0.000000 0.001556 0.000000
# 3 -0.003931 -0.004979 0.018460 0.000000 -0.009561 0.000000
# 4 0.000000 0.000000 0.000000 0.046063 0.000000 -0.027584
# 5 -0.006964 0.001556 -0.009561 0.000000 0.027340 0.000000
# 6 0.000000 0.000000 0.000000 -0.027584 0.000000 0.065398
#
#
# Mechanical properties :
#
#
# Convention : Reuss Voigt Hill
#
# Bulk Modulus (GPa) = 32.11502 50.61119 41.36310
# Shear Modulus (GPa) = 23.41754 36.50765 29.96259
#
# Velocity S-wave (km/s) = 3.34068 4.17115 3.77880
# Velocity P-wave (km/s) = 5.49411 6.87879 6.22507
#
# Compressibility (1/GPa) = 0.03113807
#
# Stress axis : x y z
#
# Youngs Moduli (GPa) = 80.41390 59.37898 54.17208
#
# Poissons Ratio (x) = -0.03627 0.21297
# Poissons Ratio (y) = -0.04912 0.26970
# Poissons Ratio (z) = 0.31613 0.29563
#
# Static dielectric constant tensor:
#      x y z
#    x 2.188600 0.000000 -0.073720 
#    y 0.000000 1.716450 0.000000 
#    z -0.073720 0.000000 1.802480 
# 
# From -- ./inp_files/54911.got.cif
#   From: 2010.05.17/outbox.cif.g08.bks.cpg/sg14_28_cif.got.tgz:54911.got - 2010.06.03 17:49:19.
