data_PCOD9242080
_publ_section_title
;
Structure prediction by ZEFSAII (Michael W. Deem and Ramdas Pophale) SiO2 
 PCOD9242080
Probable space group: P 21/C
;
_chemical_formula_sum "Si O2"
_cell_formula_units_Z 32
_cell_length_a 11.501936
_cell_length_b 13.748621
_cell_length_c 9.723359
_cell_angle_alpha 90.000000
_cell_angle_beta 70.717741
_cell_angle_gamma 90.000000
_cell_volume 1451.355782
_symmetry_space_group_name_H-M "P 21/C"
_symmetry_group_IT_number 14
_symmetry_cell_setting 'monoclinic'
loop_
_space_group_symop_operation_xyz
x,y,z
-x,1/2+y,1/2-z
-x,-y,-z
x,1/2-y,1/2+z
loop_
_atom_site_type_symbol
_atom_site_label
_atom_site_fract_x
_atom_site_fract_y
_atom_site_fract_z
Si Si1 0.180452 0.226834 0.974233
Si Si2 0.605483 0.195653 0.648042
Si Si3 0.950915 0.098269 0.084383
Si Si4 0.757364 0.195503 0.308294
Si Si5 0.903014 0.560912 0.949444
Si Si6 0.889104 0.113829 0.814163
Si Si7 0.695880 0.502622 0.214854
Si Si8 0.657291 0.723043 0.326920
O O1 0.242697 0.216198 0.801564
O O2 0.112533 0.329821 0.990392
O O3 0.292013 0.226894 0.038676
O O4 0.076569 0.154107 0.068330
O O5 0.696715 0.191978 0.481423
O O6 0.652658 0.276641 0.738496
O O7 0.606642 0.089326 0.721947
O O8 0.473225 0.226905 0.643805
O O9 0.845828 0.104543 0.240354
O O10 0.884108 0.141177 0.975215
O O11 0.000000 0.000000 0.000000
O O12 0.851220 0.286633 0.254967
O O13 0.974914 0.576918 0.778962
O O14 0.771728 0.516409 0.042298
O O15 0.000000 0.500000 0.000000
O O16 0.790946 0.035310 0.795998
O O17 0.650823 0.609970 0.277521
#
# Coordination Sequence:
#
# PCOD9242080 Si02
#       8
#     4   4   4   4   4   4   4   4
#     4  11  23  42  68  98 138 180 222 283 347 406
#     4  11  24  46  70  98 133 185 234 286 335 410
#     4  12  25  39  65 104 143 173 220 283 347 410
#     4  11  23  43  68  98 140 178 226 281 351 405
#     4   9  18  35  64  98 133 171 217 269 335 420
#     4  10  19  39  63 101 136 173 222 275 344 417
#     4   9  22  41  71  98 130 186 232 272 352 413
#     4  11  24  47  68  97 136 182 234 283 338 409
#
# _framework density 22.048349000000002
#
# number of rings (size 3 to 8) (size 9 to 14) (size 15 to 20)
#    0.000    1.500    2.500    2.250    1.750    0.000 
#    4.500    6.250    0.000    0.000    0.000    0.000 
#    0.000    0.000    0.000    0.000    0.000    0.000 
#
# Total GULP energy -178475.489073 kJ/mol
# GULP energy per Si atom -5577.359034 kJ/mol
# Density = 2.199817 g / cm^3
# Si number density = 22.048349 Si / 1000 Ang^3
#
#
#
# Elastic Constant Matrix: (Units=GPa)
#
#
# Indices 1 2 3 4 5 6 
#
# 1 70.8843 41.1270 -12.5067 0.0000 1.1406 0.0000
# 2 41.1270 71.6598 -2.2889 0.0000 -14.9850 0.0000
# 3 -12.5067 -2.2889 49.4337 0.0000 3.1649 0.0000
# 4 0.0000 0.0000 0.0000 20.7030 0.0000 2.8285
# 5 1.1406 -14.9850 3.1649 0.0000 26.5866 0.0000
# 6 0.0000 0.0000 0.0000 2.8285 0.0000 28.3829
#
#
#
# Elastic Compliance Matrix: (Units=1/GPa)
#
#
# Indices 1 2 3 4 5 6 
#
# 1 0.024909 -0.016409 0.006250 0.000000 -0.011061 0.000000
# 2 -0.016409 0.026630 -0.003955 0.000000 0.016184 0.000000
# 3 0.006250 -0.003955 0.021955 0.000000 -0.005111 0.000000
# 4 0.000000 0.000000 0.000000 0.048969 0.000000 -0.004880
# 5 -0.011061 0.016184 -0.005111 0.000000 0.047818 0.000000
# 6 0.000000 0.000000 0.000000 -0.004880 0.000000 0.035719
#
#
# Mechanical properties :
#
#
# Convention : Reuss Voigt Hill
#
# Bulk Modulus (GPa) = 22.09114 27.18226 24.63670
# Shear Modulus (GPa) = 20.05493 26.17759 23.11626
#
# Velocity S-wave (km/s) = 3.01921 3.44943 3.24147
# Velocity P-wave (km/s) = 4.71119 5.31225 5.02073
#
# Compressibility (1/GPa) = 0.04526701
#
# Stress axis : x y z
#
# Youngs Moduli (GPa) = 40.14641 37.55106 45.54868
#
# Poissons Ratio (x) = 0.61618 -0.28469
# Poissons Ratio (y) = 0.65877 0.18013
# Poissons Ratio (z) = -0.25093 0.14850
#
# Static dielectric constant tensor:
#      x y z
#    x 1.689810 0.000000 -0.278870 
#    y 0.000000 1.855920 0.000000 
#    z -0.278870 0.000000 1.357590 
# 
# From -- ./inp_files/13290.got.cif
#   From: 2010.05.17/outbox.cif.g08.bks.cpg/sg14_7_cif.got.tgz:13290.got - 2010.06.03 17:49:19.
