data_PCOD9242938
_publ_section_title
;
Structure prediction by ZEFSAII (Michael W. Deem and Ramdas Pophale) SiO2 
 PCOD9242938
Probable space group: P 21/C
;
_chemical_formula_sum "Si O2"
_cell_formula_units_Z 28
_cell_length_a 6.020862
_cell_length_b 29.613219
_cell_length_c 7.982388
_cell_angle_alpha 90.000000
_cell_angle_beta 58.668429
_cell_angle_gamma 90.000000
_cell_volume 1215.689535
_symmetry_space_group_name_H-M "P 21/C"
_symmetry_group_IT_number 14
_symmetry_cell_setting 'monoclinic'
loop_
_space_group_symop_operation_xyz
x,y,z
-x,1/2+y,1/2-z
-x,-y,-z
x,1/2-y,1/2+z
loop_
_atom_site_type_symbol
_atom_site_label
_atom_site_fract_x
_atom_site_fract_y
_atom_site_fract_z
Si Si1 0.032642 0.408379 0.892673
Si Si2 0.732736 0.963272 0.429619
Si Si3 0.124832 0.476984 0.613250
Si Si4 0.513300 0.917079 0.203940
Si Si5 0.724855 0.741660 0.837851
Si Si6 0.492074 0.815395 0.134312
Si Si7 0.041137 0.193193 0.460554
O O1 0.994698 0.429995 0.725690
O O2 0.093548 0.355945 0.868396
O O3 0.256850 0.437069 0.899130
O O4 0.773425 0.415165 0.104772
O O5 0.694197 0.926814 0.295840
O O6 0.500000 0.000000 0.500000
O O7 0.007066 0.989311 0.298540
O O8 0.410440 0.458629 0.449068
O O9 0.000000 0.500000 0.500000
O O10 0.553024 0.868645 0.100732
O O11 0.664349 0.707171 0.713492
O O12 0.978864 0.770048 0.679323
O O13 0.535140 0.783913 0.955587
O O14 0.742542 0.712391 0.998602
O O15 0.206346 0.810678 0.323011
#
# Coordination Sequence:
#
# PCOD9242938 Si02
#       7
#     4   4   4   4   4   4   4
#     4  11  22  40  61  85 120 157 195 246 300 349
#     4  11  22  40  61  84 117 156 202 245 299 353
#     4  10  22  39  60  85 115 154 202 245 292 347
#     4  10  22  39  59  85 118 152 197 248 294 348
#     4  10  20  36  59  85 119 148 190 234 285 355
#     4  10  20  36  58  84 116 151 189 237 288 346
#     4  10  21  36  60  87 115 153 191 233 294 348
#
# _framework density 23.032197
#
# number of rings (size 3 to 8) (size 9 to 14) (size 15 to 20)
#    0.000    1.714    1.429    3.000    0.000    0.571 
#    5.143    0.000    6.286    0.000    0.000    0.000 
#    0.000    0.000    0.000    0.000    0.000    0.000 
#
# Total GULP energy -156034.271514 kJ/mol
# GULP energy per Si atom -5572.652554 kJ/mol
# Density = 2.297977 g / cm^3
# Si number density = 23.032197 Si / 1000 Ang^3
#
#
#
# Elastic Constant Matrix: (Units=GPa)
#
#
# Indices 1 2 3 4 5 6 
#
# 1 30.6574 40.4384 7.4909 0.0000 -4.0430 0.0000
# 2 40.4384 124.8780 27.2971 0.0000 7.9873 0.0000
# 3 7.4909 27.2971 86.3055 0.0000 -3.6294 0.0000
# 4 0.0000 0.0000 0.0000 366.9262 0.0000 -18.5009
# 5 -4.0430 7.9873 -3.6294 0.0000 32.3658 0.0000
# 6 0.0000 0.0000 0.0000 -18.5009 0.0000 23.0292
#
#
#
# Elastic Compliance Matrix: (Units=1/GPa)
#
#
# Indices 1 2 3 4 5 6 
#
# 1 0.062088 -0.021374 0.001928 0.000000 0.013247 0.000000
# 2 -0.021374 0.016157 -0.003552 0.000000 -0.007056 0.000000
# 3 0.001928 -0.003552 0.012649 0.000000 0.002536 0.000000
# 4 0.000000 0.000000 0.000000 0.002840 0.000000 0.002282
# 5 0.013247 -0.007056 0.002536 0.000000 0.034577 0.000000
# 6 0.000000 0.000000 0.000000 0.002282 0.000000 0.045256
#
#
# Mechanical properties :
#
#
# Convention : Reuss Voigt Hill
#
# Bulk Modulus (GPa) = 22.27211 43.58818 32.93015
# Shear Modulus (GPa) = 21.31926 95.57188 58.44557
#
# Velocity S-wave (km/s) = 3.04572 6.44864 5.04288
# Velocity P-wave (km/s) = 4.69675 8.62628 6.94522
#
# Compressibility (1/GPa) = 0.04489920
#
# Stress axis : x y z
#
# Youngs Moduli (GPa) = 16.10616 61.89280 79.05543
#
# Poissons Ratio (x) = 1.32292 -0.15246
# Poissons Ratio (y) = 0.34426 0.28078
# Poissons Ratio (z) = -0.03106 0.21983
#
# Static dielectric constant tensor:
#      x y z
#    x 1.889170 0.000000 -0.019430 
#    y 0.000000 1.856430 0.000000 
#    z -0.019430 0.000000 1.936750 
# 
# From -- ./inp_files/6909.got.cif
#   From: 2010.05.17/outbox.cif.g08.bks.cpg/sg14_4_cif.got.tgz:6909.got - 2010.06.03 17:49:19.
