data_PCOD9242246
_publ_section_title
;
Structure prediction by ZEFSAII (Michael W. Deem and Ramdas Pophale) SiO2 
 PCOD9242246
Probable space group: P 21/C
;
_chemical_formula_sum "Si O2"
_cell_formula_units_Z 32
_cell_length_a 8.712592
_cell_length_b 8.819415
_cell_length_c 32.797973
_cell_angle_alpha 90.000000
_cell_angle_beta 140.003737
_cell_angle_gamma 90.000000
_cell_volume 1619.824252
_symmetry_space_group_name_H-M "P 21/C"
_symmetry_group_IT_number 14
_symmetry_cell_setting 'monoclinic'
loop_
_space_group_symop_operation_xyz
x,y,z
-x,1/2+y,1/2-z
-x,-y,-z
x,1/2-y,1/2+z
loop_
_atom_site_type_symbol
_atom_site_label
_atom_site_fract_x
_atom_site_fract_y
_atom_site_fract_z
Si Si1 0.051597 0.648322 0.483115
Si Si2 0.222637 0.372385 0.271684
Si Si3 0.879131 0.405872 0.676931
Si Si4 0.238638 0.576668 0.065394
Si Si5 0.281839 0.741450 0.150107
Si Si6 0.021880 0.026866 0.115296
Si Si7 0.567837 0.350256 0.729440
Si Si8 0.525886 0.707758 0.872270
O O1 0.114883 0.607691 0.449480
O O2 0.795447 0.731347 0.427357
O O3 0.000000 0.500000 0.500000
O O4 0.236881 0.762053 0.542220
O O5 0.122114 0.452946 0.291850
O O6 0.495852 0.315025 0.329226
O O7 0.253445 0.512337 0.246096
O O8 0.069762 0.226587 0.227216
O O9 0.628551 0.321215 0.632295
O O10 0.914444 0.457354 0.637976
O O11 0.210624 0.600025 0.108209
O O12 0.460936 0.462026 0.107513
O O13 0.000000 0.500000 0.000000
O O14 0.370292 0.708998 0.213523
O O15 0.062589 0.855354 0.109124
O O16 0.295171 0.089693 0.174134
O O17 0.574684 0.226828 0.694309
#
# Coordination Sequence:
#
# PCOD9242246 Si02
#       8
#     4   4   4   4   4   4   4   4
#     4  10  19  41  64  85 113 158 222 258 295 350
#     4  10  24  36  59  88 134 166 191 247 310 391
#     4  11  23  40  56  93 131 167 194 238 332 376
#     4  10  22  37  65  88 115 163 214 261 303 344
#     4  11  21  37  64  95 119 158 214 256 305 361
#     4  10  21  36  61  87 119 161 202 258 296 372
#     4   9  20  36  58  91 120 155 206 250 306 353
#     4   9  22  38  59  89 126 156 196 262 308 374
#
# _framework density 19.755229
#
# number of rings (size 3 to 8) (size 9 to 14) (size 15 to 20)
#    0.000    2.000    2.500    0.750    8.750    1.000 
#    0.000    1.250    0.000    0.000    0.000    0.000 
#    0.000    0.000    0.000    0.000    0.000    0.000 
#
# Total GULP energy -178403.992360 kJ/mol
# GULP energy per Si atom -5575.124761 kJ/mol
# Density = 1.971027 g / cm^3
# Si number density = 19.755229 Si / 1000 Ang^3
#
#
#
# Elastic Constant Matrix: (Units=GPa)
#
#
# Indices 1 2 3 4 5 6 
#
# 1 74.0302 10.0209 19.6879 0.0000 -23.1889 0.0000
# 2 10.0209 69.2709 28.5541 0.0000 -10.0276 0.0000
# 3 19.6879 28.5541 71.6807 0.0000 -18.0887 0.0000
# 4 0.0000 0.0000 0.0000 26.5197 0.0000 2.0378
# 5 -23.1889 -10.0276 -18.0887 0.0000 21.1006 0.0000
# 6 0.0000 0.0000 0.0000 2.0378 0.0000 26.8992
#
#
#
# Elastic Compliance Matrix: (Units=1/GPa)
#
#
# Indices 1 2 3 4 5 6 
#
# 1 0.020606 0.000334 -0.000049 0.000000 0.022762 0.000000
# 2 0.000334 0.017423 -0.006189 0.000000 0.003341 0.000000
# 3 -0.000049 -0.006189 0.020000 0.000000 0.014151 0.000000
# 4 0.000000 0.000000 0.000000 0.037929 0.000000 -0.002873
# 5 0.022762 0.003341 0.014151 0.000000 0.086126 0.000000
# 6 0.000000 0.000000 0.000000 -0.002873 0.000000 0.037393
#
#
# Mechanical properties :
#
#
# Convention : Reuss Voigt Hill
#
# Bulk Modulus (GPa) = 21.63476 36.83419 29.23447
# Shear Modulus (GPa) = 20.26833 25.35184 22.81009
#
# Velocity S-wave (km/s) = 3.20656 3.58620 3.40168
# Velocity P-wave (km/s) = 4.96835 5.98611 5.50082
#
# Compressibility (1/GPa) = 0.04622192
#
# Stress axis : x y z
#
# Youngs Moduli (GPa) = 48.53053 57.39698 49.99880
#
# Poissons Ratio (x) = -0.01918 0.00243
# Poissons Ratio (y) = -0.01622 0.30944
# Poissons Ratio (z) = 0.00236 0.35522
#
# Static dielectric constant tensor:
#      x y z
#    x 1.680740 0.000000 0.003520 
#    y 0.000000 1.775550 0.000000 
#    z 0.003520 0.000000 1.699530 
# 
# From -- ./inp_files/75203.got.cif
#   From: 2010.05.17/outbox.cif.g08.bks.cpg/sg14_38_cif.got.tgz:75203.got - 2010.06.03 17:49:19.
