data_PCOD9242604
_publ_section_title
;
Structure prediction by ZEFSAII (Michael W. Deem and Ramdas Pophale) SiO2 
 PCOD9242604
Probable space group: P 21/C
;
_chemical_formula_sum "Si O2"
_cell_formula_units_Z 28
_cell_length_a 14.696568
_cell_length_b 12.288372
_cell_length_c 7.401974
_cell_angle_alpha 90.000000
_cell_angle_beta 118.081714
_cell_angle_gamma 90.000000
_cell_volume 1179.404724
_symmetry_space_group_name_H-M "P 21/C"
_symmetry_group_IT_number 14
_symmetry_cell_setting 'monoclinic'
loop_
_space_group_symop_operation_xyz
x,y,z
-x,1/2+y,1/2-z
-x,-y,-z
x,1/2-y,1/2+z
loop_
_atom_site_type_symbol
_atom_site_label
_atom_site_fract_x
_atom_site_fract_y
_atom_site_fract_z
Si Si1 0.916460 0.874144 0.996760
Si Si2 0.482736 0.650909 0.569549
Si Si3 0.629369 0.491500 0.803370
Si Si4 0.630345 0.367076 0.169489
Si Si5 0.853106 0.105379 0.852778
Si Si6 0.946004 0.641075 0.951128
Si Si7 0.848034 0.079463 0.442689
O O1 0.935065 0.884209 0.228262
O O2 0.026051 0.877688 0.989917
O O3 0.885132 0.750244 0.936303
O O4 0.845592 0.974528 0.875029
O O5 0.599665 0.616167 0.731589
O O6 0.458187 0.584360 0.365403
O O7 0.436635 0.769712 0.483339
O O8 0.423379 0.607357 0.691929
O O9 0.730807 0.448877 0.792072
O O10 0.636437 0.460680 0.021426
O O11 0.749993 0.338954 0.331389
O O12 0.846483 0.133874 0.635728
O O13 0.900106 0.539068 0.011229
O O14 0.070150 0.644440 0.103057
#
# Coordination Sequence:
#
# PCOD9242604 Si02
#       7
#     4   4   4   4   4   4   4
#     4  10  20  35  53  86 121 160 197 252 302 369
#     4  11  23  40  66  93 124 161 212 262 318 375
#     4  10  23  43  62  92 129 159 210 267 311 372
#     4  11  22  41  67  95 124 166 210 261 319 379
#     4   9  21  36  57  87 122 155 206 251 305 367
#     4  10  20  34  59  83 122 160 204 242 309 375
#     4   9  20  39  57  85 116 162 198 254 301 366
#
# _framework density 23.740791000000002
#
# number of rings (size 3 to 8) (size 9 to 14) (size 15 to 20)
#    0.000    2.000    1.429    1.286    4.000    2.286 
#    0.000    5.714    0.000    0.000    0.000    0.000 
#    0.000    0.000    0.000    0.000    0.000    0.000 
#
# Total GULP energy -156041.137768 kJ/mol
# GULP energy per Si atom -5572.897777 kJ/mol
# Density = 2.368676 g / cm^3
# Si number density = 23.740791 Si / 1000 Ang^3
#
#
#
# Elastic Constant Matrix: (Units=GPa)
#
#
# Indices 1 2 3 4 5 6 
#
# 1 51.4045 5.2251 28.6944 0.0000 -8.3805 0.0000
# 2 5.2251 109.3433 22.0883 0.0000 8.9519 0.0000
# 3 28.6944 22.0883 87.0263 0.0000 -3.4746 0.0000
# 4 0.0000 0.0000 0.0000 38.8379 0.0000 6.8358
# 5 -8.3805 8.9519 -3.4746 0.0000 33.8617 0.0000
# 6 0.0000 0.0000 0.0000 6.8358 0.0000 16.3813
#
#
#
# Elastic Compliance Matrix: (Units=1/GPa)
#
#
# Indices 1 2 3 4 5 6 
#
# 1 0.024758 -0.000013 -0.007948 0.000000 0.005315 0.000000
# 2 -0.000013 0.009914 -0.002628 0.000000 -0.002894 0.000000
# 3 -0.007948 -0.002628 0.014788 0.000000 0.000245 0.000000
# 4 0.000000 0.000000 0.000000 0.027789 0.000000 -0.011596
# 5 0.005315 -0.002894 0.000245 0.000000 0.031638 0.000000
# 6 0.000000 0.000000 0.000000 -0.011596 0.000000 0.065884
#
#
# Mechanical properties :
#
#
# Convention : Reuss Voigt Hill
#
# Bulk Modulus (GPa) = 35.35619 39.97664 37.66641
# Shear Modulus (GPa) = 24.34577 30.60058 27.47317
#
# Velocity S-wave (km/s) = 3.20579 3.59408 3.40548
# Velocity P-wave (km/s) = 5.35049 5.83940 5.60028
#
# Compressibility (1/GPa) = 0.02828359
#
# Stress axis : x y z
#
# Youngs Moduli (GPa) = 40.39121 100.86933 67.62240
#
# Poissons Ratio (x) = 0.00128 0.53744
# Poissons Ratio (y) = 0.00051 0.17768
# Poissons Ratio (z) = 0.32102 0.26504
#
# Static dielectric constant tensor:
#      x y z
#    x 1.960900 0.000000 0.050740 
#    y 0.000000 2.002370 0.000000 
#    z 0.050740 0.000000 1.946620 
# 
# From -- ./inp_files/15620.got.cif
#   From: 2010.05.17/outbox.cif.g08.bks.cpg/sg14_8_cif.got.tgz:15620.got - 2010.06.03 17:49:19.
