data_PCOD9242266
_publ_section_title
;
Structure prediction by ZEFSAII (Michael W. Deem and Ramdas Pophale) SiO2 
 PCOD9242266
Probable space group: P 21/C
;
_chemical_formula_sum "Si O2"
_cell_formula_units_Z 32
_cell_length_a 11.748042
_cell_length_b 9.418038
_cell_length_c 15.255121
_cell_angle_alpha 90.000000
_cell_angle_beta 86.079412
_cell_angle_gamma 90.000000
_cell_volume 1683.930052
_symmetry_space_group_name_H-M "P 21/C"
_symmetry_group_IT_number 14
_symmetry_cell_setting 'monoclinic'
loop_
_space_group_symop_operation_xyz
x,y,z
-x,1/2+y,1/2-z
-x,-y,-z
x,1/2-y,1/2+z
loop_
_atom_site_type_symbol
_atom_site_label
_atom_site_fract_x
_atom_site_fract_y
_atom_site_fract_z
Si Si1 0.908881 0.132865 0.311482
Si Si2 0.062439 0.652244 0.992002
Si Si3 0.586132 0.658627 0.129351
Si Si4 0.065595 0.207404 0.665445
Si Si5 0.324086 0.879072 0.462810
Si Si6 0.323409 0.252071 0.198143
Si Si7 0.657158 0.422493 0.831939
Si Si8 0.521118 0.841288 0.966655
O O1 0.925894 0.198657 0.407767
O O2 0.775392 0.142846 0.292257
O O3 0.989230 0.211723 0.239816
O O4 0.935422 0.963605 0.317309
O O5 0.191108 0.639546 0.948105
O O6 0.985573 0.737689 0.927928
O O7 0.000000 0.500000 0.000000
O O8 0.614896 0.499948 0.096802
O O9 0.670083 0.698018 0.203013
O O10 0.458174 0.664156 0.175875
O O11 0.583846 0.755762 0.042553
O O12 0.195849 0.253924 0.667829
O O13 0.327267 0.931900 0.563554
O O14 0.400860 0.738542 0.456437
O O15 0.357506 0.417861 0.200104
O O16 0.405614 0.171681 0.125814
O O17 0.500000 0.000000 0.000000
#
# Coordination Sequence:
#
# PCOD9242266 Si02
#       8
#     4   4   4   4   4   4   4   4
#     4   9  20  39  62  85 120 154 206 245 305 351
#     4   9  20  37  68  87 114 162 211 245 295 367
#     4  11  22  37  67  86 121 164 203 244 307 371
#     4  10  22  40  59  90 121 160 199 255 291 361
#     4  10  19  41  68  87 112 168 211 245 307 371
#     4  11  23  37  61  91 126 160 201 242 312 365
#     4   9  18  41  60  85 117 159 201 254 293 367
#     4  11  24  41  60  93 130 154 202 264 308 361
#
# _framework density 19.003164000000002
#
# number of rings (size 3 to 8) (size 9 to 14) (size 15 to 20)
#    0.000    2.000    2.500    1.500    5.250    1.000 
#    9.000    0.625    0.000    0.000    0.000    0.000 
#    0.000    0.000    0.000    0.000    0.000    0.000 
#
# Total GULP energy -178551.819828 kJ/mol
# GULP energy per Si atom -5579.744370 kJ/mol
# Density = 1.895991 g / cm^3
# Si number density = 19.003164 Si / 1000 Ang^3
#
#
#
# Elastic Constant Matrix: (Units=GPa)
#
#
# Indices 1 2 3 4 5 6 
#
# 1 88.8711 19.6333 24.8516 0.0000 4.1660 0.0000
# 2 19.6333 32.9298 5.4396 0.0000 6.0481 0.0000
# 3 24.8516 5.4396 44.4406 0.0000 4.7642 0.0000
# 4 0.0000 0.0000 0.0000 24.3744 0.0000 -6.7373
# 5 4.1660 6.0481 4.7642 0.0000 34.6983 0.0000
# 6 0.0000 0.0000 0.0000 -6.7373 0.0000 21.7389
#
#
#
# Elastic Compliance Matrix: (Units=1/GPa)
#
#
# Indices 1 2 3 4 5 6 
#
# 1 0.015062 -0.007846 -0.007526 0.000000 0.000593 0.000000
# 2 -0.007846 0.035944 0.000567 0.000000 -0.005401 0.000000
# 3 -0.007526 0.000567 0.026952 0.000000 -0.002896 0.000000
# 4 0.000000 0.000000 0.000000 0.044870 0.000000 0.013906
# 5 0.000593 -0.005401 -0.002896 0.000000 0.030088 0.000000
# 6 0.000000 0.000000 0.000000 0.013906 0.000000 0.050310
#
#
# Mechanical properties :
#
#
# Convention : Reuss Voigt Hill
#
# Bulk Modulus (GPa) = 20.68355 29.56560 25.12458
# Shear Modulus (GPa) = 20.08412 23.91678 22.00045
#
# Velocity S-wave (km/s) = 3.25450 3.55148 3.40623
# Velocity P-wave (km/s) = 5.00303 5.69292 5.35909
#
# Compressibility (1/GPa) = 0.04834760
#
# Stress axis : x y z
#
# Youngs Moduli (GPa) = 66.39035 27.82107 37.10345
#
# Poissons Ratio (x) = 0.21829 0.27925
# Poissons Ratio (y) = 0.52091 -0.02104
# Poissons Ratio (z) = 0.49967 -0.01578
#
# Static dielectric constant tensor:
#      x y z
#    x 1.688700 0.000000 0.015810 
#    y 0.000000 1.633650 0.000000 
#    z 0.015810 0.000000 1.662990 
# 
# From -- ./inp_files/43715.got.cif
#   From: 2010.05.17/outbox.cif.g08.bks.cpg/sg14_22_cif.got.tgz:43715.got - 2010.06.03 17:49:19.
