data_PCOD9242620
_publ_section_title
;
Structure prediction by ZEFSAII (Michael W. Deem and Ramdas Pophale) SiO2 
 PCOD9242620
Probable space group: P 21/C
;
_chemical_formula_sum "Si O2"
_cell_formula_units_Z 32
_cell_length_a 12.181753
_cell_length_b 17.572970
_cell_length_c 9.486110
_cell_angle_alpha 90.000000
_cell_angle_beta 55.976779
_cell_angle_gamma 90.000000
_cell_volume 1683.055949
_symmetry_space_group_name_H-M "P 21/C"
_symmetry_group_IT_number 14
_symmetry_cell_setting 'monoclinic'
loop_
_space_group_symop_operation_xyz
x,y,z
-x,1/2+y,1/2-z
-x,-y,-z
x,1/2-y,1/2+z
loop_
_atom_site_type_symbol
_atom_site_label
_atom_site_fract_x
_atom_site_fract_y
_atom_site_fract_z
Si Si1 0.397015 0.692206 0.800269
Si Si2 0.636198 0.586123 0.309134
Si Si3 0.845609 0.424297 0.528425
Si Si4 0.866457 0.597644 0.583954
Si Si5 0.329084 0.377109 0.025451
Si Si6 0.699979 0.698577 0.502071
Si Si7 0.665371 0.417828 0.401647
Si Si8 0.370071 0.655202 0.139925
O O1 0.556812 0.681925 0.677162
O O2 0.333604 0.628985 0.743776
O O3 0.369289 0.773028 0.746995
O O4 0.351556 0.684376 0.993531
O O5 0.685697 0.583115 0.114636
O O6 0.696771 0.655036 0.355151
O O7 0.663961 0.507349 0.368172
O O8 0.477228 0.599228 0.423877
O O9 0.864969 0.515391 0.510078
O O10 0.781050 0.399142 0.427351
O O11 0.741147 0.401997 0.725017
O O12 0.986592 0.388087 0.463945
O O13 0.812174 0.662491 0.519161
O O14 0.765433 0.592043 0.786537
O O15 0.294204 0.288180 0.026776
O O16 0.483309 0.380764 0.957697
#
# Coordination Sequence:
#
# PCOD9242620 Si02
#       8
#     4   4   4   4   4   4   4   4
#     4  10  22  36  65  95 123 155 201 265 302 361
#     4  10  20  34  61  92 117 156 203 256 307 355
#     4  11  24  43  63  85 131 169 202 257 313 370
#     4  11  24  43  61  89 127 167 205 255 315 370
#     4  11  22  36  66  92 120 156 212 259 302 368
#     4  10  20  39  61  91 124 157 201 255 314 364
#     4  10  20  38  59  89 125 157 200 253 310 355
#     4  11  22  39  63  94 125 157 208 255 308 365
#
# _framework density 19.013031999999999
#
# number of rings (size 3 to 8) (size 9 to 14) (size 15 to 20)
#    0.000    1.500    3.750    1.500    8.750    0.500 
#    4.500    1.875    0.000    0.000    0.000    0.000 
#    0.000    0.000    0.000    0.000    0.000    0.000 
#
# Total GULP energy -178808.567190 kJ/mol
# GULP energy per Si atom -5587.767725 kJ/mol
# Density = 1.896976 g / cm^3
# Si number density = 19.013032 Si / 1000 Ang^3
#
#
#
# Elastic Constant Matrix: (Units=GPa)
#
#
# Indices 1 2 3 4 5 6 
#
# 1 130.4899 24.7354 27.4920 0.0000 -0.4823 0.0000
# 2 24.7354 25.1770 -7.3324 0.0000 -6.3077 0.0000
# 3 27.4920 -7.3324 51.0678 0.0000 8.8568 0.0000
# 4 0.0000 0.0000 0.0000 21.1499 0.0000 0.7971
# 5 -0.4823 -6.3077 8.8568 0.0000 28.6134 0.0000
# 6 0.0000 0.0000 0.0000 0.7971 0.0000 12.2520
#
#
#
# Elastic Compliance Matrix: (Units=1/GPa)
#
#
# Indices 1 2 3 4 5 6 
#
# 1 0.012260 -0.014649 -0.008643 0.000000 -0.000347 0.000000
# 2 -0.014649 0.060631 0.015129 0.000000 0.008436 0.000000
# 3 -0.008643 0.015129 0.027321 0.000000 -0.005267 0.000000
# 4 0.000000 0.000000 0.000000 0.047398 0.000000 -0.003084
# 5 -0.000347 0.008436 -0.005267 0.000000 0.038433 0.000000
# 6 0.000000 0.000000 0.000000 -0.003084 0.000000 0.081820
#
#
# Mechanical properties :
#
#
# Convention : Reuss Voigt Hill
#
# Bulk Modulus (GPa) = 11.92127 32.94719 22.43423
# Shear Modulus (GPa) = 16.01794 23.19239 19.60516
#
# Velocity S-wave (km/s) = 2.90568 3.49637 3.21463
# Velocity P-wave (km/s) = 4.18820 5.80223 5.05998
#
# Compressibility (1/GPa) = 0.08388369
#
# Stress axis : x y z
#
# Youngs Moduli (GPa) = 81.56605 16.49331 36.60251
#
# Poissons Ratio (x) = 0.24161 0.31636
# Poissons Ratio (y) = 1.19488 -0.55375
# Poissons Ratio (z) = 0.70499 -0.24952
#
# Static dielectric constant tensor:
#      x y z
#    x 1.653480 0.000000 0.009720 
#    y 0.000000 1.665490 0.000000 
#    z 0.009720 0.000000 1.638300 
# 
# From -- ./inp_files/14294.got.cif
#   From: 2010.05.17/outbox.cif.g08.bks.cpg/sg14_8_cif.got.tgz:14294.got - 2010.06.03 17:49:19.
