data_PCOD9242752
_publ_section_title
;
Structure prediction by ZEFSAII (Michael W. Deem and Ramdas Pophale) SiO2 
 PCOD9242752
Probable space group: P 21/C
;
_chemical_formula_sum "Si O2"
_cell_formula_units_Z 30
_cell_length_a 12.392073
_cell_length_b 11.316792
_cell_length_c 16.399156
_cell_angle_alpha 90.000000
_cell_angle_beta 149.450761
_cell_angle_gamma 90.000000
_cell_volume 1168.935794
_symmetry_space_group_name_H-M "P 21/C"
_symmetry_group_IT_number 14
_symmetry_cell_setting 'monoclinic'
loop_
_space_group_symop_operation_xyz
x,y,z
-x,1/2+y,1/2-z
-x,-y,-z
x,1/2-y,1/2+z
loop_
_atom_site_type_symbol
_atom_site_label
_atom_site_fract_x
_atom_site_fract_y
_atom_site_fract_z
Si Si1 0.000000 0.500000 0.000000
Si Si2 0.101380 0.323212 0.930282
Si Si3 0.306078 0.152039 0.321818
Si Si4 0.388847 0.518674 0.555161
Si Si5 0.519952 0.747085 0.734461
Si Si6 0.624126 0.179466 0.115515
Si Si7 0.927853 0.174481 0.585696
Si Si8 0.906679 0.484108 0.219421
O O1 0.109013 0.398885 0.017801
O O2 0.946042 0.572552 0.878589
O O3 0.862679 0.272625 0.781763
O O4 0.114599 0.407668 0.860320
O O5 0.312134 0.247767 0.083095
O O6 0.389362 0.182133 0.285535
O O7 0.456511 0.219896 0.483848
O O8 0.260234 0.018000 0.319183
O O9 0.074205 0.212150 0.178824
O O10 0.458802 0.611941 0.669507
O O11 0.375809 0.598679 0.465383
O O12 0.550798 0.412965 0.638025
O O13 0.146321 0.477282 0.408241
O O14 0.292036 0.806154 0.603982
O O15 0.874977 0.130454 0.642000
#
# Coordination Sequence:
#
# PCOD9242752 Si02
#       8
#     2   4   4   4   4   4   4   4
#     4  10  20  38  62  94 124 160 210 270 312 376
#     4  10  20  35  58  92 125 160 210 268 322 383
#     4  11  21  39  61  91 124 169 214 266 323 389
#     4   9  16  31  55  90 119 161 207 270 311 379
#     4  11  22  36  63  91 129 167 216 261 334 386
#     4   9  18  30  56  86 124 157 210 266 321 366
#     4  11  22  39  66  95 128 168 217 269 323 382
#     4  10  21  37  58  91 133 161 216 262 324 382
#
# _framework density 25.664368
#
# number of rings (size 3 to 8) (size 9 to 14) (size 15 to 20)
#    0.000    1.867    4.000    0.800    3.733    1.600 
#    0.000    0.000    0.000    0.800    0.000    0.000 
#    0.000    0.000    0.000    0.000    0.000    0.000 
#
# Total GULP energy -167365.002355 kJ/mol
# GULP energy per Si atom -5578.833412 kJ/mol
# Density = 2.560595 g / cm^3
# Si number density = 25.664368 Si / 1000 Ang^3
#
#
#
# Elastic Constant Matrix: (Units=GPa)
#
#
# Indices 1 2 3 4 5 6 
#
# 1 42.9834 17.2333 24.5076 0.0000 -7.0491 0.0000
# 2 17.2333 43.9794 30.8789 0.0000 2.0659 0.0000
# 3 24.5076 30.8789 183.9524 0.0000 18.8103 0.0000
# 4 0.0000 0.0000 0.0000 65.5253 0.0000 -25.2102
# 5 -7.0491 2.0659 18.8103 0.0000 28.2181 0.0000
# 6 0.0000 0.0000 0.0000 -25.2102 0.0000 62.0764
#
#
#
# Elastic Compliance Matrix: (Units=1/GPa)
#
#
# Indices 1 2 3 4 5 6 
#
# 1 0.031183 -0.010238 -0.003551 0.000000 0.010906 0.000000
# 2 -0.010238 0.029167 -0.003276 0.000000 -0.002509 0.000000
# 3 -0.003551 -0.003276 0.007003 0.000000 -0.005315 0.000000
# 4 0.000000 0.000000 0.000000 0.018087 0.000000 0.007346
# 5 0.010906 -0.002509 -0.005315 0.000000 0.041890 0.000000
# 6 0.000000 0.000000 0.000000 0.007346 0.000000 0.019092
#
#
# Mechanical properties :
#
#
# Convention : Reuss Voigt Hill
#
# Bulk Modulus (GPa) = 30.09906 46.23942 38.16924
# Shear Modulus (GPa) = 26.09253 44.38368 35.23810
#
# Velocity S-wave (km/s) = 3.19201 4.16310 3.70947
# Velocity P-wave (km/s) = 5.03375 6.41597 5.76642
#
# Compressibility (1/GPa) = 0.03322362
#
# Stress axis : x y z
#
# Youngs Moduli (GPa) = 32.06900 34.28491 142.80293
#
# Poissons Ratio (x) = 0.35101 0.50711
# Poissons Ratio (y) = 0.32832 0.46776
# Poissons Ratio (z) = 0.11388 0.11230
#
# Static dielectric constant tensor:
#      x y z
#    x 1.932010 0.000000 0.029960 
#    y 0.000000 2.192130 0.000000 
#    z 0.029960 0.000000 2.138980 
# 
# From -- ./inp_files/57959.got.cif
#   From: 2010.05.17/outbox.cif.g08.bks.cpg/sg14_29_cif.got.tgz:57959.got - 2010.06.03 17:49:19.
