data_PCOD9242931
_publ_section_title
;
Structure prediction by ZEFSAII (Michael W. Deem and Ramdas Pophale) SiO2 
 PCOD9242931
Probable space group: P 21/C
;
_chemical_formula_sum "Si O2"
_cell_formula_units_Z 32
_cell_length_a 13.437254
_cell_length_b 8.897395
_cell_length_c 20.919078
_cell_angle_alpha 90.000000
_cell_angle_beta 36.631626
_cell_angle_gamma 90.000000
_cell_volume 1492.274188
_symmetry_space_group_name_H-M "P 21/C"
_symmetry_group_IT_number 14
_symmetry_cell_setting 'monoclinic'
loop_
_space_group_symop_operation_xyz
x,y,z
-x,1/2+y,1/2-z
-x,-y,-z
x,1/2-y,1/2+z
loop_
_atom_site_type_symbol
_atom_site_label
_atom_site_fract_x
_atom_site_fract_y
_atom_site_fract_z
Si Si1 0.392324 0.660455 0.935361
Si Si2 0.735082 0.467132 0.259023
Si Si3 0.238910 0.775251 0.139415
Si Si4 0.762027 0.697267 0.741876
Si Si5 0.463637 0.925680 0.806299
Si Si6 0.122868 0.091975 0.564977
Si Si7 0.270169 0.212536 0.883634
Si Si8 0.952626 0.530100 0.752091
O O1 0.584645 0.611532 0.829413
O O2 0.383862 0.810864 0.897886
O O3 0.360663 0.703945 0.025100
O O4 0.253787 0.542513 0.984001
O O5 0.684678 0.337822 0.334778
O O6 0.726650 0.638080 0.289993
O O7 0.608785 0.475152 0.265389
O O8 0.931525 0.443494 0.144876
O O9 0.101663 0.643635 0.221515
O O10 0.144319 0.920757 0.159271
O O11 0.818800 0.731277 0.639788
O O12 0.883751 0.608798 0.724528
O O13 0.326026 0.040875 0.855275
O O14 0.565781 0.819086 0.705838
O O15 0.174898 0.234234 0.495747
O O16 0.123995 0.096648 0.641891
#
# Coordination Sequence:
#
# PCOD9242931 Si02
#       8
#     4   4   4   4   4   4   4   4
#     4   9  20  34  56  84 113 146 188 236 284 332
#     4   9  21  37  57  84 112 150 191 232 285 337
#     4  10  20  36  58  83 112 149 186 233 286 335
#     4  10  21  37  54  83 117 147 186 234 285 339
#     4  10  22  38  58  82 113 151 190 237 283 335
#     4  10  20  38  60  83 111 151 193 230 284 342
#     4  10  21  37  59  83 114 152 189 232 284 335
#     4  10  21  36  58  82 114 149 187 236 285 336
#
# _framework density 21.443781000000001
#
# number of rings (size 3 to 8) (size 9 to 14) (size 15 to 20)
#    0.000    2.500    0.000    3.750    0.000   12.000 
#    0.000    2.500    0.000   10.500    0.000    0.000 
#    0.000    0.000    0.000    0.000    0.000    0.000 
#
# Total GULP energy -178370.528004 kJ/mol
# GULP energy per Si atom -5574.079000 kJ/mol
# Density = 2.139497 g / cm^3
# Si number density = 21.443781 Si / 1000 Ang^3
#
#
#
# Elastic Constant Matrix: (Units=GPa)
#
#
# Indices 1 2 3 4 5 6 
#
# 1 42.3953 9.3703 -2.6345 0.0000 10.5985 0.0000
# 2 9.3703 35.7206 -11.3948 0.0000 9.8118 0.0000
# 3 -2.6345 -11.3948 24.5403 0.0000 -3.3781 0.0000
# 4 0.0000 0.0000 0.0000 25.0692 0.0000 -2.1515
# 5 10.5985 9.8118 -3.3781 0.0000 9.6706 0.0000
# 6 0.0000 0.0000 0.0000 -2.1515 0.0000 36.2560
#
#
#
# Elastic Compliance Matrix: (Units=1/GPa)
#
#
# Indices 1 2 3 4 5 6 
#
# 1 0.032588 0.001440 -0.000998 0.000000 -0.037525 0.000000
# 2 0.001440 0.043451 0.014754 0.000000 -0.040511 0.000000
# 3 -0.000998 0.014754 0.047885 0.000000 0.002852 0.000000
# 4 0.000000 0.000000 0.000000 0.040094 0.000000 0.002379
# 5 -0.037525 -0.040511 0.002852 0.000000 0.186631 0.000000
# 6 0.000000 0.000000 0.000000 0.002379 0.000000 0.027723
#
#
# Mechanical properties :
#
#
# Convention : Reuss Voigt Hill
#
# Bulk Modulus (GPa) = 6.48015 10.37092 8.42553
# Shear Modulus (GPa) = 12.51818 21.35351 16.93585
#
# Velocity S-wave (km/s) = 2.41875 3.15904 2.81335
# Velocity P-wave (km/s) = 3.29074 4.26062 3.80669
#
# Compressibility (1/GPa) = 0.15431732
#
# Stress axis : x y z
#
# Youngs Moduli (GPa) = 30.68598 23.01435 20.88316
#
# Poissons Ratio (x) = -0.03315 0.02085
# Poissons Ratio (y) = -0.04420 -0.30811
# Poissons Ratio (z) = 0.03063 -0.33955
#
# Static dielectric constant tensor:
#      x y z
#    x 1.797360 0.000000 0.010980 
#    y 0.000000 1.779830 0.000000 
#    z 0.010980 0.000000 1.819090 
# 
# From -- ./inp_files/68202.got.cif
#   From: 2010.05.17/outbox.cif.g08.bks.cpg/sg14_35_cif.got.tgz:68202.got - 2010.06.03 17:49:19.
