data_PCOD9242095
_publ_section_title
;
Structure prediction by ZEFSAII (Michael W. Deem and Ramdas Pophale) SiO2 
 PCOD9242095
Probable space group: P 21/C
;
_chemical_formula_sum "Si O2"
_cell_formula_units_Z 22
_cell_length_a 14.829354
_cell_length_b 7.839541
_cell_length_c 24.220574
_cell_angle_alpha 90.000000
_cell_angle_beta 163.034668
_cell_angle_gamma 90.000000
_cell_volume 821.622261
_symmetry_space_group_name_H-M "P 21/C"
_symmetry_group_IT_number 14
_symmetry_cell_setting 'monoclinic'
loop_
_space_group_symop_operation_xyz
x,y,z
-x,1/2+y,1/2-z
-x,-y,-z
x,1/2-y,1/2+z
loop_
_atom_site_type_symbol
_atom_site_label
_atom_site_fract_x
_atom_site_fract_y
_atom_site_fract_z
Si Si1 0.106858 0.737186 0.207952
Si Si2 0.997309 0.234437 0.679700
Si Si3 0.500000 0.000000 0.500000
Si Si4 0.921662 0.276504 0.510280
Si Si5 0.280270 0.067855 0.937157
Si Si6 0.271565 0.170227 0.111545
O O1 0.360781 0.591028 0.367028
O O2 0.817682 0.779302 0.078702
O O3 0.299657 0.910425 0.331821
O O4 0.950252 0.719231 0.057180
O O5 0.958747 0.201093 0.592952
O O6 0.763724 0.383843 0.561292
O O7 0.993041 0.086659 0.724371
O O8 0.329970 0.317169 0.887248
O O9 0.630905 0.189589 0.310258
O O10 0.830751 0.476597 0.459531
O O11 0.213643 0.274531 0.640824
#
# Coordination Sequence:
#
# PCOD9242095 Si02
#       6
#     4   4   2   4   4   4
#     4  10  19  39  63  92 122 171 210 265 330 389
#     4  10  21  41  61  98 128 168 221 271 332 392
#     4   8  16  34  64  76 120 164 200 252 316 376
#     4  11  25  45  67 100 133 179 224 273 328 404
#     4  10  21  38  66  88 130 166 213 277 331 383
#     4  11  24  44  70  95 135 180 221 270 336 392
#
# _framework density 26.776295999999999
#
# number of rings (size 3 to 8) (size 9 to 14) (size 15 to 20)
#    0.000    1.818    3.636    1.091    0.000    5.818 
#    6.545    0.000    0.000    0.000    0.000    0.000 
#    0.000    0.000    0.000    0.000    0.000    0.000 
#
# Total GULP energy -122627.968881 kJ/mol
# GULP energy per Si atom -5573.998586 kJ/mol
# Density = 2.671535 g / cm^3
# Si number density = 26.776296 Si / 1000 Ang^3
#
#
#
# Elastic Constant Matrix: (Units=GPa)
#
#
# Indices 1 2 3 4 5 6 
#
# 1 110.6110 21.0569 14.0142 0.0000 -17.4241 0.0000
# 2 21.0569 62.6343 11.0845 0.0000 -6.5948 0.0000
# 3 14.0142 11.0845 91.6127 0.0000 -17.2415 0.0000
# 4 0.0000 0.0000 0.0000 33.5770 0.0000 10.2419
# 5 -17.4241 -6.5948 -17.2415 0.0000 57.1244 0.0000
# 6 0.0000 0.0000 0.0000 10.2419 0.0000 27.4130
#
#
#
# Elastic Compliance Matrix: (Units=1/GPa)
#
#
# Indices 1 2 3 4 5 6 
#
# 1 0.010099 -0.003005 -0.000707 0.000000 0.002520 0.000000
# 2 -0.003005 0.017310 -0.001517 0.000000 0.000624 0.000000
# 3 -0.000707 -0.001517 0.011804 0.000000 0.003172 0.000000
# 4 0.000000 0.000000 0.000000 0.033613 0.000000 -0.012558
# 5 0.002520 0.000624 0.003172 0.000000 0.019304 0.000000
# 6 0.000000 0.000000 0.000000 -0.012558 0.000000 0.041171
#
#
# Mechanical properties :
#
#
# Convention : Reuss Voigt Hill
#
# Bulk Modulus (GPa) = 34.77628 39.68549 37.23088
# Shear Modulus (GPa) = 32.60631 38.20305 35.40468
#
# Velocity S-wave (km/s) = 3.49339 3.78133 3.64021
# Velocity P-wave (km/s) = 5.41180 5.82391 5.62163
#
# Compressibility (1/GPa) = 0.02875523
#
# Stress axis : x y z
#
# Youngs Moduli (GPa) = 99.01688 57.76981 84.71545
#
# Poissons Ratio (x) = 0.17359 0.05990
# Poissons Ratio (y) = 0.29752 0.12854
# Poissons Ratio (z) = 0.07001 0.08766
#
# Static dielectric constant tensor:
#      x y z
#    x 2.285690 0.000000 0.028770 
#    y 0.000000 1.451860 0.000000 
#    z 0.028770 0.000000 1.918940 
# 
# From -- ./inp_files/31426.got.cif
#   From: 2010.05.17/outbox.cif.g08.bks.cpg/sg14_16_cif.got.tgz:31426.got - 2010.06.03 17:49:19.
