data_PCOD9242025
_publ_section_title
;
Structure prediction by ZEFSAII (Michael W. Deem and Ramdas Pophale) SiO2 
 PCOD9242025
Probable space group: P 21/C
;
_chemical_formula_sum "Si O2"
_cell_formula_units_Z 32
_cell_length_a 21.408851
_cell_length_b 11.338185
_cell_length_c 16.106485
_cell_angle_alpha 90.000000
_cell_angle_beta 23.263517
_cell_angle_gamma 90.000000
_cell_volume 1544.156978
_symmetry_space_group_name_H-M "P 21/C"
_symmetry_group_IT_number 14
_symmetry_cell_setting 'monoclinic'
loop_
_space_group_symop_operation_xyz
x,y,z
-x,1/2+y,1/2-z
-x,-y,-z
x,1/2-y,1/2+z
loop_
_atom_site_type_symbol
_atom_site_label
_atom_site_fract_x
_atom_site_fract_y
_atom_site_fract_z
Si Si1 0.015747 0.468724 0.693352
Si Si2 0.308273 0.292500 0.346689
Si Si3 0.371921 0.993297 0.064393
Si Si4 0.362775 0.779441 0.623295
Si Si5 0.765232 0.377554 0.892183
Si Si6 0.266970 0.028337 0.357681
Si Si7 0.566787 0.968682 0.188255
Si Si8 0.747787 0.328698 0.555570
O O1 0.153517 0.371593 0.525467
O O2 0.094702 0.593390 0.620287
O O3 0.924121 0.449263 0.718854
O O4 0.877210 0.453489 0.931277
O O5 0.270899 0.155381 0.395763
O O6 0.389238 0.340482 0.330910
O O7 0.451015 0.315730 0.106943
O O8 0.361374 0.855283 0.095288
O O9 0.260291 0.054019 0.267528
O O10 0.557431 0.027776 0.848269
O O11 0.335209 0.014913 0.014697
O O12 0.267797 0.844951 0.664135
O O13 0.299304 0.786792 0.794319
O O14 0.620116 0.462572 0.094976
O O15 0.762088 0.265644 0.961731
O O16 0.618253 0.073747 0.185571
#
# Coordination Sequence:
#
# PCOD9242025 Si02
#       8
#     4   4   4   4   4   4   4   4
#     4  11  22  39  64  87 135 173 200 256 331 376
#     4   9  22  38  60  93 124 163 206 262 317 372
#     4  10  19  38  66  97 115 160 219 268 310 370
#     4  10  22  41  67  94 125 163 221 263 315 379
#     4  11  22  39  68  94 127 169 216 259 321 389
#     4  10  20  36  63  92 125 160 212 263 311 376
#     4  10  21  39  65  95 124 163 216 263 322 374
#     4  11  24  42  65  95 132 168 211 273 322 374
#
# _framework density 20.723282999999999
#
# number of rings (size 3 to 8) (size 9 to 14) (size 15 to 20)
#    0.000    1.750    2.500    1.500    3.500    5.000 
#    0.000    2.500   16.500    0.000    0.000    0.000 
#    0.000    0.000    0.000    0.000    0.000    0.000 
#
# Total GULP energy -178304.861010 kJ/mol
# GULP energy per Si atom -5572.026907 kJ/mol
# Density = 2.067612 g / cm^3
# Si number density = 20.723283 Si / 1000 Ang^3
#
#
#
# Elastic Constant Matrix: (Units=GPa)
#
#
# Indices 1 2 3 4 5 6 
#
# 1 74.9762 17.4550 24.1775 0.0000 9.0965 0.0000
# 2 17.4550 50.8265 23.5433 0.0000 1.9243 0.0000
# 3 24.1775 23.5433 84.3946 0.0000 -6.8675 0.0000
# 4 0.0000 0.0000 0.0000 80.9592 0.0000 40.4097
# 5 9.0965 1.9243 -6.8675 0.0000 43.4428 0.0000
# 6 0.0000 0.0000 0.0000 40.4097 0.0000 71.9639
#
#
#
# Elastic Compliance Matrix: (Units=1/GPa)
#
#
# Indices 1 2 3 4 5 6 
#
# 1 0.015862 -0.003511 -0.003872 0.000000 -0.003778 0.000000
# 2 -0.003511 0.023548 -0.005661 0.000000 -0.001203 0.000000
# 3 -0.003872 -0.005661 0.014815 0.000000 0.003403 0.000000
# 4 0.000000 0.000000 0.000000 0.017162 0.000000 -0.009637
# 5 -0.003778 -0.001203 0.003403 0.000000 0.024401 0.000000
# 6 0.000000 0.000000 0.000000 -0.009637 0.000000 0.019307
#
#
# Mechanical properties :
#
#
# Convention : Reuss Voigt Hill
#
# Bulk Modulus (GPa) = 35.54102 37.83875 36.68989
# Shear Modulus (GPa) = 33.20877 48.94129 41.07503
#
# Velocity S-wave (km/s) = 4.00745 4.86496 4.45688
# Velocity P-wave (km/s) = 6.21292 7.06086 6.65042
#
# Compressibility (1/GPa) = 0.02813650
#
# Stress axis : x y z
#
# Youngs Moduli (GPa) = 63.04415 42.46585 67.50049
#
# Poissons Ratio (x) = 0.14908 0.26138
# Poissons Ratio (y) = 0.22133 0.38214
# Poissons Ratio (z) = 0.24412 0.24041
#
# Static dielectric constant tensor:
#      x y z
#    x 1.833750 0.000000 -0.002160 
#    y 0.000000 1.779590 0.000000 
#    z -0.002160 0.000000 1.787570 
# 
# From -- ./inp_files/61985.got.cif
#   From: 2010.05.17/outbox.cif.g08.bks.cpg/sg14_31_cif.got.tgz:61985.got - 2010.06.03 17:49:19.
