data_PCOD9242100
_publ_section_title
;
Structure prediction by ZEFSAII (Michael W. Deem and Ramdas Pophale) SiO2 
 PCOD9242100
Probable space group: P 21/C
;
_chemical_formula_sum "Si O2"
_cell_formula_units_Z 28
_cell_length_a 19.098871
_cell_length_b 14.988826
_cell_length_c 21.687397
_cell_angle_alpha 90.000000
_cell_angle_beta 12.428381
_cell_angle_gamma 90.000000
_cell_volume 1336.175575
_symmetry_space_group_name_H-M "P 21/C"
_symmetry_group_IT_number 14
_symmetry_cell_setting 'monoclinic'
loop_
_space_group_symop_operation_xyz
x,y,z
-x,1/2+y,1/2-z
-x,-y,-z
x,1/2-y,1/2+z
loop_
_atom_site_type_symbol
_atom_site_label
_atom_site_fract_x
_atom_site_fract_y
_atom_site_fract_z
Si Si1 0.407069 0.688829 0.848766
Si Si2 0.095200 0.203197 0.772173
Si Si3 0.802530 0.999941 0.318435
Si Si4 0.796924 0.614775 0.622545
Si Si5 0.800584 0.257221 0.147359
Si Si6 0.187893 0.075961 0.097368
Si Si7 0.661861 0.452653 0.301675
O O1 0.581594 0.680207 0.764416
O O2 0.640644 0.647892 0.595689
O O3 0.234744 0.782876 0.983143
O O4 0.099390 0.622845 0.117873
O O5 0.168909 0.101811 0.726765
O O6 0.427978 0.231345 0.452999
O O7 0.014172 0.264304 0.901597
O O8 0.450217 0.044866 0.632754
O O9 0.979745 0.059115 0.115415
O O10 0.007108 0.008360 0.206347
O O11 0.024353 0.676735 0.467947
O O12 0.755341 0.347462 0.225174
O O13 0.438363 0.039561 0.932426
O O14 0.500000 0.500000 0.500000
O O15 0.000000 0.500000 0.000000
#
# Coordination Sequence:
#
# PCOD9242100 Si02
#       7
#     4   4   4   4   4   4   4
#     4  10  19  39  64  81 120 170 208 250 310 379
#     4  12  22  39  66  92 123 167 218 247 320 387
#     4  10  23  39  64  94 121 169 214 262 303 373
#     4  10  23  41  60  91 131 164 207 266 318 369
#     4  12  25  41  63  93 129 168 205 260 328 376
#     4  10  20  41  61  86 121 162 209 254 316 364
#     4  12  24  40  64  93 124 164 207 263 321 375
#
# _framework density 20.95533
#
# number of rings (size 3 to 8) (size 9 to 14) (size 15 to 20)
#    0.000    1.143    2.857    3.429    0.000    4.571 
#    0.000    4.286    0.000    0.000    0.000    0.000 
#    0.000    0.000    0.000    0.000    0.000    0.000 
#
# Total GULP energy -156318.898377 kJ/mol
# GULP energy per Si atom -5582.817799 kJ/mol
# Density = 2.090763 g / cm^3
# Si number density = 20.955330 Si / 1000 Ang^3
#
#
#
# Elastic Constant Matrix: (Units=GPa)
#
#
# Indices 1 2 3 4 5 6 
#
# 1 11.4793 53.2358 91.2602 0.0000 -13.3302 0.0000
# 2 53.2358 49.1419 -32.0843 0.0000 28.6725 0.0000
# 3 91.2602 -32.0843 15.1660 0.0000 48.7617 0.0000
# 4 0.0000 0.0000 0.0000 -31.8730 0.0000 40.1952
# 5 -13.3302 28.6725 48.7617 0.0000 26.9432 0.0000
# 6 0.0000 0.0000 0.0000 40.1952 0.0000 7.8206
#
#
#
# Elastic Compliance Matrix: (Units=1/GPa)
#
#
# Indices 1 2 3 4 5 6 
#
# 1 0.006659 0.003769 0.006182 0.000000 -0.011905 0.000000
# 2 0.003769 0.010820 -0.006482 0.000000 0.002081 0.000000
# 3 0.006182 -0.006482 0.003526 0.000000 0.003576 0.000000
# 4 0.000000 0.000000 0.000000 -0.004194 0.000000 0.021553
# 5 -0.011905 0.002081 0.003576 0.000000 0.022539 0.000000
# 6 0.000000 0.000000 0.000000 0.021553 0.000000 0.017091
#
#
# Mechanical properties :
#
#
# Convention : Reuss Voigt Hill
#
# Bulk Modulus (GPa) = 35.78582 33.40115 34.59349
# Shear Modulus (GPa) = 85.01093 -1.86348 41.57373
#
# Velocity S-wave (km/s) = 6.37619 -0.94403 4.45896
# Velocity P-wave (km/s) = 8.44523 3.84520 6.56154
#
# Compressibility (1/GPa) = 0.02794403
#
# Stress axis : x y z
#
# Youngs Moduli (GPa) = 150.17382 92.42218 283.62848
#
# Poissons Ratio (x) = -0.34835 -1.75350
# Poissons Ratio (y) = -0.56602 1.83843
# Poissons Ratio (z) = -0.92843 0.59906
#
# Static dielectric constant tensor:
#      x y z
#    x 1.783090 0.000000 -0.039970 
#    y 0.000000 2.068070 0.000000 
#    z -0.039970 0.000000 1.730760 
# 
# From -- ./inp_files/70304.got.cif
#   From: 2010.05.17/outbox.cif.g08.bks.cpg/sg14_36_cif.got.tgz:70304.got - 2010.06.03 17:49:19.
