data_PCOD9242192
_publ_section_title
;
Structure prediction by ZEFSAII (Michael W. Deem and Ramdas Pophale) SiO2 
 PCOD9242192
Probable space group: P 21/C
;
_chemical_formula_sum "Si O2"
_cell_formula_units_Z 32
_cell_length_a 16.180734
_cell_length_b 14.831983
_cell_length_c 10.586842
_cell_angle_alpha 90.000000
_cell_angle_beta 144.410895
_cell_angle_gamma 90.000000
_cell_volume 1478.642662
_symmetry_space_group_name_H-M "P 21/C"
_symmetry_group_IT_number 14
_symmetry_cell_setting 'monoclinic'
loop_
_space_group_symop_operation_xyz
x,y,z
-x,1/2+y,1/2-z
-x,-y,-z
x,1/2-y,1/2+z
loop_
_atom_site_type_symbol
_atom_site_label
_atom_site_fract_x
_atom_site_fract_y
_atom_site_fract_z
Si Si1 0.146878 0.101900 0.259447
Si Si2 0.827440 0.799432 0.111800
Si Si3 0.484974 0.413652 0.201585
Si Si4 0.988272 0.062092 0.804846
Si Si5 0.576631 0.907908 0.934714
Si Si6 0.649712 0.312202 0.230371
Si Si7 0.400883 0.300099 0.312316
Si Si8 0.282889 0.680065 0.974484
O O1 0.125489 0.209261 0.254597
O O2 0.315119 0.076302 0.471413
O O3 0.089633 0.073622 0.052030
O O4 0.057959 0.043464 0.252854
O O5 0.938555 0.876924 0.212317
O O6 0.703191 0.852877 0.027977
O O7 0.745804 0.750993 0.892644
O O8 0.562245 0.489217 0.378967
O O9 0.583870 0.404864 0.200987
O O10 0.479955 0.322125 0.279485
O O11 0.841931 0.111994 0.649810
O O12 0.430549 0.866737 0.698001
O O13 0.606163 0.892862 0.119562
O O14 0.733018 0.264819 0.449003
O O15 0.722045 0.308108 0.183671
O O16 0.502845 0.259298 0.023400
#
# Coordination Sequence:
#
# PCOD9242192 Si02
#       8
#     4   4   4   4   4   4   4   4
#     4  10  23  42  64  89 132 175 217 275 341 382
#     4  11  22  42  66  92 128 181 219 273 330 411
#     4  11  21  38  67  98 128 169 222 280 335 403
#     4  11  24  42  63  92 128 182 220 273 324 402
#     4  11  22  38  64 101 126 169 218 280 331 400
#     4  11  21  40  63  98 130 170 213 281 324 398
#     4  10  19  40  63  91 131 175 211 267 349 391
#     4  11  23  40  64  95 133 164 222 269 334 383
#
# _framework density 21.641470000000002
#
# number of rings (size 3 to 8) (size 9 to 14) (size 15 to 20)
#    0.000    1.250    3.750    4.125    1.750    2.500 
#    0.000    0.000    0.000    3.750    0.000    0.000 
#    0.000    0.000    0.000    0.000    0.000    0.000 
#
# Total GULP energy -178339.136656 kJ/mol
# GULP energy per Si atom -5573.098021 kJ/mol
# Density = 2.159221 g / cm^3
# Si number density = 21.641470 Si / 1000 Ang^3
#
#
#
# Elastic Constant Matrix: (Units=GPa)
#
#
# Indices 1 2 3 4 5 6 
#
# 1 92.4439 20.5295 34.7084 0.0000 -0.8079 0.0000
# 2 20.5295 59.4389 14.0946 0.0000 9.4161 0.0000
# 3 34.7084 14.0946 23.2134 0.0000 -4.8514 0.0000
# 4 0.0000 0.0000 0.0000 29.8393 0.0000 8.7367
# 5 -0.8079 9.4161 -4.8514 0.0000 17.5201 0.0000
# 6 0.0000 0.0000 0.0000 8.7367 0.0000 23.5038
#
#
#
# Elastic Compliance Matrix: (Units=1/GPa)
#
#
# Indices 1 2 3 4 5 6 
#
# 1 0.026783 0.003457 -0.044871 0.000000 -0.013048 0.000000
# 2 0.003457 0.024471 -0.024139 0.000000 -0.019677 0.000000
# 3 -0.044871 -0.024139 0.134912 0.000000 0.048262 0.000000
# 4 0.000000 0.000000 0.000000 0.037606 0.000000 -0.013978
# 5 -0.013048 -0.019677 0.048262 0.000000 0.080415 0.000000
# 6 0.000000 0.000000 0.000000 -0.013978 0.000000 0.047742
#
#
# Mechanical properties :
#
#
# Convention : Reuss Voigt Hill
#
# Bulk Modulus (GPa) = 18.16215 34.86235 26.51225
# Shear Modulus (GPa) = 9.97234 21.22357 15.59796
#
# Velocity S-wave (km/s) = 2.14895 3.13499 2.68758
# Velocity P-wave (km/s) = 3.81678 5.40817 4.68060
#
# Compressibility (1/GPa) = 0.05505956
#
# Stress axis : x y z
#
# Youngs Moduli (GPa) = 37.33775 40.86428 7.41226
#
# Poissons Ratio (x) = -0.14125 0.33259
# Poissons Ratio (y) = -0.12906 0.17892
# Poissons Ratio (z) = 1.67537 0.98642
#
# Static dielectric constant tensor:
#      x y z
#    x 1.848360 0.000000 -0.019820 
#    y 0.000000 1.891540 0.000000 
#    z -0.019820 0.000000 1.780110 
# 
# From -- ./inp_files/34243.got.cif
#   From: 2010.05.17/outbox.cif.g08.bks.cpg/sg14_18_cif.got.tgz:34243.got - 2010.06.03 17:49:19.
