data_PCOD9242400
_publ_section_title
;
Structure prediction by ZEFSAII (Michael W. Deem and Ramdas Pophale) SiO2 
 PCOD9242400
Probable space group: P 21/C
;
_chemical_formula_sum "Si O2"
_cell_formula_units_Z 22
_cell_length_a 26.128708
_cell_length_b 4.328078
_cell_length_c 7.673256
_cell_angle_alpha 90.000000
_cell_angle_beta 56.961319
_cell_angle_gamma 90.000000
_cell_volume 727.433939
_symmetry_space_group_name_H-M "P 21/C"
_symmetry_group_IT_number 14
_symmetry_cell_setting 'monoclinic'
loop_
_space_group_symop_operation_xyz
x,y,z
-x,1/2+y,1/2-z
-x,-y,-z
x,1/2-y,1/2+z
loop_
_atom_site_type_symbol
_atom_site_label
_atom_site_fract_x
_atom_site_fract_y
_atom_site_fract_z
Si Si1 0.222724 0.437177 0.339543
Si Si2 0.404999 0.068583 0.969124
Si Si3 0.046283 0.542413 0.664563
Si Si4 0.313854 0.470274 0.903229
Si Si5 0.500000 0.000000 0.500000
Si Si6 0.135323 0.981603 0.279815
O O1 0.268781 0.238905 0.371603
O O2 0.175823 0.214813 0.320405
O O3 0.183325 0.641580 0.545985
O O4 0.266786 0.623454 0.126508
O O5 0.358133 0.264440 0.941307
O O6 0.452919 0.902136 0.753806
O O7 0.361333 0.871972 0.180828
O O8 0.448024 0.273650 0.013920
O O9 0.085385 0.372417 0.741808
O O10 0.000756 0.291613 0.669594
O O11 0.094490 0.732474 0.457534
#
# Coordination Sequence:
#
# PCOD9242400 Si02
#       6
#     4   4   4   4   2   4
#     4   9  19  40  70  98 126 173 237 296 358 424
#     4   9  18  34  59  91 130 178 223 280 350 406
#     4  12  27  48  75 109 146 189 238 296 364 436
#     4   8  16  34  65  91 124 180 226 277 354 424
#     4  10  20  32  56  90 122 168 224 270 332 412
#     4  11  24  42  71 104 137 178 232 295 356 432
#
# _framework density 30.243292
#
# number of rings (size 3 to 8) (size 9 to 14) (size 15 to 20)
#    0.000    2.182    0.000    2.182    0.000    8.727 
#    0.000    0.000    0.000  109.091    0.000    0.000 
#    0.000    0.000    0.000    0.000    0.000    0.000 
#
# Total GULP energy -122674.333900 kJ/mol
# GULP energy per Si atom -5576.106086 kJ/mol
# Density = 3.017446 g / cm^3
# Si number density = 30.243292 Si / 1000 Ang^3
#
#
#
# Elastic Constant Matrix: (Units=GPa)
#
#
# Indices 1 2 3 4 5 6 
#
# 1 262.3048 77.8427 13.5103 0.0000 -18.7047 0.0000
# 2 77.8427 73.6840 60.9866 0.0000 -17.2497 0.0000
# 3 13.5103 60.9866 399.1617 0.0000 -56.1929 0.0000
# 4 0.0000 0.0000 0.0000 6.7030 0.0000 -27.8524
# 5 -18.7047 -17.2497 -56.1929 0.0000 32.4711 0.0000
# 6 0.0000 0.0000 0.0000 -27.8524 0.0000 59.4495
#
#
#
# Elastic Compliance Matrix: (Units=1/GPa)
#
#
# Indices 1 2 3 4 5 6 
#
# 1 0.005856 -0.006672 0.001054 0.000000 0.001653 0.000000
# 2 -0.006672 0.023912 -0.002883 0.000000 0.003871 0.000000
# 3 0.001054 -0.002883 0.003675 0.000000 0.005436 0.000000
# 4 0.000000 0.000000 0.000000 -0.157579 0.000000 -0.073827
# 5 0.001653 0.003871 0.005436 0.000000 0.043212 0.000000
# 6 0.000000 0.000000 0.000000 -0.073827 0.000000 -0.017767
#
#
# Mechanical properties :
#
#
# Convention : Reuss Voigt Hill
#
# Bulk Modulus (GPa) = 60.82016 115.53663 88.17839
# Shear Modulus (GPa) = -65.60819 58.57876 -3.51471
#
# Velocity S-wave (km/s) = -4.66268 4.40582 -1.07920
# Velocity P-wave (km/s) = 2.97211 8.01043 5.25992
#
# Compressibility (1/GPa) = 0.01644192
#
# Stress axis : x y z
#
# Youngs Moduli (GPa) = 170.76961 41.82031 272.08929
#
# Poissons Ratio (x) = 0.27901 -0.28673
# Poissons Ratio (y) = 1.13932 0.78433
# Poissons Ratio (z) = -0.17996 0.12055
#
# Static dielectric constant tensor:
#      x y z
#    x 3.038800 0.000000 0.071270 
#    y 0.000000 2.265140 0.000000 
#    z 0.071270 0.000000 2.377330 
# 
# From -- ./inp_files/19587.got.cif
#   From: 2010.05.17/outbox.cif.g08.bks.cpg/sg14_10_cif.got.tgz:19587.got - 2010.06.03 17:49:19.
