data_PCOD9242887
_publ_section_title
;
Structure prediction by ZEFSAII (Michael W. Deem and Ramdas Pophale) SiO2 
 PCOD9242887
Probable space group: P 21/C
;
_chemical_formula_sum "Si O2"
_cell_formula_units_Z 32
_cell_length_a 13.552443
_cell_length_b 8.521389
_cell_length_c 20.670896
_cell_angle_alpha 90.000000
_cell_angle_beta 142.561915
_cell_angle_gamma 90.000000
_cell_volume 1451.182765
_symmetry_space_group_name_H-M "P 21/C"
_symmetry_group_IT_number 14
_symmetry_cell_setting 'monoclinic'
loop_
_space_group_symop_operation_xyz
x,y,z
-x,1/2+y,1/2-z
-x,-y,-z
x,1/2-y,1/2+z
loop_
_atom_site_type_symbol
_atom_site_label
_atom_site_fract_x
_atom_site_fract_y
_atom_site_fract_z
Si Si1 0.869551 0.445078 0.502795
Si Si2 0.152715 0.979047 0.360861
Si Si3 0.791203 0.058506 0.822917
Si Si4 0.031458 0.130176 0.618563
Si Si5 0.424497 0.572448 0.552097
Si Si6 0.721018 0.105459 0.264010
Si Si7 0.693320 0.824570 0.663375
Si Si8 0.817388 0.123487 0.168376
O O1 0.798986 0.511017 0.399148
O O2 0.954047 0.273813 0.539603
O O3 0.730751 0.414342 0.482179
O O4 0.019377 0.557173 0.600613
O O5 0.281572 0.096889 0.394287
O O6 0.985594 0.038805 0.240761
O O7 0.105433 0.965914 0.412374
O O8 0.188754 0.799849 0.361314
O O9 0.716796 0.228839 0.795358
O O10 0.698621 0.961953 0.720052
O O11 0.154061 0.212515 0.735827
O O12 0.154518 0.021551 0.642074
O O13 0.547228 0.461978 0.654648
O O14 0.530708 0.725539 0.590099
O O15 0.333096 0.524956 0.438295
O O16 0.801194 0.138724 0.236068
#
# Coordination Sequence:
#
# PCOD9242887 Si02
#       8
#     4   4   4   4   4   4   4   4
#     4  10  21  40  63  82 111 151 198 243 283 337
#     4  11  18  35  61  82 115 152 193 230 282 343
#     4  10  21  40  63  85 106 150 204 240 280 340
#     4   9  19  37  57  84 114 155 191 231 284 335
#     4  11  23  39  55  82 125 153 179 235 296 343
#     4  10  22  37  58  86 120 148 187 235 288 338
#     4  10  20  36  56  83 118 153 185 236 292 338
#     4  11  21  36  59  86 111 155 191 231 279 344
#
# _framework density 22.050978000000001
#
# number of rings (size 3 to 8) (size 9 to 14) (size 15 to 20)
#    0.000    1.750    3.750    1.125    0.000    2.000 
#    0.000    1.250    0.000    0.000    0.000    0.000 
#    0.000    0.000    0.000    0.000    0.000    0.000 
#
# Total GULP energy -178430.223634 kJ/mol
# GULP energy per Si atom -5575.944489 kJ/mol
# Density = 2.200079 g / cm^3
# Si number density = 22.050978 Si / 1000 Ang^3
#
#
#
# Elastic Constant Matrix: (Units=GPa)
#
#
# Indices 1 2 3 4 5 6 
#
# 1 47.4788 0.7699 5.5103 0.0000 9.3574 0.0000
# 2 0.7699 76.9109 17.3997 0.0000 14.7263 0.0000
# 3 5.5103 17.3997 62.4793 0.0000 11.2123 0.0000
# 4 0.0000 0.0000 0.0000 17.4799 0.0000 5.7372
# 5 9.3574 14.7263 11.2123 0.0000 26.6559 0.0000
# 6 0.0000 0.0000 0.0000 5.7372 0.0000 24.9171
#
#
#
# Elastic Compliance Matrix: (Units=1/GPa)
#
#
# Indices 1 2 3 4 5 6 
#
# 1 0.022821 0.001612 -0.000935 0.000000 -0.008509 0.000000
# 2 0.001612 0.015129 -0.002979 0.000000 -0.007671 0.000000
# 3 -0.000935 -0.002979 0.017915 0.000000 -0.005562 0.000000
# 4 0.000000 0.000000 0.000000 0.061885 0.000000 -0.014249
# 5 -0.008509 -0.007671 -0.005562 0.000000 0.047080 0.000000
# 6 0.000000 0.000000 0.000000 -0.014249 0.000000 0.043414
#
#
# Mechanical properties :
#
#
# Convention : Reuss Voigt Hill
#
# Bulk Modulus (GPa) = 19.50731 26.02543 22.76637
# Shear Modulus (GPa) = 21.74534 24.68984 23.21759
#
# Velocity S-wave (km/s) = 3.14369 3.34978 3.24837
# Velocity P-wave (km/s) = 4.69497 5.17585 4.94126
#
# Compressibility (1/GPa) = 0.05126283
#
# Stress axis : x y z
#
# Youngs Moduli (GPa) = 43.81871 66.10006 55.81789
#
# Poissons Ratio (x) = -0.10657 0.05217
# Poissons Ratio (y) = -0.07064 0.16627
# Poissons Ratio (z) = 0.04096 0.19689
#
# Static dielectric constant tensor:
#      x y z
#    x 1.837380 0.000000 -0.001130 
#    y 0.000000 1.880850 0.000000 
#    z -0.001130 0.000000 1.813970 
# 
# From -- ./inp_files/73758.got.cif
#   From: 2010.05.17/outbox.cif.g08.bks.cpg/sg14_37_cif.got.tgz:73758.got - 2010.06.03 17:49:19.
