data_PCOD9242882
_publ_section_title
;
Structure prediction by ZEFSAII (Michael W. Deem and Ramdas Pophale) SiO2 
 PCOD9242882
Probable space group: P 21/C
;
_chemical_formula_sum "Si O2"
_cell_formula_units_Z 32
_cell_length_a 13.389573
_cell_length_b 13.232926
_cell_length_c 8.759555
_cell_angle_alpha 90.000000
_cell_angle_beta 91.764950
_cell_angle_gamma 90.000000
_cell_volume 1551.309928
_symmetry_space_group_name_H-M "P 21/C"
_symmetry_group_IT_number 14
_symmetry_cell_setting 'monoclinic'
loop_
_space_group_symop_operation_xyz
x,y,z
-x,1/2+y,1/2-z
-x,-y,-z
x,1/2-y,1/2+z
loop_
_atom_site_type_symbol
_atom_site_label
_atom_site_fract_x
_atom_site_fract_y
_atom_site_fract_z
Si Si1 0.395141 0.440378 0.654929
Si Si2 0.238364 0.583174 0.553415
Si Si3 0.946474 0.286890 0.450466
Si Si4 0.992973 0.607811 0.846089
Si Si5 0.255207 0.296679 0.823699
Si Si6 0.620664 0.015218 0.176037
Si Si7 0.234917 0.392002 0.144587
Si Si8 0.913697 0.927524 0.839638
O O1 0.320786 0.537991 0.676817
O O2 0.346882 0.345821 0.736386
O O3 0.394825 0.437319 0.469080
O O4 0.509139 0.452592 0.709710
O O5 0.169238 0.680241 0.576016
O O6 0.304108 0.593483 0.403940
O O7 0.156722 0.491547 0.546392
O O8 0.962955 0.173506 0.511911
O O9 0.999389 0.312618 0.293705
O O10 0.000316 0.365638 0.570085
O O11 0.879680 0.575862 0.873643
O O12 0.049255 0.510392 0.781258
O O13 0.243202 0.179666 0.791954
O O14 0.158966 0.350356 0.746679
O O15 0.259741 0.325123 0.999474
O O16 0.681812 0.975068 0.322231
#
# Coordination Sequence:
#
# PCOD9242882 Si02
#       8
#     4   4   4   4   4   4   4   4
#     4   8  18  36  60  83 104 142 187 236 290 342
#     4   8  16  33  60  80 105 151 182 219 290 345
#     4  11  20  36  56  78 118 150 187 234 275 350
#     4  11  23  35  55  87 111 155 197 227 288 344
#     4  11  23  36  56  82 120 147 191 245 286 335
#     4   9  17  35  63  84 106 142 192 237 279 355
#     4  12  22  35  57  84 113 150 195 239 283 339
#     4  10  20  36  56  80 115 153 189 236 283 341
#
# _framework density 20.62773
#
# number of rings (size 3 to 8) (size 9 to 14) (size 15 to 20)
#    0.750    1.250    1.250    4.500    0.000    1.000 
#    2.250    0.000    8.250    0.000    0.000    0.000 
#    0.000    0.000    0.000    0.000    0.000    0.000 
#
# Total GULP energy -178319.473971 kJ/mol
# GULP energy per Si atom -5572.483562 kJ/mol
# Density = 2.058078 g / cm^3
# Si number density = 20.627730 Si / 1000 Ang^3
#
#
#
# Elastic Constant Matrix: (Units=GPa)
#
#
# Indices 1 2 3 4 5 6 
#
# 1 142.5047 34.6771 4.6252 0.0000 -4.2119 0.0000
# 2 34.6771 38.8892 -0.2845 0.0000 -2.5288 0.0000
# 3 4.6252 -0.2845 34.0697 0.0000 2.3677 0.0000
# 4 0.0000 0.0000 0.0000 33.0308 0.0000 -3.7514
# 5 -4.2119 -2.5288 2.3677 0.0000 19.3193 0.0000
# 6 0.0000 0.0000 0.0000 -3.7514 0.0000 20.2890
#
#
#
# Elastic Compliance Matrix: (Units=1/GPa)
#
#
# Indices 1 2 3 4 5 6 
#
# 1 0.009041 -0.008001 -0.001370 0.000000 0.001092 0.000000
# 2 -0.008001 0.033015 0.001193 0.000000 0.002431 0.000000
# 3 -0.001370 0.001193 0.029811 0.000000 -0.003796 0.000000
# 4 0.000000 0.000000 0.000000 0.030924 0.000000 0.005718
# 5 0.001092 0.002431 -0.003796 0.000000 0.052783 0.000000
# 6 0.000000 0.000000 0.000000 0.005718 0.000000 0.050345
#
#
# Mechanical properties :
#
#
# Convention : Reuss Voigt Hill
#
# Bulk Modulus (GPa) = 18.01425 32.61101 25.31263
# Shear Modulus (GPa) = 20.76589 26.29087 23.52838
#
# Velocity S-wave (km/s) = 3.17629 3.57394 3.38097
# Velocity P-wave (km/s) = 4.71209 5.73362 5.24777
#
# Compressibility (1/GPa) = 0.05551162
#
# Stress axis : x y z
#
# Youngs Moduli (GPa) = 110.60778 30.28918 33.54429
#
# Poissons Ratio (x) = 0.24234 0.04596
# Poissons Ratio (y) = 0.88495 -0.04002
# Poissons Ratio (z) = 0.15154 -0.03613
#
# Static dielectric constant tensor:
#      x y z
#    x 1.745860 0.000000 -0.000790 
#    y 0.000000 1.746770 0.000000 
#    z -0.000790 0.000000 1.779250 
# 
# From -- ./inp_files/15795.got.cif
#   From: 2010.05.17/outbox.cif.g08.bks.cpg/sg14_8_cif.got.tgz:15795.got - 2010.06.03 17:49:19.
