data_PCOD9242340
_publ_section_title
;
Structure prediction by ZEFSAII (Michael W. Deem and Ramdas Pophale) SiO2 
 PCOD9242340
Probable space group: P 21/C
;
_chemical_formula_sum "Si O2"
_cell_formula_units_Z 30
_cell_length_a 13.780937
_cell_length_b 4.923596
_cell_length_c 21.053028
_cell_angle_alpha 90.000000
_cell_angle_beta 79.198019
_cell_angle_gamma 90.000000
_cell_volume 1403.173481
_symmetry_space_group_name_H-M "P 21/C"
_symmetry_group_IT_number 14
_symmetry_cell_setting 'monoclinic'
loop_
_space_group_symop_operation_xyz
x,y,z
-x,1/2+y,1/2-z
-x,-y,-z
x,1/2-y,1/2+z
loop_
_atom_site_type_symbol
_atom_site_label
_atom_site_fract_x
_atom_site_fract_y
_atom_site_fract_z
Si Si1 0.000000 0.000000 0.500000
Si Si2 0.997813 0.205660 0.291575
Si Si3 0.092755 0.351300 0.093137
Si Si4 0.626234 0.898774 0.422786
Si Si5 0.745071 0.406606 0.425483
Si Si6 0.911085 0.978866 0.100213
Si Si7 0.698388 0.377110 0.580589
Si Si8 0.578328 0.874114 0.579789
O O1 0.891676 0.030975 0.471017
O O2 0.950985 0.738667 0.545650
O O3 0.069192 0.354325 0.332772
O O4 0.957062 0.459218 0.255737
O O5 0.921573 0.034113 0.343704
O O6 0.154924 0.080855 0.095441
O O7 0.980623 0.250288 0.082912
O O8 0.719777 0.102577 0.406788
O O9 0.595919 0.883233 0.501085
O O10 0.662981 0.599408 0.401943
O O11 0.532329 0.017573 0.397989
O O12 0.722306 0.412839 0.503092
O O13 0.798064 0.051127 0.104551
O O14 0.659075 0.078279 0.598024
O O15 0.606491 0.580433 0.601958
#
# Coordination Sequence:
#
# PCOD9242340 Si02
#       8
#     2   4   4   4   4   4   4   4
#     4  10  22  32  52  82 122 150 192 216 300 328
#     4  11  24  43  58  75 106 155 196 240 288 337
#     4  11  23  35  57  81 118 152 188 238 279 350
#     4   9  18  31  46  68 105 152 190 220 256 317
#     4  10  20  30  50  76 109 146 188 220 269 328
#     4  11  23  35  57  81 118 152 188 238 279 350
#     4  10  20  30  50  76 109 146 188 220 269 328
#     4   9  18  31  46  68 105 152 190 220 256 317
#
# _framework density 21.380109000000001
#
# number of rings (size 3 to 8) (size 9 to 14) (size 15 to 20)
#    0.000    1.867    2.667    1.200    7.467    3.200 
#    0.000    0.000    0.000    0.000    0.000    0.000 
#    0.000    6.400    1.600    0.000    0.000    0.000 
#
# Total GULP energy -167105.298239 kJ/mol
# GULP energy per Si atom -5570.176608 kJ/mol
# Density = 2.133145 g / cm^3
# Si number density = 21.380109 Si / 1000 Ang^3
#
#
#
# Elastic Constant Matrix: (Units=GPa)
#
#
# Indices 1 2 3 4 5 6 
#
# 1 67.3263 -18.2365 4.3698 0.0000 4.9252 0.0000
# 2 -18.2365 74.3764 11.1974 0.0000 -2.7005 0.0000
# 3 4.3698 11.1974 49.7264 0.0000 6.9121 0.0000
# 4 0.0000 0.0000 0.0000 27.3710 0.0000 -2.6104
# 5 4.9252 -2.7005 6.9121 0.0000 8.6420 0.0000
# 6 0.0000 0.0000 0.0000 -2.6104 0.0000 34.9000
#
#
#
# Elastic Compliance Matrix: (Units=1/GPa)
#
#
# Indices 1 2 3 4 5 6 
#
# 1 0.016545 0.004006 -0.001372 0.000000 -0.007080 0.000000
# 2 0.004006 0.015359 -0.004681 0.000000 0.006260 0.000000
# 3 -0.001372 -0.004681 0.024054 0.000000 -0.019920 0.000000
# 4 0.000000 0.000000 0.000000 0.036798 0.000000 0.002752
# 5 -0.007080 0.006260 -0.019920 0.000000 0.137637 0.000000
# 6 0.000000 0.000000 0.000000 0.002752 0.000000 0.028859
#
#
# Mechanical properties :
#
#
# Convention : Reuss Voigt Hill
#
# Bulk Modulus (GPa) = 19.28086 20.67672 19.97879
# Shear Modulus (GPa) = 17.81685 27.12249 22.46967
#
# Velocity S-wave (km/s) = 2.88989 3.56558 3.24537
# Velocity P-wave (km/s) = 4.49144 5.16170 4.83819
#
# Compressibility (1/GPa) = 0.05186490
#
# Stress axis : x y z
#
# Youngs Moduli (GPa) = 60.44063 65.10652 41.57389
#
# Poissons Ratio (x) = -0.26083 0.05704
# Poissons Ratio (y) = -0.24214 0.19460
# Poissons Ratio (z) = 0.08292 0.30476
#
# Static dielectric constant tensor:
#      x y z
#    x 1.873210 0.000000 -0.033690 
#    y 0.000000 1.559510 0.000000 
#    z -0.033690 0.000000 1.449160 
# 
# From -- ./inp_files/72650.got.cif
#   From: 2010.05.17/outbox.cif.g08.bks.cpg/sg14_37_cif.got.tgz:72650.got - 2010.06.03 17:49:19.
