data_PCOD9242102
_publ_section_title
;
Structure prediction by ZEFSAII (Michael W. Deem and Ramdas Pophale) SiO2 
 PCOD9242102
Probable space group: P 21/C
;
_chemical_formula_sum "Si O2"
_cell_formula_units_Z 32
_cell_length_a 13.135700
_cell_length_b 12.406994
_cell_length_c 11.472557
_cell_angle_alpha 90.000000
_cell_angle_beta 66.430495
_cell_angle_gamma 90.000000
_cell_volume 1713.753472
_symmetry_space_group_name_H-M "P 21/C"
_symmetry_group_IT_number 14
_symmetry_cell_setting 'monoclinic'
loop_
_space_group_symop_operation_xyz
x,y,z
-x,1/2+y,1/2-z
-x,-y,-z
x,1/2-y,1/2+z
loop_
_atom_site_type_symbol
_atom_site_label
_atom_site_fract_x
_atom_site_fract_y
_atom_site_fract_z
Si Si1 0.679691 0.971959 0.864434
Si Si2 0.417278 0.901346 0.522100
Si Si3 0.086384 0.036988 0.135057
Si Si4 0.292357 0.667181 0.303774
Si Si5 0.969203 0.401400 0.927935
Si Si6 0.957658 0.154178 0.991100
Si Si7 0.268218 0.907882 0.375677
Si Si8 0.541105 0.157699 0.052750
O O1 0.781377 0.951328 0.905841
O O2 0.585362 0.883309 0.885964
O O3 0.738279 0.998949 0.715482
O O4 0.609939 0.075737 0.939585
O O5 0.330316 0.892791 0.669319
O O6 0.369354 0.920640 0.415633
O O7 0.461911 0.778876 0.494468
O O8 0.500000 0.000000 0.500000
O O9 0.024130 0.078805 0.278313
O O10 0.042860 0.101166 0.042591
O O11 0.050086 0.913163 0.125751
O O12 0.168088 0.637043 0.402004
O O13 0.279368 0.796464 0.299756
O O14 0.388313 0.652900 0.358591
O O15 0.990927 0.278852 0.960366
O O16 0.836031 0.402511 0.990972
O O17 0.000000 0.500000 0.000000
#
# Coordination Sequence:
#
# PCOD9242102 Si02
#       8
#     4   4   4   4   4   4   4   4
#     4  11  20  40  62  84 124 157 209 247 303 374
#     4  11  22  38  59  92 124 155 201 257 310 359
#     4  11  23  42  64  93 129 164 205 267 318 375
#     4  10  19  39  64  86 120 156 211 254 292 368
#     4  11  23  39  66  93 124 164 214 260 312 370
#     4  10  24  41  65  95 122 168 215 255 321 376
#     4  10  21  37  64  90 114 164 205 251 301 365
#     4  10  22  37  61  89 111 168 202 248 301 368
#
# _framework density 18.672464000000002
#
# number of rings (size 3 to 8) (size 9 to 14) (size 15 to 20)
#    0.000    1.500    3.750    1.500    1.750    0.000 
#    2.250    2.500    0.000    0.000    0.000    0.000 
#    0.000    0.000    0.000    0.000    0.000    0.000 
#
# Total GULP energy -178291.025261 kJ/mol
# GULP energy per Si atom -5571.594539 kJ/mol
# Density = 1.862996 g / cm^3
# Si number density = 18.672464 Si / 1000 Ang^3
#
#
#
# Elastic Constant Matrix: (Units=GPa)
#
#
# Indices 1 2 3 4 5 6 
#
# 1 104.5323 49.9271 16.2052 0.0000 -8.8867 0.0000
# 2 49.9271 98.1325 21.2888 0.0000 3.3328 0.0000
# 3 16.2052 21.2888 66.3045 0.0000 -7.3727 0.0000
# 4 0.0000 0.0000 0.0000 24.6046 0.0000 -0.1333
# 5 -8.8867 3.3328 -7.3727 0.0000 15.1579 0.0000
# 6 0.0000 0.0000 0.0000 -0.1333 0.0000 24.9342
#
#
#
# Elastic Compliance Matrix: (Units=1/GPa)
#
#
# Indices 1 2 3 4 5 6 
#
# 1 0.013950 -0.007449 0.000078 0.000000 0.009854 0.000000
# 2 -0.007449 0.015209 -0.004144 0.000000 -0.009727 0.000000
# 3 0.000078 -0.004144 0.017443 0.000000 0.009441 0.000000
# 4 0.000000 0.000000 0.000000 0.040644 0.000000 0.000217
# 5 0.009854 -0.009727 0.009441 0.000000 0.078480 0.000000
# 6 0.000000 0.000000 0.000000 0.000217 0.000000 0.040107
#
#
# Mechanical properties :
#
#
# Convention : Reuss Voigt Hill
#
# Bulk Modulus (GPa) = 42.42319 49.31237 45.86778
# Shear Modulus (GPa) = 21.12185 25.04256 23.08220
#
# Velocity S-wave (km/s) = 3.36694 3.66614 3.51972
# Velocity P-wave (km/s) = 6.15500 6.66238 6.41371
#
# Compressibility (1/GPa) = 0.02357201
#
# Stress axis : x y z
#
# Youngs Moduli (GPa) = 71.68561 65.74839 57.32834
#
# Poissons Ratio (x) = 0.48975 -0.00447
# Poissons Ratio (y) = 0.53397 0.23759
# Poissons Ratio (z) = -0.00559 0.27249
#
# Static dielectric constant tensor:
#      x y z
#    x 1.647770 0.000000 -0.004690 
#    y 0.000000 1.673660 0.000000 
#    z -0.004690 0.000000 1.655460 
# 
# From -- ./inp_files/29372.got.cif
#   From: 2010.05.17/outbox.cif.g08.bks.cpg/sg14_15_cif.got.tgz:29372.got - 2010.06.03 17:49:19.
