data_PCOD9242170
_publ_section_title
;
Structure prediction by ZEFSAII (Michael W. Deem and Ramdas Pophale) SiO2 
 PCOD9242170
Probable space group: P 21/C
;
_chemical_formula_sum "Si O2"
_cell_formula_units_Z 20
_cell_length_a 12.825600
_cell_length_b 11.184013
_cell_length_c 9.701956
_cell_angle_alpha 90.000000
_cell_angle_beta 32.248067
_cell_angle_gamma 90.000000
_cell_volume 742.572852
_symmetry_space_group_name_H-M "P 21/C"
_symmetry_group_IT_number 14
_symmetry_cell_setting 'monoclinic'
loop_
_space_group_symop_operation_xyz
x,y,z
-x,1/2+y,1/2-z
-x,-y,-z
x,1/2-y,1/2+z
loop_
_atom_site_type_symbol
_atom_site_label
_atom_site_fract_x
_atom_site_fract_y
_atom_site_fract_z
Si Si1 0.862730 0.966855 0.392421
Si Si2 0.496726 0.267363 0.062535
Si Si3 0.931118 0.794787 0.832844
Si Si4 0.273256 0.078905 0.161209
Si Si5 0.565489 0.390416 0.724780
O O1 0.992856 0.844646 0.254963
O O2 0.811108 0.984973 0.611340
O O3 0.664343 0.926559 0.537521
O O4 0.945785 0.092877 0.249249
O O5 0.593793 0.362497 0.853336
O O6 0.274499 0.296836 0.354514
O O7 0.461773 0.149913 0.006573
O O8 0.595613 0.225564 0.092756
O O9 0.876906 0.827274 0.735667
O O10 0.323653 0.994787 0.977689
#
# Coordination Sequence:
#
# PCOD9242170 Si02
#       5
#     4   4   4   4   4
#     4  10  21  40  62  90 123 165 198 255 302 367
#     4  10  19  40  60  89 121 159 197 262 301 353
#     4  10  21  39  62  89 126 160 203 247 309 359
#     4  10  19  41  62  85 122 169 198 251 313 358
#     4  10  21  38  66  82 125 159 206 248 314 357
#
# _framework density 26.933382999999999
#
# number of rings (size 3 to 8) (size 9 to 14) (size 15 to 20)
#    0.000    2.400    4.000    3.000    0.000    1.600 
#    7.200    0.000    0.000    0.000    0.000    0.000 
#    0.000    0.000    0.000    0.000    0.000    0.000 
#
# Total GULP energy -111866.040160 kJ/mol
# GULP energy per Si atom -5593.302008 kJ/mol
# Density = 2.687208 g / cm^3
# Si number density = 26.933383 Si / 1000 Ang^3
#
#
#
# Elastic Constant Matrix: (Units=GPa)
#
#
# Indices 1 2 3 4 5 6 
#
# 1 67.5591 21.4710 9.8499 0.0000 8.5642 0.0000
# 2 21.4710 178.6887 69.5113 0.0000 -6.6453 0.0000
# 3 9.8499 69.5113 52.9658 0.0000 7.8505 0.0000
# 4 0.0000 0.0000 0.0000 60.8852 0.0000 8.5173
# 5 8.5642 -6.6453 7.8505 0.0000 23.8107 0.0000
# 6 0.0000 0.0000 0.0000 8.5173 0.0000 33.7418
#
#
#
# Elastic Compliance Matrix: (Units=1/GPa)
#
#
# Indices 1 2 3 4 5 6 
#
# 1 0.016412 -0.003042 0.002041 0.000000 -0.007425 0.000000
# 2 -0.003042 0.013936 -0.019411 0.000000 0.011384 0.000000
# 3 0.002041 -0.019411 0.047194 0.000000 -0.021712 0.000000
# 4 0.000000 0.000000 0.000000 0.017026 0.000000 -0.004298
# 5 -0.007425 0.011384 -0.021712 0.000000 0.055004 0.000000
# 6 0.000000 0.000000 0.000000 -0.004298 0.000000 0.030722
#
#
# Mechanical properties :
#
#
# Convention : Reuss Voigt Hill
#
# Bulk Modulus (GPa) = 27.23523 55.65309 41.44416
# Shear Modulus (GPa) = 21.42624 36.91297 29.16960
#
# Velocity S-wave (km/s) = 2.82357 3.70608 3.29451
# Velocity P-wave (km/s) = 4.55676 6.24672 5.46743
#
# Compressibility (1/GPa) = 0.03671715
#
# Stress axis : x y z
#
# Youngs Moduli (GPa) = 60.92964 71.75445 21.18919
#
# Poissons Ratio (x) = 0.21828 -0.04324
# Poissons Ratio (y) = 0.18535 0.41131
# Poissons Ratio (z) = -0.12434 1.39286
#
# Static dielectric constant tensor:
#      x y z
#    x 2.089840 0.000000 -0.088680 
#    y 0.000000 2.234890 0.000000 
#    z -0.088680 0.000000 2.113500 
# 
# From -- ./inp_files/33735.got.cif
#   From: 2010.05.17/outbox.cif.g08.bks.cpg/sg14_17_cif.got.tgz:33735.got - 2010.06.03 17:49:19.
