data_PCOD9242705
_publ_section_title
;
Structure prediction by ZEFSAII (Michael W. Deem and Ramdas Pophale) SiO2 
 PCOD9242705
Probable space group: P 21/C
;
_chemical_formula_sum "Si O2"
_cell_formula_units_Z 32
_cell_length_a 13.051018
_cell_length_b 16.132158
_cell_length_c 8.395794
_cell_angle_alpha 90.000000
_cell_angle_beta 67.641160
_cell_angle_gamma 90.000000
_cell_volume 1634.766127
_symmetry_space_group_name_H-M "P 21/C"
_symmetry_group_IT_number 14
_symmetry_cell_setting 'monoclinic'
loop_
_space_group_symop_operation_xyz
x,y,z
-x,1/2+y,1/2-z
-x,-y,-z
x,1/2-y,1/2+z
loop_
_atom_site_type_symbol
_atom_site_label
_atom_site_fract_x
_atom_site_fract_y
_atom_site_fract_z
Si Si1 0.679877 0.224262 0.685117
Si Si2 0.845510 0.868464 0.059955
Si Si3 0.853151 0.557751 0.014851
Si Si4 0.159008 0.817560 0.142040
Si Si5 0.922496 0.777644 0.334311
Si Si6 0.573983 0.132415 0.451139
Si Si7 0.936099 0.002786 0.793757
Si Si8 0.336350 0.450544 0.125799
O O1 0.774945 0.275952 0.539014
O O2 0.748626 0.173769 0.775736
O O3 0.618595 0.165911 0.594683
O O4 0.599647 0.291705 0.816097
O O5 0.891933 0.819578 0.185115
O O6 0.734170 0.911721 0.187701
O O7 0.846128 0.800022 0.920928
O O8 0.923329 0.940355 0.946121
O O9 0.899212 0.651373 0.978952
O O10 0.737749 0.555118 0.990503
O O11 0.941208 0.506775 0.854118
O O12 0.859510 0.526217 0.190298
O O13 0.053944 0.760692 0.255466
O O14 0.105456 0.906023 0.136915
O O15 0.447177 0.103246 0.538396
O O16 0.636797 0.047560 0.364751
#
# Coordination Sequence:
#
# PCOD9242705 Si02
#       8
#     4   4   4   4   4   4   4   4
#     4  10  21  37  61  83 109 146 190 243 292 332
#     4  11  22  36  57  83 118 155 189 231 286 351
#     4   9  20  36  56  82 118 154 185 230 282 341
#     4  10  20  35  57  84 112 142 183 237 288 340
#     4  10  21  34  52  84 117 150 187 226 283 355
#     4  10  22  40  59  84 110 147 201 247 289 334
#     4  10  20  35  57  87 116 148 188 226 283 353
#     4  10  22  39  59  82 116 154 193 241 287 339
#
# _framework density 19.574666000000001
#
# number of rings (size 3 to 8) (size 9 to 14) (size 15 to 20)
#    0.000    2.000    0.000    3.000    0.000   11.500 
#    0.000    2.500    0.000    9.000    0.000    0.000 
#    0.000    0.000    0.000    0.000    0.000    0.000 
#
# Total GULP energy -178616.314132 kJ/mol
# GULP energy per Si atom -5581.759817 kJ/mol
# Density = 1.953011 g / cm^3
# Si number density = 19.574666 Si / 1000 Ang^3
#
#
#
# Elastic Constant Matrix: (Units=GPa)
#
#
# Indices 1 2 3 4 5 6 
#
# 1 85.2930 44.4619 40.5155 0.0000 -9.0422 0.0000
# 2 44.4619 106.1765 56.9861 0.0000 -7.4372 0.0000
# 3 40.5155 56.9861 74.4922 0.0000 -2.7032 0.0000
# 4 0.0000 0.0000 0.0000 36.6214 0.0000 -2.6502
# 5 -9.0422 -7.4372 -2.7032 0.0000 20.0195 0.0000
# 6 0.0000 0.0000 0.0000 -2.6502 0.0000 19.5439
#
#
#
# Elastic Compliance Matrix: (Units=1/GPa)
#
#
# Indices 1 2 3 4 5 6 
#
# 1 0.017169 -0.003209 -0.006678 0.000000 0.005661 0.000000
# 2 -0.003209 0.016957 -0.011105 0.000000 0.003350 0.000000
# 3 -0.006678 -0.011105 0.025417 0.000000 -0.003710 0.000000
# 4 0.000000 0.000000 0.000000 0.027577 0.000000 0.003740
# 5 0.005661 0.003350 -0.003710 0.000000 0.053252 0.000000
# 6 0.000000 0.000000 0.000000 0.003740 0.000000 0.051674
#
#
# Mechanical properties :
#
#
# Convention : Reuss Voigt Hill
#
# Bulk Modulus (GPa) = 56.94995 61.09876 59.02435
# Shear Modulus (GPa) = 20.84349 23.50351 22.17350
#
# Velocity S-wave (km/s) = 3.26670 3.46889 3.36931
# Velocity P-wave (km/s) = 6.58675 6.87933 6.73463
#
# Compressibility (1/GPa) = 0.01755928
#
# Stress axis : x y z
#
# Youngs Moduli (GPa) = 58.24317 58.97272 39.34399
#
# Poissons Ratio (x) = 0.18925 0.26273
# Poissons Ratio (y) = 0.18691 0.43691
# Poissons Ratio (z) = 0.38894 0.65489
#
# Static dielectric constant tensor:
#      x y z
#    x 1.675950 0.000000 0.020060 
#    y 0.000000 1.708370 0.000000 
#    z 0.020060 0.000000 1.702020 
# 
# From -- ./inp_files/13284.got.cif
#   From: 2010.05.17/outbox.cif.g08.bks.cpg/sg14_7_cif.got.tgz:13284.got - 2010.06.03 17:49:19.
