data_PCOD9242055
_publ_section_title
;
Structure prediction by ZEFSAII (Michael W. Deem and Ramdas Pophale) SiO2 
 PCOD9242055
Probable space group: P 21/C
;
_chemical_formula_sum "Si O2"
_cell_formula_units_Z 32
_cell_length_a 17.543190
_cell_length_b 19.533363
_cell_length_c 8.962986
_cell_angle_alpha 90.000000
_cell_angle_beta 147.818245
_cell_angle_gamma 90.000000
_cell_volume 1635.855753
_symmetry_space_group_name_H-M "P 21/C"
_symmetry_group_IT_number 14
_symmetry_cell_setting 'monoclinic'
loop_
_space_group_symop_operation_xyz
x,y,z
-x,1/2+y,1/2-z
-x,-y,-z
x,1/2-y,1/2+z
loop_
_atom_site_type_symbol
_atom_site_label
_atom_site_fract_x
_atom_site_fract_y
_atom_site_fract_z
Si Si1 0.054876 0.470233 0.745607
Si Si2 0.754850 0.335954 0.858059
Si Si3 0.824412 0.091380 0.029817
Si Si4 0.472313 0.841518 0.491679
Si Si5 0.652097 0.006037 0.173248
Si Si6 0.305192 0.451817 0.591646
Si Si7 0.598244 0.239164 0.359006
Si Si8 0.002376 0.597895 0.875658
O O1 0.027848 0.525869 0.832734
O O2 0.000000 0.500000 0.500000
O O3 0.950205 0.408511 0.616393
O O4 0.225479 0.463900 0.033710
O O5 0.693856 0.413422 0.745151
O O6 0.683043 0.289384 0.611438
O O7 0.706392 0.303712 0.934036
O O8 0.924491 0.345124 0.108507
O O9 0.698130 0.144830 0.799751
O O10 0.903139 0.098510 0.318374
O O11 0.741454 0.018558 0.892583
O O12 0.498971 0.785224 0.410059
O O13 0.495036 0.811164 0.693431
O O14 0.564500 0.909340 0.624619
O O15 0.656629 0.977973 0.011393
O O16 0.500000 0.000000 0.000000
O O17 0.164297 0.403074 0.359286
#
# Coordination Sequence:
#
# PCOD9242055 Si02
#       8
#     4   4   4   4   4   4   4   4
#     4  10  21  34  54  88 125 146 181 236 295 358
#     4  10  20  38  60  80 114 152 203 238 296 343
#     4  11  19  38  63  87 118 159 192 239 309 373
#     4  11  23  37  64  83 114 160 204 244 291 358
#     4  11  21  35  59  91 125 151 190 250 310 363
#     4  11  20  37  59  92 122 153 188 239 320 366
#     4  10  22  40  57  82 110 158 210 250 275 339
#     4  10  19  39  59  84 121 156 183 241 303 363
#
# _framework density 19.561627000000001
#
# number of rings (size 3 to 8) (size 9 to 14) (size 15 to 20)
#    0.000    1.500    5.000    1.875    5.250    0.000 
#    2.250    1.250    0.000    0.000    0.000    0.000 
#    0.000    0.000    0.000    0.000    0.000    0.000 
#
# Total GULP energy -178502.210213 kJ/mol
# GULP energy per Si atom -5578.194069 kJ/mol
# Density = 1.951710 g / cm^3
# Si number density = 19.561627 Si / 1000 Ang^3
#
#
#
# Elastic Constant Matrix: (Units=GPa)
#
#
# Indices 1 2 3 4 5 6 
#
# 1 82.1455 7.4894 22.1179 0.0000 11.9217 0.0000
# 2 7.4894 44.3102 1.1778 0.0000 1.2235 0.0000
# 3 22.1179 1.1778 63.0543 0.0000 14.3531 0.0000
# 4 0.0000 0.0000 0.0000 17.6497 0.0000 -3.7266
# 5 11.9217 1.2235 14.3531 0.0000 34.3970 0.0000
# 6 0.0000 0.0000 0.0000 -3.7266 0.0000 27.1112
#
#
#
# Elastic Compliance Matrix: (Units=1/GPa)
#
#
# Indices 1 2 3 4 5 6 
#
# 1 0.013928 -0.002160 -0.004159 0.000000 -0.003015 0.000000
# 2 -0.002160 0.022929 0.000381 0.000000 -0.000226 0.000000
# 3 -0.004159 0.000381 0.018769 0.000000 -0.006404 0.000000
# 4 0.000000 0.000000 0.000000 0.058352 0.000000 0.008021
# 5 -0.003015 -0.000226 -0.006404 0.000000 0.032797 0.000000
# 6 0.000000 0.000000 0.000000 0.008021 0.000000 0.037988
#
#
# Mechanical properties :
#
#
# Convention : Reuss Voigt Hill
#
# Bulk Modulus (GPa) = 22.85748 27.89781 25.37764
# Shear Modulus (GPa) = 23.67172 26.41326 25.04249
#
# Velocity S-wave (km/s) = 3.48244 3.67857 3.58185
# Velocity P-wave (km/s) = 5.28016 5.68639 5.48703
#
# Compressibility (1/GPa) = 0.04374936
#
# Stress axis : x y z
#
# Youngs Moduli (GPa) = 71.79863 43.61212 53.28000
#
# Poissons Ratio (x) = 0.09422 0.22158
# Poissons Ratio (y) = 0.15511 -0.02029
# Poissons Ratio (z) = 0.29860 -0.01661
#
# Static dielectric constant tensor:
#      x y z
#    x 1.737240 0.000000 0.019590 
#    y 0.000000 1.723190 0.000000 
#    z 0.019590 0.000000 1.707860 
# 
# From -- ./inp_files/18231.got.cif
#   From: 2010.05.17/outbox.cif.g08.bks.cpg/sg14_10_cif.got.tgz:18231.got - 2010.06.03 17:49:19.
