data_PCOD9242134
_publ_section_title
;
Structure prediction by ZEFSAII (Michael W. Deem and Ramdas Pophale) SiO2 
 PCOD9242134
Probable space group: P 21/C
;
_chemical_formula_sum "Si O2"
_cell_formula_units_Z 20
_cell_length_a 7.756673
_cell_length_b 12.536495
_cell_length_c 7.251846
_cell_angle_alpha 90.000000
_cell_angle_beta 90.425644
_cell_angle_gamma 90.000000
_cell_volume 705.160868
_symmetry_space_group_name_H-M "P 21/C"
_symmetry_group_IT_number 14
_symmetry_cell_setting 'monoclinic'
loop_
_space_group_symop_operation_xyz
x,y,z
-x,1/2+y,1/2-z
-x,-y,-z
x,1/2-y,1/2+z
loop_
_atom_site_type_symbol
_atom_site_label
_atom_site_fract_x
_atom_site_fract_y
_atom_site_fract_z
Si Si1 0.844014 0.854746 0.913321
Si Si2 0.660839 0.170168 0.965658
Si Si3 0.293509 0.897870 0.418600
Si Si4 0.820548 0.026404 0.225730
Si Si5 0.355254 0.176609 0.441988
O O1 0.704678 0.873417 0.749624
O O2 0.020201 0.897672 0.826782
O O3 0.808939 0.730435 0.960175
O O4 0.829828 0.921246 0.103071
O O5 0.761143 0.279371 0.010998
O O6 0.475799 0.217383 0.907248
O O7 0.742322 0.105345 0.797829
O O8 0.660423 0.095047 0.142697
O O9 0.203094 0.979988 0.555383
O O10 0.501123 0.891963 0.449020
#
# Coordination Sequence:
#
# PCOD9242134 Si02
#       5
#     4   4   4   4   4
#     4  11  25  43  63  98 133 170 205 278 315 389
#     4  10  19  39  66  94 123 171 218 258 317 383
#     4  10  19  39  66  94 123 171 218 258 317 383
#     4  11  25  43  65  96 137 166 215 260 331 377
#     4  10  20  42  66  88 132 164 224 260 324 364
#
# _framework density 28.362324999999998
#
# number of rings (size 3 to 8) (size 9 to 14) (size 15 to 20)
#    1.200    0.400    4.000    1.200    2.800    3.200 
#    3.600    4.000    0.000    0.000    0.000    0.000 
#    0.000    0.000    0.000    0.000    0.000    0.000 
#
# Total GULP energy -111921.013828 kJ/mol
# GULP energy per Si atom -5596.050691 kJ/mol
# Density = 2.829777 g / cm^3
# Si number density = 28.362325 Si / 1000 Ang^3
#
#
#
# Elastic Constant Matrix: (Units=GPa)
#
#
# Indices 1 2 3 4 5 6 
#
# 1 119.1103 22.2762 8.4953 0.0000 8.1669 0.0000
# 2 22.2762 94.7390 15.1156 0.0000 2.2268 0.0000
# 3 8.4953 15.1156 133.1786 0.0000 1.6139 0.0000
# 4 0.0000 0.0000 0.0000 54.4686 0.0000 -6.1154
# 5 8.1669 2.2268 1.6139 0.0000 36.1123 0.0000
# 6 0.0000 0.0000 0.0000 -6.1154 0.0000 38.4816
#
#
#
# Elastic Compliance Matrix: (Units=1/GPa)
#
#
# Indices 1 2 3 4 5 6 
#
# 1 0.008922 -0.002003 -0.000319 0.000000 -0.001880 0.000000
# 2 -0.002003 0.011213 -0.001143 0.000000 -0.000187 0.000000
# 3 -0.000319 -0.001143 0.007661 0.000000 -0.000200 0.000000
# 4 0.000000 0.000000 0.000000 0.018693 0.000000 0.002971
# 5 -0.001880 -0.000187 -0.000200 0.000000 0.028137 0.000000
# 6 0.000000 0.000000 0.000000 0.002971 0.000000 0.026459
#
#
# Mechanical properties :
#
#
# Convention : Reuss Voigt Hill
#
# Bulk Modulus (GPa) = 47.92219 48.75578 48.33899
# Shear Modulus (GPa) = 43.49015 45.88856 44.68935
#
# Velocity S-wave (km/s) = 3.92008 4.02673 3.97376
# Velocity P-wave (km/s) = 6.11740 6.23274 6.17534
#
# Compressibility (1/GPa) = 0.02086716
#
# Stress axis : x y z
#
# Youngs Moduli (GPa) = 112.08528 89.18280 130.52829
#
# Poissons Ratio (x) = 0.17861 0.04164
# Poissons Ratio (y) = 0.22447 0.14915
# Poissons Ratio (z) = 0.03576 0.10190
#
# Static dielectric constant tensor:
#      x y z
#    x 2.233110 0.000000 -0.034840 
#    y 0.000000 2.349360 0.000000 
#    z -0.034840 0.000000 2.150700 
# 
# From -- ./inp_files/7951.got.cif
#   From: 2010.05.17/outbox.cif.g08.bks.cpg/sg14_4_cif.got.tgz:7951.got - 2010.06.03 17:49:19.
