data_PCOD9242748
_publ_section_title
;
Structure prediction by ZEFSAII (Michael W. Deem and Ramdas Pophale) SiO2 
 PCOD9242748
Probable space group: P 21/C
;
_chemical_formula_sum "Si O2"
_cell_formula_units_Z 28
_cell_length_a 8.738329
_cell_length_b 7.516891
_cell_length_c 18.655593
_cell_angle_alpha 90.000000
_cell_angle_beta 81.198863
_cell_angle_gamma 90.000000
_cell_volume 1210.965279
_symmetry_space_group_name_H-M "P 21/C"
_symmetry_group_IT_number 14
_symmetry_cell_setting 'monoclinic'
loop_
_space_group_symop_operation_xyz
x,y,z
-x,1/2+y,1/2-z
-x,-y,-z
x,1/2-y,1/2+z
loop_
_atom_site_type_symbol
_atom_site_label
_atom_site_fract_x
_atom_site_fract_y
_atom_site_fract_z
Si Si1 0.598390 0.186696 0.230386
Si Si2 0.268284 0.852203 0.542882
Si Si3 0.043403 0.183247 0.360382
Si Si4 0.637375 0.670970 0.650459
Si Si5 0.502645 0.622266 0.908764
Si Si6 0.367437 0.481745 0.585910
Si Si7 0.147485 0.941531 0.222580
O O1 0.455078 0.184338 0.295719
O O2 0.657726 0.995027 0.202822
O O3 0.541218 0.295514 0.164620
O O4 0.736673 0.289869 0.258180
O O5 0.342753 0.912969 0.462663
O O6 0.285644 0.636674 0.546436
O O7 0.090976 0.884823 0.577111
O O8 0.379261 0.957943 0.591438
O O9 0.201240 0.249037 0.385767
O O10 0.977526 0.350124 0.319585
O O11 0.081871 0.040753 0.295912
O O12 0.522840 0.582248 0.601401
O O13 0.585361 0.788281 0.944504
O O14 0.256447 0.443412 0.662202
#
# Coordination Sequence:
#
# PCOD9242748 Si02
#       7
#     4   4   4   4   4   4   4
#     4  10  21  36  61  83 114 151 198 234 287 354
#     4  10  23  38  60  83 115 156 194 238 288 339
#     4  11  22  36  56  85 125 142 188 241 303 348
#     4  10  20  35  58  89 111 149 186 244 298 346
#     4  10  21  39  62  82 110 156 204 233 275 354
#     4   9  20  38  61  83 110 151 199 237 285 346
#     4  10  22  34  55  89 113 151 180 243 306 339
#
# _framework density 23.122050000000002
#
# number of rings (size 3 to 8) (size 9 to 14) (size 15 to 20)
#    0.000    2.000    0.000    3.857   12.000    0.000 
#    0.000    3.571    0.000    0.000    0.000    0.000 
#    0.000    0.000    0.000    0.000    0.000    0.000 
#
# Total GULP energy -156455.713802 kJ/mol
# GULP energy per Si atom -5587.704064 kJ/mol
# Density = 2.306942 g / cm^3
# Si number density = 23.122050 Si / 1000 Ang^3
#
#
#
# Elastic Constant Matrix: (Units=GPa)
#
#
# Indices 1 2 3 4 5 6 
#
# 1 93.7192 18.5297 28.5105 0.0000 -35.9548 0.0000
# 2 18.5297 95.6796 12.4213 0.0000 -19.4054 0.0000
# 3 28.5105 12.4213 45.2020 0.0000 -29.4488 0.0000
# 4 0.0000 0.0000 0.0000 23.3115 0.0000 -5.6116
# 5 -35.9548 -19.4054 -29.4488 0.0000 44.4281 0.0000
# 6 0.0000 0.0000 0.0000 -5.6116 0.0000 22.9975
#
#
#
# Elastic Compliance Matrix: (Units=1/GPa)
#
#
# Indices 1 2 3 4 5 6 
#
# 1 0.015705 -0.000523 -0.002870 0.000000 0.010579 0.000000
# 2 -0.000523 0.011486 0.000293 0.000000 0.004787 0.000000
# 3 -0.002870 0.000293 0.039465 0.000000 0.023965 0.000000
# 4 0.000000 0.000000 0.000000 0.045574 0.000000 0.011121
# 5 0.010579 0.004787 0.023965 0.000000 0.049046 0.000000
# 6 0.000000 0.000000 0.000000 0.011121 0.000000 0.046196
#
#
# Mechanical properties :
#
#
# Convention : Reuss Voigt Hill
#
# Bulk Modulus (GPa) = 16.54105 39.28041 27.91073
# Shear Modulus (GPa) = 21.38344 29.82337 25.60340
#
# Velocity S-wave (km/s) = 3.04436 3.59531 3.33125
# Velocity P-wave (km/s) = 4.41892 5.85322 5.18590
#
# Compressibility (1/GPa) = 0.06045567
#
# Stress axis : x y z
#
# Youngs Moduli (GPa) = 63.67257 87.06370 25.33866
#
# Poissons Ratio (x) = 0.04556 0.07272
# Poissons Ratio (y) = 0.03332 -0.00742
# Poissons Ratio (z) = 0.18273 -0.02549
#
# Static dielectric constant tensor:
#      x y z
#    x 1.866490 0.000000 0.018210 
#    y 0.000000 1.893050 0.000000 
#    z 0.018210 0.000000 1.941260 
# 
# From -- ./inp_files/64513.got.cif
#   From: 2010.05.17/outbox.cif.g08.bks.cpg/sg14_33_cif.got.tgz:64513.got - 2010.06.03 17:49:19.
