data_PCOD9242015
_publ_section_title
;
Structure prediction by ZEFSAII (Michael W. Deem and Ramdas Pophale) SiO2 
 PCOD9242015
Probable space group: P 21/C
;
_chemical_formula_sum "Si O2"
_cell_formula_units_Z 32
_cell_length_a 13.816963
_cell_length_b 7.626529
_cell_length_c 22.425258
_cell_angle_alpha 90.000000
_cell_angle_beta 38.512114
_cell_angle_gamma 90.000000
_cell_volume 1471.437933
_symmetry_space_group_name_H-M "P 21/C"
_symmetry_group_IT_number 14
_symmetry_cell_setting 'monoclinic'
loop_
_space_group_symop_operation_xyz
x,y,z
-x,1/2+y,1/2-z
-x,-y,-z
x,1/2-y,1/2+z
loop_
_atom_site_type_symbol
_atom_site_label
_atom_site_fract_x
_atom_site_fract_y
_atom_site_fract_z
Si Si1 0.338494 0.695689 0.782706
Si Si2 0.595626 0.132045 0.880368
Si Si3 0.313234 0.340713 0.864936
Si Si4 0.937840 0.813563 0.208161
Si Si5 0.873900 0.540542 0.611270
Si Si6 0.832229 0.543339 0.334712
Si Si7 0.316521 0.528119 0.098394
Si Si8 0.254667 0.303563 0.028158
O O1 0.350938 0.600089 0.712754
O O2 0.301207 0.540352 0.847266
O O3 0.505711 0.785184 0.715876
O O4 0.219863 0.858357 0.835165
O O5 0.690981 0.293150 0.862352
O O6 0.655418 0.982364 0.896583
O O7 0.419793 0.200419 0.957697
O O8 0.236797 0.196683 0.858847
O O9 0.233009 0.321353 0.968596
O O10 0.919016 0.610125 0.233519
O O11 0.779146 0.894904 0.313646
O O12 0.946569 0.884006 0.137219
O O13 0.082576 0.880677 0.176695
O O14 0.000000 0.500000 0.500000
O O15 0.852900 0.684298 0.378282
O O16 0.259170 0.491049 0.058935
O O17 0.500000 0.500000 0.000000
#
# Coordination Sequence:
#
# PCOD9242015 Si02
#       8
#     4   4   4   4   4   4   4   4
#     4  11  23  43  73  98 136 182 228 288 332 408
#     4  10  19  38  65  93 125 167 216 271 329 390
#     4  11  23  45  68 105 133 180 235 276 342 405
#     4  11  23  40  62  90 131 172 212 271 333 393
#     4  12  26  46  69 101 142 182 229 284 343 405
#     4  11  22  40  62  93 129 174 216 266 336 401
#     4   9  18  36  61  88 119 158 205 264 327 378
#     4   9  21  38  61  96 131 161 214 275 320 395
#
# _framework density 21.747433999999998
#
# number of rings (size 3 to 8) (size 9 to 14) (size 15 to 20)
#    0.000    1.500    2.500    2.625    0.000    0.500 
#    9.000    0.000    0.000    0.000    0.000    0.000 
#    0.000    0.000    0.000    0.000    0.000    0.000 
#
# Total GULP energy -178308.511622 kJ/mol
# GULP energy per Si atom -5572.140988 kJ/mol
# Density = 2.169794 g / cm^3
# Si number density = 21.747434 Si / 1000 Ang^3
#
#
#
# Elastic Constant Matrix: (Units=GPa)
#
#
# Indices 1 2 3 4 5 6 
#
# 1 103.6893 16.7322 31.2339 0.0000 22.1061 0.0000
# 2 16.7322 35.8609 -11.9094 0.0000 21.5602 0.0000
# 3 31.2339 -11.9094 74.6452 0.0000 18.6500 0.0000
# 4 0.0000 0.0000 0.0000 27.7748 0.0000 7.4133
# 5 22.1061 21.5602 18.6500 0.0000 36.9686 0.0000
# 6 0.0000 0.0000 0.0000 7.4133 0.0000 34.4844
#
#
#
# Elastic Compliance Matrix: (Units=1/GPa)
#
#
# Indices 1 2 3 4 5 6 
#
# 1 0.013054 -0.009244 -0.007247 0.000000 0.001241 0.000000
# 2 -0.009244 0.071785 0.027919 0.000000 -0.050422 0.000000
# 3 -0.007247 0.027919 0.027311 0.000000 -0.025727 0.000000
# 4 0.000000 0.000000 0.000000 0.038195 0.000000 -0.008211
# 5 0.001241 -0.050422 -0.025727 0.000000 0.068693 0.000000
# 6 0.000000 0.000000 0.000000 -0.008211 0.000000 0.030764
#
#
# Mechanical properties :
#
#
# Convention : Reuss Voigt Hill
#
# Bulk Modulus (GPa) = 7.40705 31.81209 19.60957
# Shear Modulus (GPa) = 18.38572 31.72147 25.05359
#
# Velocity S-wave (km/s) = 2.91077 3.82335 3.39783
# Velocity P-wave (km/s) = 3.83537 5.84383 4.94269
#
# Compressibility (1/GPa) = 0.13500653
#
# Stress axis : x y z
#
# Youngs Moduli (GPa) = 76.60282 13.93044 36.61469
#
# Poissons Ratio (x) = 0.12877 0.26536
# Poissons Ratio (y) = 0.70812 -1.02225
# Poissons Ratio (z) = 0.55516 -0.38892
#
# Static dielectric constant tensor:
#      x y z
#    x 1.800210 0.000000 -0.025580 
#    y 0.000000 1.978860 0.000000 
#    z -0.025580 0.000000 1.877600 
# 
# From -- ./inp_files/68201.got.cif
#   From: 2010.05.17/outbox.cif.g08.bks.cpg/sg14_35_cif.got.tgz:68201.got - 2010.06.03 17:49:19.
