data_PCOD9242149
_publ_section_title
;
Structure prediction by ZEFSAII (Michael W. Deem and Ramdas Pophale) SiO2 
 PCOD9242149
Probable space group: P 21/C
;
_chemical_formula_sum "Si O2"
_cell_formula_units_Z 28
_cell_length_a 9.186513
_cell_length_b 8.954674
_cell_length_c 28.512061
_cell_angle_alpha 90.000000
_cell_angle_beta 38.956513
_cell_angle_gamma 90.000000
_cell_volume 1474.665497
_symmetry_space_group_name_H-M "P 21/C"
_symmetry_group_IT_number 14
_symmetry_cell_setting 'monoclinic'
loop_
_space_group_symop_operation_xyz
x,y,z
-x,1/2+y,1/2-z
-x,-y,-z
x,1/2-y,1/2+z
loop_
_atom_site_type_symbol
_atom_site_label
_atom_site_fract_x
_atom_site_fract_y
_atom_site_fract_z
Si Si1 0.562974 0.913856 0.839252
Si Si2 0.143306 0.108356 0.908124
Si Si3 0.216864 0.126243 0.040648
Si Si4 0.961698 0.549970 0.930232
Si Si5 0.210234 0.830292 0.456146
Si Si6 0.120721 0.205218 0.321301
Si Si7 0.262765 0.574565 0.619855
O O1 0.423615 0.782663 0.900984
O O2 0.683134 0.840527 0.764288
O O3 0.370868 0.034402 0.871963
O O4 0.743487 0.996423 0.828078
O O5 0.195771 0.184592 0.844798
O O6 0.956173 0.977161 0.946266
O O7 0.016036 0.232659 0.971934
O O8 0.130252 0.293843 0.064830
O O9 0.221319 0.049307 0.090242
O O10 0.472504 0.124355 0.954863
O O11 0.160659 0.592841 0.918510
O O12 0.038270 0.442778 0.869238
O O13 0.776085 0.457244 0.007735
O O14 0.914684 0.291585 0.345760
#
# Coordination Sequence:
#
# PCOD9242149 Si02
#       7
#     4   4   4   4   4   4   4
#     4  12  22  39  68  87 124 164 205 252 308 368
#     4  10  20  40  68  92 116 160 215 254 301 370
#     4  10  19  39  68  88 117 162 208 255 302 356
#     4  10  21  38  61  93 123 148 201 267 300 348
#     4  10  20  37  64  97 115 149 211 262 300 348
#     4  10  26  41  56  92 131 160 200 248 318 374
#     4  10  23  41  60  88 123 168 205 240 304 387
#
# _framework density 18.987358
#
# number of rings (size 3 to 8) (size 9 to 14) (size 15 to 20)
#    0.000    1.714    2.857    1.286    4.000    1.714 
#    2.571    1.429    0.000    0.000    0.000    0.000 
#    0.000    0.000    0.000    0.000    0.000    0.000 
#
# Total GULP energy -156361.443322 kJ/mol
# GULP energy per Si atom -5584.337262 kJ/mol
# Density = 1.894414 g / cm^3
# Si number density = 18.987358 Si / 1000 Ang^3
#
#
#
# Elastic Constant Matrix: (Units=GPa)
#
#
# Indices 1 2 3 4 5 6 
#
# 1 65.2048 21.3464 19.0922 0.0000 0.2475 0.0000
# 2 21.3464 107.1903 27.2811 0.0000 -9.2272 0.0000
# 3 19.0922 27.2811 71.3742 0.0000 6.0962 0.0000
# 4 0.0000 0.0000 0.0000 24.7454 0.0000 3.7812
# 5 0.2475 -9.2272 6.0962 0.0000 11.3635 0.0000
# 6 0.0000 0.0000 0.0000 3.7812 0.0000 24.2264
#
#
#
# Elastic Compliance Matrix: (Units=1/GPa)
#
#
# Indices 1 2 3 4 5 6 
#
# 1 0.017227 -0.002565 -0.003582 0.000000 -0.000537 0.000000
# 2 -0.002565 0.012224 -0.005071 0.000000 0.012702 0.000000
# 3 -0.003582 -0.005071 0.018081 0.000000 -0.013740 0.000000
# 4 0.000000 0.000000 0.000000 0.041399 0.000000 -0.006461
# 5 -0.000537 0.012702 -0.013740 0.000000 0.105698 0.000000
# 6 0.000000 0.000000 0.000000 -0.006461 0.000000 0.042286
#
#
# Mechanical properties :
#
#
# Convention : Reuss Voigt Hill
#
# Bulk Modulus (GPa) = 39.84802 42.13432 40.99117
# Shear Modulus (GPa) = 18.67654 23.80370 21.24012
#
# Velocity S-wave (km/s) = 3.13969 3.54455 3.34824
# Velocity P-wave (km/s) = 5.84600 6.24425 6.04840
#
# Compressibility (1/GPa) = 0.02509535
#
# Stress axis : x y z
#
# Youngs Moduli (GPa) = 58.04884 81.80502 55.30784
#
# Poissons Ratio (x) = 0.20985 0.19810
# Poissons Ratio (y) = 0.14891 0.28048
# Poissons Ratio (z) = 0.20792 0.41485
#
# Static dielectric constant tensor:
#      x y z
#    x 1.671670 0.000000 0.019370 
#    y 0.000000 1.653850 0.000000 
#    z 0.019370 0.000000 1.640770 
# 
# From -- ./inp_files/76459.got.cif
#   From: 2010.05.17/outbox.cif.g08.bks.cpg/sg14_39_cif.got.tgz:76459.got - 2010.06.03 17:49:19.
