data_PCOD9242350
_publ_section_title
;
Structure prediction by ZEFSAII (Michael W. Deem and Ramdas Pophale) SiO2 
 PCOD9242350
Probable space group: P 21/C
;
_chemical_formula_sum "Si O2"
_cell_formula_units_Z 32
_cell_length_a 5.510874
_cell_length_b 20.422191
_cell_length_c 12.794782
_cell_angle_alpha 90.000000
_cell_angle_beta 108.924237
_cell_angle_gamma 90.000000
_cell_volume 1362.144198
_symmetry_space_group_name_H-M "P 21/C"
_symmetry_group_IT_number 14
_symmetry_cell_setting 'monoclinic'
loop_
_space_group_symop_operation_xyz
x,y,z
-x,1/2+y,1/2-z
-x,-y,-z
x,1/2-y,1/2+z
loop_
_atom_site_type_symbol
_atom_site_label
_atom_site_fract_x
_atom_site_fract_y
_atom_site_fract_z
Si Si1 0.531487 0.428038 0.557374
Si Si2 0.249961 0.367152 0.109686
Si Si3 0.319009 0.310226 0.909926
Si Si4 0.161177 0.916531 0.282659
Si Si5 0.063043 0.806718 0.110268
Si Si6 0.668523 0.296157 0.539557
Si Si7 0.460274 0.236143 0.227117
Si Si8 0.080857 0.464622 0.623320
O O1 0.500000 0.500000 0.500000
O O2 0.496173 0.360983 0.486576
O O3 0.334597 0.427683 0.623787
O O4 0.831321 0.425887 0.624925
O O5 0.537676 0.397576 0.162426
O O6 0.266445 0.291602 0.154911
O O7 0.023705 0.403285 0.142873
O O8 0.214706 0.361991 0.978895
O O9 0.361089 0.319074 0.793081
O O10 0.129743 0.248716 0.884764
O O11 0.575701 0.277407 0.996027
O O12 0.041999 0.871256 0.174306
O O13 0.144672 0.986940 0.226891
O O14 0.346074 0.780239 0.177510
O O15 0.071684 0.811374 0.986403
O O16 0.631254 0.292734 0.657939
O O17 0.000000 0.500000 0.500000
#
# Coordination Sequence:
#
# PCOD9242350 Si02
#       8
#     4   4   4   4   4   4   4   4
#     4  10  21  35  53  82 113 145 185 229 276 342
#     4  10  22  35  55  82 113 151 191 226 280 343
#     4  10  21  34  55  80 115 153 192 230 272 347
#     4  11  21  37  56  82 115 153 182 232 287 336
#     4  10  20  31  55  77 116 149 188 224 280 337
#     4  10  22  34  54  79 120 154 184 231 293 331
#     4   9  20  36  48  82 112 153 188 231 274 345
#     4  10  21  34  55  78 113 138 187 225 275 336
#
# _framework density 23.492373000000001
#
# number of rings (size 3 to 8) (size 9 to 14) (size 15 to 20)
#    0.000    2.000    1.250    2.250   12.250    0.000 
#    0.000    0.000    0.000    0.000    0.000    5.250 
#    0.000    0.000    0.000    0.000    0.000    0.000 
#
# Total GULP energy -178304.313402 kJ/mol
# GULP energy per Si atom -5572.009794 kJ/mol
# Density = 2.343890 g / cm^3
# Si number density = 23.492373 Si / 1000 Ang^3
#
#
#
# Elastic Constant Matrix: (Units=GPa)
#
#
# Indices 1 2 3 4 5 6 
#
# 1 134.1708 2.2739 25.6802 0.0000 -30.7389 0.0000
# 2 2.2739 35.2533 -1.2942 0.0000 -2.6325 0.0000
# 3 25.6802 -1.2942 66.7202 0.0000 -41.9082 0.0000
# 4 0.0000 0.0000 0.0000 27.3882 0.0000 -4.8569
# 5 -30.7389 -2.6325 -41.9082 0.0000 46.4227 0.0000
# 6 0.0000 0.0000 0.0000 -4.8569 0.0000 28.6346
#
#
#
# Elastic Compliance Matrix: (Units=1/GPa)
#
#
# Indices 1 2 3 4 5 6 
#
# 1 0.008798 -0.000068 0.000622 0.000000 0.006383 0.000000
# 2 -0.000068 0.028871 0.003664 0.000000 0.004900 0.000000
# 3 0.000622 0.003664 0.035127 0.000000 0.032330 0.000000
# 4 0.000000 0.000000 0.000000 0.037644 0.000000 0.006385
# 5 0.006383 0.004900 0.032330 0.000000 0.055232 0.000000
# 6 0.000000 0.000000 0.000000 0.006385 0.000000 0.036006
#
#
# Mechanical properties :
#
#
# Convention : Reuss Voigt Hill
#
# Bulk Modulus (GPa) = 12.31072 32.16270 22.23671
# Shear Modulus (GPa) = 22.69430 34.45472 28.57451
#
# Velocity S-wave (km/s) = 3.11147 3.83382 3.49138
# Velocity P-wave (km/s) = 4.26146 5.77217 5.07336
#
# Compressibility (1/GPa) = 0.08123001
#
# Stress axis : x y z
#
# Youngs Moduli (GPa) = 113.66663 34.63698 28.46808
#
# Poissons Ratio (x) = 0.00236 -0.01770
# Poissons Ratio (y) = 0.00773 -0.10430
# Poissons Ratio (z) = -0.07065 -0.12690
#
# Static dielectric constant tensor:
#      x y z
#    x 1.988590 0.000000 0.017410 
#    y 0.000000 1.831480 0.000000 
#    z 0.017410 0.000000 1.999960 
# 
# From -- ./inp_files/22139.got.cif
#   From: 2010.05.17/outbox.cif.g08.bks.cpg/sg14_12_cif.got.tgz:22139.got - 2010.06.03 17:49:19.
