data_PCOD9242746
_publ_section_title
;
Structure prediction by ZEFSAII (Michael W. Deem and Ramdas Pophale) SiO2 
 PCOD9242746
Probable space group: P 21/C
;
_chemical_formula_sum "Si O2"
_cell_formula_units_Z 32
_cell_length_a 27.358582
_cell_length_b 12.057766
_cell_length_c 8.320617
_cell_angle_alpha 90.000000
_cell_angle_beta 38.000973
_cell_angle_gamma 90.000000
_cell_volume 1689.924825
_symmetry_space_group_name_H-M "P 21/C"
_symmetry_group_IT_number 14
_symmetry_cell_setting 'monoclinic'
loop_
_space_group_symop_operation_xyz
x,y,z
-x,1/2+y,1/2-z
-x,-y,-z
x,1/2-y,1/2+z
loop_
_atom_site_type_symbol
_atom_site_label
_atom_site_fract_x
_atom_site_fract_y
_atom_site_fract_z
Si Si1 0.086760 0.909826 0.918486
Si Si2 0.465930 0.594536 0.465996
Si Si3 0.944694 0.507105 0.989776
Si Si4 0.936916 0.295729 0.856173
Si Si5 0.625392 0.602237 0.439645
Si Si6 0.115098 0.220210 0.467426
Si Si7 0.462459 0.287440 0.032693
Si Si8 0.807780 0.613593 0.930855
O O1 0.068543 0.837191 0.809755
O O2 0.155995 0.994951 0.704573
O O3 0.104952 0.821364 0.010091
O O4 0.006763 0.971678 0.182394
O O5 0.500000 0.500000 0.500000
O O6 0.394427 0.521557 0.574380
O O7 0.467943 0.708500 0.568468
O O8 0.512496 0.637044 0.184784
O O9 0.902863 0.392883 0.056205
O O10 0.000000 0.500000 0.000000
O O11 0.888620 0.613366 0.140170
O O12 0.028437 0.275668 0.673858
O O13 0.599162 0.695255 0.376243
O O14 0.719124 0.609926 0.223809
O O15 0.576010 0.637281 0.727118
O O16 0.133689 0.169368 0.591309
O O17 0.181907 0.307679 0.249322
#
# Coordination Sequence:
#
# PCOD9242746 Si02
#       8
#     4   4   4   4   4   4   4   4
#     4  11  23  38  57  79 112 146 192 257 289 360
#     4   9  18  34  62  94 120 153 197 237 278 328
#     4  11  20  35  57  82 103 139 201 248 303 336
#     4  11  20  37  57  77 104 146 202 249 296 331
#     4  10  20  35  58  88 122 159 184 238 292 359
#     4  11  22  34  58  80 111 148 191 252 295 355
#     4   9  18  36  61  91 121 151 201 239 273 330
#     4  12  23  39  54  86 124 151 190 235 320 361
#
# _framework density 18.935755
#
# number of rings (size 3 to 8) (size 9 to 14) (size 15 to 20)
#    0.000    1.500    2.500    5.250    0.000    0.000 
#    0.000    1.250    0.000    0.000    0.000    0.000 
#    0.000    0.000    0.000    0.000    0.000    0.000 
#
# Total GULP energy -178275.999440 kJ/mol
# GULP energy per Si atom -5571.124983 kJ/mol
# Density = 1.889266 g / cm^3
# Si number density = 18.935755 Si / 1000 Ang^3
#
#
#
# Elastic Constant Matrix: (Units=GPa)
#
#
# Indices 1 2 3 4 5 6 
#
# 1 60.6461 24.7494 26.3496 0.0000 16.3725 0.0000
# 2 24.7494 115.5054 38.9832 0.0000 4.1674 0.0000
# 3 26.3496 38.9832 46.4060 0.0000 5.7603 0.0000
# 4 0.0000 0.0000 0.0000 31.2300 0.0000 14.1437
# 5 16.3725 4.1674 5.7603 0.0000 27.4694 0.0000
# 6 0.0000 0.0000 0.0000 14.1437 0.0000 31.9755
#
#
#
# Elastic Compliance Matrix: (Units=1/GPa)
#
#
# Indices 1 2 3 4 5 6 
#
# 1 0.025534 -0.000908 -0.012180 0.000000 -0.012527 0.000000
# 2 -0.000908 0.012118 -0.009757 0.000000 0.000749 0.000000
# 3 -0.012180 -0.009757 0.036527 0.000000 0.001080 0.000000
# 4 0.000000 0.000000 0.000000 0.040042 0.000000 -0.017712
# 5 -0.012527 0.000749 0.001080 0.000000 0.043530 0.000000
# 6 0.000000 0.000000 0.000000 -0.017712 0.000000 0.039108
#
#
# Mechanical properties :
#
#
# Convention : Reuss Voigt Hill
#
# Bulk Modulus (GPa) = 35.10258 44.74687 39.92473
# Shear Modulus (GPa) = 19.83758 26.96666 23.40212
#
# Velocity S-wave (km/s) = 3.24022 3.77784 3.51931
# Velocity P-wave (km/s) = 5.70759 6.53541 6.13548
#
# Compressibility (1/GPa) = 0.02848794
#
# Stress axis : x y z
#
# Youngs Moduli (GPa) = 39.16397 82.52018 27.37682
#
# Poissons Ratio (x) = 0.07496 0.33345
# Poissons Ratio (y) = 0.03557 0.26712
# Poissons Ratio (z) = 0.47702 0.80516
#
# Static dielectric constant tensor:
#      x y z
#    x 1.733720 0.000000 0.082920 
#    y 0.000000 1.735500 0.000000 
#    z 0.082920 0.000000 1.697180 
# 
# From -- ./inp_files/19991.got.cif
#   From: 2010.05.17/outbox.cif.g08.bks.cpg/sg14_10_cif.got.tgz:19991.got - 2010.06.03 17:49:19.
