data_PCOD9242437
_publ_section_title
;
Structure prediction by ZEFSAII (Michael W. Deem and Ramdas Pophale) SiO2 
 PCOD9242437
Probable space group: P 21/C
;
_chemical_formula_sum "Si O2"
_cell_formula_units_Z 32
_cell_length_a 7.678463
_cell_length_b 20.237871
_cell_length_c 14.439947
_cell_angle_alpha 90.000000
_cell_angle_beta 41.028617
_cell_angle_gamma 90.000000
_cell_volume 1472.980642
_symmetry_space_group_name_H-M "P 21/C"
_symmetry_group_IT_number 14
_symmetry_cell_setting 'monoclinic'
loop_
_space_group_symop_operation_xyz
x,y,z
-x,1/2+y,1/2-z
-x,-y,-z
x,1/2-y,1/2+z
loop_
_atom_site_type_symbol
_atom_site_label
_atom_site_fract_x
_atom_site_fract_y
_atom_site_fract_z
Si Si1 0.879261 0.540835 0.131230
Si Si2 0.556649 0.644461 0.154752
Si Si3 0.339634 0.728290 0.920560
Si Si4 0.317462 0.319156 0.611661
Si Si5 0.217117 0.876809 0.624379
Si Si6 0.918354 0.363002 0.506323
Si Si7 0.563574 0.797202 0.141146
Si Si8 0.563552 0.458718 0.565978
O O1 0.783861 0.607222 0.118447
O O2 0.609933 0.509482 0.282169
O O3 0.080707 0.558571 0.134060
O O4 0.000000 0.500000 0.000000
O O5 0.464830 0.614590 0.093369
O O6 0.294239 0.637494 0.324419
O O7 0.645552 0.719952 0.108299
O O8 0.619119 0.760858 0.841975
O O9 0.149890 0.791749 0.012905
O O10 0.349166 0.704537 0.810148
O O11 0.289682 0.668540 0.008590
O O12 0.474549 0.308615 0.452778
O O13 0.427206 0.387420 0.607355
O O14 0.005123 0.334040 0.729914
O O15 0.855483 0.431544 0.476868
O O16 0.216443 0.351478 0.419714
O O17 0.500000 0.500000 0.500000
#
# Coordination Sequence:
#
# PCOD9242437 Si02
#       8
#     4   4   4   4   4   4   4   4
#     4  10  23  41  60  81 112 154 200 241 289 345
#     4  10  20  36  61  85 114 157 188 226 299 355
#     4  10  20  33  52  89 117 144 188 233 280 354
#     4  10  20  35  58  83 114 152 187 228 296 354
#     4  11  20  38  59  82 121 154 186 238 292 347
#     4   9  18  35  57  78 118 152 181 235 289 344
#     4  11  19  34  57  89 115 145 189 229 290 352
#     4   9  20  40  60  79 108 151 198 240 291 338
#
# _framework density 21.724657000000001
#
# number of rings (size 3 to 8) (size 9 to 14) (size 15 to 20)
#    0.000    2.000    2.500    3.750    0.000    1.500 
#    2.250    1.875    0.000    0.000    0.000    0.000 
#    0.000    0.000    0.000    0.000    0.000    0.000 
#
# Total GULP energy -178179.890062 kJ/mol
# GULP energy per Si atom -5568.121564 kJ/mol
# Density = 2.167521 g / cm^3
# Si number density = 21.724657 Si / 1000 Ang^3
#
#
#
# Elastic Constant Matrix: (Units=GPa)
#
#
# Indices 1 2 3 4 5 6 
#
# 1 83.5562 8.1866 14.3384 0.0000 20.3663 0.0000
# 2 8.1866 21.2898 12.4003 0.0000 2.3699 0.0000
# 3 14.3384 12.4003 63.8574 0.0000 24.5107 0.0000
# 4 0.0000 0.0000 0.0000 24.2339 0.0000 15.3862
# 5 20.3663 2.3699 24.5107 0.0000 32.7561 0.0000
# 6 0.0000 0.0000 0.0000 15.3862 0.0000 26.4724
#
#
#
# Elastic Compliance Matrix: (Units=1/GPa)
#
#
# Indices 1 2 3 4 5 6 
#
# 1 0.014641 -0.005439 0.001560 0.000000 -0.009877 0.000000
# 2 -0.005439 0.055677 -0.013107 0.000000 0.009161 0.000000
# 3 0.001560 -0.013107 0.025061 0.000000 -0.018774 0.000000
# 4 0.000000 0.000000 0.000000 0.065397 0.000000 -0.038010
# 5 -0.009877 0.009161 -0.018774 0.000000 0.050055 0.000000
# 6 0.000000 0.000000 0.000000 -0.038010 0.000000 0.059867
#
#
# Mechanical properties :
#
#
# Convention : Reuss Voigt Hill
#
# Bulk Modulus (GPa) = 16.28491 26.50598 21.39545
# Shear Modulus (GPa) = 15.37806 25.61100 20.49453
#
# Velocity S-wave (km/s) = 2.66345 3.43722 3.07478
# Velocity P-wave (km/s) = 4.11958 5.28962 4.74083
#
# Compressibility (1/GPa) = 0.06140653
#
# Stress axis : x y z
#
# Youngs Moduli (GPa) = 68.30337 17.96085 39.90257
#
# Poissons Ratio (x) = 0.09769 -0.06224
# Poissons Ratio (y) = 0.37149 0.52299
# Poissons Ratio (z) = -0.10654 0.23541
#
# Static dielectric constant tensor:
#      x y z
#    x 1.778890 0.000000 -0.016410 
#    y 0.000000 1.837360 0.000000 
#    z -0.016410 0.000000 1.853670 
# 
# From -- ./inp_files/42044.got.cif
#   From: 2010.05.17/outbox.cif.g08.bks.cpg/sg14_22_cif.got.tgz:42044.got - 2010.06.03 17:49:19.
