data_PCOD9242729
_publ_section_title
;
Structure prediction by ZEFSAII (Michael W. Deem and Ramdas Pophale) SiO2 
 PCOD9242729
Probable space group: P 21/C
;
_chemical_formula_sum "Si O2"
_cell_formula_units_Z 32
_cell_length_a 6.880882
_cell_length_b 27.082117
_cell_length_c 9.160652
_cell_angle_alpha 90.000000
_cell_angle_beta 100.695609
_cell_angle_gamma 90.000000
_cell_volume 1677.419969
_symmetry_space_group_name_H-M "P 21/C"
_symmetry_group_IT_number 14
_symmetry_cell_setting 'monoclinic'
loop_
_space_group_symop_operation_xyz
x,y,z
-x,1/2+y,1/2-z
-x,-y,-z
x,1/2-y,1/2+z
loop_
_atom_site_type_symbol
_atom_site_label
_atom_site_fract_x
_atom_site_fract_y
_atom_site_fract_z
Si Si1 0.679092 0.115555 0.901287
Si Si2 0.952204 0.188858 0.758770
Si Si3 0.348951 0.627328 0.264825
Si Si4 0.394337 0.199327 0.832031
Si Si5 0.002825 0.608515 0.985771
Si Si6 0.263806 0.960463 0.340878
Si Si7 0.368705 0.429652 0.901824
Si Si8 0.602830 0.238715 0.139548
O O1 0.837574 0.155329 0.861317
O O2 0.468824 0.142664 0.840550
O O3 0.711183 0.066750 0.810481
O O4 0.692390 0.109195 0.076276
O O5 0.988454 0.154312 0.623299
O O6 0.809865 0.233296 0.690372
O O7 0.167369 0.204352 0.843922
O O8 0.163621 0.616837 0.134889
O O9 0.536030 0.600400 0.218005
O O10 0.388712 0.685749 0.281051
O O11 0.439208 0.225310 0.685730
O O12 0.538235 0.226663 0.966586
O O13 0.792367 0.600499 0.029972
O O14 0.073784 0.561414 0.899233
O O15 0.450923 0.943467 0.465057
O O16 0.270036 0.019284 0.334997
#
# Coordination Sequence:
#
# PCOD9242729 Si02
#       8
#     4   4   4   4   4   4   4   4
#     4   9  20  38  54  79 115 143 181 229 276 336
#     4  10  21  37  58  79 107 151 186 225 278 325
#     4  10  22  36  52  79 114 144 176 231 279 321
#     4  10  21  36  57  81 107 147 187 223 277 333
#     4  10  20  36  58  82 108 141 185 228 272 329
#     4   9  19  37  58  80 109 142 181 230 276 328
#     4  10  20  35  58  83 106 142 186 227 277 331
#     4  10  22  37  52  80 114 141 185 231 268 327
#
# _framework density 19.076917000000002
#
# number of rings (size 3 to 8) (size 9 to 14) (size 15 to 20)
#    0.000    2.250    0.000    1.875    0.000   10.500 
#    0.000    0.625    0.000    0.000    0.000    0.000 
#    0.000    0.000    0.000    0.000    0.000    0.000 
#
# Total GULP energy -178647.010224 kJ/mol
# GULP energy per Si atom -5582.719069 kJ/mol
# Density = 1.903350 g / cm^3
# Si number density = 19.076917 Si / 1000 Ang^3
#
#
#
# Elastic Constant Matrix: (Units=GPa)
#
#
# Indices 1 2 3 4 5 6 
#
# 1 77.1212 8.7676 26.2413 0.0000 -15.1612 0.0000
# 2 8.7676 66.8419 39.1501 0.0000 -16.6272 0.0000
# 3 26.2413 39.1501 104.1555 0.0000 -27.2109 0.0000
# 4 0.0000 0.0000 0.0000 26.4823 0.0000 -2.7874
# 5 -15.1612 -16.6272 -27.2109 0.0000 19.7713 0.0000
# 6 0.0000 0.0000 0.0000 -2.7874 0.0000 13.6011
#
#
#
# Elastic Compliance Matrix: (Units=1/GPa)
#
#
# Indices 1 2 3 4 5 6 
#
# 1 0.015507 0.001679 -0.001659 0.000000 0.011020 0.000000
# 2 0.001679 0.020635 -0.005167 0.000000 0.011529 0.000000
# 3 -0.001659 -0.005167 0.016385 0.000000 0.016933 0.000000
# 4 0.000000 0.000000 0.000000 0.038594 0.000000 0.007909
# 5 0.011020 0.011529 0.016933 0.000000 0.092029 0.000000
# 6 0.000000 0.000000 0.000000 0.007909 0.000000 0.075144
#
#
# Mechanical properties :
#
#
# Convention : Reuss Voigt Hill
#
# Bulk Modulus (GPa) = 23.67877 44.04851 33.86364
# Shear Modulus (GPa) = 17.68879 23.56824 20.62852
#
# Velocity S-wave (km/s) = 3.04836 3.51869 3.29193
# Velocity P-wave (km/s) = 4.98289 6.29669 5.67792
#
# Compressibility (1/GPa) = 0.04223193
#
# Stress axis : x y z
#
# Youngs Moduli (GPa) = 64.48897 48.46145 61.03166
#
# Poissons Ratio (x) = -0.08136 0.10125
# Poissons Ratio (y) = -0.10827 0.31536
# Poissons Ratio (z) = 0.10698 0.25041
#
# Static dielectric constant tensor:
#      x y z
#    x 1.657830 0.000000 0.002310 
#    y 0.000000 1.663680 0.000000 
#    z 0.002310 0.000000 1.658430 
# 
# From -- ./inp_files/6801.got.cif
#   From: 2010.05.17/outbox.cif.g08.bks.cpg/sg14_4_cif.got.tgz:6801.got - 2010.06.03 17:49:19.
