data_PCOD9242700
_publ_section_title
;
Structure prediction by ZEFSAII (Michael W. Deem and Ramdas Pophale) SiO2 
 PCOD9242700
Probable space group: P 21/C
;
_chemical_formula_sum "Si O2"
_cell_formula_units_Z 28
_cell_length_a 12.756526
_cell_length_b 8.771645
_cell_length_c 16.045375
_cell_angle_alpha 90.000000
_cell_angle_beta 55.543747
_cell_angle_gamma 90.000000
_cell_volume 1480.419394
_symmetry_space_group_name_H-M "P 21/C"
_symmetry_group_IT_number 14
_symmetry_cell_setting 'monoclinic'
loop_
_space_group_symop_operation_xyz
x,y,z
-x,1/2+y,1/2-z
-x,-y,-z
x,1/2-y,1/2+z
loop_
_atom_site_type_symbol
_atom_site_label
_atom_site_fract_x
_atom_site_fract_y
_atom_site_fract_z
Si Si1 0.716393 0.201861 0.661182
Si Si2 0.160292 0.139420 0.770212
Si Si3 0.343481 0.916742 0.484031
Si Si4 0.899985 0.954375 0.619930
Si Si5 0.896285 0.869137 0.388058
Si Si6 0.391281 0.916191 0.652668
Si Si7 0.028239 0.616051 0.415648
O O1 0.629944 0.286304 0.768419
O O2 0.849960 0.290241 0.608293
O O3 0.664292 0.198931 0.590380
O O4 0.763484 0.032002 0.664450
O O5 0.122070 0.276973 0.848904
O O6 0.137954 0.194196 0.686756
O O7 0.299880 0.062031 0.715082
O O8 0.071005 0.991077 0.820663
O O9 0.215336 0.016076 0.537574
O O10 0.465435 0.023884 0.415137
O O11 0.353931 0.860995 0.575578
O O12 0.000000 0.000000 0.500000
O O13 0.971254 0.037726 0.665064
O O14 0.916298 0.727701 0.440394
O O15 0.000000 0.500000 0.500000
#
# Coordination Sequence:
#
# PCOD9242700 Si02
#       7
#     4   4   4   4   4   4   4
#     4  10  21  38  59  86 112 155 192 238 292 344
#     4  10  20  36  57  81 115 149 192 240 283 345
#     4  10  20  40  65  80 119 155 198 237 295 341
#     4  11  20  35  59  84 117 148 189 238 295 352
#     4  10  20  35  57  83 110 156 187 230 297 340
#     4   9  22  41  61  86 113 156 200 242 279 346
#     4  10  21  35  52  85 119 141 188 238 285 351
#
# _framework density 18.913557999999998
#
# number of rings (size 3 to 8) (size 9 to 14) (size 15 to 20)
#    0.000    2.000    1.429    2.571    0.000    2.286 
#    5.143    0.000    0.000    3.429    0.000    0.000 
#    0.000    0.000    0.000    0.000    0.000    0.000 
#
# Total GULP energy -155941.435780 kJ/mol
# GULP energy per Si atom -5569.336992 kJ/mol
# Density = 1.887051 g / cm^3
# Si number density = 18.913558 Si / 1000 Ang^3
#
#
#
# Elastic Constant Matrix: (Units=GPa)
#
#
# Indices 1 2 3 4 5 6 
#
# 1 53.7963 11.1363 27.6808 0.0000 22.0379 0.0000
# 2 11.1363 68.1964 26.8112 0.0000 25.9060 0.0000
# 3 27.6808 26.8112 93.5601 0.0000 26.4017 0.0000
# 4 0.0000 0.0000 0.0000 39.5023 0.0000 9.9188
# 5 22.0379 25.9060 26.4017 0.0000 26.7690 0.0000
# 6 0.0000 0.0000 0.0000 9.9188 0.0000 15.5717
#
#
#
# Elastic Compliance Matrix: (Units=1/GPa)
#
#
# Indices 1 2 3 4 5 6 
#
# 1 0.030611 0.007317 -0.002832 0.000000 -0.029489 0.000000
# 2 0.007317 0.024950 -0.001110 0.000000 -0.029074 0.000000
# 3 -0.002832 -0.001110 0.015080 0.000000 -0.011468 0.000000
# 4 0.000000 0.000000 0.000000 0.030135 0.000000 -0.019195
# 5 -0.029489 -0.029074 -0.011468 0.000000 0.101081 0.000000
# 6 0.000000 0.000000 0.000000 -0.019195 0.000000 0.076446
#
#
# Mechanical properties :
#
#
# Convention : Reuss Voigt Hill
#
# Bulk Modulus (GPa) = 12.92142 38.53437 25.72790
# Shear Modulus (GPa) = 16.81515 26.36356 21.58936
#
# Velocity S-wave (km/s) = 2.98493 3.73754 3.38224
# Velocity P-wave (km/s) = 4.32740 6.24851 5.37449
#
# Compressibility (1/GPa) = 0.07739087
#
# Stress axis : x y z
#
# Youngs Moduli (GPa) = 32.66748 40.08078 66.31139
#
# Poissons Ratio (x) = -0.29326 0.18779
# Poissons Ratio (y) = -0.23902 0.07361
# Poissons Ratio (z) = 0.09251 0.04449
#
# Static dielectric constant tensor:
#      x y z
#    x 1.679530 0.000000 0.017180 
#    y 0.000000 1.741360 0.000000 
#    z 0.017180 0.000000 1.767770 
# 
# From -- ./inp_files/43302.got.cif
#   From: 2010.05.17/outbox.cif.g08.bks.cpg/sg14_22_cif.got.tgz:43302.got - 2010.06.03 17:49:19.
