data_PCOD9242275
_publ_section_title
;
Structure prediction by ZEFSAII (Michael W. Deem and Ramdas Pophale) SiO2 
 PCOD9242275
Probable space group: P 21/C
;
_chemical_formula_sum "Si O2"
_cell_formula_units_Z 32
_cell_length_a 11.715691
_cell_length_b 7.586341
_cell_length_c 13.674057
_cell_angle_alpha 90.000000
_cell_angle_beta 82.990998
_cell_angle_gamma 90.000000
_cell_volume 1206.257373
_symmetry_space_group_name_H-M "P 21/C"
_symmetry_group_IT_number 14
_symmetry_cell_setting 'monoclinic'
loop_
_space_group_symop_operation_xyz
x,y,z
-x,1/2+y,1/2-z
-x,-y,-z
x,1/2-y,1/2+z
loop_
_atom_site_type_symbol
_atom_site_label
_atom_site_fract_x
_atom_site_fract_y
_atom_site_fract_z
Si Si1 0.881061 0.086395 0.137132
Si Si2 0.738875 0.593017 0.811949
Si Si3 0.690056 0.513959 0.526326
Si Si4 0.267898 0.065755 0.474461
Si Si5 0.845562 0.952551 0.715902
Si Si6 0.454462 0.927502 0.146804
Si Si7 0.511981 0.985192 0.644963
Si Si8 0.036299 0.711281 0.707529
O O1 0.957794 0.244012 0.172594
O O2 0.782203 0.048094 0.229085
O O3 0.961352 0.914096 0.142662
O O4 0.804960 0.090201 0.047273
O O5 0.789238 0.777101 0.768434
O O6 0.601629 0.603196 0.837521
O O7 0.781146 0.531934 0.913885
O O8 0.720328 0.721476 0.532995
O O9 0.634236 0.479702 0.427450
O O10 0.579284 0.486354 0.608849
O O11 0.201668 0.007324 0.385480
O O12 0.394942 0.981877 0.448957
O O13 0.980561 0.897764 0.687911
O O14 0.845749 0.103095 0.798382
O O15 0.423239 0.986135 0.258812
O O16 0.472777 0.717350 0.143149
#
# Coordination Sequence:
#
# PCOD9242275 Si02
#       8
#     4   4   4   4   4   4   4   4
#     4  10  19  41  69  94 138 166 221 276 336 389
#     4  11  22  41  62  92 132 168 214 273 323 394
#     4  10  20  40  63  92 130 172 212 278 319 393
#     4  11  23  38  64  92 131 171 220 266 327 390
#     4  10  21  44  68  95 129 169 214 279 334 391
#     4  10  23  38  64  92 127 172 222 261 329 381
#     4  11  23  43  62  94 131 177 220 266 320 399
#     4   9  20  39  73  97 124 173 219 275 339 394
#
# _framework density 26.528334000000001
#
# number of rings (size 3 to 8) (size 9 to 14) (size 15 to 20)
#    0.000    1.750    3.750    1.125    3.500    2.000 
#    2.250    6.250    0.000    0.000    0.000    0.000 
#    0.000    0.000    0.000    0.000    0.000    0.000 
#
# Total GULP energy -178583.097599 kJ/mol
# GULP energy per Si atom -5580.721800 kJ/mol
# Density = 2.646795 g / cm^3
# Si number density = 26.528334 Si / 1000 Ang^3
#
#
#
# Elastic Constant Matrix: (Units=GPa)
#
#
# Indices 1 2 3 4 5 6 
#
# 1 103.0016 31.7329 51.1697 0.0000 38.4279 0.0000
# 2 31.7329 90.3897 -2.0522 0.0000 13.4347 0.0000
# 3 51.1697 -2.0522 117.3728 0.0000 25.1830 0.0000
# 4 0.0000 0.0000 0.0000 25.9632 0.0000 13.0009
# 5 38.4279 13.4347 25.1830 0.0000 58.8505 0.0000
# 6 0.0000 0.0000 0.0000 13.0009 0.0000 41.0052
#
#
#
# Elastic Compliance Matrix: (Units=1/GPa)
#
#
# Indices 1 2 3 4 5 6 
#
# 1 0.016920 -0.004974 -0.005876 0.000000 -0.007399 0.000000
# 2 -0.004974 0.012989 0.002571 0.000000 -0.000818 0.000000
# 3 -0.005876 0.002571 0.011484 0.000000 -0.001664 0.000000
# 4 0.000000 0.000000 0.000000 0.045785 0.000000 -0.014516
# 5 -0.007399 -0.000818 -0.001664 0.000000 0.022722 0.000000
# 6 0.000000 0.000000 0.000000 -0.014516 0.000000 0.028990
#
#
# Mechanical properties :
#
#
# Convention : Reuss Voigt Hill
#
# Bulk Modulus (GPa) = 40.26575 52.49608 46.38091
# Shear Modulus (GPa) = 30.53869 40.49135 35.51502
#
# Velocity S-wave (km/s) = 3.39657 3.91108 3.66287
# Velocity P-wave (km/s) = 5.53115 6.34248 5.95066
#
# Compressibility (1/GPa) = 0.02483500
#
# Stress axis : x y z
#
# Youngs Moduli (GPa) = 59.10003 76.98650 87.08087
#
# Poissons Ratio (x) = 0.38293 0.51170
# Poissons Ratio (y) = 0.29396 -0.22388
# Poissons Ratio (z) = 0.34728 -0.19793
#
# Static dielectric constant tensor:
#      x y z
#    x 2.194020 0.000000 -0.007110 
#    y 0.000000 2.237570 0.000000 
#    z -0.007110 0.000000 2.070210 
# 
# From -- ./inp_files/43424.got.cif
#   From: 2010.05.17/outbox.cif.g08.bks.cpg/sg14_22_cif.got.tgz:43424.got - 2010.06.03 17:49:19.
