data_PCOD9242868
_publ_section_title
;
Structure prediction by ZEFSAII (Michael W. Deem and Ramdas Pophale) SiO2 
 PCOD9242868
Probable space group: P 21/C
;
_chemical_formula_sum "Si O2"
_cell_formula_units_Z 24
_cell_length_a 18.321607
_cell_length_b 5.227730
_cell_length_c 23.994235
_cell_angle_alpha 90.000000
_cell_angle_beta 27.324429
_cell_angle_gamma 90.000000
_cell_volume 1054.928843
_symmetry_space_group_name_H-M "P 21/C"
_symmetry_group_IT_number 14
_symmetry_cell_setting 'monoclinic'
loop_
_space_group_symop_operation_xyz
x,y,z
-x,1/2+y,1/2-z
-x,-y,-z
x,1/2-y,1/2+z
loop_
_atom_site_type_symbol
_atom_site_label
_atom_site_fract_x
_atom_site_fract_y
_atom_site_fract_z
Si Si1 0.307771 0.149530 0.407794
Si Si2 0.138330 0.731981 0.942744
Si Si3 0.575184 0.881100 0.274951
Si Si4 0.191780 0.358346 0.804804
Si Si5 0.100451 0.483511 0.746233
Si Si6 0.114393 0.484184 0.613998
O O1 0.429805 0.189462 0.274021
O O2 0.236495 0.403570 0.483502
O O3 0.177896 0.976952 0.464177
O O4 0.405549 0.013452 0.390629
O O5 0.146843 0.587927 0.877473
O O6 0.280421 0.932440 0.841244
O O7 0.961381 0.826710 0.078994
O O8 0.643325 0.752614 0.284028
O O9 0.196557 0.437457 0.737555
O O10 0.183969 0.460930 0.629325
O O11 0.018708 0.761644 0.801976
O O12 0.966765 0.259522 0.835998
#
# Coordination Sequence:
#
# PCOD9242868 Si02
#       6
#     4   4   4   4   4   4
#     4  11  21  36  57  85 121 158 203 240 303 367
#     4  10  20  36  55  85 116 155 193 246 302 353
#     4  11  22  34  55  86 121 159 190 249 304 362
#     4  10  21  34  58  86 117 153 198 249 300 350
#     4  10  21  40  62  90 117 156 207 256 293 349
#     4  10  22  38  64  88 117 159 206 251 296 351
#
# _framework density 22.750350000000001
#
# number of rings (size 3 to 8) (size 9 to 14) (size 15 to 20)
#    0.000    1.667    3.333    1.500    2.333    0.000 
#    0.000    0.833    0.000    1.000    0.000    0.000 
#    0.000    0.000    0.000    0.000    0.000    0.000 
#
# Total GULP energy -134018.312954 kJ/mol
# GULP energy per Si atom -5584.096373 kJ/mol
# Density = 2.269857 g / cm^3
# Si number density = 22.750350 Si / 1000 Ang^3
#
#
#
# Elastic Constant Matrix: (Units=GPa)
#
#
# Indices 1 2 3 4 5 6 
#
# 1 175.0207 10.5428 28.4165 0.0000 19.5323 0.0000
# 2 10.5428 45.3196 4.0557 0.0000 -1.6037 0.0000
# 3 28.4165 4.0557 25.6203 0.0000 5.6547 0.0000
# 4 0.0000 0.0000 0.0000 25.1561 0.0000 0.0256
# 5 19.5323 -1.6037 5.6547 0.0000 43.5649 0.0000
# 6 0.0000 0.0000 0.0000 0.0256 0.0000 29.2795
#
#
#
# Elastic Compliance Matrix: (Units=1/GPa)
#
#
# Indices 1 2 3 4 5 6 
#
# 1 0.007231 -0.001109 -0.007330 0.000000 -0.002331 0.000000
# 2 -0.001109 0.022627 -0.002724 0.000000 0.001684 0.000000
# 3 -0.007330 -0.002724 0.048272 0.000000 -0.003080 0.000000
# 4 0.000000 0.000000 0.000000 0.039752 0.000000 -0.000035
# 5 -0.002331 0.001684 -0.003080 0.000000 0.024461 0.000000
# 6 0.000000 0.000000 0.000000 -0.000035 0.000000 0.034154
#
#
# Mechanical properties :
#
#
# Convention : Reuss Voigt Hill
#
# Bulk Modulus (GPa) = 17.91947 36.88786 27.40367
# Shear Modulus (GPa) = 22.99672 33.12980 28.06326
#
# Velocity S-wave (km/s) = 3.18280 3.82020 3.51598
# Velocity P-wave (km/s) = 4.62608 5.97562 5.34362
#
# Compressibility (1/GPa) = 0.05580521
#
# Stress axis : x y z
#
# Youngs Moduli (GPa) = 138.30060 44.19546 20.71584
#
# Poissons Ratio (x) = 0.04900 0.15184
# Poissons Ratio (y) = 0.15332 0.05643
# Poissons Ratio (z) = 1.01371 0.12038
#
# Static dielectric constant tensor:
#      x y z
#    x 1.885620 0.000000 -0.024820 
#    y 0.000000 1.962760 0.000000 
#    z -0.024820 0.000000 1.860500 
# 
# From -- ./inp_files/56623.got.cif
#   From: 2010.05.17/outbox.cif.g08.bks.cpg/sg14_29_cif.got.tgz:56623.got - 2010.06.03 17:49:19.
