data_PCOD9242009
_publ_section_title
;
Structure prediction by ZEFSAII (Michael W. Deem and Ramdas Pophale) SiO2 
 PCOD9242009
Probable space group: P 21/C
;
_chemical_formula_sum "Si O2"
_cell_formula_units_Z 28
_cell_length_a 8.972785
_cell_length_b 5.245119
_cell_length_c 33.583267
_cell_angle_alpha 90.000000
_cell_angle_beta 127.840066
_cell_angle_gamma 90.000000
_cell_volume 1248.194053
_symmetry_space_group_name_H-M "P 21/C"
_symmetry_group_IT_number 14
_symmetry_cell_setting 'monoclinic'
loop_
_space_group_symop_operation_xyz
x,y,z
-x,1/2+y,1/2-z
-x,-y,-z
x,1/2-y,1/2+z
loop_
_atom_site_type_symbol
_atom_site_label
_atom_site_fract_x
_atom_site_fract_y
_atom_site_fract_z
Si Si1 0.775434 0.356107 0.380428
Si Si2 0.708051 0.485762 0.144617
Si Si3 0.959070 0.532190 0.863708
Si Si4 0.639654 0.998350 0.182282
Si Si5 0.037271 0.768350 0.960881
Si Si6 0.299970 0.508820 0.059527
Si Si7 0.378785 0.280857 0.235228
O O1 0.842804 0.228410 0.350908
O O2 0.589160 0.531167 0.351305
O O3 0.961471 0.467005 0.431705
O O4 0.703489 0.129542 0.397110
O O5 0.723657 0.264358 0.180625
O O6 0.512917 0.421199 0.089038
O O7 0.879167 0.481332 0.142107
O O8 0.688977 0.768712 0.160078
O O9 0.037677 0.604447 0.920164
O O10 0.799948 0.728736 0.823197
O O11 0.694049 0.893230 0.234576
O O12 0.868343 0.694346 0.964085
O O13 0.228936 0.715649 0.015812
O O14 0.477846 0.005533 0.256040
#
# Coordination Sequence:
#
# PCOD9242009 Si02
#       7
#     4   4   4   4   4   4   4
#     4  10  19  39  63  92 122 167 218 269 311 381
#     4  11  25  43  63  97 134 172 206 268 329 389
#     4  11  26  39  63  96 130 165 216 271 325 380
#     4  11  23  43  67  89 133 170 214 262 327 386
#     4  10  19  38  65  89 126 168 221 263 312 380
#     4   9  20  36  62  94 122 170 217 261 320 385
#     4  12  25  42  71  99 123 166 220 270 315 382
#
# _framework density 22.432407999999999
#
# number of rings (size 3 to 8) (size 9 to 14) (size 15 to 20)
#    0.000    1.429    2.857    2.143    4.000    1.714 
#    0.000    0.714    0.000    0.000    0.000    0.000 
#    0.000    0.000    0.000    0.000    0.000    0.000 
#
# Total GULP energy -156261.170073 kJ/mol
# GULP energy per Si atom -5580.756074 kJ/mol
# Density = 2.238135 g / cm^3
# Si number density = 22.432408 Si / 1000 Ang^3
#
#
#
# Elastic Constant Matrix: (Units=GPa)
#
#
# Indices 1 2 3 4 5 6 
#
# 1 143.2488 34.5075 23.8192 0.0000 -19.0144 0.0000
# 2 34.5075 83.6562 5.1614 0.0000 -4.2767 0.0000
# 3 23.8192 5.1614 33.0881 0.0000 -13.1518 0.0000
# 4 0.0000 0.0000 0.0000 29.0031 0.0000 -5.9285
# 5 -19.0144 -4.2767 -13.1518 0.0000 17.2338 0.0000
# 6 0.0000 0.0000 0.0000 -5.9285 0.0000 20.9083
#
#
#
# Elastic Compliance Matrix: (Units=1/GPa)
#
#
# Indices 1 2 3 4 5 6 
#
# 1 0.009234 -0.003251 -0.003461 0.000000 0.006740 0.000000
# 2 -0.003251 0.013275 0.000220 0.000000 -0.000125 0.000000
# 3 -0.003461 0.000220 0.044761 0.000000 0.030395 0.000000
# 4 0.000000 0.000000 0.000000 0.036600 0.000000 0.010378
# 5 0.006740 -0.000125 0.030395 0.000000 0.088626 0.000000
# 6 0.000000 0.000000 0.000000 0.010378 0.000000 0.050771
#
#
# Mechanical properties :
#
#
# Convention : Reuss Voigt Hill
#
# Bulk Modulus (GPa) = 18.42119 42.99656 30.70888
# Shear Modulus (GPa) = 18.22511 26.52936 22.37724
#
# Velocity S-wave (km/s) = 2.85344 3.44268 3.16181
# Velocity P-wave (km/s) = 4.36873 5.91705 5.20083
#
# Compressibility (1/GPa) = 0.05428531
#
# Stress axis : x y z
#
# Youngs Moduli (GPa) = 108.29342 75.33118 22.34093
#
# Poissons Ratio (x) = 0.24489 0.07733
# Poissons Ratio (y) = 0.35205 -0.00491
# Poissons Ratio (z) = 0.37483 -0.01657
#
# Static dielectric constant tensor:
#      x y z
#    x 1.796800 0.000000 0.018340 
#    y 0.000000 1.937370 0.000000 
#    z 0.018340 0.000000 1.931210 
# 
# From -- ./inp_files/76031.got.cif
#   From: 2010.05.17/outbox.cif.g08.bks.cpg/sg14_39_cif.got.tgz:76031.got - 2010.06.03 17:49:19.
