data_PCOD9242331
_publ_section_title
;
Structure prediction by ZEFSAII (Michael W. Deem and Ramdas Pophale) SiO2 
 PCOD9242331
Probable space group: P 21/C
;
_chemical_formula_sum "Si O2"
_cell_formula_units_Z 24
_cell_length_a 11.426774
_cell_length_b 11.876557
_cell_length_c 12.135562
_cell_angle_alpha 90.000000
_cell_angle_beta 143.689296
_cell_angle_gamma 90.000000
_cell_volume 975.249853
_symmetry_space_group_name_H-M "P 21/C"
_symmetry_group_IT_number 14
_symmetry_cell_setting 'monoclinic'
loop_
_space_group_symop_operation_xyz
x,y,z
-x,1/2+y,1/2-z
-x,-y,-z
x,1/2-y,1/2+z
loop_
_atom_site_type_symbol
_atom_site_label
_atom_site_fract_x
_atom_site_fract_y
_atom_site_fract_z
Si Si1 0.616919 0.814969 0.712182
Si Si2 0.940815 0.161912 0.889349
Si Si3 0.420704 0.830875 0.904692
Si Si4 0.076042 0.550729 0.385803
Si Si5 0.482353 0.995673 0.781994
Si Si6 0.706470 0.656456 0.038908
O O1 0.511146 0.700621 0.592568
O O2 0.498293 0.893212 0.704503
O O3 0.646810 0.883129 0.618705
O O4 0.836818 0.792754 0.924244
O O5 0.772514 0.253320 0.747944
O O6 0.957891 0.067161 0.807669
O O7 0.892427 0.097130 0.966651
O O8 0.376785 0.948161 0.811556
O O9 0.600504 0.777107 0.966671
O O10 0.294129 0.524852 0.511229
O O11 0.942357 0.640280 0.219646
O O12 0.382151 0.088974 0.629250
#
# Coordination Sequence:
#
# PCOD9242331 Si02
#       6
#     4   4   4   4   4   4
#     4   8  18  31  47  69  99 122 156 202 243 280
#     4   9  15  28  48  71  95 122 148 198 250 287
#     4  10  20  28  47  75 103 121 158 203 241 284
#     4   9  16  28  50  68  93 127 154 193 249 281
#     4  11  18  30  50  74  96 130 158 195 247 289
#     4   9  18  30  47  70  99 123 156 201 241 281
#
# _framework density 24.609079000000001
#
# number of rings (size 3 to 8) (size 9 to 14) (size 15 to 20)
#    1.000    1.667    1.667    2.500    0.000    1.333 
#    0.000    0.000    0.000    1.000    0.000    5.833 
#    0.000    0.000    0.000    0.000    0.000    0.000 
#
# Total GULP energy -133937.693127 kJ/mol
# GULP energy per Si atom -5580.737214 kJ/mol
# Density = 2.455307 g / cm^3
# Si number density = 24.609079 Si / 1000 Ang^3
#
#
#
# Elastic Constant Matrix: (Units=GPa)
#
#
# Indices 1 2 3 4 5 6 
#
# 1 72.6677 30.7224 27.7640 0.0000 -5.6763 0.0000
# 2 30.7224 50.3644 23.6037 0.0000 -1.9637 0.0000
# 3 27.7640 23.6037 109.5423 0.0000 -11.5048 0.0000
# 4 0.0000 0.0000 0.0000 3.2322 0.0000 -3.3849
# 5 -5.6763 -1.9637 -11.5048 0.0000 34.0077 0.0000
# 6 0.0000 0.0000 0.0000 -3.3849 0.0000 52.1429
#
#
#
# Elastic Compliance Matrix: (Units=1/GPa)
#
#
# Indices 1 2 3 4 5 6 
#
# 1 0.019294 -0.010562 -0.002426 0.000000 0.001790 0.000000
# 2 -0.010562 0.027872 -0.003468 0.000000 -0.001327 0.000000
# 3 -0.002426 -0.003468 0.010812 0.000000 0.003052 0.000000
# 4 0.000000 0.000000 0.000000 0.331952 0.000000 0.021549
# 5 0.001790 -0.001327 0.003052 0.000000 0.030660 0.000000
# 6 0.000000 0.000000 0.000000 0.021549 0.000000 0.020577
#
#
# Mechanical properties :
#
#
# Convention : Reuss Voigt Hill
#
# Bulk Modulus (GPa) = 39.89755 44.08387 41.99071
# Shear Modulus (GPa) = 10.36411 27.90884 19.13648
#
# Velocity S-wave (km/s) = 2.05442 3.37127 2.79161
# Velocity P-wave (km/s) = 4.67710 5.75383 5.24318
#
# Compressibility (1/GPa) = 0.02506419
#
# Stress axis : x y z
#
# Youngs Moduli (GPa) = 51.83076 35.87842 92.49267
#
# Poissons Ratio (x) = 0.37896 0.22440
# Poissons Ratio (y) = 0.54745 0.32077
# Poissons Ratio (z) = 0.12575 0.12443
#
# Static dielectric constant tensor:
#      x y z
#    x 1.978960 0.000000 -0.016230 
#    y 0.000000 2.060290 0.000000 
#    z -0.016230 0.000000 1.912760 
# 
# From -- ./inp_files/32692.got.cif
#   From: 2010.05.17/outbox.cif.g08.bks.cpg/sg14_17_cif.got.tgz:32692.got - 2010.06.03 17:49:19.
