data_PCOD9242922
_publ_section_title
;
Structure prediction by ZEFSAII (Michael W. Deem and Ramdas Pophale) SiO2 
 PCOD9242922
Probable space group: P 21/C
;
_chemical_formula_sum "Si O2"
_cell_formula_units_Z 24
_cell_length_a 20.209347
_cell_length_b 6.992823
_cell_length_c 8.241070
_cell_angle_alpha 90.000000
_cell_angle_beta 45.832300
_cell_angle_gamma 90.000000
_cell_volume 835.394051
_symmetry_space_group_name_H-M "P 21/C"
_symmetry_group_IT_number 14
_symmetry_cell_setting 'monoclinic'
loop_
_space_group_symop_operation_xyz
x,y,z
-x,1/2+y,1/2-z
-x,-y,-z
x,1/2-y,1/2+z
loop_
_atom_site_type_symbol
_atom_site_label
_atom_site_fract_x
_atom_site_fract_y
_atom_site_fract_z
Si Si1 0.938196 0.077715 0.461400
Si Si2 0.275329 0.585447 0.361282
Si Si3 0.609289 0.539786 0.160102
Si Si4 0.779771 0.962592 0.537613
Si Si5 0.891699 0.516980 0.533041
Si Si6 0.549987 0.132708 0.285983
O O1 0.849444 0.948966 0.568650
O O2 0.903919 0.291083 0.547469
O O3 0.008954 0.090844 0.188709
O O4 0.000000 0.000000 0.500000
O O5 0.246054 0.809128 0.420941
O O6 0.181048 0.471542 0.491950
O O7 0.344453 0.552582 0.395415
O O8 0.331754 0.537480 0.097899
O O9 0.680019 0.630641 0.169125
O O10 0.566986 0.349168 0.309267
O O11 0.523232 0.651586 0.233495
O O12 0.843463 0.909767 0.276270
O O13 0.500000 0.000000 0.500000
#
# Coordination Sequence:
#
# PCOD9242922 Si02
#       6
#     4   4   4   4   4   4
#     4  11  21  34  55  83 110 143 184 227 270 321
#     4   8  16  32  55  78 101 141 185 217 259 326
#     4   9  17  32  56  79 107 142 181 226 270 319
#     4   9  18  34  55  79 107 144 184 218 264 330
#     4  10  20  36  58  81 108 143 183 225 270 322
#     4   9  17  32  53  80 109 141 179 221 267 322
#
# _framework density 28.728956
#
# number of rings (size 3 to 8) (size 9 to 14) (size 15 to 20)
#    0.000    2.667    0.000    2.500    0.000    1.333 
#    0.000    9.167    0.000   28.000    0.000    0.000 
#    0.000    0.000    0.000    0.000    0.000    0.000 
#
# Total GULP energy -134411.622903 kJ/mol
# GULP energy per Si atom -5600.484288 kJ/mol
# Density = 2.866357 g / cm^3
# Si number density = 28.728956 Si / 1000 Ang^3
#
#
#
# Elastic Constant Matrix: (Units=GPa)
#
#
# Indices 1 2 3 4 5 6 
#
# 1 303.4551 36.7819 61.2669 0.0000 -58.6549 0.0000
# 2 36.7819 87.2425 38.1899 0.0000 -3.9145 0.0000
# 3 61.2669 38.1899 118.6535 0.0000 -5.8518 0.0000
# 4 0.0000 0.0000 0.0000 35.1752 0.0000 3.8422
# 5 -58.6549 -3.9145 -5.8518 0.0000 50.3323 0.0000
# 6 0.0000 0.0000 0.0000 3.8422 0.0000 38.8541
#
#
#
# Elastic Compliance Matrix: (Units=1/GPa)
#
#
# Indices 1 2 3 4 5 6 
#
# 1 0.004830 -0.000955 -0.001924 0.000000 0.005331 0.000000
# 2 -0.000955 0.013546 -0.003892 0.000000 -0.000512 0.000000
# 3 -0.001924 -0.003892 0.010609 0.000000 -0.001311 0.000000
# 4 0.000000 0.000000 0.000000 0.028740 0.000000 -0.002842
# 5 0.005331 -0.000512 -0.001311 0.000000 0.025888 0.000000
# 6 0.000000 0.000000 0.000000 -0.002842 0.000000 0.026018
#
#
# Mechanical properties :
#
#
# Convention : Reuss Voigt Hill
#
# Bulk Modulus (GPa) = 64.75217 86.86983 75.81100
# Shear Modulus (GPa) = 38.96529 49.74649 44.35589
#
# Velocity S-wave (km/s) = 3.68680 4.16574 3.93357
# Velocity P-wave (km/s) = 6.38054 7.31035 6.86121
#
# Compressibility (1/GPa) = 0.01544350
#
# Stress axis : x y z
#
# Youngs Moduli (GPa) = 207.04509 73.82438 94.25809
#
# Poissons Ratio (x) = 0.07051 0.18132
# Poissons Ratio (y) = 0.19774 0.36684
# Poissons Ratio (z) = 0.39827 0.28732
#
# Static dielectric constant tensor:
#      x y z
#    x 2.330240 0.000000 -0.008190 
#    y 0.000000 2.250650 0.000000 
#    z -0.008190 0.000000 2.180820 
# 
# From -- ./inp_files/34829.got.cif
#   From: 2010.05.17/outbox.cif.g08.bks.cpg/sg14_18_cif.got.tgz:34829.got - 2010.06.03 17:49:19.
