data_PCOD9242209
_publ_section_title
;
Structure prediction by ZEFSAII (Michael W. Deem and Ramdas Pophale) SiO2 
 PCOD9242209
Probable space group: P 21/C
;
_chemical_formula_sum "Si O2"
_cell_formula_units_Z 20
_cell_length_a 7.375095
_cell_length_b 7.751758
_cell_length_c 20.202169
_cell_angle_alpha 90.000000
_cell_angle_beta 48.110264
_cell_angle_gamma 90.000000
_cell_volume 859.786010
_symmetry_space_group_name_H-M "P 21/C"
_symmetry_group_IT_number 14
_symmetry_cell_setting 'monoclinic'
loop_
_space_group_symop_operation_xyz
x,y,z
-x,1/2+y,1/2-z
-x,-y,-z
x,1/2-y,1/2+z
loop_
_atom_site_type_symbol
_atom_site_label
_atom_site_fract_x
_atom_site_fract_y
_atom_site_fract_z
Si Si1 0.059341 0.821535 0.367532
Si Si2 0.143749 0.965913 0.751299
Si Si3 0.882333 0.183257 0.008791
Si Si4 0.372936 0.375523 0.584164
Si Si5 0.044566 0.313551 0.825108
O O1 0.780905 0.780498 0.411343
O O2 0.204949 0.664888 0.296047
O O3 0.052754 0.810131 0.447576
O O4 0.155949 0.002754 0.318383
O O5 0.205141 0.163900 0.750932
O O6 0.170366 0.872057 0.674258
O O7 0.961212 0.235501 0.915736
O O8 0.592350 0.173842 0.077150
O O9 0.000000 0.000000 0.000000
O O10 0.500000 0.500000 0.500000
O O11 0.153275 0.476530 0.672430
#
# Coordination Sequence:
#
# PCOD9242209 Si02
#       5
#     4   4   4   4   4
#     4  10  23  38  64  92 120 161 212 250 311 367
#     4  10  21  39  64  90 123 167 204 256 315 370
#     4  12  21  39  67  94 124 163 208 259 306 374
#     4  10  19  40  65  91 122 165 206 254 306 370
#     4  12  21  40  67  89 127 169 205 259 322 371
#
# _framework density 23.261600999999999
#
# number of rings (size 3 to 8) (size 9 to 14) (size 15 to 20)
#    1.200    0.000    8.000    0.600    0.000    0.800 
#    0.000    2.000    4.400    0.000    0.000    0.000 
#    0.000    0.000    0.000    0.000    0.000    0.000 
#
# Total GULP energy -111428.843806 kJ/mol
# GULP energy per Si atom -5571.442190 kJ/mol
# Density = 2.320866 g / cm^3
# Si number density = 23.261601 Si / 1000 Ang^3
#
#
#
# Elastic Constant Matrix: (Units=GPa)
#
#
# Indices 1 2 3 4 5 6 
#
# 1 92.9802 25.4697 35.4394 0.0000 14.1365 0.0000
# 2 25.4697 180.2069 48.2032 0.0000 23.5037 0.0000
# 3 35.4394 48.2032 114.0549 0.0000 40.1742 0.0000
# 4 0.0000 0.0000 0.0000 43.6024 0.0000 18.2855
# 5 14.1365 23.5037 40.1742 0.0000 45.7960 0.0000
# 6 0.0000 0.0000 0.0000 18.2855 0.0000 15.5617
#
#
#
# Elastic Compliance Matrix: (Units=1/GPa)
#
#
# Indices 1 2 3 4 5 6 
#
# 1 0.012310 -0.000788 -0.003323 0.000000 -0.000481 0.000000
# 2 -0.000788 0.006360 -0.001996 0.000000 -0.001270 0.000000
# 3 -0.003323 -0.001996 0.014358 0.000000 -0.010546 0.000000
# 4 0.000000 0.000000 0.000000 0.045215 0.000000 -0.053129
# 5 -0.000481 -0.001270 -0.010546 0.000000 0.031887 0.000000
# 6 0.000000 0.000000 0.000000 -0.053129 0.000000 0.126688
#
#
# Mechanical properties :
#
#
# Convention : Reuss Voigt Hill
#
# Bulk Modulus (GPa) = 48.04151 67.27407 57.65779
# Shear Modulus (GPa) = 19.53344 39.53400 29.53372
#
# Velocity S-wave (km/s) = 2.90095 4.12702 3.56706
# Velocity P-wave (km/s) = 5.64962 7.18979 6.46573
#
# Compressibility (1/GPa) = 0.02081533
#
# Stress axis : x y z
#
# Youngs Moduli (GPa) = 81.23182 157.23098 69.64719
#
# Poissons Ratio (x) = 0.12397 0.23141
# Poissons Ratio (y) = 0.06405 0.13899
# Poissons Ratio (z) = 0.26990 0.31377
#
# Static dielectric constant tensor:
#      x y z
#    x 1.881260 0.000000 0.037050 
#    y 0.000000 2.107390 0.000000 
#    z 0.037050 0.000000 1.918520 
# 
# From -- ./inp_files/54347.got.cif
#   From: 2010.05.17/outbox.cif.g08.bks.cpg/sg14_28_cif.got.tgz:54347.got - 2010.06.03 17:49:19.
