data_PCOD9242723
_publ_section_title
;
Structure prediction by ZEFSAII (Michael W. Deem and Ramdas Pophale) SiO2 
 PCOD9242723
Probable space group: P 21/C
;
_chemical_formula_sum "Si O2"
_cell_formula_units_Z 28
_cell_length_a 14.017326
_cell_length_b 10.640282
_cell_length_c 18.032927
_cell_angle_alpha 90.000000
_cell_angle_beta 150.128048
_cell_angle_gamma 90.000000
_cell_volume 1339.581328
_symmetry_space_group_name_H-M "P 21/C"
_symmetry_group_IT_number 14
_symmetry_cell_setting 'monoclinic'
loop_
_space_group_symop_operation_xyz
x,y,z
-x,1/2+y,1/2-z
-x,-y,-z
x,1/2-y,1/2+z
loop_
_atom_site_type_symbol
_atom_site_label
_atom_site_fract_x
_atom_site_fract_y
_atom_site_fract_z
Si Si1 0.583357 0.135464 0.599480
Si Si2 0.632067 0.164069 0.244751
Si Si3 0.817951 0.916060 0.352914
Si Si4 0.022651 0.496453 0.605664
Si Si5 0.298945 0.183281 0.124915
Si Si6 0.925709 0.285211 0.074124
Si Si7 0.594798 0.084224 0.444902
O O1 0.646270 0.264686 0.677872
O O2 0.540924 0.154679 0.484681
O O3 0.768492 0.044603 0.731779
O O4 0.420690 0.059998 0.536599
O O5 0.442757 0.213794 0.156466
O O6 0.798819 0.206578 0.413267
O O7 0.644657 0.014691 0.241807
O O8 0.780972 0.802338 0.384467
O O9 0.879742 0.859473 0.315353
O O10 0.000000 0.000000 0.500000
O O11 0.866559 0.599667 0.521475
O O12 0.975125 0.362457 0.611098
O O13 0.000000 0.500000 0.500000
O O14 0.432763 0.106385 0.273429
O O15 0.791820 0.356906 0.044202
#
# Coordination Sequence:
#
# PCOD9242723 Si02
#       7
#     4   4   4   4   4   4   4
#     4  11  22  43  59  92 122 166 203 255 313 375
#     4  10  22  34  62  90 119 156 208 251 298 364
#     4  10  20  35  57  93 122 152 196 262 307 351
#     4  12  19  38  66  91 115 157 209 259 297 372
#     4  11  22  37  65  93 119 160 207 254 309 369
#     4  10  20  37  61  89 122 159 203 253 309 361
#     4  10  23  39  64  86 126 163 202 252 317 378
#
# _framework density 20.902052999999999
#
# number of rings (size 3 to 8) (size 9 to 14) (size 15 to 20)
#    0.000    1.429    4.286    0.857   10.000    0.000 
#    2.571    3.571    0.000    0.000    0.000    0.000 
#    0.000    0.000    0.000    0.000    0.000    0.000 
#
# Total GULP energy -156068.160145 kJ/mol
# GULP energy per Si atom -5573.862862 kJ/mol
# Density = 2.085448 g / cm^3
# Si number density = 20.902053 Si / 1000 Ang^3
#
#
#
# Elastic Constant Matrix: (Units=GPa)
#
#
# Indices 1 2 3 4 5 6 
#
# 1 91.0614 45.5268 19.7356 0.0000 15.3364 0.0000
# 2 45.5268 98.6675 -3.9956 0.0000 16.7442 0.0000
# 3 19.7356 -3.9956 29.2572 0.0000 9.0425 0.0000
# 4 0.0000 0.0000 0.0000 15.5109 0.0000 3.4787
# 5 15.3364 16.7442 9.0425 0.0000 34.6026 0.0000
# 6 0.0000 0.0000 0.0000 3.4787 0.0000 27.0258
#
#
#
# Elastic Compliance Matrix: (Units=1/GPa)
#
#
# Indices 1 2 3 4 5 6 
#
# 1 0.018503 -0.009046 -0.013636 0.000000 -0.000260 0.000000
# 2 -0.009046 0.015791 0.010205 0.000000 -0.006299 0.000000
# 3 -0.013636 0.010205 0.048334 0.000000 -0.011525 0.000000
# 4 0.000000 0.000000 0.000000 0.066387 0.000000 -0.008545
# 5 -0.000260 -0.006299 -0.011525 0.000000 0.035075 0.000000
# 6 0.000000 0.000000 0.000000 -0.008545 0.000000 0.038102
#
#
# Mechanical properties :
#
#
# Convention : Reuss Voigt Hill
#
# Bulk Modulus (GPa) = 17.33874 37.94664 27.64269
# Shear Modulus (GPa) = 18.77083 25.94247 22.35665
#
# Velocity S-wave (km/s) = 2.99998 3.52681 3.27401
# Velocity P-wave (km/s) = 4.50700 5.89732 5.24840
#
# Compressibility (1/GPa) = 0.05767431
#
# Stress axis : x y z
#
# Youngs Moduli (GPa) = 54.04433 63.32664 20.68944
#
# Poissons Ratio (x) = 0.57284 0.28213
# Poissons Ratio (y) = 0.48887 -0.21114
# Poissons Ratio (z) = 0.73697 -0.64626
#
# Static dielectric constant tensor:
#      x y z
#    x 1.795900 0.000000 0.065900 
#    y 0.000000 1.949640 0.000000 
#    z 0.065900 0.000000 1.805390 
# 
# From -- ./inp_files/68261.got.cif
#   From: 2010.05.17/outbox.cif.g08.bks.cpg/sg14_35_cif.got.tgz:68261.got - 2010.06.03 17:49:19.
