data_PCOD9242712
_publ_section_title
;
Structure prediction by ZEFSAII (Michael W. Deem and Ramdas Pophale) SiO2 
 PCOD9242712
Probable space group: P 21/C
;
_chemical_formula_sum "Si O2"
_cell_formula_units_Z 32
_cell_length_a 9.085814
_cell_length_b 21.063014
_cell_length_c 17.516331
_cell_angle_alpha 90.000000
_cell_angle_beta 158.381820
_cell_angle_gamma 90.000000
_cell_volume 1235.009144
_symmetry_space_group_name_H-M "P 21/C"
_symmetry_group_IT_number 14
_symmetry_cell_setting 'monoclinic'
loop_
_space_group_symop_operation_xyz
x,y,z
-x,1/2+y,1/2-z
-x,-y,-z
x,1/2-y,1/2+z
loop_
_atom_site_type_symbol
_atom_site_label
_atom_site_fract_x
_atom_site_fract_y
_atom_site_fract_z
Si Si1 0.973690 0.133206 0.206385
Si Si2 0.044735 0.372884 0.210847
Si Si3 0.685536 0.877310 0.325964
Si Si4 0.099222 0.761882 0.239969
Si Si5 0.333774 0.245233 0.597473
Si Si6 0.529019 0.985280 0.785256
Si Si7 0.243393 0.356337 0.669938
Si Si8 0.843326 0.011352 0.227426
O O1 0.991179 0.200662 0.252889
O O2 0.059369 0.075613 0.305658
O O3 0.240405 0.137788 0.259566
O O4 0.516226 0.124536 0.959509
O O5 0.072891 0.357036 0.134067
O O6 0.905017 0.446338 0.148927
O O7 0.874549 0.324267 0.192243
O O8 0.771884 0.828107 0.434317
O O9 0.693940 0.951718 0.353570
O O10 0.219016 0.867754 0.077415
O O11 0.599409 0.738406 0.465008
O O12 0.149918 0.766918 0.166383
O O13 0.357791 0.290903 0.683593
O O14 0.497756 0.914853 0.736888
O O15 0.390275 0.982173 0.805684
O O16 0.000000 0.000000 0.000000
O O17 0.500000 0.000000 0.000000
#
# Coordination Sequence:
#
# PCOD9242712 Si02
#       8
#     4   4   4   4   4   4   4   4
#     4  10  20  36  56  84 116 150 193 237 289 339
#     4   9  19  35  57  84 113 150 188 236 284 337
#     4   9  19  36  55  84 115 148 190 234 286 337
#     4  12  23  37  57  84 119 152 192 235 284 343
#     4  12  23  37  57  85 118 154 189 239 282 344
#     4   9  17  30  54  84 113 144 190 241 284 332
#     4  10  20  35  57  85 114 150 191 239 285 341
#     4   9  17  30  55  83 113 144 188 242 284 331
#
# _framework density 25.910741000000002
#
# number of rings (size 3 to 8) (size 9 to 14) (size 15 to 20)
#    0.000    2.000    2.500    3.750    1.750    1.000 
#    0.000    0.000    0.000    9.750    0.000    0.000 
#    0.000    0.000    0.000    0.000    0.000    0.000 
#
# Total GULP energy -178837.319587 kJ/mol
# GULP energy per Si atom -5588.666237 kJ/mol
# Density = 2.585177 g / cm^3
# Si number density = 25.910741 Si / 1000 Ang^3
#
#
#
# Elastic Constant Matrix: (Units=GPa)
#
#
# Indices 1 2 3 4 5 6 
#
# 1 190.1193 120.9138 26.9307 0.0000 4.7246 0.0000
# 2 120.9138 200.1080 -22.1868 0.0000 -15.6407 0.0000
# 3 26.9307 -22.1868 64.2522 0.0000 17.9105 0.0000
# 4 0.0000 0.0000 0.0000 39.2327 0.0000 -3.5073
# 5 4.7246 -15.6407 17.9105 0.0000 57.5028 0.0000
# 6 0.0000 0.0000 0.0000 -3.5073 0.0000 21.1276
#
#
#
# Elastic Compliance Matrix: (Units=1/GPa)
#
#
# Indices 1 2 3 4 5 6 
#
# 1 0.011053 -0.007516 -0.007014 0.000000 -0.000768 0.000000
# 2 -0.007516 0.010354 0.006317 0.000000 0.001466 0.000000
# 3 -0.007014 0.006317 0.021951 0.000000 -0.004543 0.000000
# 4 0.000000 0.000000 0.000000 0.025873 0.000000 0.004295
# 5 -0.000768 0.001466 -0.004543 0.000000 0.019267 0.000000
# 6 0.000000 0.000000 0.000000 0.004295 0.000000 0.048044
#
#
# Mechanical properties :
#
#
# Convention : Reuss Voigt Hill
#
# Bulk Modulus (GPa) = 37.13182 78.42165 57.77673
# Shear Modulus (GPa) = 30.87451 45.49408 38.18430
#
# Velocity S-wave (km/s) = 3.45566 4.19477 3.84303
# Velocity P-wave (km/s) = 5.50308 7.33439 6.48372
#
# Compressibility (1/GPa) = 0.02693108
#
# Stress axis : x y z
#
# Youngs Moduli (GPa) = 90.47552 96.58190 45.55585
#
# Poissons Ratio (x) = 0.72593 0.31953
# Poissons Ratio (y) = 0.68003 -0.28777
# Poissons Ratio (z) = 0.63460 -0.61010
#
# Static dielectric constant tensor:
#      x y z
#    x 1.955860 0.000000 0.089010 
#    y 0.000000 1.820880 0.000000 
#    z 0.089010 0.000000 2.278140 
# 
# From -- ./inp_files/30632.got.cif
#   From: 2010.05.17/outbox.cif.g08.bks.cpg/sg14_16_cif.got.tgz:30632.got - 2010.06.03 17:49:19.
