data_PCOD9242826
_publ_section_title
;
Structure prediction by ZEFSAII (Michael W. Deem and Ramdas Pophale) SiO2 
 PCOD9242826
Probable space group: P 21/C
;
_chemical_formula_sum "Si O2"
_cell_formula_units_Z 28
_cell_length_a 11.690035
_cell_length_b 14.735954
_cell_length_c 8.483288
_cell_angle_alpha 90.000000
_cell_angle_beta 123.732790
_cell_angle_gamma 90.000000
_cell_volume 1215.323223
_symmetry_space_group_name_H-M "P 21/C"
_symmetry_group_IT_number 14
_symmetry_cell_setting 'monoclinic'
loop_
_space_group_symop_operation_xyz
x,y,z
-x,1/2+y,1/2-z
-x,-y,-z
x,1/2-y,1/2+z
loop_
_atom_site_type_symbol
_atom_site_label
_atom_site_fract_x
_atom_site_fract_y
_atom_site_fract_z
Si Si1 0.285725 0.485327 0.296190
Si Si2 0.346988 0.018733 0.180628
Si Si3 0.036707 0.599004 0.208861
Si Si4 0.918548 0.614007 0.428905
Si Si5 0.852468 0.687737 0.824800
Si Si6 0.372583 0.921934 0.541019
Si Si7 0.119744 0.798216 0.313556
O O1 0.362589 0.521214 0.514145
O O2 0.132127 0.528821 0.191487
O O3 0.272393 0.377120 0.314467
O O4 0.336255 0.509949 0.159410
O O5 0.192807 0.057024 0.063362
O O6 0.466160 0.092938 0.302633
O O7 0.358338 0.957764 0.349024
O O8 0.127854 0.689713 0.307863
O O9 0.970161 0.559904 0.316345
O O10 0.905036 0.644238 0.026485
O O11 0.833080 0.705474 0.319775
O O12 0.058157 0.655285 0.609629
O O13 0.990883 0.678229 0.827116
O O14 0.262851 0.841465 0.472663
#
# Coordination Sequence:
#
# PCOD9242826 Si02
#       7
#     4   4   4   4   4   4   4
#     4  12  22  40  69  94 125 167 217 264 317 371
#     4  11  25  43  62  92 130 171 208 257 315 386
#     4  10  21  34  64  97 122 156 210 267 313 367
#     4  10  21  38  62  93 127 159 209 261 313 376
#     4  10  20  35  62  96 123 156 209 269 312 365
#     4  11  25  43  63  90 132 168 211 259 315 380
#     4  10  20  39  61  91 125 161 208 263 311 373
#
# _framework density 23.039138000000001
#
# number of rings (size 3 to 8) (size 9 to 14) (size 15 to 20)
#    0.000    1.429    2.857    2.571    2.000    1.143 
#    0.000    2.857    0.000    0.000    0.000    0.000 
#    0.000    0.000    0.000    0.000    0.000    0.000 
#
# Total GULP energy -156045.822123 kJ/mol
# GULP energy per Si atom -5573.065076 kJ/mol
# Density = 2.298670 g / cm^3
# Si number density = 23.039138 Si / 1000 Ang^3
#
#
#
# Elastic Constant Matrix: (Units=GPa)
#
#
# Indices 1 2 3 4 5 6 
#
# 1 38.3057 5.1049 9.8172 0.0000 2.2625 0.0000
# 2 5.1049 62.9199 0.9858 0.0000 14.0444 0.0000
# 3 9.8172 0.9858 94.2106 0.0000 -11.0060 0.0000
# 4 0.0000 0.0000 0.0000 25.8602 0.0000 4.3280
# 5 2.2625 14.0444 -11.0060 0.0000 39.4718 0.0000
# 6 0.0000 0.0000 0.0000 4.3280 0.0000 18.1293
#
#
#
# Elastic Compliance Matrix: (Units=1/GPa)
#
#
# Indices 1 2 3 4 5 6 
#
# 1 0.027221 -0.001765 -0.003026 0.000000 -0.001776 0.000000
# 2 -0.001765 0.017458 -0.000737 0.000000 -0.006316 0.000000
# 3 -0.003026 -0.000737 0.011358 0.000000 0.003603 0.000000
# 4 0.000000 0.000000 0.000000 0.040279 0.000000 -0.009616
# 5 -0.001776 -0.006316 0.003603 0.000000 0.028688 0.000000
# 6 0.000000 0.000000 0.000000 -0.009616 0.000000 0.057455
#
#
# Mechanical properties :
#
#
# Convention : Reuss Voigt Hill
#
# Bulk Modulus (GPa) = 22.23039 25.25022 23.74030
# Shear Modulus (GPa) = 23.97995 28.66081 26.32038
#
# Velocity S-wave (km/s) = 3.22970 3.53087 3.38364
# Velocity P-wave (km/s) = 4.85570 5.25416 5.05886
#
# Compressibility (1/GPa) = 0.04498347
#
# Stress axis : x y z
#
# Youngs Moduli (GPa) = 36.73598 57.28132 88.04070
#
# Poissons Ratio (x) = 0.10108 0.26638
# Poissons Ratio (y) = 0.06483 0.06485
# Poissons Ratio (z) = 0.11115 0.04219
#
# Static dielectric constant tensor:
#      x y z
#    x 1.894700 0.000000 -0.103640 
#    y 0.000000 1.888830 0.000000 
#    z -0.103640 0.000000 2.136370 
# 
# From -- ./inp_files/13400.got.cif
#   From: 2010.05.17/outbox.cif.g08.bks.cpg/sg14_7_cif.got.tgz:13400.got - 2010.06.03 17:49:19.
