data_PCOD9242254
_publ_section_title
;
Structure prediction by ZEFSAII (Michael W. Deem and Ramdas Pophale) SiO2 
 PCOD9242254
Probable space group: P 21/C
;
_chemical_formula_sum "Si O2"
_cell_formula_units_Z 20
_cell_length_a 6.955423
_cell_length_b 8.686893
_cell_length_c 22.017327
_cell_angle_alpha 90.000000
_cell_angle_beta 40.617765
_cell_angle_gamma 90.000000
_cell_volume 866.044100
_symmetry_space_group_name_H-M "P 21/C"
_symmetry_group_IT_number 14
_symmetry_cell_setting 'monoclinic'
loop_
_space_group_symop_operation_xyz
x,y,z
-x,1/2+y,1/2-z
-x,-y,-z
x,1/2-y,1/2+z
loop_
_atom_site_type_symbol
_atom_site_label
_atom_site_fract_x
_atom_site_fract_y
_atom_site_fract_z
Si Si1 0.842204 0.531138 0.282480
Si Si2 0.947335 0.653005 0.131678
Si Si3 0.618712 0.308972 0.815143
Si Si4 0.891081 0.878563 0.475860
Si Si5 0.216753 0.638851 0.464490
O O1 0.899176 0.653568 0.214462
O O2 0.766599 0.359599 0.277647
O O3 0.551500 0.586602 0.386782
O O4 0.142437 0.555247 0.247353
O O5 0.625605 0.666561 0.177998
O O6 0.098506 0.484428 0.085168
O O7 0.129948 0.777089 0.048451
O O8 0.424959 0.320348 0.924378
O O9 0.139736 0.750157 0.425752
O O10 0.000000 0.000000 0.500000
O O11 0.000000 0.500000 0.500000
#
# Coordination Sequence:
#
# PCOD9242254 Si02
#       5
#     4   4   4   4   4
#     4  12  25  41  68  95 135 168 218 268 323 387
#     4  10  24  44  68  93 127 181 212 259 338 382
#     4  10  24  42  61 101 127 167 220 272 314 381
#     4   8  18  39  62  85 128 165 207 263 318 371
#     4  10  19  41  65  94 129 167 217 268 313 382
#
# _framework density 23.093510999999999
#
# number of rings (size 3 to 8) (size 9 to 14) (size 15 to 20)
#    0.000    2.400    4.000    0.000   11.200    0.800 
#    0.000    1.000    0.000    0.000    0.000    0.000 
#    0.000    0.000    0.000    0.000    0.000    0.000 
#
# Total GULP energy -111531.612653 kJ/mol
# GULP energy per Si atom -5576.580633 kJ/mol
# Density = 2.304095 g / cm^3
# Si number density = 23.093511 Si / 1000 Ang^3
#
#
#
# Elastic Constant Matrix: (Units=GPa)
#
#
# Indices 1 2 3 4 5 6 
#
# 1 31.6633 2.0960 22.7493 0.0000 -3.3580 0.0000
# 2 2.0960 87.7596 11.9995 0.0000 5.7827 0.0000
# 3 22.7493 11.9995 92.9619 0.0000 -8.1260 0.0000
# 4 0.0000 0.0000 0.0000 42.9566 0.0000 -7.5336
# 5 -3.3580 5.7827 -8.1260 0.0000 33.0979 0.0000
# 6 0.0000 0.0000 0.0000 -7.5336 0.0000 22.6682
#
#
#
# Elastic Compliance Matrix: (Units=1/GPa)
#
#
# Indices 1 2 3 4 5 6 
#
# 1 0.038410 0.000250 -0.009295 0.000000 0.001571 0.000000
# 2 0.000250 0.011798 -0.001801 0.000000 -0.002478 0.000000
# 3 -0.009295 -0.001801 0.013499 0.000000 0.002686 0.000000
# 4 0.000000 0.000000 0.000000 0.024720 0.000000 0.008216
# 5 0.001571 -0.002478 0.002686 0.000000 0.031465 0.000000
# 6 0.000000 0.000000 0.000000 0.008216 0.000000 0.046845
#
#
# Mechanical properties :
#
#
# Convention : Reuss Voigt Hill
#
# Bulk Modulus (GPa) = 23.79996 31.78604 27.79300
# Shear Modulus (GPa) = 24.69942 31.44722 28.07332
#
# Velocity S-wave (km/s) = 3.27393 3.69417 3.49038
# Velocity P-wave (km/s) = 4.96183 5.65595 5.32022
#
# Compressibility (1/GPa) = 0.04201688
#
# Stress axis : x y z
#
# Youngs Moduli (GPa) = 26.03468 84.75799 74.08062
#
# Poissons Ratio (x) = -0.02119 0.68854
# Poissons Ratio (y) = -0.00651 0.13340
# Poissons Ratio (z) = 0.24198 0.15262
#
# Static dielectric constant tensor:
#      x y z
#    x 1.948470 0.000000 0.034430 
#    y 0.000000 3.638510 0.000000 
#    z 0.034430 0.000000 1.508180 
# 
# From -- ./inp_files/79388.got.cif
#   From: 2010.05.17/outbox.cif.g08.bks.cpg/sg14_40_cif.got.tgz:79388.got - 2010.06.03 17:49:19.
