data_PCOD9242792
_publ_section_title
;
Structure prediction by ZEFSAII (Michael W. Deem and Ramdas Pophale) SiO2 
 PCOD9242792
Probable space group: P 21/C
;
_chemical_formula_sum "Si O2"
_cell_formula_units_Z 32
_cell_length_a 23.466070
_cell_length_b 8.911477
_cell_length_c 8.912865
_cell_angle_alpha 90.000000
_cell_angle_beta 62.008565
_cell_angle_gamma 90.000000
_cell_volume 1645.799102
_symmetry_space_group_name_H-M "P 21/C"
_symmetry_group_IT_number 14
_symmetry_cell_setting 'monoclinic'
loop_
_space_group_symop_operation_xyz
x,y,z
-x,1/2+y,1/2-z
-x,-y,-z
x,1/2-y,1/2+z
loop_
_atom_site_type_symbol
_atom_site_label
_atom_site_fract_x
_atom_site_fract_y
_atom_site_fract_z
Si Si1 0.812069 0.429187 0.662386
Si Si2 0.062057 0.419212 0.992784
Si Si3 0.679921 0.423582 0.949166
Si Si4 0.689538 0.093780 0.792122
Si Si5 0.468356 0.587919 0.902868
Si Si6 0.062162 0.412939 0.357222
Si Si7 0.449281 0.552098 0.443646
Si Si8 0.183534 0.593287 0.705332
O O1 0.742447 0.500475 0.794966
O O2 0.872248 0.516850 0.657517
O O3 0.817120 0.264723 0.733679
O O4 0.816716 0.414206 0.475601
O O5 0.061409 0.417054 0.175826
O O6 0.060535 0.253879 0.925051
O O7 0.124139 0.506313 0.852243
O O8 0.000000 0.500000 0.000000
O O9 0.680576 0.264231 0.861574
O O10 0.696646 0.404890 0.104264
O O11 0.604918 0.475375 0.033808
O O12 0.750267 0.029249 0.806081
O O13 0.622987 0.016876 0.918959
O O14 0.525630 0.549179 0.719826
O O15 0.458104 0.767954 0.914619
O O16 0.500000 0.500000 0.000000
O O17 0.000000 0.500000 0.500000
O O18 0.500000 0.500000 0.500000
#
# Coordination Sequence:
#
# PCOD9242792 Si02
#       8
#     4   4   4   4   4   4   4   4
#     4  11  22  39  65  94 126 162 214 257 310 371
#     4  12  25  44  67  95 130 166 209 254 311 367
#     4  10  20  36  59  89 118 162 207 258 309 375
#     4  10  20  35  61  86 122 159 209 257 309 373
#     4  11  24  37  64  87 124 163 211 264 325 384
#     4  12  25  44  67  95 130 167 207 256 309 369
#     4  11  22  41  60  91 122 161 211 264 321 388
#     4  11  22  39  65  95 124 165 210 260 308 370
#
# _framework density 19.443442000000001
#
# number of rings (size 3 to 8) (size 9 to 14) (size 15 to 20)
#    0.000    1.000    1.250    8.250    7.000    0.000 
#    0.000    2.500    0.000    0.000    0.000    0.000 
#    0.000    0.000    0.000    0.000    0.000    0.000 
#
# Total GULP energy -178362.771495 kJ/mol
# GULP energy per Si atom -5573.836609 kJ/mol
# Density = 1.939919 g / cm^3
# Si number density = 19.443442 Si / 1000 Ang^3
#
#
#
# Elastic Constant Matrix: (Units=GPa)
#
#
# Indices 1 2 3 4 5 6 
#
# 1 174.7622 44.7060 79.8533 0.0000 -9.9491 0.0000
# 2 44.7060 70.7747 34.3763 0.0000 -12.6254 0.0000
# 3 79.8533 34.3763 177.8208 0.0000 11.1801 0.0000
# 4 0.0000 0.0000 0.0000 30.1848 0.0000 -0.4488
# 5 -9.9491 -12.6254 11.1801 0.0000 55.5885 0.0000
# 6 0.0000 0.0000 0.0000 -0.4488 0.0000 30.7148
#
#
#
# Elastic Compliance Matrix: (Units=1/GPa)
#
#
# Indices 1 2 3 4 5 6 
#
# 1 0.008049 -0.003377 -0.003043 0.000000 0.001286 0.000000
# 2 -0.003377 0.018043 -0.002219 0.000000 0.003940 0.000000
# 3 -0.003043 -0.002219 0.007581 0.000000 -0.002573 0.000000
# 4 0.000000 0.000000 0.000000 0.033136 0.000000 0.000484
# 5 0.001286 0.003940 -0.002573 0.000000 0.019632 0.000000
# 6 0.000000 0.000000 0.000000 0.000484 0.000000 0.032565
#
#
# Mechanical properties :
#
#
# Convention : Reuss Voigt Hill
#
# Bulk Modulus (GPa) = 60.99334 82.35877 71.67605
# Shear Modulus (GPa) = 35.27328 40.92575 38.09952
#
# Velocity S-wave (km/s) = 4.26390 4.59285 4.43143
# Velocity P-wave (km/s) = 7.46183 8.40094 7.94527
#
# Compressibility (1/GPa) = 0.01639523
#
# Stress axis : x y z
#
# Youngs Moduli (GPa) = 124.23136 55.42172 131.91224
#
# Poissons Ratio (x) = 0.18718 0.40136
# Poissons Ratio (y) = 0.41958 0.29274
# Poissons Ratio (z) = 0.37799 0.12299
#
# Static dielectric constant tensor:
#      x y z
#    x 1.702020 0.000000 -0.039700 
#    y 0.000000 1.674500 0.000000 
#    z -0.039700 0.000000 1.654300 
# 
# From -- ./inp_files/19367.got.cif
#   From: 2010.05.17/outbox.cif.g08.bks.cpg/sg14_10_cif.got.tgz:19367.got - 2010.06.03 17:49:19.
