data_PCOD9242268
_publ_section_title
;
Structure prediction by ZEFSAII (Michael W. Deem and Ramdas Pophale) SiO2 
 PCOD9242268
Probable space group: P 21/C
;
_chemical_formula_sum "Si O2"
_cell_formula_units_Z 24
_cell_length_a 8.380425
_cell_length_b 8.317526
_cell_length_c 16.795467
_cell_angle_alpha 90.000000
_cell_angle_beta 73.006751
_cell_angle_gamma 90.000000
_cell_volume 1119.603512
_symmetry_space_group_name_H-M "P 21/C"
_symmetry_group_IT_number 14
_symmetry_cell_setting 'monoclinic'
loop_
_space_group_symop_operation_xyz
x,y,z
-x,1/2+y,1/2-z
-x,-y,-z
x,1/2-y,1/2+z
loop_
_atom_site_type_symbol
_atom_site_label
_atom_site_fract_x
_atom_site_fract_y
_atom_site_fract_z
Si Si1 0.617506 0.396350 0.038044
Si Si2 0.559162 0.600514 0.350012
Si Si3 0.919531 0.982849 0.424010
Si Si4 0.240208 0.104750 0.336562
Si Si5 0.796143 0.956347 0.102905
Si Si6 0.867110 0.894414 0.913317
O O1 0.525933 0.240827 0.084998
O O2 0.669878 0.499312 0.108470
O O3 0.500000 0.500000 0.000000
O O4 0.776461 0.383207 0.955512
O O5 0.638478 0.643573 0.253576
O O6 0.399003 0.490625 0.354573
O O7 0.722564 0.544550 0.375299
O O8 0.854776 0.801012 0.420605
O O9 0.000000 0.000000 0.500000
O O10 0.067949 0.013640 0.340369
O O11 0.176457 0.271729 0.380819
O O12 0.824947 0.972391 0.004566
O O13 0.936976 0.061269 0.127698
#
# Coordination Sequence:
#
# PCOD9242268 Si02
#       6
#     4   4   4   4   4   4
#     4  11  21  42  72  92 124 181 228 258 315 415
#     4  12  25  42  64  99 135 165 218 278 335 385
#     4  10  19  41  68  89 119 173 226 255 313 400
#     4  11  24  42  64  97 133 168 212 283 336 377
#     4  11  23  42  64  94 132 167 215 272 327 385
#     4  11  23  41  67  93 125 174 218 266 323 394
#
# _framework density 21.436159
#
# number of rings (size 3 to 8) (size 9 to 14) (size 15 to 20)
#    0.000    1.000    5.000    3.500    2.333    1.333 
#    3.000    0.000    0.000    0.000    0.000    0.000 
#    0.000    0.000    0.000    0.000    0.000    0.000 
#
# Total GULP energy -133740.134671 kJ/mol
# GULP energy per Si atom -5572.505611 kJ/mol
# Density = 2.138737 g / cm^3
# Si number density = 21.436159 Si / 1000 Ang^3
#
#
#
# Elastic Constant Matrix: (Units=GPa)
#
#
# Indices 1 2 3 4 5 6 
#
# 1 141.2663 24.2440 34.5885 0.0000 -10.3453 0.0000
# 2 24.2440 51.2910 -2.2931 0.0000 -4.8426 0.0000
# 3 34.5885 -2.2931 45.0272 0.0000 -15.8880 0.0000
# 4 0.0000 0.0000 0.0000 13.5095 0.0000 -7.1750
# 5 -10.3453 -4.8426 -15.8880 0.0000 26.0504 0.0000
# 6 0.0000 0.0000 0.0000 -7.1750 0.0000 18.1815
#
#
#
# Elastic Compliance Matrix: (Units=1/GPa)
#
#
# Indices 1 2 3 4 5 6 
#
# 1 0.009965 -0.005327 -0.008765 0.000000 -0.002379 0.000000
# 2 -0.005327 0.023004 0.007678 0.000000 0.006844 0.000000
# 3 -0.008765 0.007678 0.036453 0.000000 0.020179 0.000000
# 4 0.000000 0.000000 0.000000 0.093650 0.000000 0.036957
# 5 -0.002379 0.006844 0.020179 0.000000 0.051022 0.000000
# 6 0.000000 0.000000 0.000000 0.036957 0.000000 0.069585
#
#
# Mechanical properties :
#
#
# Convention : Reuss Voigt Hill
#
# Bulk Modulus (GPa) = 17.66968 38.96258 28.31613
# Shear Modulus (GPa) = 15.85430 23.61796 19.73613
#
# Velocity S-wave (km/s) = 2.72252 3.32291 3.03759
# Velocity P-wave (km/s) = 4.25954 5.73915 5.05379
#
# Compressibility (1/GPa) = 0.05659413
#
# Stress axis : x y z
#
# Youngs Moduli (GPa) = 100.35180 43.47113 27.43235
#
# Poissons Ratio (x) = 0.23156 0.24046
# Poissons Ratio (y) = 0.53454 -0.21063
# Poissons Ratio (z) = 0.87962 -0.33378
#
# Static dielectric constant tensor:
#      x y z
#    x 1.956360 0.000000 -0.039490 
#    y 0.000000 54.661350 0.000000 
#    z -0.039490 0.000000 1.788920 
# 
# From -- ./inp_files/54490.got.cif
#   From: 2010.05.17/outbox.cif.g08.bks.cpg/sg14_28_cif.got.tgz:54490.got - 2010.06.03 17:49:19.
