data_PCOD9242430
_publ_section_title
;
Structure prediction by ZEFSAII (Michael W. Deem and Ramdas Pophale) SiO2 
 PCOD9242430
Probable space group: P 21/C
;
_chemical_formula_sum "Si O2"
_cell_formula_units_Z 32
_cell_length_a 6.334298
_cell_length_b 12.082128
_cell_length_c 23.259350
_cell_angle_alpha 90.000000
_cell_angle_beta 107.489510
_cell_angle_gamma 90.000000
_cell_volume 1697.790352
_symmetry_space_group_name_H-M "P 21/C"
_symmetry_group_IT_number 14
_symmetry_cell_setting 'monoclinic'
loop_
_space_group_symop_operation_xyz
x,y,z
-x,1/2+y,1/2-z
-x,-y,-z
x,1/2-y,1/2+z
loop_
_atom_site_type_symbol
_atom_site_label
_atom_site_fract_x
_atom_site_fract_y
_atom_site_fract_z
Si Si1 0.238386 0.614783 0.435069
Si Si2 0.054090 0.523801 0.214000
Si Si3 0.794119 0.540862 0.402626
Si Si4 0.375774 0.167764 0.735250
Si Si5 0.518254 0.878744 0.061415
Si Si6 0.363938 0.830267 0.825518
Si Si7 0.820083 0.416434 0.298009
Si Si8 0.179505 0.232443 0.332199
O O1 0.322133 0.486036 0.434535
O O2 0.426832 0.663207 0.492857
O O3 0.228172 0.681967 0.373949
O O4 0.997011 0.608692 0.445295
O O5 0.201290 0.424341 0.199760
O O6 0.218717 0.597457 0.268493
O O7 0.881348 0.462868 0.241365
O O8 0.908447 0.608757 0.165065
O O9 0.698569 0.433762 0.426751
O O10 0.579382 0.609230 0.368501
O O11 0.897716 0.503834 0.350778
O O12 0.525521 0.229363 0.700300
O O13 0.561541 0.100819 0.785828
O O14 0.264638 0.250249 0.772925
O O15 0.641080 0.787672 0.110483
O O16 0.960453 0.307028 0.318923
#
# Coordination Sequence:
#
# PCOD9242430 Si02
#       8
#     4   4   4   4   4   4   4   4
#     4  10  20  33  52  79 112 144 181 227 274 331
#     4  11  22  32  52  81 109 144 182 224 275 329
#     4  11  17  33  54  77 108 144 178 221 276 331
#     4  11  22  35  52  79 112 145 183 223 275 335
#     4  10  20  33  51  81 111 144 184 223 276 334
#     4  11  21  33  53  78 108 144 180 224 276 331
#     4  11  18  33  52  77 111 140 174 224 270 330
#     4  11  21  34  53  77 111 147 177 223 279 327
#
# _framework density 18.848030000000001
#
# number of rings (size 3 to 8) (size 9 to 14) (size 15 to 20)
#    0.000    1.250    6.250    2.625    0.000    0.000 
#    0.000    0.000    0.000    0.750    0.000    1.750 
#    0.000    0.000    0.000    0.000    0.000    0.000 
#
# Total GULP energy -178157.291574 kJ/mol
# GULP energy per Si atom -5567.415362 kJ/mol
# Density = 1.880513 g / cm^3
# Si number density = 18.848030 Si / 1000 Ang^3
#
#
#
# Elastic Constant Matrix: (Units=GPa)
#
#
# Indices 1 2 3 4 5 6 
#
# 1 74.9361 10.6195 4.6941 0.0000 7.3702 0.0000
# 2 10.6195 46.6200 15.5294 0.0000 -4.0462 0.0000
# 3 4.6941 15.5294 62.8026 0.0000 6.0452 0.0000
# 4 0.0000 0.0000 0.0000 18.4322 0.0000 1.6182
# 5 7.3702 -4.0462 6.0452 0.0000 20.1492 0.0000
# 6 0.0000 0.0000 0.0000 1.6182 0.0000 33.0102
#
#
#
# Elastic Compliance Matrix: (Units=1/GPa)
#
#
# Indices 1 2 3 4 5 6 
#
# 1 0.014498 -0.004017 0.000513 0.000000 -0.006263 0.000000
# 2 -0.004017 0.025378 -0.006804 0.000000 0.008607 0.000000
# 3 0.000513 -0.006804 0.018243 0.000000 -0.007027 0.000000
# 4 0.000000 0.000000 0.000000 0.054487 0.000000 -0.002671
# 5 -0.006263 0.008607 -0.007027 0.000000 0.055757 0.000000
# 6 0.000000 0.000000 0.000000 -0.002671 0.000000 0.030425
#
#
# Mechanical properties :
#
#
# Convention : Reuss Voigt Hill
#
# Bulk Modulus (GPa) = 26.66396 27.33829 27.00112
# Shear Modulus (GPa) = 21.56047 24.55271 23.05659
#
# Velocity S-wave (km/s) = 3.38584 3.61316 3.50135
# Velocity P-wave (km/s) = 5.42796 5.65179 5.54100
#
# Compressibility (1/GPa) = 0.03750381
#
# Stress axis : x y z
#
# Youngs Moduli (GPa) = 68.97563 39.40370 54.81448
#
# Poissons Ratio (x) = 0.15828 -0.02809
# Poissons Ratio (y) = 0.27706 0.37294
# Poissons Ratio (z) = -0.03535 0.26809
#
# Static dielectric constant tensor:
#      x y z
#    x 1.715240 0.000000 -0.008230 
#    y 0.000000 1.678720 0.000000 
#    z -0.008230 0.000000 1.747250 
# 
# From -- ./inp_files/71280.got.cif
#   From: 2010.05.17/outbox.cif.g08.bks.cpg/sg14_36_cif.got.tgz:71280.got - 2010.06.03 17:49:19.
