data_PCOD9242881
_publ_section_title
;
Structure prediction by ZEFSAII (Michael W. Deem and Ramdas Pophale) SiO2 
 PCOD9242881
Probable space group: P 21/C
;
_chemical_formula_sum "Si O2"
_cell_formula_units_Z 32
_cell_length_a 20.427989
_cell_length_b 10.429160
_cell_length_c 8.592322
_cell_angle_alpha 90.000000
_cell_angle_beta 77.859630
_cell_angle_gamma 90.000000
_cell_volume 1789.626342
_symmetry_space_group_name_H-M "P 21/C"
_symmetry_group_IT_number 14
_symmetry_cell_setting 'monoclinic'
loop_
_space_group_symop_operation_xyz
x,y,z
-x,1/2+y,1/2-z
-x,-y,-z
x,1/2-y,1/2+z
loop_
_atom_site_type_symbol
_atom_site_label
_atom_site_fract_x
_atom_site_fract_y
_atom_site_fract_z
Si Si1 0.705340 0.108833 0.710156
Si Si2 0.449856 0.889628 0.212592
Si Si3 0.449856 0.889627 0.837553
Si Si4 0.198211 0.110882 0.836998
Si Si5 0.801789 0.889117 0.535209
Si Si6 0.048292 0.110038 0.412200
Si Si7 0.048292 0.389962 0.539508
Si Si8 0.294660 0.608833 0.415497
O O1 0.627513 0.085680 0.704380
O O2 0.723482 0.250000 0.638259
O O3 0.752397 0.000182 0.615961
O O4 0.710250 0.107624 0.894875
O O5 0.468984 0.750001 0.265509
O O6 0.500000 0.000001 0.242767
O O7 0.452249 0.886202 0.023876
O O8 0.372487 0.914319 0.831893
O O9 0.194772 0.115368 0.652614
O O10 0.247603 0.999818 0.868358
O O11 0.220174 0.250000 0.889914
O O12 0.123871 0.087717 0.941652
O O13 0.876129 0.912283 0.565522
O O14 0.027670 0.250000 0.486165
O O15 0.047827 0.111719 0.226087
O O16 0.000000 0.000000 0.500000
O O17 0.000000 0.500000 0.500000
#
# Coordination Sequence:
#
# PCOD9242881 Si02
#       8
#     4   4   4   4   4   4   4   4
#     4  10  20  36  56  80 110 144 183 227 274 325
#     4   9  19  35  54  78 108 141 179 223 270 322
#     4   9  19  35  54  78 108 141 179 223 270 322
#     4  11  22  38  58  82 111 145 183 225 273 324
#     4  11  22  38  58  82 111 145 183 225 273 324
#     4  11  22  39  60  85 114 146 183 225 272 322
#     4  11  22  39  60  85 114 146 183 225 272 322
#     4  10  20  36  56  80 110 144 183 227 274 325
#
# _framework density 17.880828000000001
#
# number of rings (size 3 to 8) (size 9 to 14) (size 15 to 20)
#    0.000    1.750    0.000    6.750    0.000    3.500 
#    0.000    7.500    0.000    0.000    0.000    0.000 
#    0.000    0.000    0.000    0.000    0.000    0.000 
#
# Total GULP energy -178779.307707 kJ/mol
# GULP energy per Si atom -5586.853366 kJ/mol
# Density = 1.784013 g / cm^3
# Si number density = 17.880828 Si / 1000 Ang^3
#
#
#
# Elastic Constant Matrix: (Units=GPa)
#
#
# Indices 1 2 3 4 5 6 
#
# 1 94.9931 126.1586 55.1833 0.0000 0.0301 0.0000
# 2 126.1586 205.6018 78.8442 0.0000 -9.7272 0.0000
# 3 55.1833 78.8442 133.0881 0.0000 7.8010 0.0000
# 4 0.0000 0.0000 0.0000 37.1948 0.0000 -1.5957
# 5 0.0301 -9.7272 7.8010 0.0000 21.5761 0.0000
# 6 0.0000 0.0000 0.0000 -1.5957 0.0000 44.9568
#
#
#
# Elastic Compliance Matrix: (Units=1/GPa)
#
#
# Indices 1 2 3 4 5 6 
#
# 1 0.063499 -0.038867 -0.002320 0.000000 -0.016772 0.000000
# 2 -0.038867 0.030495 -0.002819 0.000000 0.014821 0.000000
# 3 -0.002320 -0.002819 0.010441 0.000000 -0.005043 0.000000
# 4 0.000000 0.000000 0.000000 0.026926 0.000000 0.000956
# 5 -0.016772 0.014821 -0.005043 0.000000 0.054876 0.000000
# 6 0.000000 0.000000 0.000000 0.000956 0.000000 0.022277
#
#
# Mechanical properties :
#
#
# Convention : Reuss Voigt Hill
#
# Bulk Modulus (GPa) = 60.89051 106.00613 83.44832
# Shear Modulus (GPa) = 16.55617 32.31201 24.43409
#
# Velocity S-wave (km/s) = 3.04619 4.25558 3.70063
# Velocity P-wave (km/s) = 6.81908 9.14112 8.06412
#
# Compressibility (1/GPa) = 0.01642292
#
# Stress axis : x y z
#
# Youngs Moduli (GPa) = 15.74832 32.79220 95.77178
#
# Poissons Ratio (x) = 1.27454 0.22221
# Poissons Ratio (y) = 0.61209 0.26998
# Poissons Ratio (z) = 0.03654 0.09244
#
# Static dielectric constant tensor:
#      x y z
#    x 1.595830 0.000000 0.001060 
#    y 0.000000 1.581490 0.000000 
#    z 0.001060 0.000000 1.600980 
# 
# From -- ./inp_files/18611.got.cif
#   From: 2010.05.17/outbox.cif.g08.bks.cpg/sg14_10_cif.got.tgz:18611.got - 2010.06.03 17:49:19.
