data_PCOD9242046
_publ_section_title
;
Structure prediction by ZEFSAII (Michael W. Deem and Ramdas Pophale) SiO2 
 PCOD9242046
Probable space group: P 21/C
;
_chemical_formula_sum "Si O2"
_cell_formula_units_Z 24
_cell_length_a 9.037841
_cell_length_b 11.778565
_cell_length_c 13.230507
_cell_angle_alpha 90.000000
_cell_angle_beta 46.959914
_cell_angle_gamma 90.000000
_cell_volume 1029.384181
_symmetry_space_group_name_H-M "P 21/C"
_symmetry_group_IT_number 14
_symmetry_cell_setting 'monoclinic'
loop_
_space_group_symop_operation_xyz
x,y,z
-x,1/2+y,1/2-z
-x,-y,-z
x,1/2-y,1/2+z
loop_
_atom_site_type_symbol
_atom_site_label
_atom_site_fract_x
_atom_site_fract_y
_atom_site_fract_z
Si Si1 0.591264 0.933832 0.691648
Si Si2 0.418414 0.651396 0.086680
Si Si3 0.208754 0.426131 0.589820
Si Si4 0.287199 0.257897 0.206952
Si Si5 0.674159 0.393658 0.305403
Si Si6 0.170806 0.002675 0.816096
O O1 0.606735 0.887785 0.570544
O O2 0.649888 0.833538 0.739210
O O3 0.699502 0.046586 0.684347
O O4 0.349666 0.959008 0.804827
O O5 0.308856 0.759322 0.190577
O O6 0.262556 0.548007 0.166435
O O7 0.509305 0.689867 0.938540
O O8 0.174426 0.313488 0.672628
O O9 0.437768 0.414374 0.444357
O O10 0.204277 0.534273 0.667785
O O11 0.046797 0.445805 0.577836
O O12 0.167718 0.362778 0.308559
#
# Coordination Sequence:
#
# PCOD9242046 Si02
#       6
#     4   4   4   4   4   4
#     4   9  20  33  57  82 104 153 184 227 272 323
#     4   9  20  33  58  80 107 151 181 219 284 328
#     4   9  20  33  57  82 105 151 184 226 280 318
#     4  10  19  39  56  77 120 146 183 228 281 334
#     4   9  17  37  54  73 115 145 183 225 279 333
#     4  10  21  32  57  87 107 140 198 225 270 335
#
# _framework density 23.314910000000001
#
# number of rings (size 3 to 8) (size 9 to 14) (size 15 to 20)
#    1.000    1.667    0.000    2.500    2.333    0.667 
#    0.000    0.000    7.333    4.000    0.000    0.000 
#    0.000    0.000    0.000    0.000    0.000    0.000 
#
# Total GULP energy -133819.452814 kJ/mol
# GULP energy per Si atom -5575.810534 kJ/mol
# Density = 2.326184 g / cm^3
# Si number density = 23.314910 Si / 1000 Ang^3
#
#
#
# Elastic Constant Matrix: (Units=GPa)
#
#
# Indices 1 2 3 4 5 6 
#
# 1 73.8830 33.6311 0.5893 0.0000 -14.7863 0.0000
# 2 33.6311 149.6254 13.7310 0.0000 3.9985 0.0000
# 3 0.5893 13.7310 22.3825 0.0000 9.5165 0.0000
# 4 0.0000 0.0000 0.0000 19.9707 0.0000 9.7851
# 5 -14.7863 3.9985 9.5165 0.0000 21.2605 0.0000
# 6 0.0000 0.0000 0.0000 9.7851 0.0000 21.3128
#
#
#
# Elastic Compliance Matrix: (Units=1/GPa)
#
#
# Indices 1 2 3 4 5 6 
#
# 1 0.018649 -0.004188 -0.004658 0.000000 0.015842 0.000000
# 2 -0.004188 0.008032 -0.003627 0.000000 -0.002800 0.000000
# 3 -0.004658 -0.003627 0.059422 0.000000 -0.029155 0.000000
# 4 0.000000 0.000000 0.000000 0.064607 0.000000 -0.029662
# 5 0.015842 -0.002800 -0.029155 0.000000 0.071631 0.000000
# 6 0.000000 0.000000 0.000000 -0.029662 0.000000 0.060538
#
#
# Mechanical properties :
#
#
# Convention : Reuss Voigt Hill
#
# Bulk Modulus (GPa) = 16.35115 37.97709 27.16412
# Shear Modulus (GPa) = 15.23416 25.70476 20.46946
#
# Velocity S-wave (km/s) = 2.55896 3.32400 2.96625
# Velocity P-wave (km/s) = 3.96981 5.57280 4.83816
#
# Compressibility (1/GPa) = 0.06115779
#
# Stress axis : x y z
#
# Youngs Moduli (GPa) = 53.62272 124.49797 16.82886
#
# Poissons Ratio (x) = 0.52135 0.07839
# Poissons Ratio (y) = 0.22455 0.06104
# Poissons Ratio (z) = 0.24977 0.45156
#
# Static dielectric constant tensor:
#      x y z
#    x 1.868570 0.000000 0.059030 
#    y 0.000000 1.888330 0.000000 
#    z 0.059030 0.000000 2.023770 
# 
# From -- ./inp_files/55336.got.cif
#   From: 2010.05.17/outbox.cif.g08.bks.cpg/sg14_28_cif.got.tgz:55336.got - 2010.06.03 17:49:19.
