data_PCOD9242140
_publ_section_title
;
Structure prediction by ZEFSAII (Michael W. Deem and Ramdas Pophale) SiO2 
 PCOD9242140
Probable space group: P 21/C
;
_chemical_formula_sum "Si O2"
_cell_formula_units_Z 20
_cell_length_a 6.878733
_cell_length_b 16.201022
_cell_length_c 9.887995
_cell_angle_alpha 90.000000
_cell_angle_beta 134.499299
_cell_angle_gamma 90.000000
_cell_volume 785.970739
_symmetry_space_group_name_H-M "P 21/C"
_symmetry_group_IT_number 14
_symmetry_cell_setting 'monoclinic'
loop_
_space_group_symop_operation_xyz
x,y,z
-x,1/2+y,1/2-z
-x,-y,-z
x,1/2-y,1/2+z
loop_
_atom_site_type_symbol
_atom_site_label
_atom_site_fract_x
_atom_site_fract_y
_atom_site_fract_z
Si Si1 0.846419 0.921669 0.355726
Si Si2 0.774455 0.278099 0.883777
Si Si3 0.062736 0.116158 0.036718
Si Si4 0.609621 0.482529 0.198037
Si Si5 0.399060 0.655030 0.489411
O O1 0.068864 0.851268 0.465624
O O2 0.595171 0.916936 0.337674
O O3 0.655171 0.907093 0.129606
O O4 0.000000 0.000000 0.500000
O O5 0.574708 0.232276 0.892666
O O6 0.648918 0.309636 0.682610
O O7 0.010843 0.209673 0.967366
O O8 0.899515 0.060646 0.850389
O O9 0.880532 0.113410 0.088613
O O10 0.344063 0.069943 0.203636
O O11 0.500000 0.500000 0.000000
#
# Coordination Sequence:
#
# PCOD9242140 Si02
#       5
#     4   4   4   4   4
#     4  11  25  41  63 104 135 173 223 283 341 397
#     4  10  22  42  68  96 135 176 228 274 335 399
#     4   8  20  38  64  97 124 177 222 266 325 400
#     4  10  19  39  67  94 133 170 220 273 333 396
#     4   9  22  44  67  99 131 176 226 281 329 401
#
# _framework density 25.446238000000001
#
# number of rings (size 3 to 8) (size 9 to 14) (size 15 to 20)
#    1.200    1.200    0.000    1.200    0.000    7.200 
#    0.000    0.000    0.000    0.000    0.000    0.000 
#    0.000    0.000    0.000    0.000    0.000    0.000 
#
# Total GULP energy -111514.461969 kJ/mol
# GULP energy per Si atom -5575.723098 kJ/mol
# Density = 2.538832 g / cm^3
# Si number density = 25.446238 Si / 1000 Ang^3
#
#
#
# Elastic Constant Matrix: (Units=GPa)
#
#
# Indices 1 2 3 4 5 6 
#
# 1 84.7066 4.7846 25.4732 0.0000 1.6278 0.0000
# 2 4.7846 109.0227 31.4447 0.0000 5.8406 0.0000
# 3 25.4732 31.4447 149.7746 0.0000 -9.6355 0.0000
# 4 0.0000 0.0000 0.0000 50.3472 0.0000 1.4447
# 5 1.6278 5.8406 -9.6355 0.0000 33.6741 0.0000
# 6 0.0000 0.0000 0.0000 1.4447 0.0000 30.0962
#
#
#
# Elastic Compliance Matrix: (Units=1/GPa)
#
#
# Indices 1 2 3 4 5 6 
#
# 1 0.012495 0.000167 -0.002242 0.000000 -0.001274 0.000000
# 2 0.000167 0.009947 -0.002270 0.000000 -0.002383 0.000000
# 3 -0.002242 -0.002270 0.007709 0.000000 0.002708 0.000000
# 4 0.000000 0.000000 0.000000 0.019889 0.000000 -0.000955
# 5 -0.001274 -0.002383 0.002708 0.000000 0.030946 0.000000
# 6 0.000000 0.000000 0.000000 -0.000955 0.000000 0.033273
#
#
# Mechanical properties :
#
#
# Convention : Reuss Voigt Hill
#
# Bulk Modulus (GPa) = 46.59827 51.87876 49.23852
# Shear Modulus (GPa) = 38.43087 41.61026 40.02056
#
# Velocity S-wave (km/s) = 3.89044 4.04818 3.97009
# Velocity P-wave (km/s) = 6.20749 6.50247 6.35669
#
# Compressibility (1/GPa) = 0.02146002
#
# Stress axis : x y z
#
# Youngs Moduli (GPa) = 80.03348 100.52781 129.72148
#
# Poissons Ratio (x) = -0.01675 0.29084
# Poissons Ratio (y) = -0.01333 0.29448
# Poissons Ratio (z) = 0.17944 0.22821
#
# Static dielectric constant tensor:
#      x y z
#    x 2.267710 0.000000 0.151810 
#    y 0.000000 2.061430 0.000000 
#    z 0.151810 0.000000 2.163750 
# 
# From -- ./inp_files/26307.got.cif
#   From: 2010.05.17/outbox.cif.g08.bks.cpg/sg14_14_cif.got.tgz:26307.got - 2010.06.03 17:49:19.
