data_PCOD9242245
_publ_section_title
;
Structure prediction by ZEFSAII (Michael W. Deem and Ramdas Pophale) SiO2 
 PCOD9242245
Probable space group: P 21/C
;
_chemical_formula_sum "Si O2"
_cell_formula_units_Z 32
_cell_length_a 17.835625
_cell_length_b 12.450998
_cell_length_c 23.900733
_cell_angle_alpha 90.000000
_cell_angle_beta 16.156980
_cell_angle_gamma 90.000000
_cell_volume 1476.964661
_symmetry_space_group_name_H-M "P 21/C"
_symmetry_group_IT_number 14
_symmetry_cell_setting 'monoclinic'
loop_
_space_group_symop_operation_xyz
x,y,z
-x,1/2+y,1/2-z
-x,-y,-z
x,1/2-y,1/2+z
loop_
_atom_site_type_symbol
_atom_site_label
_atom_site_fract_x
_atom_site_fract_y
_atom_site_fract_z
Si Si1 0.744341 0.177308 0.013011
Si Si2 0.323712 0.284447 0.459911
Si Si3 0.740189 0.659590 0.622556
Si Si4 0.943694 0.026444 0.657481
Si Si5 0.185785 0.201861 0.265797
Si Si6 0.229885 0.697680 0.626647
Si Si7 0.123690 0.826461 0.394720
Si Si8 0.523708 0.446534 0.775693
O O1 0.765581 0.133499 0.935138
O O2 0.014069 0.231784 0.844140
O O3 0.505035 0.265393 0.180771
O O4 0.652216 0.093495 0.125652
O O5 0.297411 0.336613 0.417523
O O6 0.556028 0.338315 0.329531
O O7 0.443161 0.162558 0.365682
O O8 0.022848 0.277693 0.699057
O O9 0.711180 0.539201 0.666065
O O10 0.015093 0.719721 0.441433
O O11 0.843455 0.121639 0.768983
O O12 0.974173 0.075595 0.573598
O O13 0.241410 0.996071 0.464727
O O14 0.767746 0.920420 0.786794
O O15 0.004605 0.186077 0.451667
O O16 0.478433 0.248311 0.070563
#
# Coordination Sequence:
#
# PCOD9242245 Si02
#       8
#     4   4   4   4   4   4   4   4
#     4  11  22  40  62  92 130 167 204 266 315 373
#     4  10  23  41  59  92 127 165 207 263 316 373
#     4  11  20  40  66  90 121 169 212 262 306 374
#     4  11  22  39  64  98 126 160 211 266 314 379
#     4  12  23  40  67  96 123 167 215 257 321 366
#     4  11  24  41  59  91 137 162 198 262 324 380
#     4  12  21  40  68  92 122 167 217 260 314 365
#     4  10  19  41  63  90 126 159 220 257 304 373
#
# _framework density 21.666056999999999
#
# number of rings (size 3 to 8) (size 9 to 14) (size 15 to 20)
#    0.000    1.000    8.750    0.750    1.750    1.500 
#    2.250    0.000    0.000    1.500    0.000    0.000 
#    0.000    0.000    0.000    0.000    0.000    0.000 
#
# Total GULP energy -178694.705730 kJ/mol
# GULP energy per Si atom -5584.209554 kJ/mol
# Density = 2.161674 g / cm^3
# Si number density = 21.666057 Si / 1000 Ang^3
#
#
#
# Elastic Constant Matrix: (Units=GPa)
#
#
# Indices 1 2 3 4 5 6 
#
# 1 68.0399 -4.1899 15.8074 0.0000 -11.5655 0.0000
# 2 -4.1899 36.8321 -9.0077 0.0000 3.5132 0.0000
# 3 15.8074 -9.0077 105.9962 0.0000 -20.3823 0.0000
# 4 0.0000 0.0000 0.0000 21.4718 0.0000 -5.3357
# 5 -11.5655 3.5132 -20.3823 0.0000 28.9793 0.0000
# 6 0.0000 0.0000 0.0000 -5.3357 0.0000 5.2408
#
#
#
# Elastic Compliance Matrix: (Units=1/GPa)
#
#
# Indices 1 2 3 4 5 6 
#
# 1 0.015964 0.000995 -0.001265 0.000000 0.005360 0.000000
# 2 0.000995 0.027886 0.001905 0.000000 -0.001643 0.000000
# 3 -0.001265 0.001905 0.011152 0.000000 0.007107 0.000000
# 4 0.000000 0.000000 0.000000 0.062346 0.000000 0.063475
# 5 0.005360 -0.001643 0.007107 0.000000 0.041845 0.000000
# 6 0.000000 0.000000 0.000000 0.063475 0.000000 0.255437
#
#
# Mechanical properties :
#
#
# Convention : Reuss Voigt Hill
#
# Bulk Modulus (GPa) = 17.16091 24.00975 20.58533
# Shear Modulus (GPa) = 11.60678 25.02227 18.31452
#
# Velocity S-wave (km/s) = 2.31706 3.40208 2.91057
# Velocity P-wave (km/s) = 3.88538 5.15150 4.56257
#
# Compressibility (1/GPa) = 0.05827198
#
# Stress axis : x y z
#
# Youngs Moduli (GPa) = 62.64215 35.86003 89.67301
#
# Poissons Ratio (x) = -0.03569 0.11347
# Poissons Ratio (y) = -0.06234 -0.17086
# Poissons Ratio (z) = 0.07926 -0.06833
#
# Static dielectric constant tensor:
#      x y z
#    x 1.803480 0.000000 0.002990 
#    y 0.000000 1.783070 0.000000 
#    z 0.002990 0.000000 1.833470 
# 
# From -- ./inp_files/68688.got.cif
#   From: 2010.05.17/outbox.cif.g08.bks.cpg/sg14_35_cif.got.tgz:68688.got - 2010.06.03 17:49:19.
