data_PCOD9242932
_publ_section_title
;
Structure prediction by ZEFSAII (Michael W. Deem and Ramdas Pophale) SiO2 
 PCOD9242932
Probable space group: P 21/C
;
_chemical_formula_sum "Si O2"
_cell_formula_units_Z 32
_cell_length_a 22.461413
_cell_length_b 9.565393
_cell_length_c 8.706610
_cell_angle_alpha 90.000000
_cell_angle_beta 67.196698
_cell_angle_gamma 90.000000
_cell_volume 1724.427406
_symmetry_space_group_name_H-M "P 21/C"
_symmetry_group_IT_number 14
_symmetry_cell_setting 'monoclinic'
loop_
_space_group_symop_operation_xyz
x,y,z
-x,1/2+y,1/2-z
-x,-y,-z
x,1/2-y,1/2+z
loop_
_atom_site_type_symbol
_atom_site_label
_atom_site_fract_x
_atom_site_fract_y
_atom_site_fract_z
Si Si1 0.821965 0.097861 0.493124
Si Si2 0.438305 0.094677 0.377493
Si Si3 0.060862 0.095038 0.624531
Si Si4 0.326934 0.596559 0.488462
Si Si5 0.561731 0.905305 0.254173
Si Si6 0.821995 0.097985 0.862960
Si Si7 0.673036 0.403410 0.142542
Si Si8 0.060826 0.405074 0.753658
O O1 0.824187 0.105539 0.675831
O O2 0.839549 0.249909 0.410415
O O3 0.747710 0.067935 0.523452
O O4 0.873285 0.982127 0.391290
O O5 0.444794 0.249992 0.305145
O O6 0.434872 0.101034 0.565072
O O7 0.500034 0.000025 0.272634
O O8 0.375074 0.018079 0.375866
O O9 0.055889 0.250070 0.694001
O O10 0.060845 0.101861 0.439093
O O11 0.000033 0.000038 0.732536
O O12 0.375008 0.481822 0.373878
O O13 0.252245 0.567995 0.518797
O O14 0.343805 0.749968 0.406081
O O15 0.331345 0.599707 0.668563
O O16 0.873347 0.982337 0.862191
#
# Coordination Sequence:
#
# PCOD9242932 Si02
#       8
#     4   4   4   4   4   4   4   4
#     4   9  19  35  55  81 110 142 180 221 266 318
#     4  11  24  40  59  83 111 144 182 225 273 324
#     4  10  21  36  54  78 108 141 180 224 269 319
#     4  10  20  36  58  83 113 146 182 224 270 323
#     4  11  24  40  59  83 111 144 182 225 273 324
#     4   9  19  35  55  81 110 142 180 221 266 318
#     4  10  20  36  58  83 113 146 182 224 270 323
#     4  10  21  36  54  78 108 141 180 224 269 319
#
# _framework density 18.556885000000001
#
# number of rings (size 3 to 8) (size 9 to 14) (size 15 to 20)
#    0.000    2.000    0.000    3.000    0.000    7.500 
#    0.000    2.500    0.000    0.000    0.000    0.000 
#    0.000    0.000    0.000    0.000    0.000    0.000 
#
# Total GULP energy -178773.902059 kJ/mol
# GULP energy per Si atom -5586.684439 kJ/mol
# Density = 1.851465 g / cm^3
# Si number density = 18.556885 Si / 1000 Ang^3
#
#
#
# Elastic Constant Matrix: (Units=GPa)
#
#
# Indices 1 2 3 4 5 6 
#
# 1 112.7746 106.4580 26.7807 0.0000 -8.4535 0.0000
# 2 106.4580 202.1909 60.6515 0.0000 -28.4959 0.0000
# 3 26.7807 60.6515 56.4745 0.0000 -26.7323 0.0000
# 4 0.0000 0.0000 0.0000 39.9042 0.0000 -1.4115
# 5 -8.4535 -28.4959 -26.7323 0.0000 24.2695 0.0000
# 6 0.0000 0.0000 0.0000 -1.4115 0.0000 42.1158
#
#
#
# Elastic Compliance Matrix: (Units=1/GPa)
#
#
# Indices 1 2 3 4 5 6 
#
# 1 0.018322 -0.010377 -0.000607 0.000000 -0.006471 0.000000
# 2 -0.010377 0.013174 -0.007556 0.000000 0.003530 0.000000
# 3 -0.000607 -0.007556 0.045570 0.000000 0.041111 0.000000
# 4 0.000000 0.000000 0.000000 0.025090 0.000000 0.000841
# 5 -0.006471 0.003530 0.041111 0.000000 0.088378 0.000000
# 6 0.000000 0.000000 0.000000 0.000841 0.000000 0.023772
#
#
# Mechanical properties :
#
#
# Convention : Reuss Voigt Hill
#
# Bulk Modulus (GPa) = 25.00904 84.35782 54.68343
# Shear Modulus (GPa) = 18.88837 33.09454 25.99145
#
# Velocity S-wave (km/s) = 3.19386 4.22763 3.74657
# Velocity P-wave (km/s) = 5.20646 8.32996 6.94605
#
# Compressibility (1/GPa) = 0.03998554
#
# Stress axis : x y z
#
# Youngs Moduli (GPa) = 54.57949 75.90955 21.94443
#
# Poissons Ratio (x) = 0.78769 0.01332
# Poissons Ratio (y) = 0.56636 0.16581
# Poissons Ratio (z) = 0.03313 0.57358
#
# Static dielectric constant tensor:
#      x y z
#    x 1.643410 0.000000 -0.009240 
#    y 0.000000 1.605310 0.000000 
#    z -0.009240 0.000000 1.628950 
# 
# From -- ./inp_files/19364.got.cif
#   From: 2010.05.17/outbox.cif.g08.bks.cpg/sg14_10_cif.got.tgz:19364.got - 2010.06.03 17:49:19.
