data_PCOD9242657
_publ_section_title
;
Structure prediction by ZEFSAII (Michael W. Deem and Ramdas Pophale) SiO2 
 PCOD9242657
Probable space group: P 21/C
;
_chemical_formula_sum "Si O2"
_cell_formula_units_Z 32
_cell_length_a 24.287403
_cell_length_b 9.212620
_cell_length_c 14.268500
_cell_angle_alpha 90.000000
_cell_angle_beta 148.285583
_cell_angle_gamma 90.000000
_cell_volume 1678.296680
_symmetry_space_group_name_H-M "P 21/C"
_symmetry_group_IT_number 14
_symmetry_cell_setting 'monoclinic'
loop_
_space_group_symop_operation_xyz
x,y,z
-x,1/2+y,1/2-z
-x,-y,-z
x,1/2-y,1/2+z
loop_
_atom_site_type_symbol
_atom_site_label
_atom_site_fract_x
_atom_site_fract_y
_atom_site_fract_z
Si Si1 0.898455 0.579855 0.434954
Si Si2 0.554662 0.356739 0.039697
Si Si3 0.410389 0.096470 0.822254
Si Si4 0.736088 0.325565 0.160691
Si Si5 0.864238 0.131551 0.483173
Si Si6 0.305235 0.680163 0.108175
Si Si7 0.191284 0.320227 0.064454
Si Si8 0.948376 0.667309 0.306988
O O1 0.821691 0.454409 0.284400
O O2 0.841288 0.676204 0.429129
O O3 0.931493 0.677531 0.394002
O O4 0.995981 0.491210 0.620192
O O5 0.636776 0.382606 0.075299
O O6 0.619148 0.279529 0.218255
O O7 0.500000 0.500000 0.000000
O O8 0.468690 0.242394 0.876757
O O9 0.314156 0.144694 0.749149
O O10 0.355721 0.981260 0.674302
O O11 0.500000 0.000000 0.000000
O O12 0.785073 0.194030 0.290704
O O13 0.710566 0.271506 0.020273
O O14 0.804171 0.167526 0.493566
O O15 0.970887 0.217108 0.619667
O O16 0.871462 0.958899 0.486660
O O17 0.156241 0.315719 0.904972
#
# Coordination Sequence:
#
# PCOD9242657 Si02
#       8
#     4   4   4   4   4   4   4   4
#     4  10  21  36  57  84 112 144 186 227 269 339
#     4  10  20  35  55  84 114 138 184 243 279 317
#     4   9  19  36  56  77 106 146 183 221 274 329
#     4  10  20  37  57  79 110 150 184 221 281 337
#     4   9  20  36  55  80 109 140 180 228 271 325
#     4   9  19  37  58  76 107 152 184 217 279 343
#     4  11  20  36  58  80 110 144 183 231 275 323
#     4  10  21  37  57  81 111 149 182 219 283 340
#
# _framework density 19.066949999999999
#
# number of rings (size 3 to 8) (size 9 to 14) (size 15 to 20)
#    0.000    2.250    0.000    3.750    0.000    3.500 
#    0.000    8.750    0.000    0.000    0.000    0.000 
#    0.000    0.000    0.000    0.000    0.000    0.000 
#
# Total GULP energy -178406.624404 kJ/mol
# GULP energy per Si atom -5575.207013 kJ/mol
# Density = 1.902355 g / cm^3
# Si number density = 19.066950 Si / 1000 Ang^3
#
#
#
# Elastic Constant Matrix: (Units=GPa)
#
#
# Indices 1 2 3 4 5 6 
#
# 1 73.5812 6.1936 36.9509 0.0000 -7.5644 0.0000
# 2 6.1936 34.7927 6.0120 0.0000 3.2598 0.0000
# 3 36.9509 6.0120 64.3884 0.0000 6.4921 0.0000
# 4 0.0000 0.0000 0.0000 22.0679 0.0000 12.9119
# 5 -7.5644 3.2598 6.4921 0.0000 27.1899 0.0000
# 6 0.0000 0.0000 0.0000 12.9119 0.0000 32.3629
#
#
#
# Elastic Compliance Matrix: (Units=1/GPa)
#
#
# Indices 1 2 3 4 5 6 
#
# 1 0.021217 -0.002419 -0.012885 0.000000 0.009269 0.000000
# 2 -0.002419 0.029717 -0.000983 0.000000 -0.004001 0.000000
# 3 -0.012885 -0.000983 0.023943 0.000000 -0.009184 0.000000
# 4 0.000000 0.000000 0.000000 0.059114 0.000000 -0.023585
# 5 0.009269 -0.004001 -0.009184 0.000000 0.042030 0.000000
# 6 0.000000 0.000000 0.000000 -0.023585 0.000000 0.040309
#
#
# Mechanical properties :
#
#
# Convention : Reuss Voigt Hill
#
# Bulk Modulus (GPa) = 23.63883 30.11948 26.87916
# Shear Modulus (GPa) = 19.01101 24.56453 21.78777
#
# Velocity S-wave (km/s) = 3.16106 3.59323 3.38405
# Velocity P-wave (km/s) = 5.07423 5.74857 5.42189
#
# Compressibility (1/GPa) = 0.04230327
#
# Stress axis : x y z
#
# Youngs Moduli (GPa) = 47.13097 33.65078 41.76623
#
# Poissons Ratio (x) = 0.08140 0.53815
# Poissons Ratio (y) = 0.11401 0.04106
# Poissons Ratio (z) = 0.60728 0.03308
#
# Static dielectric constant tensor:
#      x y z
#    x 1.657740 0.000000 0.009800 
#    y 0.000000 1.663620 0.000000 
#    z 0.009800 0.000000 1.696230 
# 
# From -- ./inp_files/46304.got.cif
#   From: 2010.05.17/outbox.cif.g08.bks.cpg/sg14_24_cif.got.tgz:46304.got - 2010.06.03 17:49:19.
