data_PCOD9242678
_publ_section_title
;
Structure prediction by ZEFSAII (Michael W. Deem and Ramdas Pophale) SiO2 
 PCOD9242678
Probable space group: P 21/C
;
_chemical_formula_sum "Si O2"
_cell_formula_units_Z 20
_cell_length_a 5.106551
_cell_length_b 26.880034
_cell_length_c 7.909571
_cell_angle_alpha 90.000000
_cell_angle_beta 41.519072
_cell_angle_gamma 90.000000
_cell_volume 719.678175
_symmetry_space_group_name_H-M "P 21/C"
_symmetry_group_IT_number 14
_symmetry_cell_setting 'monoclinic'
loop_
_space_group_symop_operation_xyz
x,y,z
-x,1/2+y,1/2-z
-x,-y,-z
x,1/2-y,1/2+z
loop_
_atom_site_type_symbol
_atom_site_label
_atom_site_fract_x
_atom_site_fract_y
_atom_site_fract_z
Si Si1 0.297835 0.886790 0.069088
Si Si2 0.764423 0.313273 0.934904
Si Si3 0.811124 0.410030 0.763466
Si Si4 0.611349 0.208082 0.129558
Si Si5 0.947078 0.010935 0.720787
O O1 0.193912 0.827988 0.107353
O O2 0.010185 0.929918 0.275453
O O3 0.719230 0.894653 0.957061
O O4 0.341783 0.900501 0.849813
O O5 0.636447 0.370568 0.983644
O O6 0.168538 0.313030 0.844078
O O7 0.546381 0.265542 0.114968
O O8 0.815033 0.298539 0.711933
O O9 0.803361 0.468549 0.803965
O O10 0.000000 0.000000 0.500000
O O11 0.500000 0.000000 0.000000
#
# Coordination Sequence:
#
# PCOD9242678 Si02
#       5
#     4   4   4   4   4
#     4   9  19  37  58  83 119 160 202 249 304 364
#     4  10  20  35  56  83 117 155 198 248 301 359
#     4   9  19  37  58  83 119 160 202 249 304 364
#     4  10  20  35  56  83 117 155 198 248 301 359
#     4  10  21  40  64  92 124 162 204 254 308 366
#
# _framework density 27.790199999999999
#
# number of rings (size 3 to 8) (size 9 to 14) (size 15 to 20)
#    0.000    2.400    0.000    1.800    0.000    1.600 
#    0.000   24.000    0.000    0.000    0.000    0.000 
#    0.000    0.000    0.000    0.000    0.000    0.000 
#
# Total GULP energy -111941.039113 kJ/mol
# GULP energy per Si atom -5597.051956 kJ/mol
# Density = 2.772695 g / cm^3
# Si number density = 27.790200 Si / 1000 Ang^3
#
#
#
# Elastic Constant Matrix: (Units=GPa)
#
#
# Indices 1 2 3 4 5 6 
#
# 1 123.5955 56.1230 40.5947 0.0000 9.9430 0.0000
# 2 56.1230 190.0919 36.6065 0.0000 -12.7040 0.0000
# 3 40.5947 36.6065 86.0758 0.0000 16.5286 0.0000
# 4 0.0000 0.0000 0.0000 41.0536 0.0000 -7.4548
# 5 9.9430 -12.7040 16.5286 0.0000 29.8520 0.0000
# 6 0.0000 0.0000 0.0000 -7.4548 0.0000 67.7108
#
#
#
# Elastic Compliance Matrix: (Units=1/GPa)
#
#
# Indices 1 2 3 4 5 6 
#
# 1 0.010633 -0.002689 -0.003325 0.000000 -0.002845 0.000000
# 2 -0.002689 0.006933 -0.002707 0.000000 0.005345 0.000000
# 3 -0.003325 -0.002707 0.016052 0.000000 -0.008932 0.000000
# 4 0.000000 0.000000 0.000000 0.024855 0.000000 0.002737
# 5 -0.002845 0.005345 -0.008932 0.000000 0.041666 0.000000
# 6 0.000000 0.000000 0.000000 0.002737 0.000000 0.015070
#
#
# Mechanical properties :
#
#
# Convention : Reuss Voigt Hill
#
# Bulk Modulus (GPa) = 61.81613 74.04575 67.93094
# Shear Modulus (GPa) = 36.22080 45.48589 40.85335
#
# Velocity S-wave (km/s) = 3.61413 4.05008 3.83830
# Velocity P-wave (km/s) = 6.30144 6.96945 6.64384
#
# Compressibility (1/GPa) = 0.01617701
#
# Stress axis : x y z
#
# Youngs Moduli (GPa) = 94.04782 144.23849 62.29832
#
# Poissons Ratio (x) = 0.38788 0.20712
# Poissons Ratio (y) = 0.25291 0.16861
# Poissons Ratio (z) = 0.31267 0.39038
#
# Static dielectric constant tensor:
#      x y z
#    x 2.095070 0.000000 -0.178310 
#    y 0.000000 2.415580 0.000000 
#    z -0.178310 0.000000 2.272820 
# 
# From -- ./inp_files/6213.got.cif
#   From: 2010.05.17/outbox.cif.g08.bks.cpg/sg14_4_cif.got.tgz:6213.got - 2010.06.03 17:49:19.
