data_PCOD9242685
_publ_section_title
;
Structure prediction by ZEFSAII (Michael W. Deem and Ramdas Pophale) SiO2 
 PCOD9242685
Probable space group: P 21/C
;
_chemical_formula_sum "Si O2"
_cell_formula_units_Z 26
_cell_length_a 23.533472
_cell_length_b 4.921880
_cell_length_c 21.517809
_cell_angle_alpha 90.000000
_cell_angle_beta 158.530205
_cell_angle_gamma 90.000000
_cell_volume 912.239418
_symmetry_space_group_name_H-M "P 21/C"
_symmetry_group_IT_number 14
_symmetry_cell_setting 'monoclinic'
loop_
_space_group_symop_operation_xyz
x,y,z
-x,1/2+y,1/2-z
-x,-y,-z
x,1/2-y,1/2+z
loop_
_atom_site_type_symbol
_atom_site_label
_atom_site_fract_x
_atom_site_fract_y
_atom_site_fract_z
Si Si1 0.321664 0.960798 0.242454
Si Si2 0.000000 0.000000 0.500000
Si Si3 0.053788 0.331869 0.913594
Si Si4 0.588190 0.620458 0.361140
Si Si5 0.486184 0.963371 0.079934
Si Si6 0.884066 0.642189 0.200840
Si Si7 0.754178 0.617060 0.203462
O O1 0.473982 0.155574 0.396438
O O2 0.273793 0.923305 0.265794
O O3 0.361775 0.657833 0.262037
O O4 0.205449 0.145054 0.083675
O O5 0.987503 0.144913 0.416245
O O6 0.083403 0.258123 0.612514
O O7 0.017869 0.637193 0.852655
O O8 0.959225 0.148779 0.768339
O O9 0.526700 0.380791 0.254575
O O10 0.585593 0.472815 0.424947
O O11 0.758594 0.743797 0.524521
O O12 0.370236 0.131708 0.917793
O O13 0.775910 0.574813 0.152270
#
# Coordination Sequence:
#
# PCOD9242685 Si02
#       7
#     4   2   4   4   4   4   4
#     4  11  22  36  57  85 125 160 182 220 282 357
#     4   8  18  32  52  82 116 158 198 226 264 330
#     4  10  20  35  56  84 121 159 194 233 280 336
#     4  11  23  42  67  87 108 144 195 257 305 338
#     4  11  23  38  58  86 117 150 192 235 288 354
#     4  10  21  37  60  88 115 150 202 246 282 335
#     4   9  20  34  56  86 121 157 191 230 278 337
#
# _framework density 28.501290999999998
#
# number of rings (size 3 to 8) (size 9 to 14) (size 15 to 20)
#    0.000    1.846    0.000    3.692    0.000   15.385 
#    0.000    0.000    0.000   18.462    0.000    0.000 
#    0.000    0.000    0.000    0.000    0.000    0.000 
#
# Total GULP energy -144905.640611 kJ/mol
# GULP energy per Si atom -5573.293870 kJ/mol
# Density = 2.843642 g / cm^3
# Si number density = 28.501291 Si / 1000 Ang^3
#
#
#
# Elastic Constant Matrix: (Units=GPa)
#
#
# Indices 1 2 3 4 5 6 
#
# 1 89.5600 3.9603 6.3528 0.0000 -11.3132 0.0000
# 2 3.9603 179.8452 35.1507 0.0000 1.9039 0.0000
# 3 6.3528 35.1507 90.3658 0.0000 -14.9365 0.0000
# 4 0.0000 0.0000 0.0000 43.5529 0.0000 -11.2798
# 5 -11.3132 1.9039 -14.9365 0.0000 35.0486 0.0000
# 6 0.0000 0.0000 0.0000 -11.2798 0.0000 25.9904
#
#
#
# Elastic Compliance Matrix: (Units=1/GPa)
#
#
# Indices 1 2 3 4 5 6 
#
# 1 0.011657 -0.000278 -0.000094 0.000000 0.003738 0.000000
# 2 -0.000278 0.006091 -0.002603 0.000000 -0.001530 0.000000
# 3 -0.000094 -0.002603 0.013021 0.000000 0.005660 0.000000
# 4 0.000000 0.000000 0.000000 0.025868 0.000000 0.011227
# 5 0.003738 -0.001530 0.005660 0.000000 0.032234 0.000000
# 6 0.000000 0.000000 0.000000 0.011227 0.000000 0.043348
#
#
# Mechanical properties :
#
#
# Convention : Reuss Voigt Hill
#
# Bulk Modulus (GPa) = 40.28952 50.07764 45.18358
# Shear Modulus (GPa) = 34.14347 41.87218 38.00783
#
# Velocity S-wave (km/s) = 3.46491 3.83709 3.65574
# Velocity P-wave (km/s) = 5.49311 6.10241 5.80576
#
# Compressibility (1/GPa) = 0.02482035
#
# Stress axis : x y z
#
# Youngs Moduli (GPa) = 85.78689 164.16693 76.80081
#
# Poissons Ratio (x) = 0.04564 0.00718
# Poissons Ratio (y) = 0.02385 0.19989
# Poissons Ratio (z) = 0.00802 0.42729
#
# Static dielectric constant tensor:
#      x y z
#    x 2.224110 0.000000 0.112180 
#    y 0.000000 2.102630 0.000000 
#    z 0.112180 0.000000 2.444060 
# 
# From -- ./inp_files/75162.got.cif
#   From: 2010.05.17/outbox.cif.g08.bks.cpg/sg14_38_cif.got.tgz:75162.got - 2010.06.03 17:49:19.
