data_PCOD9242575
_publ_section_title
;
Structure prediction by ZEFSAII (Michael W. Deem and Ramdas Pophale) SiO2 
 PCOD9242575
Probable space group: P 21/C
;
_chemical_formula_sum "Si O2"
_cell_formula_units_Z 32
_cell_length_a 18.654114
_cell_length_b 19.187042
_cell_length_c 9.797641
_cell_angle_alpha 90.000000
_cell_angle_beta 29.247981
_cell_angle_gamma 90.000000
_cell_volume 1713.362234
_symmetry_space_group_name_H-M "P 21/C"
_symmetry_group_IT_number 14
_symmetry_cell_setting 'monoclinic'
loop_
_space_group_symop_operation_xyz
x,y,z
-x,1/2+y,1/2-z
-x,-y,-z
x,1/2-y,1/2+z
loop_
_atom_site_type_symbol
_atom_site_label
_atom_site_fract_x
_atom_site_fract_y
_atom_site_fract_z
Si Si1 0.934259 0.413162 0.471491
Si Si2 0.175156 0.774701 0.735863
Si Si3 0.609848 0.670047 0.149708
Si Si4 0.814317 0.957247 0.260461
Si Si5 0.981105 0.853751 0.446409
Si Si6 0.969401 0.625989 0.262104
Si Si7 0.242572 0.243157 0.331773
Si Si8 0.712980 0.316390 0.220219
O O1 0.800833 0.461695 0.744176
O O2 0.941655 0.398378 0.299440
O O3 0.080697 0.450448 0.282345
O O4 0.929729 0.339167 0.556040
O O5 0.084643 0.710454 0.822997
O O6 0.246153 0.751424 0.758808
O O7 0.292965 0.797746 0.428527
O O8 0.680765 0.594102 0.009921
O O9 0.684395 0.710946 0.153932
O O10 0.646901 0.716029 0.953405
O O11 0.439660 0.659264 0.465634
O O12 0.898709 0.924632 0.989679
O O13 0.947847 0.894719 0.640573
O O14 0.838441 0.818398 0.616179
O O15 0.142715 0.635600 0.001832
O O16 0.884988 0.700465 0.419095
#
# Coordination Sequence:
#
# PCOD9242575 Si02
#       8
#     4   4   4   4   4   4   4   4
#     4  11  20  36  60  86 111 147 196 229 281 334
#     4  11  19  35  57  88 110 143 189 238 277 330
#     4  11  22  35  54  88 120 145 181 239 296 324
#     4  10  22  37  57  82 117 152 185 233 280 342
#     4  11  18  32  60  85 109 138 193 238 273 319
#     4  10  20  34  57  79 109 150 191 227 275 337
#     4  11  18  34  54  84 114 144 183 241 282 322
#     4  11  21  33  56  85 114 145 186 237 282 335
#
# _framework density 18.676728000000001
#
# number of rings (size 3 to 8) (size 9 to 14) (size 15 to 20)
#    0.000    1.250    6.250    2.250    0.000    0.500 
#    0.000    0.625    0.000    3.000    0.000    0.000 
#    0.000    0.000    0.000    0.000    0.000    0.000 
#
# Total GULP energy -178535.050344 kJ/mol
# GULP energy per Si atom -5579.220323 kJ/mol
# Density = 1.863422 g / cm^3
# Si number density = 18.676728 Si / 1000 Ang^3
#
#
#
# Elastic Constant Matrix: (Units=GPa)
#
#
# Indices 1 2 3 4 5 6 
#
# 1 60.7235 13.2091 22.7418 0.0000 21.9207 0.0000
# 2 13.2091 33.2482 -1.5389 0.0000 0.4676 0.0000
# 3 22.7418 -1.5389 97.7094 0.0000 2.4737 0.0000
# 4 0.0000 0.0000 0.0000 10.5948 0.0000 2.0080
# 5 21.9207 0.4676 2.4737 0.0000 33.1399 0.0000
# 6 0.0000 0.0000 0.0000 2.0080 0.0000 17.8013
#
#
#
# Elastic Compliance Matrix: (Units=1/GPa)
#
#
# Indices 1 2 3 4 5 6 
#
# 1 0.027489 -0.010957 -0.006126 0.000000 -0.017571 0.000000
# 2 -0.010957 0.034473 0.002928 0.000000 0.006543 0.000000
# 3 -0.006126 0.002928 0.011627 0.000000 0.003143 0.000000
# 4 0.000000 0.000000 0.000000 0.096448 0.000000 -0.010880
# 5 -0.017571 0.006543 0.003143 0.000000 0.041471 0.000000
# 6 0.000000 0.000000 0.000000 -0.010880 0.000000 0.057403
#
#
# Mechanical properties :
#
#
# Convention : Reuss Voigt Hill
#
# Bulk Modulus (GPa) = 22.08576 28.94503 25.51539
# Shear Modulus (GPa) = 16.00956 22.79183 19.40069
#
# Velocity S-wave (km/s) = 2.93096 3.49712 3.22648
# Velocity P-wave (km/s) = 4.82753 5.64252 5.25086
#
# Compressibility (1/GPa) = 0.04527804
#
# Stress axis : x y z
#
# Youngs Moduli (GPa) = 36.37856 29.00783 86.00868
#
# Poissons Ratio (x) = 0.31785 0.52687
# Poissons Ratio (y) = 0.39861 -0.25180
# Poissons Ratio (z) = 0.22284 -0.08492
#
# Static dielectric constant tensor:
#      x y z
#    x 1.658160 0.000000 0.014910 
#    y 0.000000 1.686650 0.000000 
#    z 0.014910 0.000000 1.668310 
# 
# From -- ./inp_files/18224.got.cif
#   From: 2010.05.17/outbox.cif.g08.bks.cpg/sg14_10_cif.got.tgz:18224.got - 2010.06.03 17:49:19.
