data_PCOD9242006
_publ_section_title
;
Structure prediction by ZEFSAII (Michael W. Deem and Ramdas Pophale) SiO2 
 PCOD9242006
Probable space group: P 21/C
;
_chemical_formula_sum "Si O2"
_cell_formula_units_Z 28
_cell_length_a 5.078947
_cell_length_b 16.683951
_cell_length_c 16.257744
_cell_angle_alpha 90.000000
_cell_angle_beta 111.270083
_cell_angle_gamma 90.000000
_cell_volume 1283.787723
_symmetry_space_group_name_H-M "P 21/C"
_symmetry_group_IT_number 14
_symmetry_cell_setting 'monoclinic'
loop_
_space_group_symop_operation_xyz
x,y,z
-x,1/2+y,1/2-z
-x,-y,-z
x,1/2-y,1/2+z
loop_
_atom_site_type_symbol
_atom_site_label
_atom_site_fract_x
_atom_site_fract_y
_atom_site_fract_z
Si Si1 0.292820 0.991719 0.360372
Si Si2 0.468257 0.167657 0.700350
Si Si3 0.244169 0.901879 0.520708
Si Si4 0.310672 0.533143 0.551816
Si Si5 0.290599 0.203351 0.509339
Si Si6 0.805689 0.549524 0.712063
Si Si7 0.086677 0.666493 0.617372
O O1 0.400722 0.909686 0.331035
O O2 0.205789 0.966192 0.442813
O O3 0.016996 0.013180 0.277029
O O4 0.546127 0.054751 0.391844
O O5 0.357019 0.221343 0.613000
O O6 0.233242 0.124576 0.729919
O O7 0.697043 0.202211 0.790379
O O8 0.429456 0.829419 0.503140
O O9 0.947176 0.867015 0.516023
O O10 0.500000 0.500000 0.500000
O O11 0.501440 0.513537 0.654117
O O12 0.263463 0.628085 0.562033
O O13 0.000000 0.500000 0.500000
O O14 0.145385 0.274420 0.443474
O O15 0.940600 0.591318 0.647268
#
# Coordination Sequence:
#
# PCOD9242006 Si02
#       7
#     4   4   4   4   4   4   4
#     4   9  19  36  59  92 118 159 201 256 302 366
#     4   9  20  37  63  87 119 165 212 246 307 378
#     4  10  22  35  61  90 126 152 202 252 310 366
#     4  11  22  40  63  89 113 153 210 259 298 350
#     4  11  23  40  60  92 127 166 203 250 316 373
#     4  10  19  38  65  87 119 162 207 252 309 366
#     4  10  23  40  65  88 126 168 207 255 304 379
#
# _framework density 21.810459999999999
#
# number of rings (size 3 to 8) (size 9 to 14) (size 15 to 20)
#    0.000    2.000    2.857    0.000    6.000    1.714 
#    0.000    2.857    0.000    0.000    0.000    0.000 
#    0.000    0.000    0.000    0.000    0.000    0.000 
#
# Total GULP energy -156204.995312 kJ/mol
# GULP energy per Si atom -5578.749833 kJ/mol
# Density = 2.176082 g / cm^3
# Si number density = 21.810460 Si / 1000 Ang^3
#
#
#
# Elastic Constant Matrix: (Units=GPa)
#
#
# Indices 1 2 3 4 5 6 
#
# 1 87.8371 11.1351 24.2679 0.0000 11.8268 0.0000
# 2 11.1351 32.1454 48.2406 0.0000 5.0995 0.0000
# 3 24.2679 48.2406 150.0707 0.0000 34.7836 0.0000
# 4 0.0000 0.0000 0.0000 38.9382 0.0000 14.2244
# 5 11.8268 5.0995 34.7836 0.0000 43.0392 0.0000
# 6 0.0000 0.0000 0.0000 14.2244 0.0000 27.6883
#
#
#
# Elastic Compliance Matrix: (Units=1/GPa)
#
#
# Indices 1 2 3 4 5 6 
#
# 1 0.012260 -0.003472 -0.000223 0.000000 -0.002778 0.000000
# 2 -0.003472 0.065165 -0.023155 0.000000 0.011946 0.000000
# 3 -0.000223 -0.023155 0.016603 0.000000 -0.010613 0.000000
# 4 0.000000 0.000000 0.000000 0.031615 0.000000 -0.016242
# 5 -0.002778 0.011946 -0.010613 0.000000 0.031160 0.000000
# 6 0.000000 0.000000 0.000000 -0.016242 0.000000 0.044460
#
#
# Mechanical properties :
#
#
# Convention : Reuss Voigt Hill
#
# Bulk Modulus (GPa) = 24.79635 48.59336 36.69486
# Shear Modulus (GPa) = 18.62854 34.36046 26.49450
#
# Velocity S-wave (km/s) = 2.92569 3.97345 3.48912
# Velocity P-wave (km/s) = 4.77562 6.58630 5.75265
#
# Compressibility (1/GPa) = 0.04032851
#
# Stress axis : x y z
#
# Youngs Moduli (GPa) = 81.56346 15.34570 60.23113
#
# Poissons Ratio (x) = 0.05328 0.01341
# Poissons Ratio (y) = 0.28320 1.39465
# Poissons Ratio (z) = 0.01816 0.35533
#
# Static dielectric constant tensor:
#      x y z
#    x 1.885630 0.000000 0.003030 
#    y 0.000000 1.787920 0.000000 
#    z 0.003030 0.000000 1.880020 
# 
# From -- ./inp_files/53510.got.cif
#   From: 2010.05.17/outbox.cif.g08.bks.cpg/sg14_27_cif.got.tgz:53510.got - 2010.06.03 17:49:19.
