data_PCOD9242097
_publ_section_title
;
Structure prediction by ZEFSAII (Michael W. Deem and Ramdas Pophale) SiO2 
 PCOD9242097
Probable space group: P 21/C
;
_chemical_formula_sum "Si O2"
_cell_formula_units_Z 30
_cell_length_a 14.005180
_cell_length_b 10.640162
_cell_length_c 8.979117
_cell_angle_alpha 90.000000
_cell_angle_beta 120.414449
_cell_angle_gamma 90.000000
_cell_volume 1153.910905
_symmetry_space_group_name_H-M "P 21/C"
_symmetry_group_IT_number 14
_symmetry_cell_setting 'monoclinic'
loop_
_space_group_symop_operation_xyz
x,y,z
-x,1/2+y,1/2-z
-x,-y,-z
x,1/2-y,1/2+z
loop_
_atom_site_type_symbol
_atom_site_label
_atom_site_fract_x
_atom_site_fract_y
_atom_site_fract_z
Si Si1 0.231031 0.803357 0.587116
Si Si2 0.914902 0.281949 0.785895
Si Si3 0.248044 0.513568 0.686979
Si Si4 0.922901 0.684956 0.336999
Si Si5 0.500000 0.500000 0.500000
Si Si6 0.544573 0.229470 0.852583
Si Si7 0.726597 0.637668 0.600628
Si Si8 0.413773 0.126706 0.485545
O O1 0.171011 0.865280 0.682554
O O2 0.154363 0.807181 0.380790
O O3 0.230015 0.657318 0.636919
O O4 0.357006 0.814849 0.634665
O O5 0.002547 0.347586 0.746926
O O6 0.992654 0.212225 0.963874
O O7 0.149866 0.434379 0.680580
O O8 0.264108 0.444404 0.540610
O O9 0.348694 0.495572 0.883320
O O10 0.844736 0.810880 0.256589
O O11 0.434687 0.627655 0.502573
O O12 0.623477 0.575749 0.611093
O O13 0.502881 0.138893 0.686142
O O14 0.460594 0.324504 0.864506
O O15 0.675062 0.774398 0.522387
#
# Coordination Sequence:
#
# PCOD9242097 Si02
#       8
#     4   4   4   4   2   4   4   4
#     4  11  24  43  66  93 136 172 223 278 342 384
#     4  10  23  42  64  91 124 176 217 279 338 385
#     4  11  21  40  69  99 122 168 228 276 316 402
#     4  10  21  41  72  88 126 166 224 270 333 390
#     4  10  22  36  62  94 140 158 208 254 336 388
#     4  11  21  40  63  92 135 179 207 271 328 410
#     4  10  19  39  63  98 126 169 205 275 320 394
#     4  10  22  37  67  96 130 174 221 255 337 396
#
# _framework density 25.998540999999999
#
# number of rings (size 3 to 8) (size 9 to 14) (size 15 to 20)
#    0.000    1.600    4.000    0.800    0.000    2.667 
#    0.000    4.667    2.933    0.000    0.000    0.000 
#    0.000    0.000    0.000    0.000    0.000    0.000 
#
# Total GULP energy -167074.039810 kJ/mol
# GULP energy per Si atom -5569.134660 kJ/mol
# Density = 2.593937 g / cm^3
# Si number density = 25.998541 Si / 1000 Ang^3
#
#
#
# Elastic Constant Matrix: (Units=GPa)
#
#
# Indices 1 2 3 4 5 6 
#
# 1 156.2284 5.6563 57.2735 0.0000 -22.8637 0.0000
# 2 5.6563 70.9753 36.0588 0.0000 1.6210 0.0000
# 3 57.2735 36.0588 129.1257 0.0000 0.1399 0.0000
# 4 0.0000 0.0000 0.0000 23.4490 0.0000 -6.3429
# 5 -22.8637 1.6210 0.1399 0.0000 43.3948 0.0000
# 6 0.0000 0.0000 0.0000 -6.3429 0.0000 33.0396
#
#
#
# Elastic Compliance Matrix: (Units=1/GPa)
#
#
# Indices 1 2 3 4 5 6 
#
# 1 0.008530 0.001332 -0.004160 0.000000 0.004458 0.000000
# 2 0.001332 0.016642 -0.005238 0.000000 0.000097 0.000000
# 3 -0.004160 -0.005238 0.011055 0.000000 -0.002032 0.000000
# 4 0.000000 0.000000 0.000000 0.044982 0.000000 0.008635
# 5 0.004458 0.000097 -0.002032 0.000000 0.025396 0.000000
# 6 0.000000 0.000000 0.000000 0.008635 0.000000 0.031925
#
#
# Mechanical properties :
#
#
# Convention : Reuss Voigt Hill
#
# Bulk Modulus (GPa) = 49.76615 61.58962 55.67788
# Shear Modulus (GPa) = 30.98641 37.13274 34.05958
#
# Velocity S-wave (km/s) = 3.45607 3.78334 3.62340
# Velocity P-wave (km/s) = 5.92531 6.54415 6.24240
#
# Compressibility (1/GPa) = 0.02009398
#
# Stress axis : x y z
#
# Youngs Moduli (GPa) = 117.22922 60.08758 90.45870
#
# Poissons Ratio (x) = -0.08004 0.37635
# Poissons Ratio (y) = -0.15616 0.47386
# Poissons Ratio (z) = 0.48772 0.31476
#
# Static dielectric constant tensor:
#      x y z
#    x 2.164100 0.000000 0.128140 
#    y 0.000000 1.811130 0.000000 
#    z 0.128140 0.000000 1.954590 
# 
# From -- ./inp_files/15929.got.cif
#   From: 2010.05.17/outbox.cif.g08.bks.cpg/sg14_8_cif.got.tgz:15929.got - 2010.06.03 17:49:19.
