data_PCOD9242557
_publ_section_title
;
Structure prediction by ZEFSAII (Michael W. Deem and Ramdas Pophale) SiO2 
 PCOD9242557
Probable space group: P 21/C
;
_chemical_formula_sum "Si O2"
_cell_formula_units_Z 28
_cell_length_a 24.310301
_cell_length_b 11.187206
_cell_length_c 24.429068
_cell_angle_alpha 90.000000
_cell_angle_beta 11.144186
_cell_angle_gamma 90.000000
_cell_volume 1284.111709
_symmetry_space_group_name_H-M "P 21/C"
_symmetry_group_IT_number 14
_symmetry_cell_setting 'monoclinic'
loop_
_space_group_symop_operation_xyz
x,y,z
-x,1/2+y,1/2-z
-x,-y,-z
x,1/2-y,1/2+z
loop_
_atom_site_type_symbol
_atom_site_label
_atom_site_fract_x
_atom_site_fract_y
_atom_site_fract_z
Si Si1 0.635099 0.449038 0.451883
Si Si2 0.893160 0.243770 0.523325
Si Si3 0.293917 0.183752 0.924919
Si Si4 0.399958 0.326513 0.583709
Si Si5 0.789903 0.476343 0.927113
Si Si6 0.324554 0.215173 0.514864
Si Si7 0.796086 0.922661 0.541199
O O1 0.465446 0.349246 0.582971
O O2 0.722115 0.550150 0.323003
O O3 0.916520 0.404560 0.206212
O O4 0.421748 0.495111 0.707677
O O5 0.171767 0.275434 0.289980
O O6 0.093561 0.208579 0.275272
O O7 0.699779 0.183443 0.759369
O O8 0.623159 0.303026 0.754911
O O9 0.465715 0.065458 0.743035
O O10 0.374376 0.224708 0.907492
O O11 0.343419 0.295348 0.837191
O O12 0.969053 0.141880 0.240160
O O13 0.819813 0.587327 0.857285
O O14 0.860013 0.518717 0.920218
#
# Coordination Sequence:
#
# PCOD9242557 Si02
#       7
#     4   4   4   4   4   4   4
#     4  11  22  37  55  84 123 144 194 231 279 363
#     4  10  20  34  56  80 112 145 185 229 282 325
#     4  11  23  37  56  84 115 151 196 226 280 346
#     4  10  22  35  56  88 113 154 186 231 293 336
#     4  11  23  38  58  83 120 153 188 241 273 333
#     4  10  22  36  55  87 112 146 199 231 274 346
#     4  11  24  37  58  87 115 160 189 223 290 341
#
# _framework density 21.804956000000001
#
# number of rings (size 3 to 8) (size 9 to 14) (size 15 to 20)
#    0.000    1.429    0.000    5.143   12.000    6.857 
#    0.000    0.000    0.000    0.000    0.000   70.000 
#    0.000    0.000    0.000    0.000    0.000    0.000 
#
# Total GULP energy -155925.214957 kJ/mol
# GULP energy per Si atom -5568.757677 kJ/mol
# Density = 2.175533 g / cm^3
# Si number density = 21.804956 Si / 1000 Ang^3
#
#
#
# Elastic Constant Matrix: (Units=GPa)
#
#
# Indices 1 2 3 4 5 6 
#
# 1 69.0804 4.8832 31.6167 0.0000 -12.8318 0.0000
# 2 4.8832 34.3858 -0.1276 0.0000 -1.9022 0.0000
# 3 31.6167 -0.1276 91.3164 0.0000 -11.0329 0.0000
# 4 0.0000 0.0000 0.0000 27.5833 0.0000 -1.7582
# 5 -12.8318 -1.9022 -11.0329 0.0000 33.1575 0.0000
# 6 0.0000 0.0000 0.0000 -1.7582 0.0000 21.4170
#
#
#
# Elastic Compliance Matrix: (Units=1/GPa)
#
#
# Indices 1 2 3 4 5 6 
#
# 1 0.018175 -0.002325 -0.005691 0.000000 0.005007 0.000000
# 2 -0.002325 0.029477 0.000981 0.000000 0.001118 0.000000
# 3 -0.005691 0.000981 0.013194 0.000000 0.002244 0.000000
# 4 0.000000 0.000000 0.000000 0.036444 0.000000 0.002992
# 5 0.005007 0.001118 0.002244 0.000000 0.032907 0.000000
# 6 0.000000 0.000000 0.000000 0.002992 0.000000 0.046938
#
#
# Mechanical properties :
#
#
# Convention : Reuss Voigt Hill
#
# Bulk Modulus (GPa) = 21.37837 29.72523 25.55180
# Shear Modulus (GPa) = 24.17820 26.99225 25.58522
#
# Velocity S-wave (km/s) = 3.33354 3.52219 3.42916
# Velocity P-wave (km/s) = 4.96410 5.49573 5.23666
#
# Compressibility (1/GPa) = 0.04677625
#
# Stress axis : x y z
#
# Youngs Moduli (GPa) = 55.02084 33.92423 75.79277
#
# Poissons Ratio (x) = 0.07888 0.43134
# Poissons Ratio (y) = 0.12793 -0.07438
# Poissons Ratio (z) = 0.31313 -0.03329
#
# Static dielectric constant tensor:
#      x y z
#    x 1.796220 0.000000 -0.013650 
#    y 0.000000 1.782310 0.000000 
#    z -0.013650 0.000000 1.791930 
# 
# From -- ./inp_files/74985.got.cif
#   From: 2010.05.17/outbox.cif.g08.bks.cpg/sg14_38_cif.got.tgz:74985.got - 2010.06.03 17:49:19.
