data_PCOD9242532
_publ_section_title
;
Structure prediction by ZEFSAII (Michael W. Deem and Ramdas Pophale) SiO2 
 PCOD9242532
Probable space group: P 21/C
;
_chemical_formula_sum "Si O2"
_cell_formula_units_Z 24
_cell_length_a 7.238001
_cell_length_b 8.017872
_cell_length_c 16.992755
_cell_angle_alpha 90.000000
_cell_angle_beta 64.789407
_cell_angle_gamma 90.000000
_cell_volume 892.214625
_symmetry_space_group_name_H-M "P 21/C"
_symmetry_group_IT_number 14
_symmetry_cell_setting 'monoclinic'
loop_
_space_group_symop_operation_xyz
x,y,z
-x,1/2+y,1/2-z
-x,-y,-z
x,1/2-y,1/2+z
loop_
_atom_site_type_symbol
_atom_site_label
_atom_site_fract_x
_atom_site_fract_y
_atom_site_fract_z
Si Si1 0.373054 0.755636 0.343778
Si Si2 0.931516 0.050543 0.423577
Si Si3 0.932736 0.126334 0.847898
Si Si4 0.939389 0.744364 0.343778
Si Si5 0.221330 0.050544 0.923577
Si Si6 0.371469 0.126334 0.347898
O O1 0.130358 0.750000 0.369642
O O2 0.385164 0.595649 0.398261
O O3 0.480547 0.707481 0.242614
O O4 0.436441 0.939147 0.360762
O O5 0.836261 0.232702 0.423089
O O6 0.155769 0.082446 0.344715
O O7 0.818313 0.904351 0.398261
O O8 0.000000 0.000000 0.500000
O O9 0.154801 0.082446 0.844715
O O10 0.965777 0.207482 0.757386
O O11 0.842034 0.939147 0.860762
O O12 0.317561 0.232702 0.923089
O O13 0.000000 0.000000 0.000000
#
# Coordination Sequence:
#
# PCOD9242532 Si02
#       6
#     4   4   4   4   4   4
#     4  10  20  35  56  83 115 152 195 237 294 354
#     4  10  22  35  56  87 115 150 195 249 298 340
#     4  10  20  34  54  82 117 148 191 245 289 352
#     4  10  20  35  56  83 115 152 195 237 294 354
#     4  10  22  35  56  87 115 150 195 249 298 340
#     4  10  20  34  54  82 117 148 191 245 289 352
#
# _framework density 26.899356999999998
#
# number of rings (size 3 to 8) (size 9 to 14) (size 15 to 20)
#    0.000    2.000    3.333    0.000   14.000    0.000 
#    0.000    0.000    0.000    2.000    8.667    0.000 
#    0.000    0.000    0.000    0.000    0.000    0.000 
#
# Total GULP energy -133651.106109 kJ/mol
# GULP energy per Si atom -5568.796088 kJ/mol
# Density = 2.683813 g / cm^3
# Si number density = 26.899357 Si / 1000 Ang^3
#
#
#
# Elastic Constant Matrix: (Units=GPa)
#
#
# Indices 1 2 3 4 5 6 
#
# 1 69.8439 12.2153 19.4445 0.0000 0.6659 0.0000
# 2 12.2153 366.4328 94.8177 0.0000 2.9813 0.0000
# 3 19.4445 94.8177 115.2436 0.0000 0.9729 0.0000
# 4 0.0000 0.0000 0.0000 56.0729 0.0000 1.8163
# 5 0.6659 2.9813 0.9729 0.0000 34.4339 0.0000
# 6 0.0000 0.0000 0.0000 1.8163 0.0000 5.7487
#
#
#
# Elastic Compliance Matrix: (Units=1/GPa)
#
#
# Indices 1 2 3 4 5 6 
#
# 1 0.015036 0.000199 -0.002699 0.000000 -0.000232 0.000000
# 2 0.000199 0.003471 -0.002888 0.000000 -0.000223 0.000000
# 3 -0.002699 -0.002888 0.011509 0.000000 -0.000023 0.000000
# 4 0.000000 0.000000 0.000000 0.018018 0.000000 -0.005693
# 5 -0.000232 -0.000223 -0.000023 0.000000 0.029066 0.000000
# 6 0.000000 0.000000 0.000000 -0.005693 0.000000 0.175750
#
#
# Mechanical properties :
#
#
# Convention : Reuss Voigt Hill
#
# Bulk Modulus (GPa) = 51.97141 89.38617 70.67879
# Shear Modulus (GPa) = 18.51578 47.58729 33.05153
#
# Velocity S-wave (km/s) = 2.62646 4.21061 3.50910
# Velocity P-wave (km/s) = 5.34419 7.54593 6.53840
#
# Compressibility (1/GPa) = 0.01924135
#
# Stress axis : x y z
#
# Youngs Moduli (GPa) = 66.50534 288.06391 86.88986
#
# Poissons Ratio (x) = -0.05731 0.23450
# Poissons Ratio (y) = -0.01323 0.25093
# Poissons Ratio (z) = 0.17948 0.83189
#
# Static dielectric constant tensor:
#      x y z
#    x 2.133210 0.000000 -0.001080 
#    y 0.000000 2.546990 0.000000 
#    z -0.001080 0.000000 2.103250 
# 
# From -- ./inp_files/66642.got.cif
#   From: 2010.05.17/outbox.cif.g08.bks.cpg/sg14_34_cif.got.tgz:66642.got - 2010.06.03 17:49:19.
