data_PCOD9242591
_publ_section_title
;
Structure prediction by ZEFSAII (Michael W. Deem and Ramdas Pophale) SiO2 
 PCOD9242591
Probable space group: P 21/C
;
_chemical_formula_sum "Si O2"
_cell_formula_units_Z 32
_cell_length_a 14.028666
_cell_length_b 12.557366
_cell_length_c 15.487391
_cell_angle_alpha 90.000000
_cell_angle_beta 38.882662
_cell_angle_gamma 90.000000
_cell_volume 1712.633227
_symmetry_space_group_name_H-M "P 21/C"
_symmetry_group_IT_number 14
_symmetry_cell_setting 'monoclinic'
loop_
_space_group_symop_operation_xyz
x,y,z
-x,1/2+y,1/2-z
-x,-y,-z
x,1/2-y,1/2+z
loop_
_atom_site_type_symbol
_atom_site_label
_atom_site_fract_x
_atom_site_fract_y
_atom_site_fract_z
Si Si1 0.507367 0.500002 0.622035
Si Si2 0.375359 0.332496 0.966700
Si Si3 0.251962 0.772199 0.548870
Si Si4 0.528229 0.835566 0.244007
Si Si5 0.165721 0.936053 0.039089
Si Si6 0.330374 0.512363 0.248688
Si Si7 0.162579 0.504958 0.183103
Si Si8 0.501382 0.680035 0.484078
O O1 0.461797 0.561299 0.740090
O O2 0.687746 0.479498 0.510651
O O3 0.475305 0.586738 0.571585
O O4 0.439544 0.386873 0.640657
O O5 0.385885 0.244867 0.881918
O O6 0.520763 0.411776 0.856966
O O7 0.395386 0.265404 0.041119
O O8 0.228315 0.406443 0.080885
O O9 0.385876 0.776786 0.384233
O O10 0.140466 0.683461 0.591235
O O11 0.342244 0.732953 0.570219
O O12 0.187517 0.887184 0.612657
O O13 0.625212 0.892972 0.250486
O O14 0.012250 0.996881 0.167057
O O15 0.216705 0.944355 0.903280
O O16 0.259801 0.509774 0.203363
#
# Coordination Sequence:
#
# PCOD9242591 Si02
#       8
#     4   4   4   4   4   4   4   4
#     4   8  18  35  55  80 110 147 192 233 276 338
#     4  11  20  35  61  87 110 147 197 242 283 335
#     4  11  20  35  58  84 116 152 190 244 294 338
#     4  10  20  34  58  85 115 146 192 243 284 330
#     4  10  23  38  56  82 122 158 185 230 306 356
#     4  11  20  39  59  88 113 150 197 242 285 338
#     4  12  24  37  58  89 120 151 195 241 290 356
#     4   9  17  32  56  86 105 141 193 242 274 324
#
# _framework density 18.684678000000002
#
# number of rings (size 3 to 8) (size 9 to 14) (size 15 to 20)
#    0.000    1.750    3.750    1.500    0.000    3.000 
#    0.000    0.000    0.000    0.000    0.000   11.375 
#    0.000    0.000    0.000    0.000    0.000    0.000 
#
# Total GULP energy -178289.902948 kJ/mol
# GULP energy per Si atom -5571.559467 kJ/mol
# Density = 1.864215 g / cm^3
# Si number density = 18.684678 Si / 1000 Ang^3
#
#
#
# Elastic Constant Matrix: (Units=GPa)
#
#
# Indices 1 2 3 4 5 6 
#
# 1 23.4627 9.3854 8.1675 0.0000 7.3064 0.0000
# 2 9.3854 86.9524 16.6257 0.0000 2.6404 0.0000
# 3 8.1675 16.6257 63.4723 0.0000 4.1998 0.0000
# 4 0.0000 0.0000 0.0000 24.3513 0.0000 10.4609
# 5 7.3064 2.6404 4.1998 0.0000 16.1417 0.0000
# 6 0.0000 0.0000 0.0000 10.4609 0.0000 18.8198
#
#
#
# Elastic Compliance Matrix: (Units=1/GPa)
#
#
# Indices 1 2 3 4 5 6 
#
# 1 0.052633 -0.004206 -0.004213 0.000000 -0.022040 0.000000
# 2 -0.004206 0.012465 -0.002762 0.000000 0.000584 0.000000
# 3 -0.004213 -0.002762 0.017160 0.000000 -0.002106 0.000000
# 4 0.000000 0.000000 0.000000 0.053947 0.000000 -0.029986
# 5 -0.022040 0.000584 -0.002106 0.000000 0.072380 0.000000
# 6 0.000000 0.000000 0.000000 -0.029986 0.000000 0.069804
#
#
# Mechanical properties :
#
#
# Convention : Reuss Voigt Hill
#
# Bulk Modulus (GPa) = 16.69576 26.91606 21.80591
# Shear Modulus (GPa) = 15.59006 21.17647 18.38327
#
# Velocity S-wave (km/s) = 2.89169 3.37019 3.14007
# Velocity P-wave (km/s) = 4.48376 5.43884 4.98423
#
# Compressibility (1/GPa) = 0.05989545
#
# Stress axis : x y z
#
# Youngs Moduli (GPa) = 18.99940 80.22445 58.27541
#
# Poissons Ratio (x) = 0.33745 0.24549
# Poissons Ratio (y) = 0.07992 0.16098
# Poissons Ratio (z) = 0.08004 0.22161
#
# Static dielectric constant tensor:
#      x y z
#    x 1.682290 0.000000 0.046320 
#    y 0.000000 1.697830 0.000000 
#    z 0.046320 0.000000 1.646580 
# 
# From -- ./inp_files/47134.got.cif
#   From: 2010.05.17/outbox.cif.g08.bks.cpg/sg14_24_cif.got.tgz:47134.got - 2010.06.03 17:49:19.
