data_PCOD9242701
_publ_section_title
;
Structure prediction by ZEFSAII (Michael W. Deem and Ramdas Pophale) SiO2 
 PCOD9242701
Probable space group: P 21/C
;
_chemical_formula_sum "Si O2"
_cell_formula_units_Z 24
_cell_length_a 17.369437
_cell_length_b 8.877999
_cell_length_c 17.769101
_cell_angle_alpha 90.000000
_cell_angle_beta 156.738509
_cell_angle_gamma 90.000000
_cell_volume 1082.142227
_symmetry_space_group_name_H-M "P 21/C"
_symmetry_group_IT_number 14
_symmetry_cell_setting 'monoclinic'
loop_
_space_group_symop_operation_xyz
x,y,z
-x,1/2+y,1/2-z
-x,-y,-z
x,1/2-y,1/2+z
loop_
_atom_site_type_symbol
_atom_site_label
_atom_site_fract_x
_atom_site_fract_y
_atom_site_fract_z
Si Si1 0.706032 0.726642 0.412115
Si Si2 0.898019 0.233954 0.639652
Si Si3 0.324954 0.932242 0.429030
Si Si4 0.365442 0.939272 0.696906
Si Si5 0.904045 0.466731 0.521128
Si Si6 0.604302 0.195351 0.662099
O O1 0.528896 0.640260 0.292204
O O2 0.797592 0.626407 0.427879
O O3 0.884077 0.742369 0.631796
O O4 0.634064 0.883875 0.314108
O O5 0.760254 0.177793 0.583804
O O6 0.844171 0.115047 0.525349
O O7 0.857116 0.390639 0.560569
O O8 0.421420 0.835118 0.449021
O O9 0.133131 0.013251 0.223913
O O10 0.461995 0.072744 0.575077
O O11 0.407445 0.862890 0.815439
O O12 0.816542 0.361804 0.378889
#
# Coordination Sequence:
#
# PCOD9242701 Si02
#       6
#     4   4   4   4   4   4
#     4  11  21  34  57  85 114 147 193 241 282 333
#     4  10  20  36  58  83 110 147 194 237 279 332
#     4  10  20  37  60  85 114 149 189 233 283 338
#     4  11  21  36  58  85 114 150 193 236 285 337
#     4  10  20  35  57  83 112 150 191 234 282 337
#     4  10  21  36  58  84 115 151 186 230 287 344
#
# _framework density 22.178231
#
# number of rings (size 3 to 8) (size 9 to 14) (size 15 to 20)
#    0.000    1.667    0.000    7.500    0.000    0.000 
#    0.000    3.333    0.000   22.000    0.000    0.000 
#    0.000    0.000    0.000    0.000    0.000    0.000 
#
# Total GULP energy -133969.196540 kJ/mol
# GULP energy per Si atom -5582.049856 kJ/mol
# Density = 2.212775 g / cm^3
# Si number density = 22.178231 Si / 1000 Ang^3
#
#
#
# Elastic Constant Matrix: (Units=GPa)
#
#
# Indices 1 2 3 4 5 6 
#
# 1 40.6420 0.4727 7.9471 0.0000 -0.9339 0.0000
# 2 0.4727 94.7064 23.5680 0.0000 6.7885 0.0000
# 3 7.9471 23.5680 85.9269 0.0000 3.2512 0.0000
# 4 0.0000 0.0000 0.0000 21.5277 0.0000 0.9995
# 5 -0.9339 6.7885 3.2512 0.0000 18.7446 0.0000
# 6 0.0000 0.0000 0.0000 0.9995 0.0000 20.1456
#
#
#
# Elastic Compliance Matrix: (Units=1/GPa)
#
#
# Indices 1 2 3 4 5 6 
#
# 1 0.025122 0.000383 -0.002487 0.000000 0.001544 0.000000
# 2 0.000383 0.011583 -0.003075 0.000000 -0.003643 0.000000
# 3 -0.002487 -0.003075 0.012757 0.000000 -0.001223 0.000000
# 4 0.000000 0.000000 0.000000 0.046559 0.000000 -0.002310
# 5 0.001544 -0.003643 -0.001223 0.000000 0.054957 0.000000
# 6 0.000000 0.000000 0.000000 -0.002310 0.000000 0.049753
#
#
# Mechanical properties :
#
#
# Convention : Reuss Voigt Hill
#
# Bulk Modulus (GPa) = 25.57180 31.69452 28.63316
# Shear Modulus (GPa) = 22.30899 24.70276 23.50588
#
# Velocity S-wave (km/s) = 3.17503 3.34103 3.25908
# Velocity P-wave (km/s) = 4.99962 5.40418 5.20583
#
# Compressibility (1/GPa) = 0.03910557
#
# Stress axis : x y z
#
# Youngs Moduli (GPa) = 39.80511 86.33138 78.38592
#
# Poissons Ratio (x) = -0.03305 0.19494
# Poissons Ratio (y) = -0.01524 0.24101
# Poissons Ratio (z) = 0.09899 0.26544
#
# Static dielectric constant tensor:
#      x y z
#    x 1.862680 0.000000 -0.030910 
#    y 0.000000 1.834400 0.000000 
#    z -0.030910 0.000000 1.869400 
# 
# From -- ./inp_files/69822.got.cif
#   From: 2010.05.17/outbox.cif.g08.bks.cpg/sg14_35_cif.got.tgz:69822.got - 2010.06.03 17:49:19.
