data_PCOD9242906
_publ_section_title
;
Structure prediction by ZEFSAII (Michael W. Deem and Ramdas Pophale) SiO2 
 PCOD9242906
Probable space group: P 21/C
;
_chemical_formula_sum "Si O2"
_cell_formula_units_Z 28
_cell_length_a 9.382584
_cell_length_b 28.391862
_cell_length_c 7.447242
_cell_angle_alpha 90.000000
_cell_angle_beta 34.696641
_cell_angle_gamma 90.000000
_cell_volume 1129.277288
_symmetry_space_group_name_H-M "P 21/C"
_symmetry_group_IT_number 14
_symmetry_cell_setting 'monoclinic'
loop_
_space_group_symop_operation_xyz
x,y,z
-x,1/2+y,1/2-z
-x,-y,-z
x,1/2-y,1/2+z
loop_
_atom_site_type_symbol
_atom_site_label
_atom_site_fract_x
_atom_site_fract_y
_atom_site_fract_z
Si Si1 0.802587 0.319575 0.436575
Si Si2 0.691976 0.633541 0.129779
Si Si3 0.629012 0.049331 0.906143
Si Si4 0.188755 0.978412 0.946670
Si Si5 0.687485 0.833771 0.051027
Si Si6 0.531046 0.071190 0.626367
Si Si7 0.813048 0.286025 0.011536
O O1 0.033127 0.355261 0.230430
O O2 0.803880 0.307002 0.221893
O O3 0.524855 0.339374 0.754408
O O4 0.840978 0.269872 0.492317
O O5 0.576123 0.581565 0.279477
O O6 0.701268 0.653471 0.324352
O O7 0.685760 0.072373 0.654212
O O8 0.859823 0.040009 0.801557
O O9 0.500000 0.000000 0.000000
O O10 0.300675 0.934748 0.721036
O O11 0.375251 0.022543 0.785118
O O12 0.000000 0.000000 0.000000
O O13 0.641972 0.883364 0.195065
O O14 0.442810 0.801066 0.321876
O O15 0.943384 0.808171 0.834573
#
# Coordination Sequence:
#
# PCOD9242906 Si02
#       7
#     4   4   4   4   4   4   4
#     4  10  20  38  58  82 120 147 197 246 306 358
#     4   9  19  38  58  85 116 154 197 254 289 367
#     4   9  19  41  61  87 118 166 207 242 318 368
#     4  10  21  37  58  88 124 155 204 259 301 365
#     4   9  19  35  60  81 112 154 203 237 301 364
#     4   9  20  39  57  83 121 161 198 256 304 363
#     4  10  20  36  57  84 111 153 191 246 300 368
#
# _framework density 24.794619999999998
#
# number of rings (size 3 to 8) (size 9 to 14) (size 15 to 20)
#    0.000    2.571    0.000    0.857    2.000    0.571 
#   20.571    0.000    0.000    0.000    0.000    0.000 
#    0.000    0.000    0.000    0.000    0.000    0.000 
#
# Total GULP energy -156500.843265 kJ/mol
# GULP energy per Si atom -5589.315831 kJ/mol
# Density = 2.473819 g / cm^3
# Si number density = 24.794620 Si / 1000 Ang^3
#
#
#
# Elastic Constant Matrix: (Units=GPa)
#
#
# Indices 1 2 3 4 5 6 
#
# 1 104.4111 5.3156 38.5218 0.0000 11.2262 0.0000
# 2 5.3156 86.0388 25.3867 0.0000 2.5913 0.0000
# 3 38.5218 25.3867 81.1868 0.0000 -16.2315 0.0000
# 4 0.0000 0.0000 0.0000 20.9211 0.0000 5.9511
# 5 11.2262 2.5913 -16.2315 0.0000 20.9599 0.0000
# 6 0.0000 0.0000 0.0000 5.9511 0.0000 29.3893
#
#
#
# Elastic Compliance Matrix: (Units=1/GPa)
#
#
# Indices 1 2 3 4 5 6 
#
# 1 0.015890 0.003171 -0.012200 0.000000 -0.018351 0.000000
# 2 0.003171 0.014005 -0.007773 0.000000 -0.009449 0.000000
# 3 -0.012200 -0.007773 0.026071 0.000000 0.027685 0.000000
# 4 0.000000 0.000000 0.000000 0.050720 0.000000 -0.010270
# 5 -0.018351 -0.009449 0.027685 0.000000 0.080147 0.000000
# 6 0.000000 0.000000 0.000000 -0.010270 0.000000 0.036106
#
#
# Mechanical properties :
#
#
# Convention : Reuss Voigt Hill
#
# Bulk Modulus (GPa) = 44.71770 45.56500 45.14135
# Shear Modulus (GPa) = 18.93962 27.74822 23.34392
#
# Velocity S-wave (km/s) = 2.76680 3.34896 3.07170
# Velocity P-wave (km/s) = 5.31802 5.77675 5.55213
#
# Compressibility (1/GPa) = 0.02236251
#
# Stress axis : x y z
#
# Youngs Moduli (GPa) = 62.93184 71.40415 38.35619
#
# Poissons Ratio (x) = -0.22640 0.46794
# Poissons Ratio (y) = -0.19954 0.29813
# Poissons Ratio (z) = 0.76776 0.55501
#
# Static dielectric constant tensor:
#      x y z
#    x 2.046700 0.000000 -0.003440 
#    y 0.000000 1.933750 0.000000 
#    z -0.003440 0.000000 1.976180 
# 
# From -- ./inp_files/6510.got.cif
#   From: 2010.05.17/outbox.cif.g08.bks.cpg/sg14_4_cif.got.tgz:6510.got - 2010.06.03 17:49:19.
