data_PCOD9242939
_publ_section_title
;
Structure prediction by ZEFSAII (Michael W. Deem and Ramdas Pophale) SiO2 
 PCOD9242939
Probable space group: P 21/C
;
_chemical_formula_sum "Si O2"
_cell_formula_units_Z 32
_cell_length_a 11.407954
_cell_length_b 14.054324
_cell_length_c 17.886222
_cell_angle_alpha 90.000000
_cell_angle_beta 26.952517
_cell_angle_gamma 90.000000
_cell_volume 1299.798427
_symmetry_space_group_name_H-M "P 21/C"
_symmetry_group_IT_number 14
_symmetry_cell_setting 'monoclinic'
loop_
_space_group_symop_operation_xyz
x,y,z
-x,1/2+y,1/2-z
-x,-y,-z
x,1/2-y,1/2+z
loop_
_atom_site_type_symbol
_atom_site_label
_atom_site_fract_x
_atom_site_fract_y
_atom_site_fract_z
Si Si1 0.977492 0.246383 0.947211
Si Si2 0.667776 0.580561 0.242631
Si Si3 0.540419 0.174492 0.910610
Si Si4 0.948582 0.424993 0.375744
Si Si5 0.109295 0.051228 0.225602
Si Si6 0.395511 0.894030 0.292511
Si Si7 0.003186 0.269900 0.711760
Si Si8 0.996649 0.607985 0.440142
O O1 0.213898 0.314738 0.838906
O O2 0.879301 0.166868 0.062977
O O3 0.050052 0.180506 0.835580
O O4 0.750366 0.323170 0.070369
O O5 0.363004 0.582169 0.435196
O O6 0.823662 0.540901 0.226424
O O7 0.699441 0.502926 0.159152
O O8 0.634584 0.150357 0.774096
O O9 0.772100 0.196685 0.834503
O O10 0.376708 0.084860 0.033353
O O11 0.310283 0.253692 0.040930
O O12 0.002852 0.469511 0.263447
O O13 0.057348 0.502875 0.373997
O O14 0.948087 0.147984 0.303572
O O15 0.698195 0.896594 0.133702
O O16 0.984351 0.325580 0.643098
#
# Coordination Sequence:
#
# PCOD9242939 Si02
#       8
#     4   4   4   4   4   4   4   4
#     4  12  22  34  59  89 119 149 196 252 311 352
#     4  11  22  39  55  86 117 160 195 250 298 360
#     4   9  16  33  60  86 120 154 204 244 292 354
#     4  10  21  38  58  84 113 158 200 251 292 361
#     4   9  20  37  60  83 118 157 210 240 291 365
#     4  10  20  36  58  84 121 151 199 242 308 361
#     4   8  16  31  58  90 116 155 204 245 290 352
#     4   9  18  36  56  84 121 153 198 239 299 365
#
# _framework density 24.619202999999999
#
# number of rings (size 3 to 8) (size 9 to 14) (size 15 to 20)
#    0.750    1.500    3.750    1.875    0.000    1.000 
#    0.000    0.000    0.000    3.000    0.000    6.125 
#    0.000    0.000    0.000    0.000    0.000    0.000 
#
# Total GULP energy -178544.208500 kJ/mol
# GULP energy per Si atom -5579.506516 kJ/mol
# Density = 2.456317 g / cm^3
# Si number density = 24.619203 Si / 1000 Ang^3
#
#
#
# Elastic Constant Matrix: (Units=GPa)
#
#
# Indices 1 2 3 4 5 6 
#
# 1 87.9398 42.2433 5.4897 0.0000 5.1615 0.0000
# 2 42.2433 141.5590 10.4009 0.0000 3.0178 0.0000
# 3 5.4897 10.4009 26.7245 0.0000 9.9553 0.0000
# 4 0.0000 0.0000 0.0000 27.4321 0.0000 0.1218
# 5 5.1615 3.0178 9.9553 0.0000 31.4230 0.0000
# 6 0.0000 0.0000 0.0000 0.1218 0.0000 48.2492
#
#
#
# Elastic Compliance Matrix: (Units=1/GPa)
#
#
# Indices 1 2 3 4 5 6 
#
# 1 0.013386 -0.003914 -0.000621 0.000000 -0.001626 0.000000
# 2 -0.003914 0.008418 -0.002733 0.000000 0.000700 0.000000
# 3 -0.000621 -0.002733 0.043623 0.000000 -0.013456 0.000000
# 4 0.000000 0.000000 0.000000 0.036454 0.000000 -0.000092
# 5 -0.001626 0.000700 -0.013456 0.000000 0.036287 0.000000
# 6 0.000000 0.000000 0.000000 -0.000092 0.000000 0.020726
#
#
# Mechanical properties :
#
#
# Convention : Reuss Voigt Hill
#
# Bulk Modulus (GPa) = 19.64993 41.38790 30.51892
# Shear Modulus (GPa) = 26.26152 34.62684 30.44418
#
# Velocity S-wave (km/s) = 3.26959 3.75440 3.52035
# Velocity P-wave (km/s) = 4.71726 5.97007 5.38025
#
# Compressibility (1/GPa) = 0.05089078
#
# Stress axis : x y z
#
# Youngs Moduli (GPa) = 74.70553 118.79088 22.92394
#
# Poissons Ratio (x) = 0.46498 0.01422
# Poissons Ratio (y) = 0.29242 0.06265
# Poissons Ratio (z) = 0.04636 0.32467
#
# Static dielectric constant tensor:
#      x y z
#    x 2.062220 0.000000 -0.016530 
#    y 0.000000 2.071610 0.000000 
#    z -0.016530 0.000000 1.942770 
# 
# From -- ./inp_files/67485.got.cif
#   From: 2010.05.17/outbox.cif.g08.bks.cpg/sg14_34_cif.got.tgz:67485.got - 2010.06.03 17:49:19.
