data_PCOD9242184
_publ_section_title
;
Structure prediction by ZEFSAII (Michael W. Deem and Ramdas Pophale) SiO2 
 PCOD9242184
Probable space group: P 21/C
;
_chemical_formula_sum "Si O2"
_cell_formula_units_Z 28
_cell_length_a 15.352195
_cell_length_b 9.102350
_cell_length_c 14.394295
_cell_angle_alpha 90.000000
_cell_angle_beta 145.393403
_cell_angle_gamma 90.000000
_cell_volume 1142.393519
_symmetry_space_group_name_H-M "P 21/C"
_symmetry_group_IT_number 14
_symmetry_cell_setting 'monoclinic'
loop_
_space_group_symop_operation_xyz
x,y,z
-x,1/2+y,1/2-z
-x,-y,-z
x,1/2-y,1/2+z
loop_
_atom_site_type_symbol
_atom_site_label
_atom_site_fract_x
_atom_site_fract_y
_atom_site_fract_z
Si Si1 0.099647 0.649489 0.099590
Si Si2 0.081942 0.098941 0.995148
Si Si3 0.063610 0.810546 0.871800
Si Si4 0.714300 0.710487 0.028676
Si Si5 0.324761 0.621064 0.027365
Si Si6 0.617939 0.739722 0.727438
Si Si7 0.431654 0.595472 0.338017
O O1 0.283381 0.639532 0.269582
O O2 0.017843 0.753317 0.102546
O O3 0.084844 0.731513 0.988932
O O4 0.000000 0.500000 0.000000
O O5 0.092994 0.984716 0.918503
O O6 0.237955 0.163517 0.178129
O O7 0.000000 0.000000 0.000000
O O8 0.893837 0.757252 0.695378
O O9 0.195067 0.743832 0.922280
O O10 0.718908 0.536437 0.050655
O O11 0.663748 0.723428 0.876804
O O12 0.588990 0.807332 0.975938
O O13 0.466239 0.667605 0.089936
O O14 0.381654 0.605659 0.184699
O O15 0.570033 0.580186 0.648005
#
# Coordination Sequence:
#
# PCOD9242184 Si02
#       7
#     4   4   4   4   4   4   4
#     4  10  19  40  63  84 112 158 215 244 289 366
#     4  10  22  36  62  82 121 162 205 242 290 367
#     4  10  23  38  57  91 121 155 196 251 315 357
#     4  10  22  37  59  87 125 149 191 259 314 358
#     4   9  21  34  57  86 116 153 192 240 302 368
#     4  10  20  36  61  89 112 158 202 246 304 355
#     4   9  19  36  59  85 111 152 200 244 292 362
#
# _framework density 24.509941999999999
#
# number of rings (size 3 to 8) (size 9 to 14) (size 15 to 20)
#    0.000    2.286    1.429    0.000   14.000    0.000 
#    0.000    2.857    0.000    0.000    0.000    0.000 
#    0.000    0.000    0.000    0.000    0.000    0.000 
#
# Total GULP energy -156236.650801 kJ/mol
# GULP energy per Si atom -5579.880386 kJ/mol
# Density = 2.445416 g / cm^3
# Si number density = 24.509942 Si / 1000 Ang^3
#
#
#
# Elastic Constant Matrix: (Units=GPa)
#
#
# Indices 1 2 3 4 5 6 
#
# 1 43.0960 27.5410 17.2144 0.0000 20.5136 0.0000
# 2 27.5410 154.8321 43.6995 0.0000 28.4360 0.0000
# 3 17.2144 43.6995 111.4271 0.0000 39.3004 0.0000
# 4 0.0000 0.0000 0.0000 37.3993 0.0000 24.3611
# 5 20.5136 28.4360 39.3004 0.0000 51.7601 0.0000
# 6 0.0000 0.0000 0.0000 24.3611 0.0000 19.9494
#
#
#
# Elastic Compliance Matrix: (Units=1/GPa)
#
#
# Indices 1 2 3 4 5 6 
#
# 1 0.030255 -0.003594 0.000366 0.000000 -0.010294 0.000000
# 2 -0.003594 0.007933 -0.002078 0.000000 -0.001356 0.000000
# 3 0.000366 -0.002078 0.012812 0.000000 -0.008732 0.000000
# 4 0.000000 0.000000 0.000000 0.130706 0.000000 -0.159611
# 5 -0.010294 -0.001356 -0.008732 0.000000 0.030775 0.000000
# 6 0.000000 0.000000 0.000000 -0.159611 0.000000 0.245035
#
#
# Mechanical properties :
#
#
# Convention : Reuss Voigt Hill
#
# Bulk Modulus (GPa) = 24.75917 54.02944 39.39431
# Shear Modulus (GPa) = 10.38224 36.54845 23.46535
#
# Velocity S-wave (km/s) = 2.06037 3.86575 3.09751
# Velocity P-wave (km/s) = 3.97288 6.48206 5.37592
#
# Compressibility (1/GPa) = 0.04038907
#
# Stress axis : x y z
#
# Youngs Moduli (GPa) = 33.05282 126.04807 78.04886
#
# Poissons Ratio (x) = 0.45307 -0.02859
# Poissons Ratio (y) = 0.11881 0.16216
# Poissons Ratio (z) = -0.01211 0.26188
#
# Static dielectric constant tensor:
#      x y z
#    x 1.980390 0.000000 0.057020 
#    y 0.000000 1.961040 0.000000 
#    z 0.057020 0.000000 1.866800 
# 
# From -- ./inp_files/74670.got.cif
#   From: 2010.05.17/outbox.cif.g08.bks.cpg/sg14_38_cif.got.tgz:74670.got - 2010.06.03 17:49:19.
