data_PCOD9242191
_publ_section_title
;
Structure prediction by ZEFSAII (Michael W. Deem and Ramdas Pophale) SiO2 
 PCOD9242191
Probable space group: P 21/C
;
_chemical_formula_sum "Si O2"
_cell_formula_units_Z 32
_cell_length_a 8.598908
_cell_length_b 8.900283
_cell_length_c 15.661793
_cell_angle_alpha 90.000000
_cell_angle_beta 78.561717
_cell_angle_gamma 90.000000
_cell_volume 1174.833221
_symmetry_space_group_name_H-M "P 21/C"
_symmetry_group_IT_number 14
_symmetry_cell_setting 'monoclinic'
loop_
_space_group_symop_operation_xyz
x,y,z
-x,1/2+y,1/2-z
-x,-y,-z
x,1/2-y,1/2+z
loop_
_atom_site_type_symbol
_atom_site_label
_atom_site_fract_x
_atom_site_fract_y
_atom_site_fract_z
Si Si1 0.801999 0.067080 0.530545
Si Si2 0.168672 0.288444 0.462692
Si Si3 0.007433 0.246924 0.145705
Si Si4 0.621510 0.460493 0.570811
Si Si5 0.862584 0.326513 0.404781
Si Si6 0.443095 0.549201 0.815983
Si Si7 0.302879 0.658715 0.257064
Si Si8 0.279870 0.089448 0.182990
O O1 0.908014 0.129676 0.600491
O O2 0.837996 0.149935 0.437431
O O3 0.625896 0.093377 0.585510
O O4 0.820274 0.888907 0.525024
O O5 0.340482 0.362775 0.439519
O O6 0.070263 0.348402 0.556374
O O7 0.050705 0.334634 0.400213
O O8 0.882753 0.192629 0.231598
O O9 0.175342 0.237638 0.177413
O O10 0.729710 0.385724 0.487421
O O11 0.701564 0.411831 0.649147
O O12 0.439498 0.417592 0.607339
O O13 0.818545 0.439143 0.332089
O O14 0.609031 0.465548 0.807584
O O15 0.415789 0.694363 0.757859
O O16 0.335426 0.429477 0.774574
#
# Coordination Sequence:
#
# PCOD9242191 Si02
#       8
#     4   4   4   4   4   4   4   4
#     4  10  23  41  68  89 128 169 221 269 321 393
#     4  11  21  37  70  95 119 166 218 264 323 393
#     4  10  19  40  63  91 127 160 213 267 322 392
#     4  11  20  37  64  94 122 164 211 265 315 383
#     4  11  19  39  64  93 122 164 212 272 317 381
#     4  10  23  43  62  92 127 167 223 265 325 396
#     4  10  21  41  67  86 120 175 220 261 311 400
#     4  11  24  36  63  96 130 162 211 270 333 379
#
# _framework density 27.237907
#
# number of rings (size 3 to 8) (size 9 to 14) (size 15 to 20)
#    0.000    1.500    5.000    3.000    3.500    0.000 
#    4.500    3.125    8.250    0.000    0.000    0.000 
#    0.000    0.000    0.000    0.000    0.000    0.000 
#
# Total GULP energy -178207.917368 kJ/mol
# GULP energy per Si atom -5568.997418 kJ/mol
# Density = 2.717591 g / cm^3
# Si number density = 27.237907 Si / 1000 Ang^3
#
#
#
# Elastic Constant Matrix: (Units=GPa)
#
#
# Indices 1 2 3 4 5 6 
#
# 1 112.1622 46.2569 8.0284 0.0000 -31.6106 0.0000
# 2 46.2569 117.8841 0.6935 0.0000 -13.5800 0.0000
# 3 8.0284 0.6935 25.7741 0.0000 -0.4101 0.0000
# 4 0.0000 0.0000 0.0000 28.8355 0.0000 -1.8236
# 5 -31.6106 -13.5800 -0.4101 0.0000 53.4139 0.0000
# 6 0.0000 0.0000 0.0000 -1.8236 0.0000 47.2871
#
#
#
# Elastic Compliance Matrix: (Units=1/GPa)
#
#
# Indices 1 2 3 4 5 6 
#
# 1 0.012746 -0.004238 -0.003754 0.000000 0.006437 0.000000
# 2 -0.004238 0.010149 0.001048 0.000000 0.000080 0.000000
# 3 -0.003754 0.001048 0.039913 0.000000 -0.001649 0.000000
# 4 0.000000 0.000000 0.000000 0.034764 0.000000 0.001341
# 5 0.006437 0.000080 -0.001649 0.000000 0.022539 0.000000
# 6 0.000000 0.000000 0.000000 0.001341 0.000000 0.021199
#
#
# Mechanical properties :
#
#
# Convention : Reuss Voigt Hill
#
# Bulk Modulus (GPa) = 20.44089 40.64200 30.54145
# Shear Modulus (GPa) = 29.15363 39.29674 34.22519
#
# Velocity S-wave (km/s) = 3.27514 3.80244 3.54860
# Velocity P-wave (km/s) = 4.67150 5.85078 5.29408
#
# Compressibility (1/GPa) = 0.04892156
#
# Stress axis : x y z
#
# Youngs Moduli (GPa) = 78.45441 98.53268 25.05421
#
# Poissons Ratio (x) = 0.41757 0.09405
# Poissons Ratio (y) = 0.33248 -0.02626
# Poissons Ratio (z) = 0.29451 -0.10329
#
# Static dielectric constant tensor:
#      x y z
#    x 2.296820 0.000000 0.099010 
#    y 0.000000 2.326160 0.000000 
#    z 0.099010 0.000000 2.242900 
# 
# From -- ./inp_files/64792.got.cif
#   From: 2010.05.17/outbox.cif.g08.bks.cpg/sg14_33_cif.got.tgz:64792.got - 2010.06.03 17:49:19.
