data_PCOD9242118
_publ_section_title
;
Structure prediction by ZEFSAII (Michael W. Deem and Ramdas Pophale) SiO2 
 PCOD9242118
Probable space group: P 21/C
;
_chemical_formula_sum "Si O2"
_cell_formula_units_Z 24
_cell_length_a 15.868199
_cell_length_b 9.861006
_cell_length_c 20.808215
_cell_angle_alpha 90.000000
_cell_angle_beta 165.102266
_cell_angle_gamma 90.000000
_cell_volume 837.098566
_symmetry_space_group_name_H-M "P 21/C"
_symmetry_group_IT_number 14
_symmetry_cell_setting 'monoclinic'
loop_
_space_group_symop_operation_xyz
x,y,z
-x,1/2+y,1/2-z
-x,-y,-z
x,1/2-y,1/2+z
loop_
_atom_site_type_symbol
_atom_site_label
_atom_site_fract_x
_atom_site_fract_y
_atom_site_fract_z
Si Si1 0.221033 0.789211 0.163716
Si Si2 0.959787 0.696378 0.200169
Si Si3 0.134024 0.569655 0.727728
Si Si4 0.832206 0.194115 0.509250
Si Si5 0.508608 0.492947 0.583189
Si Si6 0.562559 0.925245 0.256922
O O1 0.087163 0.886957 0.119172
O O2 0.036392 0.761660 0.960367
O O3 0.341158 0.652249 0.288206
O O4 0.583768 0.842120 0.411926
O O5 0.113321 0.802257 0.261901
O O6 0.991800 0.767547 0.294537
O O7 0.152685 0.556398 0.336678
O O8 0.808692 0.483643 0.506316
O O9 0.500000 0.500000 0.000000
O O10 0.480441 0.267979 0.258449
O O11 0.782782 0.037814 0.453884
O O12 0.500000 0.500000 0.500000
O O13 0.671207 0.575544 0.762657
#
# Coordination Sequence:
#
# PCOD9242118 Si02
#       6
#     4   4   4   4   4   4
#     4  11  24  43  67  96 135 176 224 282 342 403
#     4  11  23  43  67  96 136 176 225 279 345 403
#     4  12  24  42  70 104 134 182 230 282 344 408
#     4  10  23  43  67  97 138 179 221 288 339 405
#     4  10  19  39  65  92 127 172 222 271 329 409
#     4  10  23  45  67 103 139 177 235 282 342 405
#
# _framework density 28.670458
#
# number of rings (size 3 to 8) (size 9 to 14) (size 15 to 20)
#    0.000    1.333    5.000    2.000    2.333    0.667 
#    3.000    0.000    0.000    7.000    0.000    0.000 
#    0.000    0.000    0.000    0.000    0.000    0.000 
#
# Total GULP energy -134001.088389 kJ/mol
# GULP energy per Si atom -5583.378683 kJ/mol
# Density = 2.860520 g / cm^3
# Si number density = 28.670458 Si / 1000 Ang^3
#
#
#
# Elastic Constant Matrix: (Units=GPa)
#
#
# Indices 1 2 3 4 5 6 
#
# 1 247.6999 36.8926 52.4054 0.0000 -26.1609 0.0000
# 2 36.8926 77.2670 11.8219 0.0000 1.2052 0.0000
# 3 52.4054 11.8219 146.1461 0.0000 6.1460 0.0000
# 4 0.0000 0.0000 0.0000 32.7341 0.0000 20.5257
# 5 -26.1609 1.2052 6.1460 0.0000 52.2564 0.0000
# 6 0.0000 0.0000 0.0000 20.5257 0.0000 77.3156
#
#
#
# Elastic Compliance Matrix: (Units=1/GPa)
#
#
# Indices 1 2 3 4 5 6 
#
# 1 0.005022 -0.002175 -0.001741 0.000000 0.002769 0.000000
# 2 -0.002175 0.014048 -0.000299 0.000000 -0.001378 0.000000
# 3 -0.001741 -0.000299 0.007565 0.000000 -0.001755 0.000000
# 4 0.000000 0.000000 0.000000 0.036650 0.000000 -0.009730
# 5 0.002769 -0.001378 -0.001755 0.000000 0.020761 0.000000
# 6 0.000000 0.000000 0.000000 -0.009730 0.000000 0.015517
#
#
# Mechanical properties :
#
#
# Convention : Reuss Voigt Hill
#
# Bulk Modulus (GPa) = 54.92910 74.81697 64.87303
# Shear Modulus (GPa) = 43.83662 57.12742 50.48202
#
# Velocity S-wave (km/s) = 3.91446 4.46865 4.20070
# Velocity P-wave (km/s) = 6.29532 7.26479 6.79736
#
# Compressibility (1/GPa) = 0.01820529
#
# Stress axis : x y z
#
# Youngs Moduli (GPa) = 199.12864 71.18657 132.19098
#
# Poissons Ratio (x) = 0.15480 0.23018
# Poissons Ratio (y) = 0.43302 0.03948
# Poissons Ratio (z) = 0.34674 0.02126
#
# Static dielectric constant tensor:
#      x y z
#    x 2.306590 0.000000 -0.017490 
#    y 0.000000 2.296490 0.000000 
#    z -0.017490 0.000000 2.408300 
# 
# From -- ./inp_files/68540.got.cif
#   From: 2010.05.17/outbox.cif.g08.bks.cpg/sg14_35_cif.got.tgz:68540.got - 2010.06.03 17:49:19.
