data_PCOD9242190
_publ_section_title
;
Structure prediction by ZEFSAII (Michael W. Deem and Ramdas Pophale) SiO2 
 PCOD9242190
Probable space group: P 21/C
;
_chemical_formula_sum "Si O2"
_cell_formula_units_Z 28
_cell_length_a 17.553425
_cell_length_b 15.838707
_cell_length_c 8.438697
_cell_angle_alpha 90.000000
_cell_angle_beta 147.543171
_cell_angle_gamma 90.000000
_cell_volume 1259.097710
_symmetry_space_group_name_H-M "P 21/C"
_symmetry_group_IT_number 14
_symmetry_cell_setting 'monoclinic'
loop_
_space_group_symop_operation_xyz
x,y,z
-x,1/2+y,1/2-z
-x,-y,-z
x,1/2-y,1/2+z
loop_
_atom_site_type_symbol
_atom_site_label
_atom_site_fract_x
_atom_site_fract_y
_atom_site_fract_z
Si Si1 0.575021 0.421875 0.315087
Si Si2 0.373006 0.091180 0.926922
Si Si3 0.296692 0.068351 0.140774
Si Si4 0.016274 0.928339 0.393361
Si Si5 0.842280 0.512254 0.149776
Si Si6 0.311433 0.641677 0.013665
Si Si7 0.219765 0.709181 0.183872
O O1 0.574898 0.493188 0.452977
O O2 0.666268 0.470854 0.339676
O O3 0.649097 0.338433 0.503204
O O4 0.423168 0.403653 0.974923
O O5 0.255328 0.091203 0.580452
O O6 0.305843 0.111894 0.982389
O O7 0.518978 0.142703 0.165701
O O8 0.143954 0.081316 0.947527
O O9 0.126465 0.970188 0.466436
O O10 0.083444 0.834908 0.527951
O O11 0.000000 0.000000 0.500000
O O12 0.000000 0.500000 0.500000
O O13 0.741621 0.454016 0.078790
O O14 0.231833 0.685611 0.021622
O O15 0.248978 0.692620 0.756922
#
# Coordination Sequence:
#
# PCOD9242190 Si02
#       7
#     4   4   4   4   4   4   4
#     4   9  18  34  61  96 116 152 216 248 309 372
#     4  10  19  40  63  91 126 159 219 263 307 375
#     4   9  18  31  64  97 113 160 206 262 304 359
#     4  11  18  39  62  91 125 159 213 259 305 388
#     4  11  24  37  64  95 123 169 212 262 322 370
#     4  11  25  41  62  90 129 169 207 269 319 386
#     4  11  24  40  61  91 127 165 206 258 331 376
#
# _framework density 22.238149
#
# number of rings (size 3 to 8) (size 9 to 14) (size 15 to 20)
#    0.857    0.857    5.714    0.429    4.000    1.143 
#    0.000    1.429    3.143    0.000    0.000    0.000 
#    0.000    0.000    0.000    0.000    0.000    0.000 
#
# Total GULP energy -155928.464974 kJ/mol
# GULP energy per Si atom -5568.873749 kJ/mol
# Density = 2.218753 g / cm^3
# Si number density = 22.238149 Si / 1000 Ang^3
#
#
#
# Elastic Constant Matrix: (Units=GPa)
#
#
# Indices 1 2 3 4 5 6 
#
# 1 53.4877 15.4143 8.7175 0.0000 15.4392 0.0000
# 2 15.4143 23.8017 7.9265 0.0000 7.4051 0.0000
# 3 8.7175 7.9265 140.3180 0.0000 18.7904 0.0000
# 4 0.0000 0.0000 0.0000 26.7379 0.0000 -5.1949
# 5 15.4392 7.4051 18.7904 0.0000 36.9530 0.0000
# 6 0.0000 0.0000 0.0000 -5.1949 0.0000 14.9364
#
#
#
# Elastic Compliance Matrix: (Units=1/GPa)
#
#
# Indices 1 2 3 4 5 6 
#
# 1 0.024863 -0.013777 0.000274 0.000000 -0.007766 0.000000
# 2 -0.013777 0.052708 -0.001586 0.000000 -0.004000 0.000000
# 3 0.000274 -0.001586 0.007696 0.000000 -0.003710 0.000000
# 4 0.000000 0.000000 0.000000 0.040111 0.000000 0.013951
# 5 -0.007766 -0.004000 -0.003710 0.000000 0.032994 0.000000
# 6 0.000000 0.000000 0.000000 0.013951 0.000000 0.071802
#
#
# Mechanical properties :
#
#
# Convention : Reuss Voigt Hill
#
# Bulk Modulus (GPa) = 18.15218 31.30263 24.72741
# Shear Modulus (GPa) = 17.93939 28.09541 23.01740
#
# Velocity S-wave (km/s) = 2.84332 3.55827 3.22070
# Velocity P-wave (km/s) = 4.35427 5.56672 4.99740
#
# Compressibility (1/GPa) = 0.05508980
#
# Stress axis : x y z
#
# Youngs Moduli (GPa) = 40.21992 18.97230 129.93645
#
# Poissons Ratio (x) = 0.26138 -0.03555
# Poissons Ratio (y) = 0.55410 0.20607
# Poissons Ratio (z) = -0.01100 0.03009
#
# Static dielectric constant tensor:
#      x y z
#    x 1.874850 0.000000 -0.041090 
#    y 0.000000 1.860630 0.000000 
#    z -0.041090 0.000000 1.895240 
# 
# From -- ./inp_files/18182.got.cif
#   From: 2010.05.17/outbox.cif.g08.bks.cpg/sg14_10_cif.got.tgz:18182.got - 2010.06.03 17:49:19.
