data_PCOD9242911
_publ_section_title
;
Structure prediction by ZEFSAII (Michael W. Deem and Ramdas Pophale) SiO2 
 PCOD9242911
Probable space group: P 21/C
;
_chemical_formula_sum "Si O2"
_cell_formula_units_Z 28
_cell_length_a 7.137963
_cell_length_b 8.133127
_cell_length_c 27.406385
_cell_angle_alpha 90.000000
_cell_angle_beta 121.923840
_cell_angle_gamma 90.000000
_cell_volume 1350.405746
_symmetry_space_group_name_H-M "P 21/C"
_symmetry_group_IT_number 14
_symmetry_cell_setting 'monoclinic'
loop_
_space_group_symop_operation_xyz
x,y,z
-x,1/2+y,1/2-z
-x,-y,-z
x,1/2-y,1/2+z
loop_
_atom_site_type_symbol
_atom_site_label
_atom_site_fract_x
_atom_site_fract_y
_atom_site_fract_z
Si Si1 0.268894 0.793648 0.596088
Si Si2 0.176332 0.639716 0.681569
Si Si3 0.472055 0.876188 0.782563
Si Si4 0.762054 0.829092 0.394760
Si Si5 0.577852 0.646087 0.459023
Si Si6 0.797833 0.169505 0.020415
Si Si7 0.685921 0.906843 0.151445
O O1 0.171377 0.668371 0.622663
O O2 0.193434 0.755741 0.530923
O O3 0.531706 0.754597 0.632772
O O4 0.207944 0.976955 0.602884
O O5 0.308818 0.793488 0.722127
O O6 0.328396 0.481201 0.712693
O O7 0.935367 0.625499 0.670990
O O8 0.587221 0.736507 0.831509
O O9 0.342236 0.998069 0.801297
O O10 0.672258 0.781265 0.435997
O O11 0.988625 0.726836 0.420656
O O12 0.423402 0.714437 0.480286
O O13 0.765588 0.525039 0.506005
O O14 0.427845 0.524489 0.404894
#
# Coordination Sequence:
#
# PCOD9242911 Si02
#       7
#     4   4   4   4   4   4   4
#     4  10  23  37  57  90 117 150 196 231 283 351
#     4  11  22  42  63  83 118 150 185 241 287 334
#     4  10  23  38  60  87 109 147 194 230 283 348
#     4  11  21  37  57  85 121 150 190 241 284 337
#     4   9  20  36  58  84 113 154 198 234 282 345
#     4  10  20  36  57  85 118 155 193 235 288 337
#     4   9  21  40  58  82 114 150 189 235 287 338
#
# _framework density 20.734508999999999
#
# number of rings (size 3 to 8) (size 9 to 14) (size 15 to 20)
#    0.000    2.000    0.000    3.429    0.000    8.571 
#    0.000    2.857    0.000    0.000    0.000    0.000 
#    0.000    0.000    0.000    0.000    0.000    0.000 
#
# Total GULP energy -156516.442902 kJ/mol
# GULP energy per Si atom -5589.872961 kJ/mol
# Density = 2.068732 g / cm^3
# Si number density = 20.734509 Si / 1000 Ang^3
#
#
#
# Elastic Constant Matrix: (Units=GPa)
#
#
# Indices 1 2 3 4 5 6 
#
# 1 90.0262 7.0501 37.9576 0.0000 18.4518 0.0000
# 2 7.0501 45.2969 25.0372 0.0000 11.8037 0.0000
# 3 37.9576 25.0372 65.4352 0.0000 11.7442 0.0000
# 4 0.0000 0.0000 0.0000 24.3958 0.0000 -2.1739
# 5 18.4518 11.8037 11.7442 0.0000 25.1876 0.0000
# 6 0.0000 0.0000 0.0000 -2.1739 0.0000 8.7873
#
#
#
# Elastic Compliance Matrix: (Units=1/GPa)
#
#
# Indices 1 2 3 4 5 6 
#
# 1 0.017121 0.005720 -0.010245 0.000000 -0.010446 0.000000
# 2 0.005720 0.031850 -0.013176 0.000000 -0.012972 0.000000
# 3 -0.010245 -0.013176 0.025986 0.000000 0.001564 0.000000
# 4 0.000000 0.000000 0.000000 0.041915 0.000000 0.010369
# 5 -0.010446 -0.012972 0.001564 0.000000 0.052704 0.000000
# 6 0.000000 0.000000 0.000000 0.010369 0.000000 0.116366
#
#
# Mechanical properties :
#
#
# Convention : Reuss Voigt Hill
#
# Bulk Modulus (GPa) = 25.28204 37.87200 31.57702
# Shear Modulus (GPa) = 14.94637 20.38837 17.66737
#
# Velocity S-wave (km/s) = 2.68777 3.13917 2.92220
# Velocity P-wave (km/s) = 4.67459 5.60750 5.16216
#
# Compressibility (1/GPa) = 0.03955376
#
# Stress axis : x y z
#
# Youngs Moduli (GPa) = 58.40946 31.39744 38.48182
#
# Poissons Ratio (x) = -0.17960 0.39425
# Poissons Ratio (y) = -0.33411 0.50705
# Poissons Ratio (z) = 0.59841 0.41371
#
# Static dielectric constant tensor:
#      x y z
#    x 1.729620 0.000000 -0.007550 
#    y 0.000000 1.718460 0.000000 
#    z -0.007550 0.000000 1.757290 
# 
# From -- ./inp_files/78669.got.cif
#   From: 2010.05.17/outbox.cif.g08.bks.cpg/sg14_40_cif.got.tgz:78669.got - 2010.06.03 17:49:19.
