data_PCOD9242148
_publ_section_title
;
Structure prediction by ZEFSAII (Michael W. Deem and Ramdas Pophale) SiO2 
 PCOD9242148
Probable space group: P 21/C
;
_chemical_formula_sum "Si O2"
_cell_formula_units_Z 32
_cell_length_a 5.289485
_cell_length_b 22.775537
_cell_length_c 12.183743
_cell_angle_alpha 90.000000
_cell_angle_beta 114.973760
_cell_angle_gamma 90.000000
_cell_volume 1330.549842
_symmetry_space_group_name_H-M "P 21/C"
_symmetry_group_IT_number 14
_symmetry_cell_setting 'monoclinic'
loop_
_space_group_symop_operation_xyz
x,y,z
-x,1/2+y,1/2-z
-x,-y,-z
x,1/2-y,1/2+z
loop_
_atom_site_type_symbol
_atom_site_label
_atom_site_fract_x
_atom_site_fract_y
_atom_site_fract_z
Si Si1 0.824225 0.940758 0.128581
Si Si2 0.060584 0.161591 0.593145
Si Si3 0.558722 0.164928 0.938255
Si Si4 0.058437 0.116909 0.154129
Si Si5 0.319820 0.629691 0.769471
Si Si6 0.814979 0.148565 0.311164
Si Si7 0.450360 0.463693 0.659605
Si Si8 0.385764 0.280362 0.612009
O O1 0.713330 0.874316 0.127925
O O2 0.154177 0.929265 0.202806
O O3 0.660168 0.982650 0.182511
O O4 0.711936 0.958718 0.988004
O O5 0.348962 0.123427 0.646300
O O6 0.192673 0.226901 0.610421
O O7 0.842472 0.153573 0.653082
O O8 0.896968 0.149459 0.451040
O O9 0.687306 0.170755 0.841383
O O10 0.492798 0.219510 0.005517
O O11 0.751806 0.122261 0.048020
O O12 0.176269 0.051792 0.181937
O O13 0.211599 0.159966 0.097184
O O14 0.076763 0.145979 0.276471
O O15 0.645159 0.089667 0.243759
O O16 0.642775 0.205336 0.239326
#
# Coordination Sequence:
#
# PCOD9242148 Si02
#       8
#     4   4   4   4   4   4   4   4
#     4  11  21  42  71 108 143 180 238 300 369 415
#     4  12  30  48  71  99 147 202 236 283 358 431
#     4  11  20  42  71 104 148 175 235 308 351 421
#     4  10  19  39  68 102 145 178 233 305 355 412
#     4  12  27  48  68 107 146 188 239 290 349 436
#     4  10  24  46  66 103 143 185 245 294 347 438
#     4  10  21  39  72 107 138 185 232 305 369 409
#     4  10  24  44  70 104 134 188 239 301 355 413
#
# _framework density 24.050211000000001
#
# number of rings (size 3 to 8) (size 9 to 14) (size 15 to 20)
#    0.000    1.250    6.250    0.000    7.000    4.500 
#    0.000    1.250    0.000    0.000    0.000    0.000 
#    0.000    0.000    0.000    0.000    0.000    0.000 
#
# Total GULP energy -178394.724558 kJ/mol
# GULP energy per Si atom -5574.835142 kJ/mol
# Density = 2.399547 g / cm^3
# Si number density = 24.050211 Si / 1000 Ang^3
#
#
#
# Elastic Constant Matrix: (Units=GPa)
#
#
# Indices 1 2 3 4 5 6 
#
# 1 106.2003 -0.5447 55.8170 0.0000 -24.5562 0.0000
# 2 -0.5447 64.4836 20.4088 0.0000 -0.6422 0.0000
# 3 55.8170 20.4088 173.4282 0.0000 -26.3210 0.0000
# 4 0.0000 0.0000 0.0000 24.9993 0.0000 0.0920
# 5 -24.5562 -0.6422 -26.3210 0.0000 43.8141 0.0000
# 6 0.0000 0.0000 0.0000 0.0920 0.0000 38.4839
#
#
#
# Elastic Compliance Matrix: (Units=1/GPa)
#
#
# Indices 1 2 3 4 5 6 
#
# 1 0.012325 0.001218 -0.003366 0.000000 0.004904 0.000000
# 2 0.001218 0.016268 -0.002384 0.000000 -0.000511 0.000000
# 3 -0.003366 -0.002384 0.007524 0.000000 0.002599 0.000000
# 4 0.000000 0.000000 0.000000 0.040002 0.000000 -0.000096
# 5 0.004904 -0.000511 0.002599 0.000000 0.027126 0.000000
# 6 0.000000 0.000000 0.000000 -0.000096 0.000000 0.025985
#
#
# Mechanical properties :
#
#
# Convention : Reuss Voigt Hill
#
# Bulk Modulus (GPa) = 36.96329 55.05272 46.00800
# Shear Modulus (GPa) = 33.94179 39.35485 36.64832
#
# Velocity S-wave (km/s) = 3.76079 4.04959 3.90786
# Velocity P-wave (km/s) = 5.85326 6.69373 6.28755
#
# Compressibility (1/GPa) = 0.02705387
#
# Stress axis : x y z
#
# Youngs Moduli (GPa) = 81.13335 61.47207 132.90167
#
# Poissons Ratio (x) = -0.07489 0.44735
# Poissons Ratio (y) = -0.09884 0.31684
# Poissons Ratio (z) = 0.27310 0.14655
#
# Static dielectric constant tensor:
#      x y z
#    x 2.212210 0.000000 0.010770 
#    y 0.000000 2.013810 0.000000 
#    z 0.010770 0.000000 1.915140 
# 
# From -- ./inp_files/22195.got.cif
#   From: 2010.05.17/outbox.cif.g08.bks.cpg/sg14_12_cif.got.tgz:22195.got - 2010.06.03 17:49:19.
