data_PCOD9242544
_publ_section_title
;
Structure prediction by ZEFSAII (Michael W. Deem and Ramdas Pophale) SiO2 
 PCOD9242544
Probable space group: P 21/C
;
_chemical_formula_sum "Si O2"
_cell_formula_units_Z 32
_cell_length_a 15.885424
_cell_length_b 6.763401
_cell_length_c 18.862985
_cell_angle_alpha 90.000000
_cell_angle_beta 119.271447
_cell_angle_gamma 90.000000
_cell_volume 1767.855382
_symmetry_space_group_name_H-M "P 21/C"
_symmetry_group_IT_number 14
_symmetry_cell_setting 'monoclinic'
loop_
_space_group_symop_operation_xyz
x,y,z
-x,1/2+y,1/2-z
-x,-y,-z
x,1/2-y,1/2+z
loop_
_atom_site_type_symbol
_atom_site_label
_atom_site_fract_x
_atom_site_fract_y
_atom_site_fract_z
Si Si1 0.478085 0.280055 0.968310
Si Si2 0.862570 0.431172 0.916580
Si Si3 0.201406 0.585731 0.508106
Si Si4 0.043060 0.311752 0.475689
Si Si5 0.332033 0.963416 0.926748
Si Si6 0.536147 0.653798 0.697806
Si Si7 0.696560 0.351745 0.738201
Si Si8 0.346170 0.499569 0.691744
O O1 0.480395 0.255327 0.884649
O O2 0.375419 0.186230 0.950069
O O3 0.500000 0.500000 0.000000
O O4 0.568314 0.158311 0.035884
O O5 0.837487 0.294466 0.975619
O O6 0.771726 0.433967 0.827029
O O7 0.949949 0.313811 0.913290
O O8 0.898986 0.647352 0.954643
O O9 0.118050 0.425734 0.456155
O O10 0.270903 0.600631 0.469405
O O11 0.261925 0.497919 0.599316
O O12 0.000000 0.500000 0.500000
O O13 0.277862 0.916130 0.830989
O O14 0.592042 0.449918 0.707773
O O15 0.434919 0.620107 0.693736
O O16 0.609265 0.789796 0.771507
O O17 0.688374 0.119660 0.753055
#
# Coordination Sequence:
#
# PCOD9242544 Si02
#       8
#     4   4   4   4   4   4   4   4
#     4  10  21  35  49  72 109 156 188 219 269 320
#     4   9  19  36  60  85 107 136 182 229 282 334
#     4  10  20  34  55  82 108 142 184 229 273 328
#     4   9  18  36  62  84 106 134 173 230 283 328
#     4  10  21  36  52  75 115 149 186 225 268 329
#     4  11  20  31  50  75 106 146 186 225 265 310
#     4  10  21  36  52  78 113 146 178 229 273 324
#     4  11  20  32  50  78 109 142 187 227 263 310
#
# _framework density 18.101026999999998
#
# number of rings (size 3 to 8) (size 9 to 14) (size 15 to 20)
#    0.000    2.000    2.500    1.500    0.000    2.000 
#    0.000    0.000    8.250    0.000    0.000    0.000 
#    0.000    0.000    0.000    0.000    0.000    0.000 
#
# Total GULP energy -178246.975680 kJ/mol
# GULP energy per Si atom -5570.217990 kJ/mol
# Density = 1.805983 g / cm^3
# Si number density = 18.101027 Si / 1000 Ang^3
#
#
#
# Elastic Constant Matrix: (Units=GPa)
#
#
# Indices 1 2 3 4 5 6 
#
# 1 65.4713 28.9951 28.7854 0.0000 1.4628 0.0000
# 2 28.9951 73.3879 17.1049 0.0000 -5.8063 0.0000
# 3 28.7854 17.1049 53.3065 0.0000 -9.3964 0.0000
# 4 0.0000 0.0000 0.0000 25.3686 0.0000 9.5857
# 5 1.4628 -5.8063 -9.3964 0.0000 19.7971 0.0000
# 6 0.0000 0.0000 0.0000 9.5857 0.0000 21.6303
#
#
#
# Elastic Compliance Matrix: (Units=1/GPa)
#
#
# Indices 1 2 3 4 5 6 
#
# 1 0.024283 -0.007473 -0.012460 0.000000 -0.009900 0.000000
# 2 -0.007473 0.017121 -0.000519 0.000000 0.005327 0.000000
# 3 -0.012460 -0.000519 0.028144 0.000000 0.014127 0.000000
# 4 0.000000 0.000000 0.000000 0.047347 0.000000 -0.020982
# 5 -0.009900 0.005327 0.014127 0.000000 0.059512 0.000000
# 6 0.000000 0.000000 0.000000 -0.020982 0.000000 0.055530
#
#
# Mechanical properties :
#
#
# Convention : Reuss Voigt Hill
#
# Bulk Modulus (GPa) = 34.91120 37.99294 36.45207
# Shear Modulus (GPa) = 17.70603 21.17790 19.44197
#
# Velocity S-wave (km/s) = 3.13098 3.42421 3.28087
# Velocity P-wave (km/s) = 5.69205 6.05546 5.87656
#
# Compressibility (1/GPa) = 0.02864410
#
# Stress axis : x y z
#
# Youngs Moduli (GPa) = 41.18137 58.40658 35.53093
#
# Poissons Ratio (x) = 0.43648 0.44271
# Poissons Ratio (y) = 0.30776 0.01845
# Poissons Ratio (z) = 0.51311 0.03033
#
# Static dielectric constant tensor:
#      x y z
#    x 1.663290 0.000000 0.003450 
#    y 0.000000 1.683820 0.000000 
#    z 0.003450 0.000000 1.616820 
# 
# From -- ./inp_files/68923.got.cif
#   From: 2010.05.17/outbox.cif.g08.bks.cpg/sg14_35_cif.got.tgz:68923.got - 2010.06.03 17:49:19.
