data_PCOD9242185
_publ_section_title
;
Structure prediction by ZEFSAII (Michael W. Deem and Ramdas Pophale) SiO2 
 PCOD9242185
Probable space group: P 21/C
;
_chemical_formula_sum "Si O2"
_cell_formula_units_Z 20
_cell_length_a 14.859220
_cell_length_b 10.194041
_cell_length_c 8.728819
_cell_angle_alpha 90.000000
_cell_angle_beta 134.537442
_cell_angle_gamma 90.000000
_cell_volume 942.455500
_symmetry_space_group_name_H-M "P 21/C"
_symmetry_group_IT_number 14
_symmetry_cell_setting 'monoclinic'
loop_
_space_group_symop_operation_xyz
x,y,z
-x,1/2+y,1/2-z
-x,-y,-z
x,1/2-y,1/2+z
loop_
_atom_site_type_symbol
_atom_site_label
_atom_site_fract_x
_atom_site_fract_y
_atom_site_fract_z
Si Si1 0.952396 0.592687 0.153763
Si Si2 0.538446 0.379591 0.439358
Si Si3 0.802957 0.999511 0.198234
Si Si4 0.561366 0.869353 0.510560
Si Si5 0.832711 0.793238 0.803163
O O1 0.898833 0.614137 0.258269
O O2 0.095164 0.546579 0.303828
O O3 0.870283 0.494259 0.947802
O O4 0.930831 0.732914 0.042075
O O5 0.500000 0.500000 0.500000
O O6 0.678748 0.413377 0.549677
O O7 0.517448 0.250102 0.512909
O O8 0.449538 0.369291 0.185659
O O9 0.780587 0.842665 0.162303
O O10 0.708754 0.857385 0.726693
O O11 0.500000 0.000000 0.500000
#
# Coordination Sequence:
#
# PCOD9242185 Si02
#       5
#     4   4   4   4   4
#     4   9  20  38  64  87 116 167 204 256 326 368
#     4  12  23  43  66  90 135 170 215 270 320 386
#     4   9  21  39  65  85 123 166 212 256 323 379
#     4  12  26  39  65 100 125 174 217 261 333 383
#     4  10  19  40  63  84 128 153 213 257 319 370
#
# _framework density 21.221160000000001
#
# number of rings (size 3 to 8) (size 9 to 14) (size 15 to 20)
#    1.200    0.400    2.000    3.600    2.800    1.600 
#    3.600    1.000    0.000    0.000    0.000    0.000 
#    0.000    0.000    0.000    0.000    0.000    0.000 
#
# Total GULP energy -111670.817550 kJ/mol
# GULP energy per Si atom -5583.540877 kJ/mol
# Density = 2.117286 g / cm^3
# Si number density = 21.221160 Si / 1000 Ang^3
#
#
#
# Elastic Constant Matrix: (Units=GPa)
#
#
# Indices 1 2 3 4 5 6 
#
# 1 98.8239 47.3889 1.6343 0.0000 22.0976 0.0000
# 2 47.3889 118.8522 2.7378 0.0000 3.4162 0.0000
# 3 1.6343 2.7378 42.6127 0.0000 -0.3024 0.0000
# 4 0.0000 0.0000 0.0000 25.2466 0.0000 -0.4730
# 5 22.0976 3.4162 -0.3024 0.0000 38.8703 0.0000
# 6 0.0000 0.0000 0.0000 -0.4730 0.0000 53.7353
#
#
#
# Elastic Compliance Matrix: (Units=1/GPa)
#
#
# Indices 1 2 3 4 5 6 
#
# 1 0.014529 -0.005564 -0.000255 0.000000 -0.007773 0.000000
# 2 -0.005564 0.010579 -0.000450 0.000000 0.002230 0.000000
# 3 -0.000255 -0.000450 0.023509 0.000000 0.000367 0.000000
# 4 0.000000 0.000000 0.000000 0.039616 0.000000 0.000349
# 5 -0.007773 0.002230 0.000367 0.000000 0.029952 0.000000
# 6 0.000000 0.000000 0.000000 0.000349 0.000000 0.018613
#
#
# Mechanical properties :
#
#
# Convention : Reuss Voigt Hill
#
# Bulk Modulus (GPa) = 27.71779 40.42342 34.07061
# Shear Modulus (GPa) = 30.98632 37.47232 34.22932
#
# Velocity S-wave (km/s) = 3.82535 4.20670 4.02055
# Velocity P-wave (km/s) = 5.70971 6.53338 6.13539
#
# Compressibility (1/GPa) = 0.03607791
#
# Stress axis : x y z
#
# Youngs Moduli (GPa) = 68.82651 94.53123 42.53779
#
# Poissons Ratio (x) = 0.52596 0.01084
# Poissons Ratio (y) = 0.38294 0.01916
# Poissons Ratio (z) = 0.01754 0.04258
#
# Static dielectric constant tensor:
#      x y z
#    x 1.745660 0.000000 -0.018350 
#    y 0.000000 1.767960 0.000000 
#    z -0.018350 0.000000 1.822300 
# 
# From -- ./inp_files/12070.got.cif
#   From: 2010.05.17/outbox.cif.g08.bks.cpg/sg14_7_cif.got.tgz:12070.got - 2010.06.03 17:49:19.
