data_PCOD9242986
_publ_section_title
;
Structure prediction by ZEFSAII (Michael W. Deem and Ramdas Pophale) SiO2 
 PCOD9242986
Probable space group: P 21/C
;
_chemical_formula_sum "Si O2"
_cell_formula_units_Z 20
_cell_length_a 12.286204
_cell_length_b 7.974461
_cell_length_c 17.701376
_cell_angle_alpha 90.000000
_cell_angle_beta 150.164309
_cell_angle_gamma 90.000000
_cell_volume 862.842957
_symmetry_space_group_name_H-M "P 21/C"
_symmetry_group_IT_number 14
_symmetry_cell_setting 'monoclinic'
loop_
_space_group_symop_operation_xyz
x,y,z
-x,1/2+y,1/2-z
-x,-y,-z
x,1/2-y,1/2+z
loop_
_atom_site_type_symbol
_atom_site_label
_atom_site_fract_x
_atom_site_fract_y
_atom_site_fract_z
Si Si1 0.915917 0.225576 0.462536
Si Si2 0.861348 0.483480 0.073160
Si Si3 0.788076 0.254430 0.163838
Si Si4 0.891944 0.562687 0.543108
Si Si5 0.479451 0.230332 0.101661
O O1 0.933497 0.076116 0.533283
O O2 0.887675 0.391596 0.496407
O O3 0.696533 0.204449 0.281559
O O4 0.103202 0.286106 0.516488
O O5 0.812607 0.320377 0.094516
O O6 0.055270 0.596727 0.225051
O O7 0.644082 0.597772 0.950319
O O8 0.550830 0.226425 0.057199
O O9 0.890477 0.405501 0.277020
O O10 0.690819 0.587782 0.477828
#
# Coordination Sequence:
#
# PCOD9242986 Si02
#       5
#     4   4   4   4   4
#     4  10  20  36  59  86 116 154 192 238 290 343
#     4  11  22  39  62  85 118 154 193 241 290 346
#     4  10  22  39  58  84 117 155 195 240 292 346
#     4   9  20  37  56  84 118 150 193 238 287 346
#     4  10  21  37  59  86 116 151 194 241 289 346
#
# _framework density 23.179189000000001
#
# number of rings (size 3 to 8) (size 9 to 14) (size 15 to 20)
#    0.000    2.000    0.000    3.000    0.000    8.800 
#    0.000   15.000    0.000    0.000    0.000    0.000 
#    0.000    0.000    0.000    0.000    0.000    0.000 
#
# Total GULP energy -111777.583574 kJ/mol
# GULP energy per Si atom -5588.879179 kJ/mol
# Density = 2.312643 g / cm^3
# Si number density = 23.179189 Si / 1000 Ang^3
#
#
#
# Elastic Constant Matrix: (Units=GPa)
#
#
# Indices 1 2 3 4 5 6 
#
# 1 159.2062 15.8070 21.6940 0.0000 8.1551 0.0000
# 2 15.8070 80.5926 7.6691 0.0000 -0.5435 0.0000
# 3 21.6940 7.6691 33.9556 0.0000 8.3302 0.0000
# 4 0.0000 0.0000 0.0000 33.2078 0.0000 -15.6394
# 5 8.1551 -0.5435 8.3302 0.0000 38.8750 0.0000
# 6 0.0000 0.0000 0.0000 -15.6394 0.0000 41.1183
#
#
#
# Elastic Compliance Matrix: (Units=1/GPa)
#
#
# Indices 1 2 3 4 5 6 
#
# 1 0.006966 -0.000982 -0.004081 0.000000 -0.000600 0.000000
# 2 -0.000982 0.012845 -0.002500 0.000000 0.000921 0.000000
# 3 -0.004081 -0.002500 0.034220 0.000000 -0.006511 0.000000
# 4 0.000000 0.000000 0.000000 0.036685 0.000000 0.013953
# 5 -0.000600 0.000921 -0.006511 0.000000 0.027258 0.000000
# 6 0.000000 0.000000 0.000000 0.013953 0.000000 0.029627
#
#
# Mechanical properties :
#
#
# Convention : Reuss Voigt Hill
#
# Bulk Modulus (GPa) = 25.70407 40.45497 33.07952
# Shear Modulus (GPa) = 28.45873 37.87917 33.16895
#
# Velocity S-wave (km/s) = 3.50776 4.04690 3.78693
# Velocity P-wave (km/s) = 5.24587 6.27117 5.78129
#
# Compressibility (1/GPa) = 0.03890434
#
# Stress axis : x y z
#
# Youngs Moduli (GPa) = 143.56438 77.85281 29.22300
#
# Poissons Ratio (x) = 0.07644 0.11926
# Poissons Ratio (y) = 0.14096 0.07305
# Poissons Ratio (z) = 0.58591 0.19461
#
# Static dielectric constant tensor:
#      x y z
#    x 1.916050 0.000000 -0.014160 
#    y 0.000000 1.924330 0.000000 
#    z -0.014160 0.000000 1.832210 
# 
# From -- ./inp_files/27744.got.cif
#   From: 2010.05.17/outbox.cif.g08.bks.cpg/sg14_14_cif.got.tgz:27744.got - 2010.06.03 17:49:19.
