data_PCOD9242321
_publ_section_title
;
Structure prediction by ZEFSAII (Michael W. Deem and Ramdas Pophale) SiO2 
 PCOD9242321
Probable space group: P 21/C
;
_chemical_formula_sum "Si O2"
_cell_formula_units_Z 28
_cell_length_a 13.722595
_cell_length_b 6.971132
_cell_length_c 11.314236
_cell_angle_alpha 90.000000
_cell_angle_beta 73.407538
_cell_angle_gamma 90.000000
_cell_volume 1037.274099
_symmetry_space_group_name_H-M "P 21/C"
_symmetry_group_IT_number 14
_symmetry_cell_setting 'monoclinic'
loop_
_space_group_symop_operation_xyz
x,y,z
-x,1/2+y,1/2-z
-x,-y,-z
x,1/2-y,1/2+z
loop_
_atom_site_type_symbol
_atom_site_label
_atom_site_fract_x
_atom_site_fract_y
_atom_site_fract_z
Si Si1 0.578662 0.119137 0.712472
Si Si2 0.736937 0.470083 0.993713
Si Si3 0.907044 0.763699 0.360526
Si Si4 0.129247 0.407836 0.370377
Si Si5 0.645610 0.556574 0.660543
Si Si6 0.296076 0.938366 0.110504
Si Si7 0.879605 0.364080 0.165689
O O1 0.628191 0.991734 0.591933
O O2 0.631100 0.328174 0.688996
O O3 0.619416 0.035669 0.820066
O O4 0.458700 0.139391 0.754026
O O5 0.815332 0.419871 0.072939
O O6 0.798139 0.631474 0.905455
O O7 0.714014 0.283795 0.924257
O O8 0.926670 0.779337 0.209304
O O9 0.903498 0.621227 0.479720
O O10 0.001204 0.899026 0.369322
O O11 0.249750 0.361761 0.326406
O O12 0.122133 0.630246 0.333176
O O13 0.665096 0.555840 0.514004
O O14 0.183013 0.963777 0.204699
#
# Coordination Sequence:
#
# PCOD9242321 Si02
#       7
#     4   4   4   4   4   4   4
#     4  10  22  40  70 101 142 188 240 295 363 425
#     4  10  21  44  67 102 141 186 236 297 356 438
#     4  12  28  43  73 106 142 188 251 298 356 436
#     4  12  27  50  67 108 151 187 243 308 357 432
#     4  11  23  45  70 101 146 191 238 297 369 424
#     4  10  19  43  73  98 137 191 236 292 355 437
#     4  11  23  45  74  97 148 191 237 292 377 424
#
# _framework density 26.993829000000002
#
# number of rings (size 3 to 8) (size 9 to 14) (size 15 to 20)
#    0.000    1.143    5.714    1.286    4.000    4.571 
#    5.143    3.571    0.000    0.000    0.000    0.000 
#    0.000    0.000    0.000    0.000    0.000    0.000 
#
# Total GULP energy -156521.238023 kJ/mol
# GULP energy per Si atom -5590.044215 kJ/mol
# Density = 2.693239 g / cm^3
# Si number density = 26.993829 Si / 1000 Ang^3
#
#
#
# Elastic Constant Matrix: (Units=GPa)
#
#
# Indices 1 2 3 4 5 6 
#
# 1 86.2187 -14.0321 39.6902 0.0000 -27.6432 0.0000
# 2 -14.0321 71.7772 23.5514 0.0000 4.3440 0.0000
# 3 39.6902 23.5514 136.4596 0.0000 14.7636 0.0000
# 4 0.0000 0.0000 0.0000 44.7441 0.0000 -13.1675
# 5 -27.6432 4.3440 14.7636 0.0000 57.7507 0.0000
# 6 0.0000 0.0000 0.0000 -13.1675 0.0000 14.8035
#
#
#
# Elastic Compliance Matrix: (Units=1/GPa)
#
#
# Indices 1 2 3 4 5 6 
#
# 1 0.019732 0.005792 -0.007933 0.000000 0.011037 0.000000
# 2 0.005792 0.016481 -0.004829 0.000000 0.002767 0.000000
# 3 -0.007933 -0.004829 0.011149 0.000000 -0.006284 0.000000
# 4 0.000000 0.000000 0.000000 0.030274 0.000000 0.026928
# 5 0.011037 0.002767 -0.006284 0.000000 0.023997 0.000000
# 6 0.000000 0.000000 0.000000 0.026928 0.000000 0.091504
#
#
# Mechanical properties :
#
#
# Convention : Reuss Voigt Hill
#
# Bulk Modulus (GPa) = 29.91911 43.65271 36.78591
# Shear Modulus (GPa) = 22.91301 39.80939 31.36120
#
# Velocity S-wave (km/s) = 2.91662 3.84442 3.41220
# Velocity P-wave (km/s) = 4.73814 5.99271 5.40197
#
# Compressibility (1/GPa) = 0.03342345
#
# Stress axis : x y z
#
# Youngs Moduli (GPa) = 50.67990 60.67490 89.69604
#
# Poissons Ratio (x) = -0.35145 0.71155
# Poissons Ratio (y) = -0.29356 0.43311
# Poissons Ratio (z) = 0.40204 0.29298
#
# Static dielectric constant tensor:
#      x y z
#    x 2.071710 0.000000 0.025000 
#    y 0.000000 2.284040 0.000000 
#    z 0.025000 0.000000 2.168540 
# 
# From -- ./inp_files/31713.got.cif
#   From: 2010.05.17/outbox.cif.g08.bks.cpg/sg14_16_cif.got.tgz:31713.got - 2010.06.03 17:49:19.
