data_PCOD9242447
_publ_section_title
;
Structure prediction by ZEFSAII (Michael W. Deem and Ramdas Pophale) SiO2 
 PCOD9242447
Probable space group: P 21/C
;
_chemical_formula_sum "Si O2"
_cell_formula_units_Z 28
_cell_length_a 7.706168
_cell_length_b 5.831613
_cell_length_c 27.543111
_cell_angle_alpha 90.000000
_cell_angle_beta 65.656480
_cell_angle_gamma 90.000000
_cell_volume 1127.720955
_symmetry_space_group_name_H-M "P 21/C"
_symmetry_group_IT_number 14
_symmetry_cell_setting 'monoclinic'
loop_
_space_group_symop_operation_xyz
x,y,z
-x,1/2+y,1/2-z
-x,-y,-z
x,1/2-y,1/2+z
loop_
_atom_site_type_symbol
_atom_site_label
_atom_site_fract_x
_atom_site_fract_y
_atom_site_fract_z
Si Si1 0.714308 0.102672 0.761702
Si Si2 0.567043 0.602250 0.800620
Si Si3 0.804159 0.183593 0.604266
Si Si4 0.776238 0.372151 0.000685
Si Si5 0.960910 0.418948 0.395307
Si Si6 0.652217 0.798662 0.432775
Si Si7 0.053175 0.973424 0.662074
O O1 0.680906 0.357852 0.788637
O O2 0.562731 0.103046 0.733960
O O3 0.934134 0.085321 0.718782
O O4 0.671760 0.851945 0.790800
O O5 0.407648 0.609383 0.860432
O O6 0.865842 0.117128 0.543472
O O7 0.933168 0.061732 0.629172
O O8 0.848658 0.447899 0.611282
O O9 0.570936 0.256407 0.037369
O O10 0.897756 0.224889 0.949361
O O11 0.713996 0.596889 0.977973
O O12 0.777807 0.577771 0.409285
O O13 0.983832 0.295423 0.340814
O O14 0.734484 0.967235 0.380899
#
# Coordination Sequence:
#
# PCOD9242447 Si02
#       7
#     4   4   4   4   4   4   4
#     4   9  18  32  54  79 115 145 185 237 288 350
#     4   9  19  31  52  82 114 147 185 234 293 346
#     4  10  21  32  53  82 116 143 189 238 294 339
#     4  10  20  37  53  78 114 152 190 235 285 345
#     4  10  20  33  54  83 112 148 187 236 288 346
#     4   9  20  36  55  76 108 150 197 229 281 351
#     4   9  20  33  55  81 109 141 187 234 292 339
#
# _framework density 24.828837
#
# number of rings (size 3 to 8) (size 9 to 14) (size 15 to 20)
#    0.000    2.571    0.000    0.857   12.000    6.286 
#    0.000    0.000    0.000    1.714    0.000    0.000 
#    0.000    0.000    0.000    0.000    0.000    0.000 
#
# Total GULP energy -156199.066111 kJ/mol
# GULP energy per Si atom -5578.538075 kJ/mol
# Density = 2.477233 g / cm^3
# Si number density = 24.828837 Si / 1000 Ang^3
#
#
#
# Elastic Constant Matrix: (Units=GPa)
#
#
# Indices 1 2 3 4 5 6 
#
# 1 81.6786 15.8767 9.8336 0.0000 -17.2870 0.0000
# 2 15.8767 120.6082 47.0589 0.0000 -15.2054 0.0000
# 3 9.8336 47.0589 104.7624 0.0000 -25.2011 0.0000
# 4 0.0000 0.0000 0.0000 29.8440 0.0000 -10.7032
# 5 -17.2870 -15.2054 -25.2011 0.0000 36.1112 0.0000
# 6 0.0000 0.0000 0.0000 -10.7032 0.0000 25.2039
#
#
#
# Elastic Compliance Matrix: (Units=1/GPa)
#
#
# Indices 1 2 3 4 5 6 
#
# 1 0.013807 -0.001330 0.000909 0.000000 0.006684 0.000000
# 2 -0.001330 0.010232 -0.004312 0.000000 0.000663 0.000000
# 3 0.000909 -0.004312 0.013297 0.000000 0.007899 0.000000
# 4 0.000000 0.000000 0.000000 0.039528 0.000000 0.016786
# 5 0.006684 0.000663 0.007899 0.000000 0.036684 0.000000
# 6 0.000000 0.000000 0.000000 0.016786 0.000000 0.046805
#
#
# Mechanical properties :
#
#
# Convention : Reuss Voigt Hill
#
# Bulk Modulus (GPa) = 35.87906 50.28753 43.08330
# Shear Modulus (GPa) = 27.91608 33.85050 30.88329
#
# Velocity S-wave (km/s) = 3.35676 3.69637 3.53065
# Velocity P-wave (km/s) = 5.43191 6.20606 5.83185
#
# Compressibility (1/GPa) = 0.02787141
#
# Stress axis : x y z
#
# Youngs Moduli (GPa) = 72.42828 97.72889 75.20324
#
# Poissons Ratio (x) = 0.12994 -0.06837
# Poissons Ratio (y) = 0.09630 0.32429
# Poissons Ratio (z) = -0.06585 0.42142
#
# Static dielectric constant tensor:
#      x y z
#    x 2.124110 0.000000 0.048530 
#    y 0.000000 2.344730 0.000000 
#    z 0.048530 0.000000 1.944630 
# 
# From -- ./inp_files/79192.got.cif
#   From: 2010.05.17/outbox.cif.g08.bks.cpg/sg14_40_cif.got.tgz:79192.got - 2010.06.03 17:49:19.
