data_PCOD9242068
_publ_section_title
;
Structure prediction by ZEFSAII (Michael W. Deem and Ramdas Pophale) SiO2 
 PCOD9242068
Probable space group: P 21/C
;
_chemical_formula_sum "Si O2"
_cell_formula_units_Z 24
_cell_length_a 15.257129
_cell_length_b 10.600047
_cell_length_c 14.402232
_cell_angle_alpha 90.000000
_cell_angle_beta 153.896529
_cell_angle_gamma 90.000000
_cell_volume 1024.841594
_symmetry_space_group_name_H-M "P 21/C"
_symmetry_group_IT_number 14
_symmetry_cell_setting 'monoclinic'
loop_
_space_group_symop_operation_xyz
x,y,z
-x,1/2+y,1/2-z
-x,-y,-z
x,1/2-y,1/2+z
loop_
_atom_site_type_symbol
_atom_site_label
_atom_site_fract_x
_atom_site_fract_y
_atom_site_fract_z
Si Si1 0.889021 0.174432 0.057088
Si Si2 0.792523 0.552169 0.020933
Si Si3 0.266878 0.818054 0.426599
Si Si4 0.066135 0.407197 0.144249
Si Si5 0.612992 0.810030 0.169315
Si Si6 0.884105 0.578111 0.467600
O O1 0.101108 0.152721 0.311114
O O2 0.944501 0.275160 0.030380
O O3 0.740542 0.236297 0.987880
O O4 0.803702 0.039375 0.949183
O O5 0.983116 0.475576 0.157503
O O6 0.673998 0.455940 0.975841
O O7 0.676610 0.610972 0.822693
O O8 0.388105 0.736483 0.467186
O O9 0.047606 0.842940 0.179007
O O10 0.296572 0.377832 0.336179
O O11 0.000000 0.500000 0.000000
O O12 0.724628 0.675618 0.280734
O O13 0.000000 0.500000 0.500000
#
# Coordination Sequence:
#
# PCOD9242068 Si02
#       6
#     4   4   4   4   4   4
#     4  10  19  39  61  85 119 158 200 244 302 363
#     4   9  20  39  62  84 123 164 198 248 307 359
#     4  10  23  38  62  93 118 155 211 248 297 368
#     4   9  19  37  62  83 121 164 192 247 311 358
#     4  11  21  39  62  89 123 156 204 253 300 357
#     4  11  22  39  63  86 121 163 195 250 313 356
#
# _framework density 23.418254999999998
#
# number of rings (size 3 to 8) (size 9 to 14) (size 15 to 20)
#    0.000    2.000    3.333    0.000    2.333    0.667 
#    0.000    0.833    0.000    0.000    0.000    0.000 
#    0.000    0.000    0.000    0.000    0.000    0.000 
#
# Total GULP energy -133794.632171 kJ/mol
# GULP energy per Si atom -5574.776340 kJ/mol
# Density = 2.336495 g / cm^3
# Si number density = 23.418255 Si / 1000 Ang^3
#
#
#
# Elastic Constant Matrix: (Units=GPa)
#
#
# Indices 1 2 3 4 5 6 
#
# 1 76.2368 20.9953 13.6711 0.0000 14.2725 0.0000
# 2 20.9953 89.6449 20.9383 0.0000 7.5555 0.0000
# 3 13.6711 20.9383 15.2773 0.0000 9.4686 0.0000
# 4 0.0000 0.0000 0.0000 12.8758 0.0000 -2.2773
# 5 14.2725 7.5555 9.4686 0.0000 28.2272 0.0000
# 6 0.0000 0.0000 0.0000 -2.2773 0.0000 36.0723
#
#
#
# Elastic Compliance Matrix: (Units=1/GPa)
#
#
# Indices 1 2 3 4 5 6 
#
# 1 0.016058 -0.000987 -0.010288 0.000000 -0.004404 0.000000
# 2 -0.000987 0.016830 -0.024871 0.000000 0.004337 0.000000
# 3 -0.010288 -0.024871 0.128015 0.000000 -0.031083 0.000000
# 4 0.000000 0.000000 0.000000 0.078542 0.000000 0.004959
# 5 -0.004404 0.004337 -0.031083 0.000000 0.046919 0.000000
# 6 0.000000 0.000000 0.000000 0.004959 0.000000 0.028035
#
#
# Mechanical properties :
#
#
# Convention : Reuss Voigt Hill
#
# Bulk Modulus (GPa) = 11.28523 32.48537 21.88530
# Shear Modulus (GPa) = 12.01264 23.80533 17.90898
#
# Velocity S-wave (km/s) = 2.26732 3.19176 2.76840
# Velocity P-wave (km/s) = 3.41815 5.24262 4.42543
#
# Compressibility (1/GPa) = 0.08861139
#
# Stress axis : x y z
#
# Youngs Moduli (GPa) = 62.27364 59.41809 7.81160
#
# Poissons Ratio (x) = 0.05863 0.08036
# Poissons Ratio (y) = 0.06145 0.19428
# Poissons Ratio (z) = 0.64065 1.47780
#
# Static dielectric constant tensor:
#      x y z
#    x 1.969620 0.000000 0.025670 
#    y 0.000000 1.710680 0.000000 
#    z 0.025670 0.000000 1.884560 
# 
# From -- ./inp_files/60567.got.cif
#   From: 2010.05.17/outbox.cif.g08.bks.cpg/sg14_31_cif.got.tgz:60567.got - 2010.06.03 17:49:19.
