data_PCOD9242995
_publ_section_title
;
Structure prediction by ZEFSAII (Michael W. Deem and Ramdas Pophale) SiO2 
 PCOD9242995
Probable space group: P 21/C
;
_chemical_formula_sum "Si O2"
_cell_formula_units_Z 28
_cell_length_a 24.168747
_cell_length_b 7.434269
_cell_length_c 22.388092
_cell_angle_alpha 90.000000
_cell_angle_beta 19.077160
_cell_angle_gamma 90.000000
_cell_volume 1314.759345
_symmetry_space_group_name_H-M "P 21/C"
_symmetry_group_IT_number 14
_symmetry_cell_setting 'monoclinic'
loop_
_space_group_symop_operation_xyz
x,y,z
-x,1/2+y,1/2-z
-x,-y,-z
x,1/2-y,1/2+z
loop_
_atom_site_type_symbol
_atom_site_label
_atom_site_fract_x
_atom_site_fract_y
_atom_site_fract_z
Si Si1 0.872524 0.020881 0.816026
Si Si2 0.260524 0.979924 0.433857
Si Si3 0.195065 0.404269 0.132965
Si Si4 0.379043 0.404847 0.185288
Si Si5 0.583416 0.091457 0.027577
Si Si6 0.369929 0.299364 0.073819
Si Si7 0.812216 0.431583 0.514302
O O1 0.839104 0.808847 0.841497
O O2 0.073353 0.062296 0.610328
O O3 0.802389 0.047452 0.953653
O O4 0.756608 0.124707 0.887089
O O5 0.242196 0.777778 0.425863
O O6 0.273099 0.006228 0.493387
O O7 0.429034 0.056332 0.231569
O O8 0.298200 0.403534 0.089024
O O9 0.005783 0.474400 0.333271
O O10 0.521526 0.254367 0.050522
O O11 0.275433 0.336126 0.233090
O O12 0.292167 0.437211 0.337447
O O13 0.451717 0.602461 0.097265
O O14 0.611972 0.908712 0.960847
#
# Coordination Sequence:
#
# PCOD9242995 Si02
#       7
#     4   4   4   4   4   4   4
#     4   9  21  36  57  94 122 151 202 248 302 370
#     4  10  20  36  61  91 124 153 194 255 304 362
#     4   9  20  38  59  84 123 158 193 252 306 353
#     4  11  23  39  62  87 117 162 205 244 294 357
#     4  11  22  39  66  86 120 162 197 248 311 348
#     4  10  23  42  59  86 121 157 209 246 287 358
#     4  10  20  36  59  90 123 152 201 248 301 366
#
# _framework density 21.296673999999999
#
# number of rings (size 3 to 8) (size 9 to 14) (size 15 to 20)
#    0.000    2.000    1.429    1.286    4.000    1.714 
#    0.000    0.000    0.000    3.429    0.000    0.000 
#    0.000    0.000    0.000    0.000    0.000    0.000 
#
# Total GULP energy -156090.325848 kJ/mol
# GULP energy per Si atom -5574.654495 kJ/mol
# Density = 2.124820 g / cm^3
# Si number density = 21.296674 Si / 1000 Ang^3
#
#
#
# Elastic Constant Matrix: (Units=GPa)
#
#
# Indices 1 2 3 4 5 6 
#
# 1 122.1759 43.5166 23.3104 0.0000 -12.3732 0.0000
# 2 43.5166 65.4128 12.3872 0.0000 1.4334 0.0000
# 3 23.3104 12.3872 -9.4153 0.0000 -24.7277 0.0000
# 4 0.0000 0.0000 0.0000 12.7415 0.0000 5.4016
# 5 -12.3732 1.4334 -24.7277 0.0000 -4.9689 0.0000
# 6 0.0000 0.0000 0.0000 5.4016 0.0000 37.1598
#
#
#
# Elastic Compliance Matrix: (Units=1/GPa)
#
#
# Indices 1 2 3 4 5 6 
#
# 1 0.014328 -0.007870 -0.010338 0.000000 0.013501 0.000000
# 2 -0.007870 0.019570 0.004974 0.000000 0.000491 0.000000
# 3 -0.010338 0.004974 0.016292 0.000000 -0.053898 0.000000
# 4 0.000000 0.000000 0.000000 0.083637 0.000000 -0.012158
# 5 0.013501 0.000491 -0.053898 0.000000 0.033495 0.000000
# 6 0.000000 0.000000 0.000000 -0.012158 0.000000 0.028678
#
#
# Mechanical properties :
#
#
# Convention : Reuss Voigt Hill
#
# Bulk Modulus (GPa) = 42.15670 37.40021 39.77846
# Shear Modulus (GPa) = 21.70361 15.58377 18.64369
#
# Velocity S-wave (km/s) = 3.19581 2.70802 2.96197
# Velocity P-wave (km/s) = 5.78408 5.23235 5.51512
#
# Compressibility (1/GPa) = 0.02372102
#
# Stress axis : x y z
#
# Youngs Moduli (GPa) = 69.79486 51.09768 61.38007
#
# Poissons Ratio (x) = 0.40213 0.63457
# Poissons Ratio (y) = 0.54927 -0.30528
# Poissons Ratio (z) = 0.72156 -0.25414
#
# Static dielectric constant tensor:
#      x y z
#    x 1.848330 0.000000 0.039670 
#    y 0.000000 1.821720 0.000000 
#    z 0.039670 0.000000 1.823340 
# 
# From -- ./inp_files/70166.got.cif
#   From: 2010.05.17/outbox.cif.g08.bks.cpg/sg14_36_cif.got.tgz:70166.got - 2010.06.03 17:49:19.
