data_PCOD9242514
_publ_section_title
;
Structure prediction by ZEFSAII (Michael W. Deem and Ramdas Pophale) SiO2 
 PCOD9242514
Probable space group: P 21/C
;
_chemical_formula_sum "Si O2"
_cell_formula_units_Z 28
_cell_length_a 5.475294
_cell_length_b 8.022858
_cell_length_c 23.910170
_cell_angle_alpha 90.000000
_cell_angle_beta 74.922092
_cell_angle_gamma 90.000000
_cell_volume 1014.154982
_symmetry_space_group_name_H-M "P 21/C"
_symmetry_group_IT_number 14
_symmetry_cell_setting 'monoclinic'
loop_
_space_group_symop_operation_xyz
x,y,z
-x,1/2+y,1/2-z
-x,-y,-z
x,1/2-y,1/2+z
loop_
_atom_site_type_symbol
_atom_site_label
_atom_site_fract_x
_atom_site_fract_y
_atom_site_fract_z
Si Si1 0.647011 0.337286 0.918823
Si Si2 0.241895 0.023191 0.050337
Si Si3 0.721533 0.203332 0.714765
Si Si4 0.161808 0.370158 0.027306
Si Si5 0.673353 0.700273 0.665099
Si Si6 0.495317 0.366208 0.644259
Si Si7 0.945276 0.895856 0.737696
O O1 0.787243 0.514317 0.920553
O O2 0.497240 0.308484 0.868659
O O3 0.808785 0.168463 0.925941
O O4 0.423904 0.345650 0.978262
O O5 0.066759 0.173609 0.034940
O O6 0.335839 0.123750 0.099092
O O7 0.500000 0.000000 0.000000
O O8 0.501465 0.163454 0.770720
O O9 0.653252 0.207665 0.654359
O O10 0.823402 0.373179 0.734842
O O11 0.947394 0.080769 0.714556
O O12 0.000000 0.500000 0.000000
O O13 0.687529 0.523139 0.633191
O O14 0.907547 0.785521 0.683798
O O15 0.295553 0.379124 0.707046
#
# Coordination Sequence:
#
# PCOD9242514 Si02
#       7
#     4   4   4   4   4   4   4
#     4   9  20  39  58  82 117 153 196 239 292 356
#     4   9  19  39  63  82 112 159 193 241 302 348
#     4  10  20  34  54  80 113 146 184 232 278 342
#     4  10  21  37  58  88 118 146 197 248 294 349
#     4   9  19  36  57  75 109 153 185 227 285 338
#     4   9  19  37  56  79 110 146 191 232 281 347
#     4  10  20  34  53  84 114 145 185 230 283 335
#
# _framework density 27.609192
#
# number of rings (size 3 to 8) (size 9 to 14) (size 15 to 20)
#    0.000    2.571    0.000    0.857    2.000    2.857 
#    2.571    8.571    0.000    0.000    0.000    0.000 
#    0.000    0.000    0.000    0.000    0.000    0.000 
#
# Total GULP energy -156099.587114 kJ/mol
# GULP energy per Si atom -5574.985254 kJ/mol
# Density = 2.754635 g / cm^3
# Si number density = 27.609192 Si / 1000 Ang^3
#
#
#
# Elastic Constant Matrix: (Units=GPa)
#
#
# Indices 1 2 3 4 5 6 
#
# 1 43.7044 34.6236 9.0952 0.0000 10.8237 0.0000
# 2 34.6236 159.6199 18.9822 0.0000 1.5173 0.0000
# 3 9.0952 18.9822 95.9093 0.0000 5.5668 0.0000
# 4 0.0000 0.0000 0.0000 36.5952 0.0000 11.8947
# 5 10.8237 1.5173 5.5668 0.0000 42.1985 0.0000
# 6 0.0000 0.0000 0.0000 11.8947 0.0000 49.5424
#
#
#
# Elastic Compliance Matrix: (Units=1/GPa)
#
#
# Indices 1 2 3 4 5 6 
#
# 1 0.029903 -0.006278 -0.001170 0.000000 -0.007290 0.000000
# 2 -0.006278 0.007734 -0.001020 0.000000 0.001467 0.000000
# 3 -0.001170 -0.001020 0.010803 0.000000 -0.001088 0.000000
# 4 0.000000 0.000000 0.000000 0.029639 0.000000 -0.007116
# 5 -0.007290 0.001467 -0.001088 0.000000 0.025658 0.000000
# 6 0.000000 0.000000 0.000000 -0.007116 0.000000 0.021893
#
#
# Mechanical properties :
#
#
# Convention : Reuss Voigt Hill
#
# Bulk Modulus (GPa) = 31.74308 47.18173 39.46241
# Shear Modulus (GPa) = 32.66505 41.43606 37.05056
#
# Velocity S-wave (km/s) = 3.44339 3.87823 3.66726
# Velocity P-wave (km/s) = 5.22795 6.09758 5.67943
#
# Compressibility (1/GPa) = 0.03150292
#
# Stress axis : x y z
#
# Youngs Moduli (GPa) = 33.44090 129.29790 92.57007
#
# Poissons Ratio (x) = 0.81173 0.10832
# Poissons Ratio (y) = 0.20994 0.09447
# Poissons Ratio (z) = 0.03913 0.13195
#
# Static dielectric constant tensor:
#      x y z
#    x 2.247990 0.000000 0.060300 
#    y 0.000000 2.250590 0.000000 
#    z 0.060300 0.000000 2.247550 
# 
# From -- ./inp_files/75673.got.cif
#   From: 2010.05.17/outbox.cif.g08.bks.cpg/sg14_38_cif.got.tgz:75673.got - 2010.06.03 17:49:19.
