data_PCOD9242441
_publ_section_title
;
Structure prediction by ZEFSAII (Michael W. Deem and Ramdas Pophale) SiO2 
 PCOD9242441
Probable space group: P 21/C
;
_chemical_formula_sum "Si O2"
_cell_formula_units_Z 24
_cell_length_a 10.359092
_cell_length_b 14.884040
_cell_length_c 12.908754
_cell_angle_alpha 90.000000
_cell_angle_beta 31.032378
_cell_angle_gamma 90.000000
_cell_volume 1026.063803
_symmetry_space_group_name_H-M "P 21/C"
_symmetry_group_IT_number 14
_symmetry_cell_setting 'monoclinic'
loop_
_space_group_symop_operation_xyz
x,y,z
-x,1/2+y,1/2-z
-x,-y,-z
x,1/2-y,1/2+z
loop_
_atom_site_type_symbol
_atom_site_label
_atom_site_fract_x
_atom_site_fract_y
_atom_site_fract_z
Si Si1 0.632626 0.434616 0.571188
Si Si2 0.715996 0.406960 0.112017
Si Si3 0.395368 0.254262 0.434007
Si Si4 0.193178 0.322930 0.877916
Si Si5 0.877054 0.348798 0.603395
Si Si6 0.045562 0.086810 0.202440
O O1 0.430465 0.506140 0.751297
O O2 0.461122 0.353409 0.648156
O O3 0.789444 0.398997 0.560830
O O4 0.803282 0.495060 0.379334
O O5 0.541766 0.321807 0.255413
O O6 0.974076 0.390487 0.996275
O O7 0.793903 0.412513 0.939912
O O8 0.238861 0.185325 0.470634
O O9 0.628964 0.200901 0.321619
O O10 0.205670 0.323128 0.619872
O O11 0.079916 0.225585 0.929910
O O12 0.993056 0.406824 0.616016
#
# Coordination Sequence:
#
# PCOD9242441 Si02
#       6
#     4   4   4   4   4   4
#     4  10  20  36  54  74 104 136 168 210 258 304
#     4  10  20  33  53  80 105 133 170 210 254 302
#     4   8  18  36  54  74 104 140 172 206 248 296
#     4   9  18  36  56  73 102 139 171 209 253 299
#     4   9  18  36  56  73 102 139 171 209 253 299
#     4  10  20  33  53  80 105 133 170 210 254 302
#
# _framework density 23.390357999999999
#
# number of rings (size 3 to 8) (size 9 to 14) (size 15 to 20)
#    0.000    2.667    0.000    1.000    0.000    2.667 
#    0.000   15.000    0.000    0.000    0.000    0.000 
#    0.000    0.000    0.000    0.000    0.000    0.000 
#
# Total GULP energy -134002.216976 kJ/mol
# GULP energy per Si atom -5583.425707 kJ/mol
# Density = 2.333712 g / cm^3
# Si number density = 23.390358 Si / 1000 Ang^3
#
#
#
# Elastic Constant Matrix: (Units=GPa)
#
#
# Indices 1 2 3 4 5 6 
#
# 1 89.6625 25.2228 1.2897 0.0000 -24.8782 0.0000
# 2 25.2228 63.4086 6.9184 0.0000 -9.3560 0.0000
# 3 1.2897 6.9184 42.1127 0.0000 -0.9172 0.0000
# 4 0.0000 0.0000 0.0000 11.0884 0.0000 -16.7764
# 5 -24.8782 -9.3560 -0.9172 0.0000 30.0880 0.0000
# 6 0.0000 0.0000 0.0000 -16.7764 0.0000 33.0234
#
#
#
# Elastic Compliance Matrix: (Units=1/GPa)
#
#
# Indices 1 2 3 4 5 6 
#
# 1 0.015627 -0.004574 0.000524 0.000000 0.011515 0.000000
# 2 -0.004574 0.018159 -0.002804 0.000000 0.001779 0.000000
# 3 0.000524 -0.002804 0.024197 0.000000 0.000299 0.000000
# 4 0.000000 0.000000 0.000000 0.389758 0.000000 0.198003
# 5 0.011515 0.001779 0.000299 0.000000 0.043319 0.000000
# 6 0.000000 0.000000 0.000000 0.198003 0.000000 0.130870
#
#
# Mechanical properties :
#
#
# Convention : Reuss Voigt Hill
#
# Bulk Modulus (GPa) = 22.58716 29.11617 25.85167
# Shear Modulus (GPa) = 7.68760 25.62349 16.65554
#
# Velocity S-wave (km/s) = 1.81488 3.31338 2.67136
# Velocity P-wave (km/s) = 3.75091 5.20701 4.53775
#
# Compressibility (1/GPa) = 0.04427294
#
# Stress axis : x y z
#
# Youngs Moduli (GPa) = 63.99115 55.06981 41.32752
#
# Poissons Ratio (x) = 0.25191 -0.02164
# Poissons Ratio (y) = 0.29272 0.11590
# Poissons Ratio (z) = -0.03351 0.15443
#
# Static dielectric constant tensor:
#      x y z
#    x 1.880730 0.000000 -0.013920 
#    y 0.000000 1.936650 0.000000 
#    z -0.013920 0.000000 1.884610 
# 
# From -- ./inp_files/44852.got.cif
#   From: 2010.05.17/outbox.cif.g08.bks.cpg/sg14_23_cif.got.tgz:44852.got - 2010.06.03 17:49:19.
