data_PCOD9242399
_publ_section_title
;
Structure prediction by ZEFSAII (Michael W. Deem and Ramdas Pophale) SiO2 
 PCOD9242399
Probable space group: P 21/C
;
_chemical_formula_sum "Si O2"
_cell_formula_units_Z 30
_cell_length_a 13.457478
_cell_length_b 19.584710
_cell_length_c 4.994540
_cell_angle_alpha 90.000000
_cell_angle_beta 69.045665
_cell_angle_gamma 90.000000
_cell_volume 1229.308168
_symmetry_space_group_name_H-M "P 21/C"
_symmetry_group_IT_number 14
_symmetry_cell_setting 'monoclinic'
loop_
_space_group_symop_operation_xyz
x,y,z
-x,1/2+y,1/2-z
-x,-y,-z
x,1/2-y,1/2+z
loop_
_atom_site_type_symbol
_atom_site_label
_atom_site_fract_x
_atom_site_fract_y
_atom_site_fract_z
Si Si1 0.593631 0.297563 0.259645
Si Si2 0.666395 0.510655 0.322498
Si Si3 0.012773 0.389643 0.092705
Si Si4 0.178163 0.702638 0.840288
Si Si5 0.779680 0.887487 0.380296
Si Si6 0.500000 0.500000 0.000000
Si Si7 0.128073 0.001177 0.095201
Si Si8 0.578966 0.886180 0.269449
O O1 0.590404 0.235756 0.470673
O O2 0.707889 0.331569 0.205045
O O3 0.487644 0.342207 0.367757
O O4 0.770522 0.474231 0.334177
O O5 0.595253 0.532721 0.651034
O O6 0.713559 0.585671 0.197447
O O7 0.601616 0.484200 0.137510
O O8 0.926021 0.343358 0.032957
O O9 0.949521 0.437356 0.366671
O O10 0.112392 0.350942 0.134632
O O11 0.066492 0.442390 0.832637
O O12 0.175179 0.733202 0.545003
O O13 0.690108 0.857528 0.270391
O O14 0.823093 0.957607 0.200001
O O15 0.504901 0.585055 0.076792
#
# Coordination Sequence:
#
# PCOD9242399 Si02
#       8
#     4   4   4   4   4   2   4   4
#     4  10  24  45  67  91 124 168 222 266 309 377
#     4   9  19  35  51  87 125 150 200 248 309 383
#     4  10  20  36  63  86 122 164 205 258 316 376
#     4  10  24  46  63  92 124 165 217 268 309 366
#     4   9  19  36  57  87 124 152 193 259 303 379
#     4  10  20  32  56  88 122 162 194 252 318 384
#     4   9  19  35  58  93 121 158 203 250 322 382
#     4  10  21  38  61  85 127 160 204 263 320 373
#
# _framework density 24.403969
#
# number of rings (size 3 to 8) (size 9 to 14) (size 15 to 20)
#    0.000    2.400    0.000    0.800    7.467    0.000 
#    0.000    1.333    0.000    0.000    0.000    0.000 
#    0.000    0.000    0.000    0.000    0.000    0.000 
#
# Total GULP energy -167061.300667 kJ/mol
# GULP energy per Si atom -5568.710022 kJ/mol
# Density = 2.434842 g / cm^3
# Si number density = 24.403969 Si / 1000 Ang^3
#
#
#
# Elastic Constant Matrix: (Units=GPa)
#
#
# Indices 1 2 3 4 5 6 
#
# 1 276.7881 51.3682 25.4097 0.0000 -7.0760 0.0000
# 2 51.3682 34.7766 2.7198 0.0000 -4.4382 0.0000
# 3 25.4097 2.7198 86.9759 0.0000 -2.3101 0.0000
# 4 0.0000 0.0000 0.0000 6.8687 0.0000 -3.3527
# 5 -7.0760 -4.4382 -2.3101 0.0000 29.2441 0.0000
# 6 0.0000 0.0000 0.0000 -3.3527 0.0000 38.0158
#
#
#
# Elastic Compliance Matrix: (Units=1/GPa)
#
#
# Indices 1 2 3 4 5 6 
#
# 1 0.005111 -0.007451 -0.001260 0.000000 0.000006 0.000000
# 2 -0.007451 0.040239 0.001035 0.000000 0.004386 0.000000
# 3 -0.001260 0.001035 0.011854 0.000000 0.000789 0.000000
# 4 0.000000 0.000000 0.000000 0.152137 0.000000 0.013417
# 5 0.000006 0.004386 0.000789 0.000000 0.034924 0.000000
# 6 0.000000 0.000000 0.000000 0.013417 0.000000 0.027488
#
#
# Mechanical properties :
#
#
# Convention : Reuss Voigt Hill
#
# Bulk Modulus (GPa) = 23.89327 61.94845 42.92086
# Shear Modulus (GPa) = 16.60815 36.09524 26.35170
#
# Velocity S-wave (km/s) = 2.61157 3.85004 3.28961
# Velocity P-wave (km/s) = 4.34807 6.72335 5.66168
#
# Compressibility (1/GPa) = 0.04185279
#
# Stress axis : x y z
#
# Youngs Moduli (GPa) = 195.63818 24.85143 84.35854
#
# Poissons Ratio (x) = 0.18516 0.10630
# Poissons Ratio (y) = 1.45765 -0.08730
# Poissons Ratio (z) = 0.24653 -0.02572
#
# Static dielectric constant tensor:
#      x y z
#    x 2.016720 0.000000 -0.050940 
#    y 0.000000 2.018070 0.000000 
#    z -0.050940 0.000000 2.127830 
# 
# From -- ./inp_files/2948.got.cif
#   From: 2010.05.17/outbox.cif.g08.bks.cpg/sg14_2_cif.got.tgz:2948.got - 2010.06.03 17:49:19.
