data_PCOD9242143
_publ_section_title
;
Structure prediction by ZEFSAII (Michael W. Deem and Ramdas Pophale) SiO2 
 PCOD9242143
Probable space group: P 21/C
;
_chemical_formula_sum "Si O2"
_cell_formula_units_Z 20
_cell_length_a 13.302779
_cell_length_b 13.115330
_cell_length_c 9.396793
_cell_angle_alpha 90.000000
_cell_angle_beta 30.014132
_cell_angle_gamma 90.000000
_cell_volume 820.080991
_symmetry_space_group_name_H-M "P 21/C"
_symmetry_group_IT_number 14
_symmetry_cell_setting 'monoclinic'
loop_
_space_group_symop_operation_xyz
x,y,z
-x,1/2+y,1/2-z
-x,-y,-z
x,1/2-y,1/2+z
loop_
_atom_site_type_symbol
_atom_site_label
_atom_site_fract_x
_atom_site_fract_y
_atom_site_fract_z
Si Si1 0.309748 0.068790 0.352062
Si Si2 0.786959 0.235004 0.337394
Si Si3 0.953934 0.572884 0.314550
Si Si4 0.573708 0.889507 0.098849
Si Si5 0.916963 0.360978 0.411930
O O1 0.402390 0.121205 0.100641
O O2 0.159548 0.142588 0.620716
O O3 0.144955 0.982521 0.505838
O O4 0.469541 0.001720 0.241645
O O5 0.955335 0.158223 0.195564
O O6 0.573781 0.192581 0.650226
O O7 0.842328 0.340360 0.343356
O O8 0.814057 0.222218 0.137032
O O9 0.788037 0.611216 0.410695
O O10 0.863592 0.477373 0.515464
#
# Coordination Sequence:
#
# PCOD9242143 Si02
#       5
#     4   4   4   4   4
#     4   8  20  38  63  93 127 161 207 257 321 369
#     4  11  24  43  62  96 130 165 218 257 318 379
#     4   9  21  41  69  87 128 167 212 257 326 359
#     4  10  19  39  67  95 121 167 214 260 308 388
#     4  10  24  44  62  90 137 167 205 272 313 376
#
# _framework density 24.387834000000002
#
# number of rings (size 3 to 8) (size 9 to 14) (size 15 to 20)
#    1.200    1.200    0.000    1.200    2.800    4.000 
#    7.200    0.000    0.000    0.000    0.000    0.000 
#    0.000    0.000    0.000    0.000    0.000    0.000 
#
# Total GULP energy -111705.582434 kJ/mol
# GULP energy per Si atom -5585.279122 kJ/mol
# Density = 2.433233 g / cm^3
# Si number density = 24.387834 Si / 1000 Ang^3
#
#
#
# Elastic Constant Matrix: (Units=GPa)
#
#
# Indices 1 2 3 4 5 6 
#
# 1 38.1366 10.7193 12.6886 0.0000 -12.1080 0.0000
# 2 10.7193 59.5048 9.4522 0.0000 -12.9555 0.0000
# 3 12.6886 9.4522 95.1470 0.0000 -2.3369 0.0000
# 4 0.0000 0.0000 0.0000 28.5011 0.0000 -5.9078
# 5 -12.1080 -12.9555 -2.3369 0.0000 41.4099 0.0000
# 6 0.0000 0.0000 0.0000 -5.9078 0.0000 23.5220
#
#
#
# Elastic Compliance Matrix: (Units=1/GPa)
#
#
# Indices 1 2 3 4 5 6 
#
# 1 0.030809 -0.003286 -0.003591 0.000000 0.007778 0.000000
# 2 -0.003286 0.018648 -0.001296 0.000000 0.004800 0.000000
# 3 -0.003591 -0.001296 0.011097 0.000000 -0.000829 0.000000
# 4 0.000000 0.000000 0.000000 0.037013 0.000000 0.009296
# 5 0.007778 0.004800 -0.000829 0.000000 0.027878 0.000000
# 6 0.000000 0.000000 0.000000 0.009296 0.000000 0.044848
#
#
# Mechanical properties :
#
#
# Convention : Reuss Voigt Hill
#
# Bulk Modulus (GPa) = 22.62062 28.72318 25.67190
# Shear Modulus (GPa) = 24.82889 29.34849 27.08869
#
# Velocity S-wave (km/s) = 3.19421 3.47278 3.33640
# Velocity P-wave (km/s) = 4.78534 5.28048 5.03899
#
# Compressibility (1/GPa) = 0.04420746
#
# Stress axis : x y z
#
# Youngs Moduli (GPa) = 32.45761 53.62384 90.11127
#
# Poissons Ratio (x) = 0.17622 0.32361
# Poissons Ratio (y) = 0.10666 0.11682
# Poissons Ratio (z) = 0.11656 0.06952
#
# Static dielectric constant tensor:
#      x y z
#    x 1.914700 0.000000 0.035000 
#    y 0.000000 1.990660 0.000000 
#    z 0.035000 0.000000 1.965660 
# 
# From -- ./inp_files/32090.got.cif
#   From: 2010.05.17/outbox.cif.g08.bks.cpg/sg14_17_cif.got.tgz:32090.got - 2010.06.03 17:49:19.
