data_PCOD9242052
_publ_section_title
;
Structure prediction by ZEFSAII (Michael W. Deem and Ramdas Pophale) SiO2 
 PCOD9242052
Probable space group: P 21/C
;
_chemical_formula_sum "Si O2"
_cell_formula_units_Z 24
_cell_length_a 13.549617
_cell_length_b 7.211978
_cell_length_c 9.509780
_cell_angle_alpha 90.000000
_cell_angle_beta 90.368397
_cell_angle_gamma 90.000000
_cell_volume 929.272115
_symmetry_space_group_name_H-M "P 21/C"
_symmetry_group_IT_number 14
_symmetry_cell_setting 'monoclinic'
loop_
_space_group_symop_operation_xyz
x,y,z
-x,1/2+y,1/2-z
-x,-y,-z
x,1/2-y,1/2+z
loop_
_atom_site_type_symbol
_atom_site_label
_atom_site_fract_x
_atom_site_fract_y
_atom_site_fract_z
Si Si1 0.887046 0.907225 0.397382
Si Si2 0.742684 0.593472 0.473237
Si Si3 0.721787 0.321896 0.896657
Si Si4 0.561358 0.132692 0.599938
Si Si5 0.578520 0.979020 0.162153
Si Si6 0.060054 0.371928 0.395273
O O1 0.936222 0.834361 0.540707
O O2 0.832861 0.102484 0.395654
O O3 0.960027 0.876487 0.268367
O O4 0.277508 0.597871 0.608588
O O5 0.794390 0.756576 0.384702
O O6 0.647981 0.647633 0.565592
O O7 0.828449 0.551542 0.586937
O O8 0.653446 0.417828 0.776124
O O9 0.673618 0.383639 0.046479
O O10 0.541506 0.347989 0.571224
O O11 0.500000 0.000000 0.500000
O O12 0.512271 0.101263 0.751407
O O13 0.000000 0.500000 0.500000
#
# Coordination Sequence:
#
# PCOD9242052 Si02
#       6
#     4   4   4   4   4   4
#     4  10  22  42  70  92 129 175 206 265 332 383
#     4   9  22  39  64  91 126 166 217 265 315 390
#     4  10  19  40  61  92 125 169 213 263 319 381
#     4   9  21  35  57  91 123 169 216 265 321 378
#     4  10  19  39  58  87 131 161 216 271 317 382
#     4  10  23  45  64 100 129 158 218 263 320 396
#
# _framework density 25.826664000000001
#
# number of rings (size 3 to 8) (size 9 to 14) (size 15 to 20)
#    1.000    1.333    1.667    0.000    2.333    4.000 
#    6.000    4.167    0.000    0.000    0.000    0.000 
#    0.000    0.000    0.000    0.000    0.000    0.000 
#
# Total GULP energy -134021.519182 kJ/mol
# GULP energy per Si atom -5584.229966 kJ/mol
# Density = 2.576788 g / cm^3
# Si number density = 25.826664 Si / 1000 Ang^3
#
#
#
# Elastic Constant Matrix: (Units=GPa)
#
#
# Indices 1 2 3 4 5 6 
#
# 1 67.2974 -3.1951 40.6035 0.0000 -11.8011 0.0000
# 2 -3.1951 84.6890 25.6220 0.0000 -5.9391 0.0000
# 3 40.6035 25.6220 121.4261 0.0000 -35.3267 0.0000
# 4 0.0000 0.0000 0.0000 39.2665 0.0000 -5.7258
# 5 -11.8011 -5.9391 -35.3267 0.0000 50.4600 0.0000
# 6 0.0000 0.0000 0.0000 -5.7258 0.0000 37.9623
#
#
#
# Elastic Compliance Matrix: (Units=1/GPa)
#
#
# Indices 1 2 3 4 5 6 
#
# 1 0.019241 0.002857 -0.007070 0.000000 -0.000113 0.000000
# 2 0.002857 0.013046 -0.003852 0.000000 -0.000493 0.000000
# 3 -0.007070 -0.003852 0.013561 0.000000 0.007388 0.000000
# 4 0.000000 0.000000 0.000000 0.026040 0.000000 0.003927
# 5 -0.000113 -0.000493 0.007388 0.000000 0.024905 0.000000
# 6 0.000000 0.000000 0.000000 0.003927 0.000000 0.026934
#
#
# Mechanical properties :
#
#
# Convention : Reuss Voigt Hill
#
# Bulk Modulus (GPa) = 33.64773 44.38593 39.01683
# Shear Modulus (GPa) = 33.38612 39.56324 36.47468
#
# Velocity S-wave (km/s) = 3.59931 3.91816 3.76212
# Velocity P-wave (km/s) = 5.50727 6.13944 5.83193
#
# Compressibility (1/GPa) = 0.02971968
#
# Stress axis : x y z
#
# Youngs Moduli (GPa) = 51.97353 76.64959 73.73840
#
# Poissons Ratio (x) = -0.21897 0.52130
# Poissons Ratio (y) = -0.14848 0.28401
# Poissons Ratio (z) = 0.36743 0.29522
#
# Static dielectric constant tensor:
#      x y z
#    x 2.076370 0.000000 0.061790 
#    y 0.000000 2.061160 0.000000 
#    z 0.061790 0.000000 2.190270 
# 
# From -- ./inp_files/15109.got.cif
#   From: 2010.05.17/outbox.cif.g08.bks.cpg/sg14_8_cif.got.tgz:15109.got - 2010.06.03 17:49:19.
