data_PCOD9242298
_publ_section_title
;
Structure prediction by ZEFSAII (Michael W. Deem and Ramdas Pophale) SiO2 
 PCOD9242298
Probable space group: P 21/C
;
_chemical_formula_sum "Si O2"
_cell_formula_units_Z 32
_cell_length_a 18.259010
_cell_length_b 9.660999
_cell_length_c 14.826237
_cell_angle_alpha 90.000000
_cell_angle_beta 32.142079
_cell_angle_gamma 90.000000
_cell_volume 1391.421250
_symmetry_space_group_name_H-M "P 21/C"
_symmetry_group_IT_number 14
_symmetry_cell_setting 'monoclinic'
loop_
_space_group_symop_operation_xyz
x,y,z
-x,1/2+y,1/2-z
-x,-y,-z
x,1/2-y,1/2+z
loop_
_atom_site_type_symbol
_atom_site_label
_atom_site_fract_x
_atom_site_fract_y
_atom_site_fract_z
Si Si1 0.099207 0.938351 0.771194
Si Si2 0.434116 0.819783 0.583899
Si Si3 0.853075 0.130368 0.086405
Si Si4 0.340811 0.331322 0.002474
Si Si5 0.533392 0.327051 0.624776
Si Si6 0.320117 0.515618 0.747502
Si Si7 0.223468 0.026405 0.147873
Si Si8 0.071207 0.598350 0.103469
O O1 0.132775 0.843657 0.821365
O O2 0.074147 0.861749 0.704363
O O3 0.220098 0.053135 0.631221
O O4 0.956972 0.013236 0.946194
O O5 0.307006 0.911227 0.753457
O O6 0.571617 0.847450 0.496273
O O7 0.447916 0.807798 0.460017
O O8 0.378723 0.669553 0.674699
O O9 0.903244 0.266287 0.982791
O O10 0.448029 0.327534 0.806530
O O11 0.273974 0.179066 0.067627
O O12 0.445202 0.422559 0.648719
O O13 0.678023 0.404349 0.491158
O O14 0.246207 0.477406 0.731710
O O15 0.204634 0.506541 0.944141
O O16 0.066587 0.019481 0.280578
#
# Coordination Sequence:
#
# PCOD9242298 Si02
#       8
#     4   4   4   4   4   4   4   4
#     4  11  25  48  67  98 140 173 226 284 332 403
#     4  10  22  41  67  96 131 177 218 273 342 390
#     4  10  25  47  68  97 137 179 220 286 336 399
#     4  12  23  41  70  99 136 174 225 276 340 398
#     4  11  22  40  66  98 137 174 223 280 322 409
#     4  10  19  42  66  93 135 167 223 284 317 396
#     4  11  22  42  64 101 131 172 227 274 335 395
#     4  11  23  44  71  98 131 180 227 272 340 397
#
# _framework density 22.998068
#
# number of rings (size 3 to 8) (size 9 to 14) (size 15 to 20)
#    0.000    1.250    5.000    1.125    1.750    3.500 
#   13.500    0.000    0.000    0.000    0.000    0.000 
#    0.000    0.000    0.000    0.000    0.000    0.000 
#
# Total GULP energy -178847.510207 kJ/mol
# GULP energy per Si atom -5588.984694 kJ/mol
# Density = 2.294572 g / cm^3
# Si number density = 22.998068 Si / 1000 Ang^3
#
#
#
# Elastic Constant Matrix: (Units=GPa)
#
#
# Indices 1 2 3 4 5 6 
#
# 1 74.2746 24.7360 32.6971 0.0000 16.4377 0.0000
# 2 24.7360 45.2103 25.0578 0.0000 3.8126 0.0000
# 3 32.6971 25.0578 115.8750 0.0000 9.0470 0.0000
# 4 0.0000 0.0000 0.0000 15.5236 0.0000 2.8262
# 5 16.4377 3.8126 9.0470 0.0000 50.6996 0.0000
# 6 0.0000 0.0000 0.0000 2.8262 0.0000 25.1761
#
#
#
# Elastic Compliance Matrix: (Units=1/GPa)
#
#
# Indices 1 2 3 4 5 6 
#
# 1 0.018592 -0.008027 -0.003130 0.000000 -0.004865 0.000000
# 2 -0.008027 0.028640 -0.004019 0.000000 0.001166 0.000000
# 3 -0.003130 -0.004019 0.010425 0.000000 -0.000543 0.000000
# 4 0.000000 0.000000 0.000000 0.065762 0.000000 -0.007382
# 5 -0.004865 0.001166 -0.000543 0.000000 0.021311 0.000000
# 6 0.000000 0.000000 0.000000 -0.007382 0.000000 0.040549
#
#
# Mechanical properties :
#
#
# Convention : Reuss Voigt Hill
#
# Bulk Modulus (GPa) = 36.62563 44.48243 40.55403
# Shear Modulus (GPa) = 22.24870 28.47114 25.35992
#
# Velocity S-wave (km/s) = 3.11371 3.52231 3.32429
# Velocity P-wave (km/s) = 5.37466 5.99383 5.69267
#
# Compressibility (1/GPa) = 0.02730329
#
# Stress axis : x y z
#
# Youngs Moduli (GPa) = 53.78782 34.91629 95.92397
#
# Poissons Ratio (x) = 0.28026 0.30029
# Poissons Ratio (y) = 0.43174 0.38556
# Poissons Ratio (z) = 0.16838 0.14034
#
# Static dielectric constant tensor:
#      x y z
#    x 1.898250 0.000000 -0.015960 
#    y 0.000000 1.916130 0.000000 
#    z -0.015960 0.000000 1.915170 
# 
# From -- ./inp_files/49011.got.cif
#   From: 2010.05.17/outbox.cif.g08.bks.cpg/sg14_25_cif.got.tgz:49011.got - 2010.06.03 17:49:19.
