data_PCOD9242800
_publ_section_title
;
Structure prediction by ZEFSAII (Michael W. Deem and Ramdas Pophale) SiO2 
 PCOD9242800
Probable space group: P 21/C
;
_chemical_formula_sum "Si O2"
_cell_formula_units_Z 32
_cell_length_a 14.727534
_cell_length_b 12.689343
_cell_length_c 9.157947
_cell_angle_alpha 90.000000
_cell_angle_beta 64.788972
_cell_angle_gamma 90.000000
_cell_volume 1548.436958
_symmetry_space_group_name_H-M "P 21/C"
_symmetry_group_IT_number 14
_symmetry_cell_setting 'monoclinic'
loop_
_space_group_symop_operation_xyz
x,y,z
-x,1/2+y,1/2-z
-x,-y,-z
x,1/2-y,1/2+z
loop_
_atom_site_type_symbol
_atom_site_label
_atom_site_fract_x
_atom_site_fract_y
_atom_site_fract_z
Si Si1 0.147544 0.530458 0.509424
Si Si2 0.508418 0.070106 0.138605
Si Si3 0.678747 0.494152 0.109421
Si Si4 0.095240 0.536332 0.030936
Si Si5 0.355493 0.792645 0.150526
Si Si6 0.134377 0.814816 0.272115
Si Si7 0.641634 0.440425 0.796741
Si Si8 0.007143 0.873635 0.872373
O O1 0.148741 0.579115 0.669552
O O2 0.251374 0.546856 0.356124
O O3 0.064937 0.600122 0.481191
O O4 0.106911 0.411093 0.538591
O O5 0.563721 0.009790 0.234572
O O6 0.394928 0.082517 0.273154
O O7 0.578219 0.163625 0.028172
O O8 0.500000 0.000000 0.000000
O O9 0.797019 0.520474 0.046522
O O10 0.656879 0.385727 0.219011
O O11 0.653012 0.477671 0.955825
O O12 0.121257 0.651225 0.948169
O O13 0.057467 0.548447 0.220185
O O14 0.000000 0.500000 0.000000
O O15 0.242016 0.760848 0.178593
O O16 0.395963 0.681004 0.175489
O O17 0.039168 0.742768 0.302918
#
# Coordination Sequence:
#
# PCOD9242800 Si02
#       8
#     4   4   4   4   4   4   4   4
#     4  11  22  34  57  91 126 161 205 259 315 364
#     4  10  22  38  58  88 122 155 194 256 321 368
#     4  10  22  36  56  89 121 157 201 260 315 364
#     4  11  21  37  58  83 119 169 212 249 301 370
#     4  10  20  35  61  91 117 152 206 263 313 366
#     4  11  20  36  59  87 124 161 208 265 309 363
#     4  12  20  36  62  92 123 159 204 259 310 374
#     4  11  22  35  53  90 126 160 206 259 311 369
#
# _framework density 20.666
#
# number of rings (size 3 to 8) (size 9 to 14) (size 15 to 20)
#    0.000    1.250    5.000    1.875    1.750    0.000 
#    0.000    0.000    0.000    7.500    0.000    0.000 
#    0.000    0.000    0.000    0.000    0.000    0.000 
#
# Total GULP energy -178244.811577 kJ/mol
# GULP energy per Si atom -5570.150362 kJ/mol
# Density = 2.061896 g / cm^3
# Si number density = 20.666000 Si / 1000 Ang^3
#
#
#
# Elastic Constant Matrix: (Units=GPa)
#
#
# Indices 1 2 3 4 5 6 
#
# 1 93.3480 12.3389 43.0466 0.0000 0.3348 0.0000
# 2 12.3389 29.5307 20.3082 0.0000 -13.3223 0.0000
# 3 43.0466 20.3082 129.2376 0.0000 -8.2687 0.0000
# 4 0.0000 0.0000 0.0000 25.3589 0.0000 -3.0751
# 5 0.3348 -13.3223 -8.2687 0.0000 43.2473 0.0000
# 6 0.0000 0.0000 0.0000 -3.0751 0.0000 19.6555
#
#
#
# Elastic Compliance Matrix: (Units=1/GPa)
#
#
# Indices 1 2 3 4 5 6 
#
# 1 0.012991 -0.003647 -0.003880 0.000000 -0.001966 0.000000
# 2 -0.003647 0.044586 -0.004972 0.000000 0.012812 0.000000
# 3 -0.003880 -0.004972 0.009835 0.000000 0.000379 0.000000
# 4 0.000000 0.000000 0.000000 0.040197 0.000000 0.006289
# 5 -0.001966 0.012812 0.000379 0.000000 0.027157 0.000000
# 6 0.000000 0.000000 0.000000 0.006289 0.000000 0.051860
#
#
# Mechanical properties :
#
#
# Convention : Reuss Voigt Hill
#
# Bulk Modulus (GPa) = 23.57610 44.83375 34.20493
# Shear Modulus (GPa) = 22.14727 29.41383 25.78055
#
# Velocity S-wave (km/s) = 3.27720 3.77675 3.53581
# Velocity P-wave (km/s) = 5.07474 6.38436 5.76684
#
# Compressibility (1/GPa) = 0.04241583
#
# Stress axis : x y z
#
# Youngs Moduli (GPa) = 76.97766 22.42854 101.67296
#
# Poissons Ratio (x) = 0.08179 0.39446
# Poissons Ratio (y) = 0.28072 0.50550
# Poissons Ratio (z) = 0.29865 0.11151
#
# Static dielectric constant tensor:
#      x y z
#    x 1.818740 0.000000 -0.007990 
#    y 0.000000 1.789880 0.000000 
#    z -0.007990 0.000000 1.742630 
# 
# From -- ./inp_files/16235.got.cif
#   From: 2010.05.17/outbox.cif.g08.bks.cpg/sg14_9_cif.got.tgz:16235.got - 2010.06.03 17:49:19.
