data_PCOD9242410
_publ_section_title
;
Structure prediction by ZEFSAII (Michael W. Deem and Ramdas Pophale) SiO2 
 PCOD9242410
Probable space group: P 21/C
;
_chemical_formula_sum "Si O2"
_cell_formula_units_Z 30
_cell_length_a 15.113206
_cell_length_b 17.566155
_cell_length_c 12.016973
_cell_angle_alpha 90.000000
_cell_angle_beta 30.472798
_cell_angle_gamma 90.000000
_cell_volume 1617.882753
_symmetry_space_group_name_H-M "P 21/C"
_symmetry_group_IT_number 14
_symmetry_cell_setting 'monoclinic'
loop_
_space_group_symop_operation_xyz
x,y,z
-x,1/2+y,1/2-z
-x,-y,-z
x,1/2-y,1/2+z
loop_
_atom_site_type_symbol
_atom_site_label
_atom_site_fract_x
_atom_site_fract_y
_atom_site_fract_z
Si Si1 0.875341 0.039762 0.223727
Si Si2 0.672385 0.201790 0.702062
Si Si3 0.971112 0.877080 0.731730
Si Si4 0.412246 0.140948 0.803093
Si Si5 0.532333 0.966919 0.674673
Si Si6 0.400196 0.635854 0.118027
Si Si7 0.000000 0.500000 0.000000
Si Si8 0.391655 0.932725 0.057342
O O1 0.985956 0.079710 0.199836
O O2 0.753817 0.099576 0.289289
O O3 0.737539 0.982849 0.433068
O O4 0.000000 0.000000 0.000000
O O5 0.871688 0.181298 0.458628
O O6 0.553849 0.185226 0.722921
O O7 0.654880 0.287236 0.762466
O O8 0.608677 0.142127 0.865561
O O9 0.974548 0.937943 0.628819
O O10 0.781353 0.840357 0.947888
O O11 0.446130 0.153913 0.636096
O O12 0.446667 0.050452 0.782402
O O13 0.459280 0.925780 0.644805
O O14 0.482259 0.921074 0.839560
O O15 0.193718 0.538337 0.761236
O O16 0.500000 0.000000 0.000000
#
# Coordination Sequence:
#
# PCOD9242410 Si02
#       8
#     4   4   4   4   4   4   2   4
#     4  11  22  40  67  97 124 167 225 274 316 396
#     4  11  24  42  62  92 135 168 208 274 332 388
#     4  11  20  40  68  91 131 161 209 267 331 385
#     4  11  21  44  66  91 125 169 213 266 325 387
#     4  11  20  39  68  90 125 167 220 268 318 391
#     4  11  25  41  63  93 133 174 216 272 334 387
#     4  10  20  32  62  96 114 156 202 260 310 378
#     4  11  20  38  63  92 122 162 215 257 321 385
#
# _framework density 18.542752
#
# number of rings (size 3 to 8) (size 9 to 14) (size 15 to 20)
#    0.000    1.067    5.333    4.000    1.867    0.000 
#    4.800    0.000    0.000    0.000    0.000    0.000 
#    0.000    0.000    0.000    0.000    0.000    0.000 
#
# Total GULP energy -167063.793740 kJ/mol
# GULP energy per Si atom -5568.793125 kJ/mol
# Density = 1.850055 g / cm^3
# Si number density = 18.542752 Si / 1000 Ang^3
#
#
#
# Elastic Constant Matrix: (Units=GPa)
#
#
# Indices 1 2 3 4 5 6 
#
# 1 57.4140 2.3102 25.8450 0.0000 6.5622 0.0000
# 2 2.3102 42.0169 16.2474 0.0000 0.5079 0.0000
# 3 25.8450 16.2474 130.6997 0.0000 8.1280 0.0000
# 4 0.0000 0.0000 0.0000 12.2520 0.0000 2.9568
# 5 6.5622 0.5079 8.1280 0.0000 32.1455 0.0000
# 6 0.0000 0.0000 0.0000 2.9568 0.0000 16.9776
#
#
#
# Elastic Compliance Matrix: (Units=1/GPa)
#
#
# Indices 1 2 3 4 5 6 
#
# 1 0.019414 0.000400 -0.003700 0.000000 -0.003034 0.000000
# 2 0.000400 0.025015 -0.003210 0.000000 0.000335 0.000000
# 3 -0.003700 -0.003210 0.008871 0.000000 -0.001437 0.000000
# 4 0.000000 0.000000 0.000000 0.085200 0.000000 -0.014839
# 5 -0.003034 0.000335 -0.001437 0.000000 0.032086 0.000000
# 6 0.000000 0.000000 0.000000 -0.014839 0.000000 0.061485
#
#
# Mechanical properties :
#
#
# Convention : Reuss Voigt Hill
#
# Bulk Modulus (GPa) = 24.82583 35.43733 30.13158
# Shear Modulus (GPa) = 19.34107 24.65689 21.99898
#
# Velocity S-wave (km/s) = 3.23314 3.65050 3.44814
# Velocity P-wave (km/s) = 5.23021 6.07626 5.66904
#
# Compressibility (1/GPa) = 0.04028063
#
# Stress axis : x y z
#
# Youngs Moduli (GPa) = 51.51042 39.97596 112.72531
#
# Poissons Ratio (x) = -0.01599 0.41708
# Poissons Ratio (y) = -0.02060 0.36180
# Poissons Ratio (z) = 0.19059 0.12831
#
# Static dielectric constant tensor:
#      x y z
#    x 1.647140 0.000000 0.005830 
#    y 0.000000 1.628960 0.000000 
#    z 0.005830 0.000000 1.659720 
# 
# From -- ./inp_files/32979.got.cif
#   From: 2010.05.17/outbox.cif.g08.bks.cpg/sg14_17_cif.got.tgz:32979.got - 2010.06.03 17:49:19.
