data_PCOD9242393
_publ_section_title
;
Structure prediction by ZEFSAII (Michael W. Deem and Ramdas Pophale) SiO2 
 PCOD9242393
Probable space group: P 21/C
;
_chemical_formula_sum "Si O2"
_cell_formula_units_Z 32
_cell_length_a 14.314091
_cell_length_b 13.272190
_cell_length_c 18.841019
_cell_angle_alpha 90.000000
_cell_angle_beta 23.344906
_cell_angle_gamma 90.000000
_cell_volume 1418.393421
_symmetry_space_group_name_H-M "P 21/C"
_symmetry_group_IT_number 14
_symmetry_cell_setting 'monoclinic'
loop_
_space_group_symop_operation_xyz
x,y,z
-x,1/2+y,1/2-z
-x,-y,-z
x,1/2-y,1/2+z
loop_
_atom_site_type_symbol
_atom_site_label
_atom_site_fract_x
_atom_site_fract_y
_atom_site_fract_z
Si Si1 0.620674 0.700244 0.154167
Si Si2 0.219328 0.376875 0.105847
Si Si3 0.214206 0.762976 0.099624
Si Si4 0.034860 0.133101 0.103011
Si Si5 0.452790 0.998857 0.801436
Si Si6 0.799791 0.329130 0.044711
Si Si7 0.707351 0.733322 0.808489
Si Si8 0.350807 0.005728 0.704815
O O1 0.521086 0.613998 0.274301
O O2 0.388202 0.755684 0.287054
O O3 0.736870 0.644971 0.006782
O O4 0.807395 0.783361 0.049687
O O5 0.302032 0.287266 0.100367
O O6 0.940200 0.362379 0.309304
O O7 0.386031 0.472326 0.005419
O O8 0.085186 0.693730 0.248947
O O9 0.238084 0.695593 0.012329
O O10 0.469184 0.784842 0.951592
O O11 0.840316 0.072480 0.193729
O O12 0.237914 0.056537 0.988748
O O13 0.695322 0.062132 0.634134
O O14 0.360981 0.998168 0.783132
O O15 0.065564 0.296929 0.872370
O O16 0.713496 0.618834 0.773518
#
# Coordination Sequence:
#
# PCOD9242393 Si02
#       8
#     4   4   4   4   4   4   4   4
#     4   9  20  38  53  83 119 158 188 241 293 342
#     4   9  20  34  55  81 121 152 192 238 290 337
#     4  10  20  37  53  84 122 157 188 238 294 341
#     4  10  20  32  56  85 115 147 194 239 284 344
#     4  10  20  37  58  86 119 151 191 240 294 345
#     4  10  21  37  57  85 121 154 191 243 293 346
#     4  11  20  34  58  88 119 154 194 240 290 344
#     4  11  19  33  60  94 113 149 197 248 283 343
#
# _framework density 22.560737
#
# number of rings (size 3 to 8) (size 9 to 14) (size 15 to 20)
#    0.000    2.000    2.500    1.500    0.000    1.000 
#    0.000    0.000    0.000    9.000    3.250    0.000 
#    0.000    0.000    0.000    0.000    0.000    0.000 
#
# Total GULP energy -178601.869612 kJ/mol
# GULP energy per Si atom -5581.308425 kJ/mol
# Density = 2.250939 g / cm^3
# Si number density = 22.560737 Si / 1000 Ang^3
#
#
#
# Elastic Constant Matrix: (Units=GPa)
#
#
# Indices 1 2 3 4 5 6 
#
# 1 35.0053 10.7546 15.6680 0.0000 -15.2813 0.0000
# 2 10.7546 112.8252 48.9970 0.0000 -20.3790 0.0000
# 3 15.6680 48.9970 119.0801 0.0000 -38.1058 0.0000
# 4 0.0000 0.0000 0.0000 41.5383 0.0000 0.0348
# 5 -15.2813 -20.3790 -38.1058 0.0000 39.8997 0.0000
# 6 0.0000 0.0000 0.0000 0.0348 0.0000 18.3918
#
#
#
# Elastic Compliance Matrix: (Units=1/GPa)
#
#
# Indices 1 2 3 4 5 6 
#
# 1 0.034403 -0.000961 -0.000104 0.000000 0.012586 0.000000
# 2 -0.000961 0.010912 -0.003885 0.000000 0.001495 0.000000
# 3 -0.000104 -0.003885 0.013483 0.000000 0.010853 0.000000
# 4 0.000000 0.000000 0.000000 0.024074 0.000000 -0.000046
# 5 0.012586 0.001495 0.010853 0.000000 0.041012 0.000000
# 6 0.000000 0.000000 0.000000 -0.000046 0.000000 0.054372
#
#
# Mechanical properties :
#
#
# Convention : Reuss Voigt Hill
#
# Bulk Modulus (GPa) = 20.45037 46.41663 33.43350
# Shear Modulus (GPa) = 24.45528 32.73201 28.59364
#
# Velocity S-wave (km/s) = 3.29595 3.81312 3.56393
# Velocity P-wave (km/s) = 4.85475 6.32497 5.63799
#
# Compressibility (1/GPa) = 0.04889888
#
# Stress axis : x y z
#
# Youngs Moduli (GPa) = 29.06707 91.64150 74.16891
#
# Poissons Ratio (x) = 0.08807 0.00768
# Poissons Ratio (y) = 0.02793 0.28815
# Poissons Ratio (z) = 0.00301 0.35604
#
# Static dielectric constant tensor:
#      x y z
#    x 1.856360 0.000000 0.025880 
#    y 0.000000 1.867450 0.000000 
#    z 0.025880 0.000000 1.891060 
# 
# From -- ./inp_files/68715.got.cif
#   From: 2010.05.17/outbox.cif.g08.bks.cpg/sg14_35_cif.got.tgz:68715.got - 2010.06.03 17:49:19.
