data_PCOD9242407
_publ_section_title
;
Structure prediction by ZEFSAII (Michael W. Deem and Ramdas Pophale) SiO2 
 PCOD9242407
Probable space group: P 21/C
;
_chemical_formula_sum "Si O2"
_cell_formula_units_Z 30
_cell_length_a 9.118061
_cell_length_b 21.851609
_cell_length_c 16.556053
_cell_angle_alpha 90.000000
_cell_angle_beta 28.009425
_cell_angle_gamma 90.000000
_cell_volume 1549.124584
_symmetry_space_group_name_H-M "P 21/C"
_symmetry_group_IT_number 14
_symmetry_cell_setting 'monoclinic'
loop_
_space_group_symop_operation_xyz
x,y,z
-x,1/2+y,1/2-z
-x,-y,-z
x,1/2-y,1/2+z
loop_
_atom_site_type_symbol
_atom_site_label
_atom_site_fract_x
_atom_site_fract_y
_atom_site_fract_z
Si Si1 0.737224 0.299843 0.675243
Si Si2 0.975181 0.563678 0.059420
Si Si3 0.080015 0.098094 0.101398
Si Si4 0.225152 0.593527 0.673180
Si Si5 0.180944 0.529320 0.126061
Si Si6 0.709260 0.392511 0.548153
Si Si7 0.026966 0.329722 0.064744
Si Si8 0.000000 0.000000 0.000000
O O1 0.752105 0.329919 0.578237
O O2 0.976602 0.337576 0.615024
O O3 0.822221 0.229250 0.642945
O O4 0.388210 0.313064 0.875666
O O5 0.624533 0.577730 0.262086
O O6 0.193958 0.556732 0.030351
O O7 0.058168 0.616781 0.957005
O O8 0.000000 0.500000 0.000000
O O9 0.917256 0.081964 0.264633
O O10 0.446209 0.092101 0.939958
O O11 0.973400 0.047692 0.088830
O O12 0.276306 0.612525 0.555329
O O13 0.071697 0.526047 0.750962
O O14 0.021891 0.641984 0.822734
O O15 0.500000 0.500000 0.000000
O O16 0.959733 0.441812 0.456495
#
# Coordination Sequence:
#
# PCOD9242407 Si02
#       8
#     4   4   4   4   4   4   4   2
#     4  10  24  47  65  95 126 177 223 269 331 408
#     4  11  23  40  66  93 133 175 211 273 336 392
#     4  11  22  38  65  93 133 169 219 272 328 398
#     4  12  22  41  67  94 130 177 215 279 335 393
#     4  12  24  37  59 100 137 165 217 274 334 391
#     4  10  22  41  63  97 132 168 227 267 327 400
#     4  11  24  45  70  91 133 174 224 274 333 402
#     4  10  20  32  60  94 128 164 202 268 320 384
#
# _framework density 19.365776
#
# number of rings (size 3 to 8) (size 9 to 14) (size 15 to 20)
#    0.000    1.067    4.000    2.800    3.733    0.000 
#    4.800    1.333    0.000    0.000    0.000    0.000 
#    0.000    0.000    0.000    0.000    0.000    0.000 
#
# Total GULP energy -167175.268308 kJ/mol
# GULP energy per Si atom -5572.508944 kJ/mol
# Density = 1.932170 g / cm^3
# Si number density = 19.365776 Si / 1000 Ang^3
#
#
#
# Elastic Constant Matrix: (Units=GPa)
#
#
# Indices 1 2 3 4 5 6 
#
# 1 104.3397 47.0545 39.3306 0.0000 22.3834 0.0000
# 2 47.0545 129.5291 37.2460 0.0000 29.8740 0.0000
# 3 39.3306 37.2460 73.6573 0.0000 20.7924 0.0000
# 4 0.0000 0.0000 0.0000 21.0957 0.0000 -7.3589
# 5 22.3834 29.8740 20.7924 0.0000 39.2521 0.0000
# 6 0.0000 0.0000 0.0000 -7.3589 0.0000 19.7891
#
#
#
# Elastic Compliance Matrix: (Units=1/GPa)
#
#
# Indices 1 2 3 4 5 6 
#
# 1 0.013289 -0.002755 -0.004886 0.000000 -0.002893 0.000000
# 2 -0.002755 0.010625 -0.002425 0.000000 -0.005231 0.000000
# 3 -0.004886 -0.002425 0.018935 0.000000 -0.005399 0.000000
# 4 0.000000 0.000000 0.000000 0.054469 0.000000 0.020255
# 5 -0.002893 -0.005231 -0.005399 0.000000 0.033967 0.000000
# 6 0.000000 0.000000 0.000000 0.020255 0.000000 0.058065
#
#
# Mechanical properties :
#
#
# Convention : Reuss Voigt Hill
#
# Bulk Modulus (GPa) = 44.02004 61.64315 52.83159
# Shear Modulus (GPa) = 23.03572 28.28706 25.66139
#
# Velocity S-wave (km/s) = 3.45266 3.82602 3.64413
# Velocity P-wave (km/s) = 6.21890 7.17063 6.71166
#
# Compressibility (1/GPa) = 0.02271692
#
# Stress axis : x y z
#
# Youngs Moduli (GPa) = 75.25002 94.11882 52.81099
#
# Poissons Ratio (x) = 0.25934 0.25803
# Poissons Ratio (y) = 0.20734 0.12806
# Poissons Ratio (z) = 0.36767 0.22822
#
# Static dielectric constant tensor:
#      x y z
#    x 1.723690 0.000000 -0.007780 
#    y 0.000000 1.641370 0.000000 
#    z -0.007780 0.000000 1.746850 
# 
# From -- ./inp_files/10824.got.cif
#   From: 2010.05.17/outbox.cif.g08.bks.cpg/sg14_6_cif.got.tgz:10824.got - 2010.06.03 17:49:19.
