data_PCOD9242668
_publ_section_title
;
Structure prediction by ZEFSAII (Michael W. Deem and Ramdas Pophale) SiO2 
 PCOD9242668
Probable space group: P 21/C
;
_chemical_formula_sum "Si O2"
_cell_formula_units_Z 28
_cell_length_a 10.972793
_cell_length_b 9.196401
_cell_length_c 17.831530
_cell_angle_alpha 90.000000
_cell_angle_beta 44.322957
_cell_angle_gamma 90.000000
_cell_volume 1257.232719
_symmetry_space_group_name_H-M "P 21/C"
_symmetry_group_IT_number 14
_symmetry_cell_setting 'monoclinic'
loop_
_space_group_symop_operation_xyz
x,y,z
-x,1/2+y,1/2-z
-x,-y,-z
x,1/2-y,1/2+z
loop_
_atom_site_type_symbol
_atom_site_label
_atom_site_fract_x
_atom_site_fract_y
_atom_site_fract_z
Si Si1 0.673807 0.962975 0.792991
Si Si2 0.490004 0.682888 0.877726
Si Si3 0.061375 0.933980 0.207926
Si Si4 0.824987 0.126878 0.393707
Si Si5 0.746539 0.204506 0.663818
Si Si6 0.935698 0.816309 0.566820
Si Si7 0.833630 0.971685 0.169261
O O1 0.517107 0.855592 0.877603
O O2 0.793596 0.968592 0.814207
O O3 0.766424 0.895172 0.676568
O O4 0.658514 0.128225 0.773869
O O5 0.379623 0.669741 0.849912
O O6 0.674291 0.603885 0.785157
O O7 0.375608 0.624307 0.996082
O O8 0.893343 0.975422 0.331635
O O9 0.121463 0.766234 0.180639
O O10 0.999175 0.980510 0.152465
O O11 0.929905 0.162560 0.423713
O O12 0.769796 0.375225 0.666945
O O13 0.945044 0.147335 0.557581
O O14 0.883150 0.647030 0.584833
#
# Coordination Sequence:
#
# PCOD9242668 Si02
#       7
#     4   4   4   4   4   4   4
#     4  10  20  35  56  79 110 143 179 227 266 321
#     4  10  22  37  51  77 116 145 168 226 293 308
#     4  10  20  38  58  80 104 144 188 216 264 322
#     4   9  19  36  56  77 108 142 178 223 268 324
#     4  11  19  33  56  81 104 141 189 219 260 326
#     4   8  18  34  53  77 108 142 175 224 275 306
#     4  10  20  35  56  79 110 143 179 227 266 321
#
# _framework density 22.271135999999998
#
# number of rings (size 3 to 8) (size 9 to 14) (size 15 to 20)
#    0.000    2.286    0.000    3.429    0.000    1.143 
#    0.000    1.429    0.000    0.000    0.000    0.000 
#    0.000    0.000    0.000    0.000    0.000    0.000 
#
# Total GULP energy -156033.003671 kJ/mol
# GULP energy per Si atom -5572.607274 kJ/mol
# Density = 2.222045 g / cm^3
# Si number density = 22.271136 Si / 1000 Ang^3
#
#
#
# Elastic Constant Matrix: (Units=GPa)
#
#
# Indices 1 2 3 4 5 6 
#
# 1 70.5340 6.4765 -2.7615 0.0000 -2.1758 0.0000
# 2 6.4765 46.4799 9.0957 0.0000 7.4153 0.0000
# 3 -2.7615 9.0957 61.8156 0.0000 -1.9499 0.0000
# 4 0.0000 0.0000 0.0000 31.1630 0.0000 0.6422
# 5 -2.1758 7.4153 -1.9499 0.0000 14.7909 0.0000
# 6 0.0000 0.0000 0.0000 0.6422 0.0000 29.3042
#
#
#
# Elastic Compliance Matrix: (Units=1/GPa)
#
#
# Indices 1 2 3 4 5 6 
#
# 1 0.014603 -0.002865 0.001192 0.000000 0.003742 0.000000
# 2 -0.002865 0.024885 -0.004214 0.000000 -0.013453 0.000000
# 3 0.001192 -0.004214 0.016993 0.000000 0.004528 0.000000
# 4 0.000000 0.000000 0.000000 0.032104 0.000000 -0.000704
# 5 0.003742 -0.013453 0.004528 0.000000 0.075501 0.000000
# 6 0.000000 0.000000 0.000000 -0.000704 0.000000 0.034140
#
#
# Mechanical properties :
#
#
# Convention : Reuss Voigt Hill
#
# Bulk Modulus (GPa) = 22.36794 22.71677 22.54235
# Shear Modulus (GPa) = 22.23196 26.11955 24.17576
#
# Velocity S-wave (km/s) = 3.16292 3.42833 3.29830
# Velocity P-wave (km/s) = 4.83777 5.08857 4.96475
#
# Compressibility (1/GPa) = 0.04470685
#
# Stress axis : x y z
#
# Youngs Moduli (GPa) = 68.48053 40.18537 58.84680
#
# Poissons Ratio (x) = 0.11513 -0.07014
# Poissons Ratio (y) = 0.19619 0.24798
# Poissons Ratio (z) = -0.08162 0.16934
#
# Static dielectric constant tensor:
#      x y z
#    x 1.803800 0.000000 0.006430 
#    y 0.000000 1.890540 0.000000 
#    z 0.006430 0.000000 1.880040 
# 
# From -- ./inp_files/54810.got.cif
#   From: 2010.05.17/outbox.cif.g08.bks.cpg/sg14_28_cif.got.tgz:54810.got - 2010.06.03 17:49:19.
