data_PCOD9242894
_publ_section_title
;
Structure prediction by ZEFSAII (Michael W. Deem and Ramdas Pophale) SiO2 
 PCOD9242894
Probable space group: P 21/C
;
_chemical_formula_sum "Si O2"
_cell_formula_units_Z 24
_cell_length_a 8.879560
_cell_length_b 10.290360
_cell_length_c 12.591552
_cell_angle_alpha 90.000000
_cell_angle_beta 61.398530
_cell_angle_gamma 90.000000
_cell_volume 1010.139369
_symmetry_space_group_name_H-M "P 21/C"
_symmetry_group_IT_number 14
_symmetry_cell_setting 'monoclinic'
loop_
_space_group_symop_operation_xyz
x,y,z
-x,1/2+y,1/2-z
-x,-y,-z
x,1/2-y,1/2+z
loop_
_atom_site_type_symbol
_atom_site_label
_atom_site_fract_x
_atom_site_fract_y
_atom_site_fract_z
Si Si1 0.994804 0.165620 0.918310
Si Si2 0.796272 0.822060 0.358194
Si Si3 0.373661 0.069612 0.388623
Si Si4 0.236985 0.436750 0.525293
Si Si5 0.879166 0.377751 0.105671
Si Si6 0.509902 0.344368 0.279840
O O1 0.144888 0.156106 0.781160
O O2 0.836052 0.078621 0.931006
O O3 0.912938 0.299800 0.985197
O O4 0.091858 0.116898 0.991910
O O5 0.652296 0.892637 0.479499
O O6 0.763594 0.667518 0.380954
O O7 0.965939 0.863109 0.366728
O O8 0.426381 0.201967 0.311441
O O9 0.192642 0.018938 0.401669
O O10 0.492697 0.945899 0.318522
O O11 0.418511 0.424333 0.404968
O O12 0.712148 0.317263 0.220493
#
# Coordination Sequence:
#
# PCOD9242894 Si02
#       6
#     4   4   4   4   4   4
#     4  10  20  36  58  81 114 151 188 237 279 340
#     4  10  20  36  56  88 109 146 195 230 283 344
#     4   9  19  34  60  83 109 148 188 233 287 337
#     4   9  20  37  55  82 115 149 189 232 286 335
#     4   9  20  35  60  80 113 145 187 236 288 328
#     4   9  18  35  57  79 113 148 181 231 291 333
#
# _framework density 23.759098000000002
#
# number of rings (size 3 to 8) (size 9 to 14) (size 15 to 20)
#    1.000    1.667    0.000    1.500    2.333    0.000 
#    0.000    5.000    0.000    0.000    0.000    0.000 
#    0.000    0.000    0.000    0.000    0.000    0.000 
#
# Total GULP energy -133717.709792 kJ/mol
# GULP energy per Si atom -5571.571241 kJ/mol
# Density = 2.370502 g / cm^3
# Si number density = 23.759098 Si / 1000 Ang^3
#
#
#
# Elastic Constant Matrix: (Units=GPa)
#
#
# Indices 1 2 3 4 5 6 
#
# 1 32.2045 25.6393 24.0712 0.0000 -14.7448 0.0000
# 2 25.6393 110.9296 55.1317 0.0000 -18.4139 0.0000
# 3 24.0712 55.1317 87.1541 0.0000 -23.1375 0.0000
# 4 0.0000 0.0000 0.0000 37.8176 0.0000 -29.2375
# 5 -14.7448 -18.4139 -23.1375 0.0000 36.4348 0.0000
# 6 0.0000 0.0000 0.0000 -29.2375 0.0000 23.5570
#
#
#
# Elastic Compliance Matrix: (Units=1/GPa)
#
#
# Indices 1 2 3 4 5 6 
#
# 1 0.045268 -0.005612 -0.005824 0.000000 0.011785 0.000000
# 2 -0.005612 0.013926 -0.007209 0.000000 0.000189 0.000000
# 3 -0.005824 -0.007209 0.019304 0.000000 0.006259 0.000000
# 4 0.000000 0.000000 0.000000 0.653686 0.000000 0.811315
# 5 0.011785 0.000189 0.006259 0.000000 0.036285 0.000000
# 6 0.000000 0.000000 0.000000 0.811315 0.000000 1.049405
#
#
# Mechanical properties :
#
#
# Convention : Reuss Voigt Hill
#
# Bulk Modulus (GPa) = 24.26699 48.88584 36.57642
# Shear Modulus (GPa) = 2.67537 27.92495 15.30016
#
# Velocity S-wave (km/s) = 1.06230 3.43204 2.54041
# Velocity P-wave (km/s) = 3.42645 6.02706 4.90235
#
# Compressibility (1/GPa) = 0.04120824
#
# Stress axis : x y z
#
# Youngs Moduli (GPa) = 22.09043 71.80714 51.80178
#
# Poissons Ratio (x) = 0.40300 0.30169
# Poissons Ratio (y) = 0.12398 0.37345
# Poissons Ratio (z) = 0.12865 0.51767
#
# Static dielectric constant tensor:
#      x y z
#    x 1.961600 0.000000 -0.023970 
#    y 0.000000 1.939640 0.000000 
#    z -0.023970 0.000000 1.934070 
# 
# From -- ./inp_files/28973.got.cif
#   From: 2010.05.17/outbox.cif.g08.bks.cpg/sg14_15_cif.got.tgz:28973.got - 2010.06.03 17:49:19.
