data_PCOD9242467
_publ_section_title
;
Structure prediction by ZEFSAII (Michael W. Deem and Ramdas Pophale) SiO2 
 PCOD9242467
Probable space group: P 21/C
;
_chemical_formula_sum "Si O2"
_cell_formula_units_Z 32
_cell_length_a 15.480556
_cell_length_b 12.761030
_cell_length_c 9.834103
_cell_angle_alpha 90.000000
_cell_angle_beta 60.648583
_cell_angle_gamma 90.000000
_cell_volume 1693.320175
_symmetry_space_group_name_H-M "P 21/C"
_symmetry_group_IT_number 14
_symmetry_cell_setting 'monoclinic'
loop_
_space_group_symop_operation_xyz
x,y,z
-x,1/2+y,1/2-z
-x,-y,-z
x,1/2-y,1/2+z
loop_
_atom_site_type_symbol
_atom_site_label
_atom_site_fract_x
_atom_site_fract_y
_atom_site_fract_z
Si Si1 0.836194 0.987270 0.363377
Si Si2 0.921443 0.724334 0.691556
Si Si3 0.345006 0.952736 0.678534
Si Si4 0.364165 0.260440 0.854435
Si Si5 0.984078 0.872572 0.877525
Si Si6 0.236232 0.449924 0.500432
Si Si7 0.470209 0.336761 0.039962
Si Si8 0.784947 0.910431 0.680077
O O1 0.849743 0.867213 0.302151
O O2 0.736411 0.033284 0.376161
O O3 0.834479 0.983471 0.528059
O O4 0.927926 0.052327 0.234454
O O5 0.975721 0.777493 0.776484
O O6 0.990794 0.673063 0.523868
O O7 0.857838 0.815953 0.669095
O O8 0.417244 0.053376 0.616396
O O9 0.418196 0.856463 0.595117
O O10 0.287463 0.963553 0.865922
O O11 0.405072 0.288322 0.969802
O O12 0.455060 0.231149 0.686132
O O13 0.305880 0.355188 0.827873
O O14 0.289977 0.161355 0.925513
O O15 0.878816 0.933421 0.949100
O O16 0.243857 0.465662 0.656491
#
# Coordination Sequence:
#
# PCOD9242467 Si02
#       8
#     4   4   4   4   4   4   4   4
#     4  12  22  38  60  88 126 158 197 249 299 350
#     4  11  20  38  56  88 120 154 204 241 289 348
#     4  10  21  38  55  85 117 150 187 241 298 356
#     4  11  17  35  60  89 109 145 191 250 289 347
#     4  11  23  36  61  89 118 161 201 245 294 352
#     4  10  20  33  57  87 114 143 193 242 286 341
#     4  10  21  35  61  85 111 146 194 242 297 346
#     4  11  19  34  60  88 117 149 196 255 288 332
#
# _framework density 18.897784999999999
#
# number of rings (size 3 to 8) (size 9 to 14) (size 15 to 20)
#    0.000    1.250    6.250    1.875    0.000    2.000 
#    0.000    3.125    0.000    0.000    0.000    0.000 
#    0.000    0.000    0.000    0.000    0.000    0.000 
#
# Total GULP energy -178681.640511 kJ/mol
# GULP energy per Si atom -5583.801266 kJ/mol
# Density = 1.885477 g / cm^3
# Si number density = 18.897785 Si / 1000 Ang^3
#
#
#
# Elastic Constant Matrix: (Units=GPa)
#
#
# Indices 1 2 3 4 5 6 
#
# 1 18.8358 5.9371 14.1791 0.0000 -8.0999 0.0000
# 2 5.9371 14.2729 14.3747 0.0000 -10.2094 0.0000
# 3 14.1791 14.3747 143.6047 0.0000 3.3724 0.0000
# 4 0.0000 0.0000 0.0000 20.4724 0.0000 4.3141
# 5 -8.0999 -10.2094 3.3724 0.0000 34.2285 0.0000
# 6 0.0000 0.0000 0.0000 4.3141 0.0000 1.1760
#
#
#
# Elastic Compliance Matrix: (Units=1/GPa)
#
#
# Indices 1 2 3 4 5 6 
#
# 1 0.066795 -0.013345 -0.005550 0.000000 0.012373 0.000000
# 2 -0.013345 0.107087 -0.010101 0.000000 0.029778 0.000000
# 3 -0.005550 -0.010101 0.008644 0.000000 -0.005178 0.000000
# 4 0.000000 0.000000 0.000000 0.215210 0.000000 -0.789469
# 5 0.012373 0.029778 -0.005178 0.000000 0.041535 0.000000
# 6 0.000000 0.000000 0.000000 -0.789469 0.000000 3.746368
#
#
# Mechanical properties :
#
#
# Convention : Reuss Voigt Hill
#
# Bulk Modulus (GPa) = 8.02990 27.29949 17.66469
# Shear Modulus (GPa) = 1.16682 20.65690 10.91186
#
# Velocity S-wave (km/s) = 0.78663 3.30977 2.40555
# Velocity P-wave (km/s) = 2.25464 5.39290 4.13320
#
# Compressibility (1/GPa) = 0.12453450
#
# Stress axis : x y z
#
# Youngs Moduli (GPa) = 14.97115 9.33821 115.68405
#
# Poissons Ratio (x) = 0.12462 0.64203
# Poissons Ratio (y) = 0.19979 1.16852
# Poissons Ratio (z) = 0.08309 0.09433
#
# Static dielectric constant tensor:
#      x y z
#    x 1.629540 0.000000 -0.006450 
#    y 0.000000 1.662750 0.000000 
#    z -0.006450 0.000000 1.701180 
# 
# From -- ./inp_files/16236.got.cif
#   From: 2010.05.17/outbox.cif.g08.bks.cpg/sg14_9_cif.got.tgz:16236.got - 2010.06.03 17:49:19.
