data_PCOD9242497
_publ_section_title
;
Structure prediction by ZEFSAII (Michael W. Deem and Ramdas Pophale) SiO2 
 PCOD9242497
Probable space group: P 21/C
;
_chemical_formula_sum "Si O2"
_cell_formula_units_Z 32
_cell_length_a 20.728186
_cell_length_b 7.950405
_cell_length_c 20.763716
_cell_angle_alpha 90.000000
_cell_angle_beta 161.389851
_cell_angle_gamma 90.000000
_cell_volume 1091.991938
_symmetry_space_group_name_H-M "P 21/C"
_symmetry_group_IT_number 14
_symmetry_cell_setting 'monoclinic'
loop_
_space_group_symop_operation_xyz
x,y,z
-x,1/2+y,1/2-z
-x,-y,-z
x,1/2-y,1/2+z
loop_
_atom_site_type_symbol
_atom_site_label
_atom_site_fract_x
_atom_site_fract_y
_atom_site_fract_z
Si Si1 0.285065 0.499159 0.260042
Si Si2 0.165465 0.150570 0.767646
Si Si3 0.464660 0.996202 0.238487
Si Si4 0.214935 0.000841 0.239958
Si Si5 0.588452 0.352885 0.736878
Si Si6 0.964660 0.003798 0.238487
Si Si7 0.334535 0.349430 0.732354
Si Si8 0.911548 0.352885 0.263122
O O1 0.500000 0.500000 0.500000
O O2 0.134333 0.475235 0.177743
O O3 0.266764 0.645574 0.189130
O O4 0.299256 0.331711 0.229919
O O5 0.200744 0.331711 0.770081
O O6 0.011822 0.133359 0.681832
O O7 0.377122 0.105527 0.001818
O O8 0.443605 0.821496 0.256236
O O9 0.615949 0.013288 0.321146
O O10 0.488178 0.133359 0.318168
O O11 0.250000 0.025654 1.000000
O O12 0.365667 0.024765 0.322257
O O13 0.233236 0.854426 0.310870
O O14 0.000000 0.000000 0.000000
O O15 0.943605 0.178504 0.256236
O O16 0.115949 0.986712 0.321146
O O17 0.122878 0.394473 0.498182
#
# Coordination Sequence:
#
# PCOD9242497 Si02
#       8
#     4   4   4   4   4   4   4   4
#     4   9  18  35  55  75 104 136 168 210 255 300
#     4   9  19  36  53  73 104 137 168 208 255 302
#     4  10  21  35  53  77 104 134 171 211 252 302
#     4   9  18  35  55  75 104 136 168 210 255 300
#     4  10  20  34  53  76 102 135 171 210 255 302
#     4  10  21  35  53  77 104 134 171 211 252 302
#     4   9  19  36  53  73 104 137 168 208 255 302
#     4  10  20  34  53  76 102 135 171 210 255 302
#
# _framework density 29.304245999999999
#
# number of rings (size 3 to 8) (size 9 to 14) (size 15 to 20)
#    0.000    2.500    0.000    1.500    0.000    3.000 
#    0.000   11.250    0.000    0.000    0.000    0.000 
#    0.000    0.000    0.000    0.000    0.000    0.000 
#
# Total GULP energy -179176.286075 kJ/mol
# GULP energy per Si atom -5599.258940 kJ/mol
# Density = 2.923755 g / cm^3
# Si number density = 29.304246 Si / 1000 Ang^3
#
#
#
# Elastic Constant Matrix: (Units=GPa)
#
#
# Indices 1 2 3 4 5 6 
#
# 1 249.5501 56.6812 58.6245 0.0000 -37.1850 0.0000
# 2 56.6812 133.5701 3.4639 0.0000 -44.3520 0.0000
# 3 58.6245 3.4639 114.6086 0.0000 -48.2966 0.0000
# 4 0.0000 0.0000 0.0000 50.2092 0.0000 -25.6646
# 5 -37.1850 -44.3520 -48.2966 0.0000 79.2933 0.0000
# 6 0.0000 0.0000 0.0000 -25.6646 0.0000 59.0225
#
#
#
# Elastic Compliance Matrix: (Units=1/GPa)
#
#
# Indices 1 2 3 4 5 6 
#
# 1 0.005092 -0.002282 -0.002781 0.000000 -0.000583 0.000000
# 2 -0.002282 0.010803 0.003950 0.000000 0.007378 0.000000
# 3 -0.002781 0.003950 0.014005 0.000000 0.009435 0.000000
# 4 0.000000 0.000000 0.000000 0.025609 0.000000 0.011135
# 5 -0.000583 0.007378 0.009435 0.000000 0.022212 0.000000
# 6 0.000000 0.000000 0.000000 0.011135 0.000000 0.021785
#
#
# Mechanical properties :
#
#
# Convention : Reuss Voigt Hill
#
# Bulk Modulus (GPa) = 36.13690 81.69643 58.91666
# Shear Modulus (GPa) = 45.06314 62.96896 54.01605
#
# Velocity S-wave (km/s) = 3.92569 4.64054 4.29801
# Velocity P-wave (km/s) = 5.73642 7.52676 6.69173
#
# Compressibility (1/GPa) = 0.02767255
#
# Stress axis : x y z
#
# Youngs Moduli (GPa) = 196.38123 92.57033 71.40484
#
# Poissons Ratio (x) = 0.21126 0.19859
# Poissons Ratio (y) = 0.44818 -0.28205
# Poissons Ratio (z) = 0.54618 -0.36565
#
# Static dielectric constant tensor:
#      x y z
#    x 2.387050 0.000000 0.137840 
#    y 0.000000 2.289330 0.000000 
#    z 0.137840 0.000000 2.276980 
# 
# From -- ./inp_files/61144.got.cif
#   From: 2010.05.17/outbox.cif.g08.bks.cpg/sg14_31_cif.got.tgz:61144.got - 2010.06.03 17:49:19.
