data_PCOD9242035
_publ_section_title
;
Structure prediction by ZEFSAII (Michael W. Deem and Ramdas Pophale) SiO2 
 PCOD9242035
Probable space group: P 21/C
;
_chemical_formula_sum "Si O2"
_cell_formula_units_Z 20
_cell_length_a 14.375970
_cell_length_b 6.896751
_cell_length_c 23.848800
_cell_angle_alpha 90.000000
_cell_angle_beta 18.359901
_cell_angle_gamma 90.000000
_cell_volume 744.797041
_symmetry_space_group_name_H-M "P 21/C"
_symmetry_group_IT_number 14
_symmetry_cell_setting 'monoclinic'
loop_
_space_group_symop_operation_xyz
x,y,z
-x,1/2+y,1/2-z
-x,-y,-z
x,1/2-y,1/2+z
loop_
_atom_site_type_symbol
_atom_site_label
_atom_site_fract_x
_atom_site_fract_y
_atom_site_fract_z
Si Si1 0.152093 0.009490 0.995440
Si Si2 0.229513 0.448282 0.916612
Si Si3 0.224272 0.188386 0.068316
Si Si4 0.564686 0.228915 0.475801
Si Si5 0.501272 0.919675 0.366841
O O1 0.132444 0.238585 0.993156
O O2 0.444761 0.939364 0.796723
O O3 0.155694 0.085698 0.846871
O O4 0.192600 0.022646 0.039613
O O5 0.272829 0.590346 0.945629
O O6 0.000000 0.500000 0.000000
O O7 0.350944 0.148619 0.057704
O O8 0.897590 0.266322 0.266346
O O9 0.436072 0.359020 0.924370
O O10 0.528528 0.222976 0.563394
O O11 0.500000 0.000000 0.500000
#
# Coordination Sequence:
#
# PCOD9242035 Si02
#       5
#     4   4   4   4   4
#     4  11  22  44  69  94 137 172 221 277 336 391
#     4  11  24  41  69 101 127 179 229 272 332 397
#     4  10  19  38  68  89 127 171 213 263 330 389
#     4  10  20  40  63  93 127 171 218 263 335 395
#     4  10  22  42  65  91 135 178 210 276 338 387
#
# _framework density 26.852954
#
# number of rings (size 3 to 8) (size 9 to 14) (size 15 to 20)
#    0.000    1.600    4.000    3.000    2.800    0.000 
#    7.200    4.000    0.000    0.000    0.000    0.000 
#    0.000    0.000    0.000    0.000    0.000    0.000 
#
# Total GULP energy -112049.876958 kJ/mol
# GULP energy per Si atom -5602.493848 kJ/mol
# Density = 2.679184 g / cm^3
# Si number density = 26.852954 Si / 1000 Ang^3
#
#
#
# Elastic Constant Matrix: (Units=GPa)
#
#
# Indices 1 2 3 4 5 6 
#
# 1 243.2128 45.6391 38.9013 0.0000 -13.5825 0.0000
# 2 45.6391 38.2359 -6.0783 0.0000 -1.0746 0.0000
# 3 38.9013 -6.0783 146.9199 0.0000 -11.5743 0.0000
# 4 0.0000 0.0000 0.0000 28.5797 0.0000 -1.5013
# 5 -13.5825 -1.0746 -11.5743 0.0000 43.0939 0.0000
# 6 0.0000 0.0000 0.0000 -1.5013 0.0000 57.5435
#
#
#
# Elastic Compliance Matrix: (Units=1/GPa)
#
#
# Indices 1 2 3 4 5 6 
#
# 1 0.005801 -0.007167 -0.001739 0.000000 0.001182 0.000000
# 2 -0.007167 0.035222 0.003316 0.000000 -0.000490 0.000000
# 3 -0.001739 0.003316 0.007527 0.000000 0.001556 0.000000
# 4 0.000000 0.000000 0.000000 0.035038 0.000000 0.000914
# 5 0.001182 -0.000490 0.001556 0.000000 0.023984 0.000000
# 6 0.000000 0.000000 0.000000 0.000914 0.000000 0.017402
#
#
# Mechanical properties :
#
#
# Convention : Reuss Voigt Hill
#
# Bulk Modulus (GPa) = 26.76021 65.03255 45.89638
# Shear Modulus (GPa) = 33.64525 49.17052 41.40788
#
# Velocity S-wave (km/s) = 3.54354 4.28378 3.93112
# Velocity P-wave (km/s) = 5.17004 6.98128 6.14278
#
# Compressibility (1/GPa) = 0.03736892
#
# Stress axis : x y z
#
# Youngs Moduli (GPa) = 172.39038 28.39154 132.85954
#
# Poissons Ratio (x) = 0.20349 0.23108
# Poissons Ratio (y) = 1.23556 -0.44060
# Poissons Ratio (z) = 0.29984 -0.09416
#
# Static dielectric constant tensor:
#      x y z
#    x 2.189350 0.000000 0.043050 
#    y 0.000000 2.166470 0.000000 
#    z 0.043050 0.000000 2.012510 
# 
# From -- ./inp_files/12317.got.cif
#   From: 2010.05.17/outbox.cif.g08.bks.cpg/sg14_7_cif.got.tgz:12317.got - 2010.06.03 17:49:19.
