data_PCOD9242048
_publ_section_title
;
Structure prediction by ZEFSAII (Michael W. Deem and Ramdas Pophale) SiO2 
 PCOD9242048
Probable space group: P 21/C
;
_chemical_formula_sum "Si O2"
_cell_formula_units_Z 28
_cell_length_a 21.517014
_cell_length_b 12.190389
_cell_length_c 18.988241
_cell_angle_alpha 90.000000
_cell_angle_beta 161.697810
_cell_angle_gamma 90.000000
_cell_volume 1564.061068
_symmetry_space_group_name_H-M "P 21/C"
_symmetry_group_IT_number 14
_symmetry_cell_setting 'monoclinic'
loop_
_space_group_symop_operation_xyz
x,y,z
-x,1/2+y,1/2-z
-x,-y,-z
x,1/2-y,1/2+z
loop_
_atom_site_type_symbol
_atom_site_label
_atom_site_fract_x
_atom_site_fract_y
_atom_site_fract_z
Si Si1 0.706226 0.468891 0.032807
Si Si2 0.555137 0.776385 0.714476
Si Si3 0.513628 0.812477 0.015631
Si Si4 0.519092 0.421763 0.088611
Si Si5 0.617477 0.439499 0.414839
Si Si6 0.846634 0.975145 0.037120
Si Si7 0.770561 0.490795 0.736218
O O1 0.927882 0.469100 0.243769
O O2 0.636177 0.355587 0.992799
O O3 0.649075 0.555941 0.032634
O O4 0.556090 0.485794 0.805586
O O5 0.585397 0.726076 0.669936
O O6 0.490217 0.678507 0.696023
O O7 0.741580 0.855150 0.932531
O O8 0.479986 0.703720 0.934171
O O9 0.320481 0.887966 0.818913
O O10 0.670624 0.895786 0.152049
O O11 0.719808 0.461857 0.341599
O O12 0.500000 0.500000 0.000000
O O13 0.799317 0.455729 0.556589
O O14 0.701205 0.469910 0.581307
O O15 0.000000 0.500000 0.000000
#
# Coordination Sequence:
#
# PCOD9242048 Si02
#       7
#     4   4   4   4   4   4   4
#     4  10  22  37  58  88 116 150 196 236 292 352
#     4   9  19  39  58  79 116 157 189 240 294 341
#     4  10  20  39  60  84 122 151 189 249 292 338
#     4  10  19  39  57  88 122 149 184 243 294 340
#     4   9  21  40  56  80 121 149 190 246 288 339
#     4  10  22  36  60  89 113 154 196 233 292 355
#     4  10  23  39  61  88 110 155 203 238 290 348
#
# _framework density 17.902115999999999
#
# number of rings (size 3 to 8) (size 9 to 14) (size 15 to 20)
#    0.000    2.571    2.857    0.000    0.000   13.143 
#    0.000    0.000    0.000    0.000    0.000    0.000 
#    0.000    0.000    0.000    0.000    0.000    0.000 
#
# Total GULP energy -155927.709631 kJ/mol
# GULP energy per Si atom -5568.846773 kJ/mol
# Density = 1.786137 g / cm^3
# Si number density = 17.902116 Si / 1000 Ang^3
#
#
#
# Elastic Constant Matrix: (Units=GPa)
#
#
# Indices 1 2 3 4 5 6 
#
# 1 113.8716 50.9190 81.3205 0.0000 13.1830 0.0000
# 2 50.9190 111.7689 47.3661 0.0000 -4.1379 0.0000
# 3 81.3205 47.3661 106.2179 0.0000 27.1049 0.0000
# 4 0.0000 0.0000 0.0000 5.2618 0.0000 -9.4519
# 5 13.1830 -4.1379 27.1049 0.0000 30.0639 0.0000
# 6 0.0000 0.0000 0.0000 -9.4519 0.0000 25.1365
#
#
#
# Elastic Compliance Matrix: (Units=1/GPa)
#
#
# Indices 1 2 3 4 5 6 
#
# 1 0.020818 -0.002455 -0.016141 0.000000 0.005086 0.000000
# 2 -0.002455 0.012904 -0.005978 0.000000 0.008242 0.000000
# 3 -0.016141 -0.005978 0.029667 0.000000 -0.020492 0.000000
# 4 0.000000 0.000000 0.000000 0.585600 0.000000 0.220200
# 5 0.005086 0.008242 -0.020492 0.000000 0.050642 0.000000
# 6 0.000000 0.000000 0.000000 0.220200 0.000000 0.122583
#
#
# Mechanical properties :
#
#
# Convention : Reuss Voigt Hill
#
# Bulk Modulus (GPa) = 70.22150 76.78550 73.50350
# Shear Modulus (GPa) = 5.70704 22.24264 13.97484
#
# Velocity S-wave (km/s) = 1.78741 3.52868 2.79700
# Velocity P-wave (km/s) = 6.60077 7.71926 7.18183
#
# Compressibility (1/GPa) = 0.01424065
#
# Stress axis : x y z
#
# Youngs Moduli (GPa) = 48.03499 77.49485 33.70725
#
# Poissons Ratio (x) = 0.19029 0.54408
# Poissons Ratio (y) = 0.11795 0.20149
# Poissons Ratio (z) = 0.77534 0.46324
#
# Static dielectric constant tensor:
#      x y z
#    x 1.647120 0.000000 -0.006020 
#    y 0.000000 1.637340 0.000000 
#    z -0.006020 0.000000 1.596900 
# 
# From -- ./inp_files/61314.got.cif
#   From: 2010.05.17/outbox.cif.g08.bks.cpg/sg14_31_cif.got.tgz:61314.got - 2010.06.03 17:49:19.
