data_PCOD9242769
_publ_section_title
;
Structure prediction by ZEFSAII (Michael W. Deem and Ramdas Pophale) SiO2 
 PCOD9242769
Probable space group: P 21/C
;
_chemical_formula_sum "Si O2"
_cell_formula_units_Z 32
_cell_length_a 9.547550
_cell_length_b 10.921374
_cell_length_c 16.047690
_cell_angle_alpha 90.000000
_cell_angle_beta 65.883922
_cell_angle_gamma 90.000000
_cell_volume 1527.281546
_symmetry_space_group_name_H-M "P 21/C"
_symmetry_group_IT_number 14
_symmetry_cell_setting 'monoclinic'
loop_
_space_group_symop_operation_xyz
x,y,z
-x,1/2+y,1/2-z
-x,-y,-z
x,1/2-y,1/2+z
loop_
_atom_site_type_symbol
_atom_site_label
_atom_site_fract_x
_atom_site_fract_y
_atom_site_fract_z
Si Si1 0.154011 0.510793 0.571147
Si Si2 0.276959 0.678572 0.667991
Si Si3 0.658558 0.657631 0.154248
Si Si4 0.102657 0.653772 0.419581
Si Si5 0.382526 0.192923 0.667611
Si Si6 0.283090 0.888638 0.355343
Si Si7 0.695998 0.072768 0.272195
Si Si8 0.609606 0.821441 0.011482
O O1 0.158893 0.586228 0.654679
O O2 0.097057 0.602601 0.513755
O O3 0.320487 0.456612 0.509197
O O4 0.046127 0.391944 0.593612
O O5 0.320792 0.628742 0.748312
O O6 0.224374 0.818655 0.694374
O O7 0.428925 0.680620 0.574819
O O8 0.668492 0.724049 0.241238
O O9 0.750188 0.531026 0.122701
O O10 0.481827 0.612196 0.188522
O O11 0.685275 0.749581 0.071224
O O12 0.145143 0.795755 0.407706
O O13 0.238511 0.584333 0.336592
O O14 0.563961 0.159096 0.634671
O O15 0.361364 0.257927 0.584440
O O16 0.295389 0.063001 0.694750
#
# Coordination Sequence:
#
# PCOD9242769 Si02
#       8
#     4   4   4   4   4   4   4   4
#     4  11  23  36  60  84 116 162 213 244 311 358
#     4  10  20  36  58  91 112 153 204 256 299 361
#     4  10  20  35  59  93 119 155 195 252 316 357
#     4  10  21  40  57  81 117 165 203 255 293 370
#     4  11  19  35  61  92 122 159 189 254 321 351
#     4  10  20  37  62  85 125 155 199 251 311 360
#     4   9  20  36  57  84 121 152 198 244 303 361
#     4  11  22  35  57  93 122 147 208 256 300 375
#
# _framework density 20.952259999999999
#
# number of rings (size 3 to 8) (size 9 to 14) (size 15 to 20)
#    0.000    1.750    3.750    2.625    1.750    5.500 
#    4.500    0.625    5.500    0.000    0.000    0.000 
#    0.000    0.000    0.000    0.000    0.000    0.000 
#
# Total GULP energy -178631.757023 kJ/mol
# GULP energy per Si atom -5582.242407 kJ/mol
# Density = 2.090457 g / cm^3
# Si number density = 20.952260 Si / 1000 Ang^3
#
#
#
# Elastic Constant Matrix: (Units=GPa)
#
#
# Indices 1 2 3 4 5 6 
#
# 1 29.5890 19.9952 10.2542 0.0000 10.2277 0.0000
# 2 19.9952 110.1374 27.9372 0.0000 8.7272 0.0000
# 3 10.2542 27.9372 69.9774 0.0000 24.0488 0.0000
# 4 0.0000 0.0000 0.0000 19.3413 0.0000 1.7614
# 5 10.2277 8.7272 24.0488 0.0000 20.5362 0.0000
# 6 0.0000 0.0000 0.0000 1.7614 0.0000 26.7719
#
#
#
# Elastic Compliance Matrix: (Units=1/GPa)
#
#
# Indices 1 2 3 4 5 6 
#
# 1 0.046057 -0.007626 0.005129 0.000000 -0.025703 0.000000
# 2 -0.007626 0.011372 -0.005132 0.000000 0.004976 0.000000
# 3 0.005129 -0.005132 0.026301 0.000000 -0.031172 0.000000
# 4 0.000000 0.000000 0.000000 0.052014 0.000000 -0.003422
# 5 -0.025703 0.004976 -0.031172 0.000000 0.095885 0.000000
# 6 0.000000 0.000000 0.000000 -0.003422 0.000000 0.037578
#
#
# Mechanical properties :
#
#
# Convention : Reuss Voigt Hill
#
# Bulk Modulus (GPa) = 14.60495 36.23077 25.41786
# Shear Modulus (GPa) = 16.27138 23.43103 19.85121
#
# Velocity S-wave (km/s) = 2.78976 3.34774 3.08141
# Velocity P-wave (km/s) = 4.16687 5.68091 4.98174
#
# Compressibility (1/GPa) = 0.06846995
#
# Stress axis : x y z
#
# Youngs Moduli (GPa) = 21.71240 87.93822 38.02194
#
# Poissons Ratio (x) = 0.67059 -0.19500
# Poissons Ratio (y) = 0.16557 0.19514
# Poissons Ratio (z) = -0.11136 0.45133
#
# Static dielectric constant tensor:
#      x y z
#    x 1.809400 0.000000 -0.015270 
#    y 0.000000 1.787120 0.000000 
#    z -0.015270 0.000000 1.732400 
# 
# From -- ./inp_files/40291.got.cif
#   From: 2010.05.17/outbox.cif.g08.bks.cpg/sg14_21_cif.got.tgz:40291.got - 2010.06.03 17:49:19.
