data_PCOD9242561
_publ_section_title
;
Structure prediction by ZEFSAII (Michael W. Deem and Ramdas Pophale) SiO2 
 PCOD9242561
Probable space group: P 21/C
;
_chemical_formula_sum "Si O2"
_cell_formula_units_Z 32
_cell_length_a 9.126068
_cell_length_b 30.036879
_cell_length_c 5.123768
_cell_angle_alpha 90.000000
_cell_angle_beta 56.269777
_cell_angle_gamma 90.000000
_cell_volume 1168.085066
_symmetry_space_group_name_H-M "P 21/C"
_symmetry_group_IT_number 14
_symmetry_cell_setting 'monoclinic'
loop_
_space_group_symop_operation_xyz
x,y,z
-x,1/2+y,1/2-z
-x,-y,-z
x,1/2-y,1/2+z
loop_
_atom_site_type_symbol
_atom_site_label
_atom_site_fract_x
_atom_site_fract_y
_atom_site_fract_z
Si Si1 0.421853 0.144251 0.622056
Si Si2 0.752836 0.016740 0.383705
Si Si3 0.545141 0.942065 0.085508
Si Si4 0.032904 0.357718 0.459007
Si Si5 0.035779 0.773696 0.640048
Si Si6 0.610525 0.724997 0.492213
Si Si7 0.719962 0.103452 0.042328
Si Si8 0.095849 0.448663 0.691444
O O1 0.411737 0.093462 0.730335
O O2 0.232295 0.155784 0.681137
O O3 0.442512 0.177216 0.844777
O O4 0.594360 0.142121 0.278813
O O5 0.557112 0.015241 0.699157
O O6 0.744851 0.061273 0.210689
O O7 0.822249 0.978162 0.126632
O O8 0.907196 0.029467 0.436573
O O9 0.739789 0.948027 0.769946
O O10 0.395287 0.916953 0.073141
O O11 0.942527 0.319171 0.719709
O O12 0.055295 0.399365 0.631165
O O13 0.913131 0.374783 0.339239
O O14 0.100634 0.736305 0.783700
O O15 0.823522 0.772648 0.801461
O O16 0.549305 0.739232 0.268985
#
# Coordination Sequence:
#
# PCOD9242561 Si02
#       8
#     4   4   4   4   4   4   4   4
#     4   9  20  37  55  78 111 151 190 238 301 365
#     4   9  19  37  55  79 118 153 193 248 292 357
#     4  10  20  34  56  81 112 153 193 245 297 356
#     4   9  19  39  58  83 113 154 192 244 301 362
#     4   9  18  37  60  88 119 157 203 251 309 372
#     4   9  18  32  57  85 115 153 198 253 308 371
#     4  10  21  36  55  83 116 148 198 246 295 357
#     4   9  18  36  59  81 115 156 196 240 301 361
#
# _framework density 27.395261999999999
#
# number of rings (size 3 to 8) (size 9 to 14) (size 15 to 20)
#    0.000    2.750    0.000    0.375    1.750    1.500 
#   13.500    6.875    0.000    0.000    0.000    0.000 
#    0.000    0.000    0.000    0.000    0.000    0.000 
#
# Total GULP energy -178971.600905 kJ/mol
# GULP energy per Si atom -5592.862528 kJ/mol
# Density = 2.733291 g / cm^3
# Si number density = 27.395262 Si / 1000 Ang^3
#
#
#
# Elastic Constant Matrix: (Units=GPa)
#
#
# Indices 1 2 3 4 5 6 
#
# 1 149.2532 24.1701 28.0257 0.0000 -6.1759 0.0000
# 2 24.1701 105.3203 0.6919 0.0000 -8.9940 0.0000
# 3 28.0257 0.6919 66.7230 0.0000 -6.7021 0.0000
# 4 0.0000 0.0000 0.0000 33.1212 0.0000 9.9729
# 5 -6.1759 -8.9940 -6.7021 0.0000 37.4540 0.0000
# 6 0.0000 0.0000 0.0000 9.9729 0.0000 28.2863
#
#
#
# Elastic Compliance Matrix: (Units=1/GPa)
#
#
# Indices 1 2 3 4 5 6 
#
# 1 0.007575 -0.001694 -0.003136 0.000000 0.000281 0.000000
# 2 -0.001694 0.010074 0.000837 0.000000 0.002289 0.000000
# 3 -0.003136 0.000837 0.016562 0.000000 0.002648 0.000000
# 4 0.000000 0.000000 0.000000 0.033778 0.000000 -0.011909
# 5 0.000281 0.002289 0.002648 0.000000 0.027769 0.000000
# 6 0.000000 0.000000 0.000000 -0.011909 0.000000 0.039552
#
#
# Mechanical properties :
#
#
# Convention : Reuss Voigt Hill
#
# Bulk Modulus (GPa) = 38.13185 47.45244 42.79215
# Shear Modulus (GPa) = 32.88698 37.66623 35.27660
#
# Velocity S-wave (km/s) = 3.46853 3.71201 3.59233
# Velocity P-wave (km/s) = 5.47634 5.97754 5.73242
#
# Compressibility (1/GPa) = 0.02622479
#
# Stress axis : x y z
#
# Youngs Moduli (GPa) = 132.01734 99.26981 60.38019
#
# Poissons Ratio (x) = 0.16814 0.18934
# Poissons Ratio (y) = 0.22360 -0.05053
# Poissons Ratio (z) = 0.41398 -0.08308
#
# Static dielectric constant tensor:
#      x y z
#    x 2.199740 0.000000 -0.024320 
#    y 0.000000 2.137630 0.000000 
#    z -0.024320 0.000000 2.188500 
# 
# From -- ./inp_files/2213.got.cif
#   From: 2010.05.17/outbox.cif.g08.bks.cpg/sg14_2_cif.got.tgz:2213.got - 2010.06.03 17:49:19.
