data_PCOD9242754
_publ_section_title
;
Structure prediction by ZEFSAII (Michael W. Deem and Ramdas Pophale) SiO2 
 PCOD9242754
Probable space group: P 21/C
;
_chemical_formula_sum "Si O2"
_cell_formula_units_Z 32
_cell_length_a 7.101298
_cell_length_b 21.921431
_cell_length_c 12.462310
_cell_angle_alpha 90.000000
_cell_angle_beta 43.384825
_cell_angle_gamma 90.000000
_cell_volume 1332.587012
_symmetry_space_group_name_H-M "P 21/C"
_symmetry_group_IT_number 14
_symmetry_cell_setting 'monoclinic'
loop_
_space_group_symop_operation_xyz
x,y,z
-x,1/2+y,1/2-z
-x,-y,-z
x,1/2-y,1/2+z
loop_
_atom_site_type_symbol
_atom_site_label
_atom_site_fract_x
_atom_site_fract_y
_atom_site_fract_z
Si Si1 0.855624 0.053272 0.620855
Si Si2 0.361418 0.066709 0.570835
Si Si3 0.887690 0.194240 0.033269
Si Si4 0.500895 0.314323 0.898202
Si Si5 0.444825 0.180849 0.922628
Si Si6 0.950314 0.073431 0.920332
Si Si7 0.297577 0.049556 0.976982
Si Si8 0.898275 0.175746 0.557337
O O1 0.566244 0.038608 0.793384
O O2 0.830647 0.108613 0.546354
O O3 0.079926 0.068539 0.618246
O O4 0.000000 0.000000 0.500000
O O5 0.526931 0.125554 0.459932
O O6 0.236870 0.075439 0.739907
O O7 0.500000 0.000000 0.500000
O O8 0.736861 0.187513 0.210514
O O9 0.827289 0.263354 0.022996
O O10 0.210101 0.188767 0.927618
O O11 0.816928 0.140562 0.980012
O O12 0.461739 0.247561 0.970114
O O13 0.219264 0.321818 0.948338
O O14 0.360750 0.114940 0.007344
O O15 0.728880 0.175661 0.739857
O O16 0.030982 0.061789 0.011584
O O17 0.776688 0.016903 0.944888
#
# Coordination Sequence:
#
# PCOD9242754 Si02
#       8
#     4   4   4   4   4   4   4   4
#     4  10  20  35  59  80 112 156 194 234 285 345
#     4  11  24  36  54  85 121 144 189 248 295 338
#     4   9  17  31  58  82 105 145 194 228 272 351
#     4   9  18  32  56  79 107 150 190 229 279 344
#     4   8  15  31  54  80 104 141 196 228 264 335
#     4  10  21  34  57  87 118 145 184 242 293 338
#     4   9  19  34  60  83 110 152 196 224 279 357
#     4   8  16  31  53  82 106 140 193 233 269 334
#
# _framework density 24.013441
#
# number of rings (size 3 to 8) (size 9 to 14) (size 15 to 20)
#    0.000    2.750    0.000    0.750    8.750    0.500 
#    0.000    0.000    2.750   51.000    0.000    0.000 
#    0.000    0.000    0.000    0.000    0.000    0.000 
#
# Total GULP energy -178319.376089 kJ/mol
# GULP energy per Si atom -5572.480503 kJ/mol
# Density = 2.395879 g / cm^3
# Si number density = 24.013441 Si / 1000 Ang^3
#
#
#
# Elastic Constant Matrix: (Units=GPa)
#
#
# Indices 1 2 3 4 5 6 
#
# 1 76.4806 5.7350 4.7134 0.0000 -5.1662 0.0000
# 2 5.7350 288.0323 57.5377 0.0000 5.8428 0.0000
# 3 4.7134 57.5377 57.1988 0.0000 -17.7317 0.0000
# 4 0.0000 0.0000 0.0000 37.2381 0.0000 -8.1504
# 5 -5.1662 5.8428 -17.7317 0.0000 25.7873 0.0000
# 6 0.0000 0.0000 0.0000 -8.1504 0.0000 21.8350
#
#
#
# Elastic Compliance Matrix: (Units=1/GPa)
#
#
# Indices 1 2 3 4 5 6 
#
# 1 0.013284 -0.000349 0.000134 0.000000 0.002833 0.000000
# 2 -0.000349 0.004947 -0.006757 0.000000 -0.005837 0.000000
# 3 0.000134 -0.006757 0.031457 0.000000 0.023188 0.000000
# 4 0.000000 0.000000 0.000000 0.029243 0.000000 0.010916
# 5 0.002833 -0.005837 0.023188 0.000000 0.056614 0.000000
# 6 0.000000 0.000000 0.000000 0.010916 0.000000 0.049872
#
#
# Mechanical properties :
#
#
# Convention : Reuss Voigt Hill
#
# Bulk Modulus (GPa) = 27.97528 61.96487 44.97008
# Shear Modulus (GPa) = 23.66568 40.55379 32.10973
#
# Velocity S-wave (km/s) = 3.14270 4.11395 3.66068
# Velocity P-wave (km/s) = 4.98437 6.95891 6.05270
#
# Compressibility (1/GPa) = 0.03574584
#
# Stress axis : x y z
#
# Youngs Moduli (GPa) = 75.27604 202.14390 31.78910
#
# Poissons Ratio (x) = 0.07051 -0.00427
# Poissons Ratio (y) = 0.02626 0.21480
# Poissons Ratio (z) = -0.01012 1.36589
#
# Static dielectric constant tensor:
#      x y z
#    x 0.197070 0.000000 -0.560580 
#    y 0.000000 2.089060 0.000000 
#    z -0.560580 0.000000 1.632560 
# 
# From -- ./inp_files/42060.got.cif
#   From: 2010.05.17/outbox.cif.g08.bks.cpg/sg14_22_cif.got.tgz:42060.got - 2010.06.03 17:49:19.
