data_PCOD9242805
_publ_section_title
;
Structure prediction by ZEFSAII (Michael W. Deem and Ramdas Pophale) SiO2 
 PCOD9242805
Probable space group: P 21/C
;
_chemical_formula_sum "Si O2"
_cell_formula_units_Z 32
_cell_length_a 11.469379
_cell_length_b 14.083282
_cell_length_c 20.487261
_cell_angle_alpha 90.000000
_cell_angle_beta 159.537429
_cell_angle_gamma 90.000000
_cell_volume 1156.893578
_symmetry_space_group_name_H-M "P 21/C"
_symmetry_group_IT_number 14
_symmetry_cell_setting 'monoclinic'
loop_
_space_group_symop_operation_xyz
x,y,z
-x,1/2+y,1/2-z
-x,-y,-z
x,1/2-y,1/2+z
loop_
_atom_site_type_symbol
_atom_site_label
_atom_site_fract_x
_atom_site_fract_y
_atom_site_fract_z
Si Si1 0.077641 0.258800 0.672803
Si Si2 0.554295 0.462559 0.818804
Si Si3 0.929498 0.607350 0.735820
Si Si4 0.219639 0.807671 0.257273
Si Si5 0.150144 0.357279 0.986967
Si Si6 0.894972 0.513593 0.537374
Si Si7 0.549983 0.244598 0.812260
Si Si8 0.825039 0.413432 0.631670
O O1 0.965814 0.156892 0.642402
O O2 0.430672 0.236144 0.825265
O O3 0.913019 0.297915 0.518783
O O4 0.050432 0.330401 0.719173
O O5 0.853820 0.532494 0.995601
O O6 0.352759 0.504979 0.651461
O O7 0.623144 0.354641 0.836360
O O8 0.266725 0.469815 0.723377
O O9 0.108555 0.664084 0.771426
O O10 0.994531 0.494753 0.764744
O O11 0.524705 0.619756 0.521002
O O12 0.591339 0.839840 0.436622
O O13 0.978223 0.874745 0.086908
O O14 0.167436 0.701048 0.203825
O O15 0.334960 0.306523 0.145331
O O16 0.739361 0.475714 0.522254
#
# Coordination Sequence:
#
# PCOD9242805 Si02
#       8
#     4   4   4   4   4   4   4   4
#     4  12  24  42  67  98 130 171 213 274 319 384
#     4  10  20  35  61  93 127 163 207 256 329 378
#     4  10  24  42  66  96 125 173 220 262 320 383
#     4  10  22  40  64  87 128 161 219 254 318 386
#     4  11  23  41  63  95 125 172 205 269 324 385
#     4   9  17  36  64  88 118 167 212 253 306 402
#     4  12  24  42  66  97 132 166 219 267 327 388
#     4  10  20  42  67  93 123 172 218 265 316 383
#
# _framework density 27.660281999999999
#
# number of rings (size 3 to 8) (size 9 to 14) (size 15 to 20)
#    0.000    1.500    3.750    1.500    3.500    0.000 
#    2.250    3.125    0.000    0.000    0.000    0.000 
#    0.000    0.000    0.000    0.000    0.000    0.000 
#
# Total GULP energy -179102.720684 kJ/mol
# GULP energy per Si atom -5596.960021 kJ/mol
# Density = 2.759733 g / cm^3
# Si number density = 27.660282 Si / 1000 Ang^3
#
#
#
# Elastic Constant Matrix: (Units=GPa)
#
#
# Indices 1 2 3 4 5 6 
#
# 1 116.9864 26.7101 4.5626 0.0000 3.0583 0.0000
# 2 26.7101 123.7283 12.5847 0.0000 -5.8978 0.0000
# 3 4.5626 12.5847 40.1456 0.0000 -19.5611 0.0000
# 4 0.0000 0.0000 0.0000 41.4081 0.0000 -4.6999
# 5 3.0583 -5.8978 -19.5611 0.0000 21.0302 0.0000
# 6 0.0000 0.0000 0.0000 -4.6999 0.0000 48.4420
#
#
#
# Elastic Compliance Matrix: (Units=1/GPa)
#
#
# Indices 1 2 3 4 5 6 
#
# 1 0.009195 -0.001932 -0.002478 0.000000 -0.004184 0.000000
# 2 -0.001932 0.008755 -0.002179 0.000000 0.000709 0.000000
# 3 -0.002478 -0.002179 0.047097 0.000000 0.043556 0.000000
# 4 0.000000 0.000000 0.000000 0.024419 0.000000 0.002369
# 5 -0.004184 0.000709 0.043556 0.000000 0.088871 0.000000
# 6 0.000000 0.000000 0.000000 0.002369 0.000000 0.020873
#
#
# Mechanical properties :
#
#
# Convention : Reuss Voigt Hill
#
# Bulk Modulus (GPa) = 19.27974 40.95279 30.11627
# Shear Modulus (GPa) = 21.76952 37.97626 29.87289
#
# Velocity S-wave (km/s) = 2.80845 3.70936 3.28989
# Velocity P-wave (km/s) = 4.18352 5.76052 5.03415
#
# Compressibility (1/GPa) = 0.05186791
#
# Stress axis : x y z
#
# Youngs Moduli (GPa) = 108.75197 114.22234 21.23278
#
# Poissons Ratio (x) = 0.22073 0.05261
# Poissons Ratio (y) = 0.21016 0.04627
# Poissons Ratio (z) = 0.26948 0.24891
#
# Static dielectric constant tensor:
#      x y z
#    x 2.165640 0.000000 0.041550 
#    y 0.000000 2.230010 0.000000 
#    z 0.041550 0.000000 2.115030 
# 
# From -- ./inp_files/67497.got.cif
#   From: 2010.05.17/outbox.cif.g08.bks.cpg/sg14_34_cif.got.tgz:67497.got - 2010.06.03 17:49:19.
