data_PCOD9242787
_publ_section_title
;
Structure prediction by ZEFSAII (Michael W. Deem and Ramdas Pophale) SiO2 
 PCOD9242787
Probable space group: P 21/C
;
_chemical_formula_sum "Si O2"
_cell_formula_units_Z 32
_cell_length_a 20.598046
_cell_length_b 18.730586
_cell_length_c 9.272534
_cell_angle_alpha 90.000000
_cell_angle_beta 152.556178
_cell_angle_gamma 90.000000
_cell_volume 1648.778996
_symmetry_space_group_name_H-M "P 21/C"
_symmetry_group_IT_number 14
_symmetry_cell_setting 'monoclinic'
loop_
_space_group_symop_operation_xyz
x,y,z
-x,1/2+y,1/2-z
-x,-y,-z
x,1/2-y,1/2+z
loop_
_atom_site_type_symbol
_atom_site_label
_atom_site_fract_x
_atom_site_fract_y
_atom_site_fract_z
Si Si1 0.422341 0.862261 0.533895
Si Si2 0.980769 0.943656 0.091608
Si Si3 0.249456 0.963222 0.796126
Si Si4 0.360417 0.250658 0.465562
Si Si5 0.776248 0.669465 0.066283
Si Si6 0.584108 0.560323 0.587902
Si Si7 0.225758 0.518888 0.583185
Si Si8 0.539832 0.600388 0.960652
O O1 0.269211 0.898456 0.204692
O O2 0.510682 0.893188 0.573816
O O3 0.488833 0.782914 0.683421
O O4 0.470410 0.894523 0.778951
O O5 0.126683 0.927923 0.460574
O O6 0.114135 0.016384 0.972622
O O7 0.915643 0.871977 0.891259
O O8 0.000000 0.000000 0.000000
O O9 0.303813 0.029633 0.806341
O O10 0.195779 0.983396 0.851516
O O11 0.387616 0.914413 0.090195
O O12 0.260904 0.234194 0.403717
O O13 0.392428 0.174985 0.453548
O O14 0.269125 0.302376 0.181399
O O15 0.661796 0.606737 0.860205
O O16 0.500000 0.500000 0.500000
O O17 0.362609 0.468153 0.872320
#
# Coordination Sequence:
#
# PCOD9242787 Si02
#       8
#     4   4   4   4   4   4   4   4
#     4  10  20  35  60  98 123 154 213 269 320 369
#     4  12  25  41  62  97 131 171 217 264 324 383
#     4  11  22  37  63  96 131 161 210 271 324 381
#     4  11  22  39  65  94 125 165 215 265 321 384
#     4  11  23  39  62  90 127 168 212 258 316 392
#     4  11  19  33  61  98 124 157 206 274 322 358
#     4  11  21  40  66  93 129 168 216 266 327 375
#     4  11  19  38  66  93 123 164 214 271 317 382
#
# _framework density 19.408301000000002
#
# number of rings (size 3 to 8) (size 9 to 14) (size 15 to 20)
#    0.000    1.000    6.250    2.625    0.000    0.000 
#    0.000    0.000    8.250    0.000    0.000    0.000 
#    0.000    0.000    0.000    0.000    0.000    0.000 
#
# Total GULP energy -178179.996565 kJ/mol
# GULP energy per Si atom -5568.124893 kJ/mol
# Density = 1.936413 g / cm^3
# Si number density = 19.408301 Si / 1000 Ang^3
#
#
#
# Elastic Constant Matrix: (Units=GPa)
#
#
# Indices 1 2 3 4 5 6 
#
# 1 66.9724 11.7686 20.5295 0.0000 -11.7826 0.0000
# 2 11.7686 77.6054 29.5533 0.0000 -6.2172 0.0000
# 3 20.5295 29.5533 118.9959 0.0000 -14.6482 0.0000
# 4 0.0000 0.0000 0.0000 27.3203 0.0000 -5.0388
# 5 -11.7826 -6.2172 -14.6482 0.0000 19.5430 0.0000
# 6 0.0000 0.0000 0.0000 -5.0388 0.0000 30.0193
#
#
#
# Elastic Compliance Matrix: (Units=1/GPa)
#
#
# Indices 1 2 3 4 5 6 
#
# 1 0.017183 -0.001309 -0.001559 0.000000 0.008775 0.000000
# 2 -0.001309 0.014408 -0.003179 0.000000 0.001412 0.000000
# 3 -0.001559 -0.003179 0.010159 0.000000 0.005663 0.000000
# 4 0.000000 0.000000 0.000000 0.037772 0.000000 0.006340
# 5 0.008775 0.001412 0.005663 0.000000 0.061154 0.000000
# 6 0.000000 0.000000 0.000000 0.006340 0.000000 0.034376
#
#
# Mechanical properties :
#
#
# Convention : Reuss Voigt Hill
#
# Bulk Modulus (GPa) = 33.71942 43.03072 38.37507
# Shear Modulus (GPa) = 25.37665 28.82467 27.10066
#
# Velocity S-wave (km/s) = 3.61988 3.85797 3.74082
# Velocity P-wave (km/s) = 5.90617 6.48573 6.20272
#
# Compressibility (1/GPa) = 0.02965650
#
# Stress axis : x y z
#
# Youngs Moduli (GPa) = 58.19610 69.40692 98.43243
#
# Poissons Ratio (x) = 0.09086 0.15348
# Poissons Ratio (y) = 0.07618 0.31288
# Poissons Ratio (z) = 0.09074 0.22062
#
# Static dielectric constant tensor:
#      x y z
#    x 1.726200 0.000000 -0.010630 
#    y 0.000000 1.759510 0.000000 
#    z -0.010630 0.000000 1.722690 
# 
# From -- ./inp_files/19209.got.cif
#   From: 2010.05.17/outbox.cif.g08.bks.cpg/sg14_10_cif.got.tgz:19209.got - 2010.06.03 17:49:19.
