data_PCOD9242115
_publ_section_title
;
Structure prediction by ZEFSAII (Michael W. Deem and Ramdas Pophale) SiO2 
 PCOD9242115
Probable space group: P 21/C
;
_chemical_formula_sum "Si O2"
_cell_formula_units_Z 28
_cell_length_a 19.418069
_cell_length_b 14.577940
_cell_length_c 7.567574
_cell_angle_alpha 90.000000
_cell_angle_beta 148.917557
_cell_angle_gamma 90.000000
_cell_volume 1105.952663
_symmetry_space_group_name_H-M "P 21/C"
_symmetry_group_IT_number 14
_symmetry_cell_setting 'monoclinic'
loop_
_space_group_symop_operation_xyz
x,y,z
-x,1/2+y,1/2-z
-x,-y,-z
x,1/2-y,1/2+z
loop_
_atom_site_type_symbol
_atom_site_label
_atom_site_fract_x
_atom_site_fract_y
_atom_site_fract_z
Si Si1 0.726736 0.006750 0.765446
Si Si2 0.703917 0.365686 0.747352
Si Si3 0.060087 0.127696 0.816265
Si Si4 0.198789 0.236007 0.820729
Si Si5 0.705633 0.941415 0.118946
Si Si6 0.775917 0.317654 0.543633
Si Si7 0.429732 0.378387 0.349353
O O1 0.642729 0.955239 0.431997
O O2 0.879072 0.973232 0.060927
O O3 0.681151 0.972897 0.862370
O O4 0.728954 0.116235 0.783103
O O5 0.759954 0.468126 0.839215
O O6 0.674571 0.329138 0.484447
O O7 0.572471 0.367635 0.576172
O O8 0.793762 0.286450 0.027115
O O9 0.164642 0.184635 0.925889
O O10 0.914399 0.141003 0.420486
O O11 0.088164 0.184720 0.054030
O O12 0.202771 0.148471 0.697010
O O13 0.341352 0.286238 0.137964
O O14 0.583215 0.910251 0.974992
#
# Coordination Sequence:
#
# PCOD9242115 Si02
#       7
#     4   4   4   4   4   4   4
#     4   9  23  41  71  95 122 173 220 272 325 378
#     4  11  27  40  62  94 133 178 210 268 328 392
#     4  10  19  39  65  92 125 167 213 271 323 384
#     4  10  20  37  67  93 119 165 219 272 320 383
#     4  10  22  43  62  97 131 162 218 271 321 385
#     4  11  24  43  61  94 134 171 214 265 333 389
#     4  11  23  42  67  97 125 168 222 268 327 390
#
# _framework density 25.317539
#
# number of rings (size 3 to 8) (size 9 to 14) (size 15 to 20)
#    0.000    1.714    1.429    1.714    4.000    3.429 
#    0.000    0.714    0.000    0.000    0.000    0.000 
#    0.000    0.000    0.000    0.000    0.000    0.000 
#
# Total GULP energy -156463.714113 kJ/mol
# GULP energy per Si atom -5587.989790 kJ/mol
# Density = 2.525992 g / cm^3
# Si number density = 25.317539 Si / 1000 Ang^3
#
#
#
# Elastic Constant Matrix: (Units=GPa)
#
#
# Indices 1 2 3 4 5 6 
#
# 1 90.9426 46.4802 19.8057 0.0000 -3.3355 0.0000
# 2 46.4802 132.5817 17.3882 0.0000 7.7683 0.0000
# 3 19.8057 17.3882 67.2706 0.0000 9.7783 0.0000
# 4 0.0000 0.0000 0.0000 26.1553 0.0000 -10.2372
# 5 -3.3355 7.7683 9.7783 0.0000 29.8237 0.0000
# 6 0.0000 0.0000 0.0000 -10.2372 0.0000 30.7825
#
#
#
# Elastic Compliance Matrix: (Units=1/GPa)
#
#
# Indices 1 2 3 4 5 6 
#
# 1 0.014381 -0.004809 -0.003577 0.000000 0.004034 0.000000
# 2 -0.004809 0.009475 -0.000626 0.000000 -0.002800 0.000000
# 3 -0.003577 -0.000626 0.016921 0.000000 -0.005785 0.000000
# 4 0.000000 0.000000 0.000000 0.043955 0.000000 0.014618
# 5 0.004034 -0.002800 -0.005785 0.000000 0.036608 0.000000
# 6 0.000000 0.000000 0.000000 0.014618 0.000000 0.037347
#
#
# Mechanical properties :
#
#
# Convention : Reuss Voigt Hill
#
# Bulk Modulus (GPa) = 43.95190 50.90479 47.42834
# Shear Modulus (GPa) = 27.13046 31.16035 29.14541
#
# Velocity S-wave (km/s) = 3.27709 3.51205 3.39661
# Velocity P-wave (km/s) = 5.63179 6.04948 5.84437
#
# Compressibility (1/GPa) = 0.02275215
#
# Stress axis : x y z
#
# Youngs Moduli (GPa) = 69.53781 105.54588 59.09708
#
# Poissons Ratio (x) = 0.50754 0.21141
# Poissons Ratio (y) = 0.33439 0.03700
# Poissons Ratio (z) = 0.24876 0.06609
#
# Static dielectric constant tensor:
#      x y z
#    x 2.115720 0.000000 -0.049040 
#    y 0.000000 2.053870 0.000000 
#    z -0.049040 0.000000 2.000520 
# 
# From -- ./inp_files/13005.got.cif
#   From: 2010.05.17/outbox.cif.g08.bks.cpg/sg14_7_cif.got.tgz:13005.got - 2010.06.03 17:49:19.
