data_PCOD9242912
_publ_section_title
;
Structure prediction by ZEFSAII (Michael W. Deem and Ramdas Pophale) SiO2 
 PCOD9242912
Probable space group: P 21/C
;
_chemical_formula_sum "Si O2"
_cell_formula_units_Z 28
_cell_length_a 14.532314
_cell_length_b 7.801033
_cell_length_c 21.051638
_cell_angle_alpha 90.000000
_cell_angle_beta 150.288001
_cell_angle_gamma 90.000000
_cell_volume 1182.877110
_symmetry_space_group_name_H-M "P 21/C"
_symmetry_group_IT_number 14
_symmetry_cell_setting 'monoclinic'
loop_
_space_group_symop_operation_xyz
x,y,z
-x,1/2+y,1/2-z
-x,-y,-z
x,1/2-y,1/2+z
loop_
_atom_site_type_symbol
_atom_site_label
_atom_site_fract_x
_atom_site_fract_y
_atom_site_fract_z
Si Si1 0.012960 0.969371 0.698845
Si Si2 0.613019 0.607093 0.758634
Si Si3 0.380796 0.146530 0.890739
Si Si4 0.256636 0.822490 0.396421
Si Si5 0.885592 0.761172 0.020728
Si Si6 0.197779 0.874237 0.993774
Si Si7 0.124665 0.828856 0.564069
O O1 0.141818 0.800806 0.781473
O O2 0.893258 0.914415 0.565612
O O3 0.168869 0.119777 0.787894
O O4 0.862072 0.005465 0.663446
O O5 0.633636 0.622361 0.694358
O O6 0.733196 0.737051 0.873564
O O7 0.399845 0.627847 0.646041
O O8 0.675982 0.415148 0.813762
O O9 0.522301 0.309103 0.983625
O O10 0.500000 0.000000 0.000000
O O11 0.220137 0.726406 0.442066
O O12 0.850584 0.927120 0.042053
O O13 0.077047 0.783520 0.096809
O O14 0.074892 0.775254 0.971521
O O15 0.000000 0.000000 0.500000
#
# Coordination Sequence:
#
# PCOD9242912 Si02
#       7
#     4   4   4   4   4   4   4
#     4  11  21  41  64  89 124 165 208 261 316 375
#     4  10  20  37  59  85 119 164 203 250 314 365
#     4   9  20  38  61  86 118 162 206 248 309 380
#     4  10  22  38  64  88 118 162 213 252 313 376
#     4  11  22  35  62  88 124 160 203 256 317 378
#     4  11  22  37  57  93 124 156 211 258 306 380
#     4  10  20  36  57  85 119 160 197 246 310 364
#
# _framework density 23.671099000000002
#
# number of rings (size 3 to 8) (size 9 to 14) (size 15 to 20)
#    0.000    1.714    1.429    3.857    2.000    1.143 
#    0.000    0.714    0.000    0.000    0.000    0.000 
#    0.000    0.000    0.000    0.000    0.000    0.000 
#
# Total GULP energy -156008.635737 kJ/mol
# GULP energy per Si atom -5571.736991 kJ/mol
# Density = 2.361722 g / cm^3
# Si number density = 23.671099 Si / 1000 Ang^3
#
#
#
# Elastic Constant Matrix: (Units=GPa)
#
#
# Indices 1 2 3 4 5 6 
#
# 1 43.8941 11.3167 12.3202 0.0000 3.2161 0.0000
# 2 11.3167 61.2191 21.2217 0.0000 2.5967 0.0000
# 3 12.3202 21.2217 102.3869 0.0000 1.1093 0.0000
# 4 0.0000 0.0000 0.0000 20.2031 0.0000 -1.1312
# 5 3.2161 2.5967 1.1093 0.0000 33.1186 0.0000
# 6 0.0000 0.0000 0.0000 -1.1312 0.0000 30.6498
#
#
#
# Elastic Compliance Matrix: (Units=1/GPa)
#
#
# Indices 1 2 3 4 5 6 
#
# 1 0.024488 -0.003693 -0.002159 0.000000 -0.002016 0.000000
# 2 -0.003693 0.018209 -0.003319 0.000000 -0.000958 0.000000
# 3 -0.002159 -0.003319 0.010714 0.000000 0.000111 0.000000
# 4 0.000000 0.000000 0.000000 0.049600 0.000000 0.001831
# 5 -0.002016 -0.000958 0.000111 0.000000 0.030462 0.000000
# 6 0.000000 0.000000 0.000000 0.001831 0.000000 0.032694
#
#
# Mechanical properties :
#
#
# Convention : Reuss Voigt Hill
#
# Bulk Modulus (GPa) = 28.51663 33.02413 30.77038
# Shear Modulus (GPa) = 25.48450 27.63710 26.56080
#
# Velocity S-wave (km/s) = 3.28473 3.42064 3.35338
# Velocity P-wave (km/s) = 5.14384 5.43899 5.29347
#
# Compressibility (1/GPa) = 0.03506726
#
# Stress axis : x y z
#
# Youngs Moduli (GPa) = 40.83642 54.91887 93.34004
#
# Poissons Ratio (x) = 0.20280 0.20156
# Poissons Ratio (y) = 0.15079 0.30983
# Poissons Ratio (z) = 0.08818 0.18230
#
# Static dielectric constant tensor:
#      x y z
#    x 1.967330 0.000000 0.033580 
#    y 0.000000 1.993220 0.000000 
#    z 0.033580 0.000000 2.007030 
# 
# From -- ./inp_files/68252.got.cif
#   From: 2010.05.17/outbox.cif.g08.bks.cpg/sg14_35_cif.got.tgz:68252.got - 2010.06.03 17:49:19.
