data_PCOD9242732
_publ_section_title
;
Structure prediction by ZEFSAII (Michael W. Deem and Ramdas Pophale) SiO2 
 PCOD9242732
Probable space group: P 21/C
;
_chemical_formula_sum "Si O2"
_cell_formula_units_Z 32
_cell_length_a 16.089571
_cell_length_b 11.713272
_cell_length_c 8.078150
_cell_angle_alpha 90.000000
_cell_angle_beta 94.327723
_cell_angle_gamma 90.000000
_cell_volume 1518.079620
_symmetry_space_group_name_H-M "P 21/C"
_symmetry_group_IT_number 14
_symmetry_cell_setting 'monoclinic'
loop_
_space_group_symop_operation_xyz
x,y,z
-x,1/2+y,1/2-z
-x,-y,-z
x,1/2-y,1/2+z
loop_
_atom_site_type_symbol
_atom_site_label
_atom_site_fract_x
_atom_site_fract_y
_atom_site_fract_z
Si Si1 0.947106 0.597899 0.327332
Si Si2 0.795119 0.150313 0.267895
Si Si3 0.396807 0.634473 0.173630
Si Si4 0.882099 0.130475 0.942585
Si Si5 0.207601 0.401796 0.134785
Si Si6 0.129952 0.241729 0.901952
Si Si7 0.493911 0.304031 0.509927
Si Si8 0.395433 0.383875 0.185943
O O1 0.908946 0.470419 0.317809
O O2 0.885495 0.661139 0.445678
O O3 0.943627 0.670643 0.158600
O O4 0.035655 0.619193 0.427524
O O5 0.696201 0.168200 0.282944
O O6 0.851398 0.257082 0.337992
O O7 0.812927 0.035101 0.375529
O O8 0.812015 0.119665 0.077128
O O9 0.433266 0.726062 0.054812
O O10 0.461580 0.630839 0.335315
O O11 0.399558 0.507281 0.099647
O O12 0.144904 0.343738 0.254160
O O13 0.298925 0.379714 0.221153
O O14 0.201442 0.331551 0.963343
O O15 0.452603 0.374787 0.356800
O O16 0.424606 0.218620 0.573999
#
# Coordination Sequence:
#
# PCOD9242732 Si02
#       8
#     4   4   4   4   4   4   4   4
#     4  10  22  40  62  85 116 152 193 241 291 345
#     4  11  23  39  59  87 121 154 198 242 292 351
#     4  10  21  37  57  82 117 151 191 237 286 339
#     4  11  23  40  59  87 118 153 194 239 290 355
#     4  10  21  37  60  86 117 155 196 245 294 344
#     4  10  20  40  59  84 116 151 195 245 290 348
#     4  10  20  36  57  84 113 154 190 235 287 340
#     4  10  20  35  58  83 115 149 192 240 282 342
#
# _framework density 21.079262
#
# number of rings (size 3 to 8) (size 9 to 14) (size 15 to 20)
#    0.000    1.750    1.250    3.000    1.750    0.000 
#    0.000    1.875    8.250    0.000    0.000    0.000 
#    0.000    0.000    0.000    0.000    0.000    0.000 
#
# Total GULP energy -178180.672829 kJ/mol
# GULP energy per Si atom -5568.146026 kJ/mol
# Density = 2.103128 g / cm^3
# Si number density = 21.079262 Si / 1000 Ang^3
#
#
#
# Elastic Constant Matrix: (Units=GPa)
#
#
# Indices 1 2 3 4 5 6 
#
# 1 40.9400 34.9599 -18.1224 0.0000 0.8844 0.0000
# 2 34.9599 112.8094 7.5545 0.0000 7.1872 0.0000
# 3 -18.1224 7.5545 18.1832 0.0000 2.7662 0.0000
# 4 0.0000 0.0000 0.0000 -13.5952 0.0000 -2.8236
# 5 0.8844 7.1872 2.7662 0.0000 22.7312 0.0000
# 6 0.0000 0.0000 0.0000 -2.8236 0.0000 17.2101
#
#
#
# Elastic Compliance Matrix: (Units=1/GPa)
#
#
# Indices 1 2 3 4 5 6 
#
# 1 0.157733 -0.060595 0.183802 0.000000 -0.009345 0.000000
# 2 -0.060595 0.032535 -0.074074 0.000000 0.001085 0.000000
# 3 0.183802 -0.074074 0.271509 0.000000 -0.016770 0.000000
# 4 0.000000 0.000000 0.000000 -0.071132 0.000000 -0.011670
# 5 -0.009345 0.001085 -0.016770 0.000000 0.046054 0.000000
# 6 0.000000 0.000000 0.000000 -0.011670 0.000000 0.056191
#
#
# Mechanical properties :
#
#
# Convention : Reuss Voigt Hill
#
# Bulk Modulus (GPa) = 1.78558 24.52409 13.15484
# Shear Modulus (GPa) = 8.60133 15.10525 11.85329
#
# Velocity S-wave (km/s) = 2.02221 2.67983 2.37390
# Velocity P-wave (km/s) = 2.51025 4.60812 3.71054
#
# Compressibility (1/GPa) = 0.56004106
#
# Stress axis : x y z
#
# Youngs Moduli (GPa) = 6.33982 30.73656 3.68312
#
# Poissons Ratio (x) = 1.86249 -0.67696
# Poissons Ratio (y) = 0.38416 0.27282
# Poissons Ratio (z) = -1.16527 2.27679
#
# Static dielectric constant tensor:
#      x y z
#    x 1.782870 0.000000 0.011910 
#    y 0.000000 1.771260 0.000000 
#    z 0.011910 0.000000 1.802680 
# 
# From -- ./inp_files/15789.got.cif
#   From: 2010.05.17/outbox.cif.g08.bks.cpg/sg14_8_cif.got.tgz:15789.got - 2010.06.03 17:49:19.
