data_PCOD9242874
_publ_section_title
;
Structure prediction by ZEFSAII (Michael W. Deem and Ramdas Pophale) SiO2 
 PCOD9242874
Probable space group: P 21/C
;
_chemical_formula_sum "Si O2"
_cell_formula_units_Z 32
_cell_length_a 5.598893
_cell_length_b 12.382711
_cell_length_c 27.017269
_cell_angle_alpha 90.000000
_cell_angle_beta 47.762810
_cell_angle_gamma 90.000000
_cell_volume 1386.778967
_symmetry_space_group_name_H-M "P 21/C"
_symmetry_group_IT_number 14
_symmetry_cell_setting 'monoclinic'
loop_
_space_group_symop_operation_xyz
x,y,z
-x,1/2+y,1/2-z
-x,-y,-z
x,1/2-y,1/2+z
loop_
_atom_site_type_symbol
_atom_site_label
_atom_site_fract_x
_atom_site_fract_y
_atom_site_fract_z
Si Si1 0.543746 0.332185 0.034557
Si Si2 0.171606 0.246288 0.412155
Si Si3 0.571999 0.558306 0.054647
Si Si4 0.401641 0.402787 0.221819
Si Si5 0.517087 0.156556 0.183683
Si Si6 0.905647 0.814216 0.838990
Si Si7 0.149724 0.087913 0.330724
Si Si8 0.292415 0.651510 0.716912
O O1 0.712770 0.437139 0.035967
O O2 0.269712 0.280326 0.106135
O O3 0.414297 0.384708 0.001407
O O4 0.816827 0.241834 0.984961
O O5 0.322559 0.149082 0.422343
O O6 0.110681 0.198111 0.366172
O O7 0.454462 0.330802 0.362627
O O8 0.196041 0.533322 0.118973
O O9 0.523442 0.288435 0.182556
O O10 0.595508 0.508403 0.178473
O O11 0.507751 0.397776 0.264918
O O12 0.026940 0.407296 0.259265
O O13 0.372700 0.123015 0.151496
O O14 0.268223 0.120284 0.260344
O O15 0.866403 0.122533 0.154789
O O16 0.141449 0.760671 0.764098
#
# Coordination Sequence:
#
# PCOD9242874 Si02
#       8
#     4   4   4   4   4   4   4   4
#     4  10  23  35  53  88 119 170 198 244 300 380
#     4  11  22  36  58  83 126 165 198 245 306 366
#     4  10  21  36  53  84 131 160 206 229 304 387
#     4  10  21  35  57  88 114 156 196 249 299 348
#     4  10  21  36  56  86 117 152 204 250 292 357
#     4  10  20  36  56  77 117 151 199 244 288 338
#     4  11  22  35  61  89 123 164 195 255 308 360
#     4  10  21  39  56  83 117 152 207 249 283 357
#
# _framework density 23.075053
#
# number of rings (size 3 to 8) (size 9 to 14) (size 15 to 20)
#    0.000    1.750    2.500    3.375    8.750    0.000 
#    0.000    0.000    0.000    0.000    0.000    5.250 
#    0.000    0.000    0.000    0.000    0.000    0.000 
#
# Total GULP energy -178627.011876 kJ/mol
# GULP energy per Si atom -5582.094121 kJ/mol
# Density = 2.302253 g / cm^3
# Si number density = 23.075053 Si / 1000 Ang^3
#
#
#
# Elastic Constant Matrix: (Units=GPa)
#
#
# Indices 1 2 3 4 5 6 
#
# 1 149.3238 7.0196 22.7974 0.0000 -6.3045 0.0000
# 2 7.0196 22.2265 4.4533 0.0000 -7.5557 0.0000
# 3 22.7974 4.4533 67.4709 0.0000 -7.4137 0.0000
# 4 0.0000 0.0000 0.0000 31.3643 0.0000 -4.2533
# 5 -6.3045 -7.5557 -7.4137 0.0000 24.1921 0.0000
# 6 0.0000 0.0000 0.0000 -4.2533 0.0000 22.0733
#
#
#
# Elastic Compliance Matrix: (Units=1/GPa)
#
#
# Indices 1 2 3 4 5 6 
#
# 1 0.007141 -0.001575 -0.002234 0.000000 0.000685 0.000000
# 2 -0.001575 0.050861 -0.001164 0.000000 0.015118 0.000000
# 3 -0.002234 -0.001164 0.016091 0.000000 0.003985 0.000000
# 4 0.000000 0.000000 0.000000 0.032739 0.000000 0.006308
# 5 0.000685 0.015118 0.003985 0.000000 0.047457 0.000000
# 6 0.000000 0.000000 0.000000 0.006308 0.000000 0.046519
#
#
# Mechanical properties :
#
#
# Convention : Reuss Voigt Hill
#
# Bulk Modulus (GPa) = 15.58895 34.17351 24.88123
# Shear Modulus (GPa) = 21.53920 29.17600 25.35760
#
# Velocity S-wave (km/s) = 3.05854 3.55969 3.31859
# Velocity P-wave (km/s) = 4.38672 5.63357 5.04878
#
# Compressibility (1/GPa) = 0.06414798
#
# Stress axis : x y z
#
# Youngs Moduli (GPa) = 140.04033 19.66142 62.14794
#
# Poissons Ratio (x) = 0.03097 0.13881
# Poissons Ratio (y) = 0.22056 0.07232
# Poissons Ratio (z) = 0.31279 0.02288
#
# Static dielectric constant tensor:
#      x y z
#    x 1.972440 0.000000 -0.034910 
#    y 0.000000 1.914470 0.000000 
#    z -0.034910 0.000000 1.921010 
# 
# From -- ./inp_files/53455.got.cif
#   From: 2010.05.17/outbox.cif.g08.bks.cpg/sg14_27_cif.got.tgz:53455.got - 2010.06.03 17:49:19.
