data_PCOD9242541
_publ_section_title
;
Structure prediction by ZEFSAII (Michael W. Deem and Ramdas Pophale) SiO2 
 PCOD9242541
Probable space group: P 21/C
;
_chemical_formula_sum "Si O2"
_cell_formula_units_Z 22
_cell_length_a 5.207077
_cell_length_b 13.445151
_cell_length_c 13.103874
_cell_angle_alpha 90.000000
_cell_angle_beta 71.420545
_cell_angle_gamma 90.000000
_cell_volume 869.588923
_symmetry_space_group_name_H-M "P 21/C"
_symmetry_group_IT_number 14
_symmetry_cell_setting 'monoclinic'
loop_
_space_group_symop_operation_xyz
x,y,z
-x,1/2+y,1/2-z
-x,-y,-z
x,1/2-y,1/2+z
loop_
_atom_site_type_symbol
_atom_site_label
_atom_site_fract_x
_atom_site_fract_y
_atom_site_fract_z
Si Si1 0.693530 0.769070 0.761115
Si Si2 0.570765 0.823108 0.071551
Si Si3 0.000000 0.000000 0.500000
Si Si4 0.631673 0.512611 0.305091
Si Si5 0.092848 0.719748 0.033130
Si Si6 0.762987 0.950099 0.321265
O O1 0.508714 0.729957 0.690055
O O2 0.956992 0.801135 0.661370
O O3 0.746237 0.669142 0.816197
O O4 0.604192 0.870246 0.825271
O O5 0.517227 0.938316 0.099093
O O6 0.883738 0.799171 0.012074
O O7 0.376315 0.768579 0.018724
O O8 0.082023 0.881846 0.474228
O O9 0.787853 0.991560 0.430932
O O10 0.490771 0.494000 0.211446
O O11 0.947494 0.481583 0.265274
#
# Coordination Sequence:
#
# PCOD9242541 Si02
#       6
#     4   4   2   4   4   4
#     4   9  20  34  56  81 111 152 199 232 282 347
#     4   9  18  35  52  80 110 150 192 238 278 341
#     4  12  24  38  58  94 124 150 188 250 314 338
#     4  11  19  36  60  81 112 155 201 239 287 340
#     4  10  20  34  55  79 116 150 185 237 292 346
#     4  11  23  35  57  88 119 151 191 248 294 348
#
# _framework density 25.299312
#
# number of rings (size 3 to 8) (size 9 to 14) (size 15 to 20)
#    1.091    0.727    3.636    1.091    0.000    2.909 
#    0.000    0.000    0.000    2.182    0.000    0.000 
#    0.000    0.000    0.000    0.000    0.000    0.000 
#
# Total GULP energy -122536.834458 kJ/mol
# GULP energy per Si atom -5569.856112 kJ/mol
# Density = 2.524173 g / cm^3
# Si number density = 25.299312 Si / 1000 Ang^3
#
#
#
# Elastic Constant Matrix: (Units=GPa)
#
#
# Indices 1 2 3 4 5 6 
#
# 1 79.6746 26.1452 6.7049 0.0000 -2.8246 0.0000
# 2 26.1452 195.9164 28.1527 0.0000 -7.2424 0.0000
# 3 6.7049 28.1527 19.6871 0.0000 -22.0453 0.0000
# 4 0.0000 0.0000 0.0000 41.7971 0.0000 14.0062
# 5 -2.8246 -7.2424 -22.0453 0.0000 -1.1979 0.0000
# 6 0.0000 0.0000 0.0000 14.0062 0.0000 31.1387
#
#
#
# Elastic Compliance Matrix: (Units=1/GPa)
#
#
# Indices 1 2 3 4 5 6 
#
# 1 0.013196 -0.001549 -0.001233 0.000000 0.000934 0.000000
# 2 -0.001549 0.005786 -0.001982 0.000000 0.005148 0.000000
# 3 -0.001233 -0.001982 0.003273 0.000000 -0.045344 0.000000
# 4 0.000000 0.000000 0.000000 0.028171 0.000000 -0.012671
# 5 0.000934 0.005148 -0.045344 0.000000 -0.033636 0.000000
# 6 0.000000 0.000000 0.000000 -0.012671 0.000000 0.037814
#
#
# Mechanical properties :
#
#
# Convention : Reuss Voigt Hill
#
# Bulk Modulus (GPa) = 78.57058 46.36488 62.46773
# Shear Modulus (GPa) = 73.12537 29.96592 51.54564
#
# Velocity S-wave (km/s) = 5.38209 3.44533 4.51869
# Velocity P-wave (km/s) = 8.35142 5.84751 7.20901
#
# Compressibility (1/GPa) = 0.01272741
#
# Stress axis : x y z
#
# Youngs Moduli (GPa) = 75.77865 172.82786 305.53031
#
# Poissons Ratio (x) = 0.26778 0.37657
# Poissons Ratio (y) = 0.11741 0.60558
# Poissons Ratio (z) = 0.09340 0.34256
#
# Static dielectric constant tensor:
#      x y z
#    x 1.961070 0.000000 -0.070420 
#    y 0.000000 1.949310 0.000000 
#    z -0.070420 0.000000 2.125610 
# 
# From -- ./inp_files/37039.got.cif
#   From: 2010.05.17/outbox.cif.g08.bks.cpg/sg14_19_cif.got.tgz:37039.got - 2010.06.03 17:49:19.
