data_PCOD9242103
_publ_section_title
;
Structure prediction by ZEFSAII (Michael W. Deem and Ramdas Pophale) SiO2 
 PCOD9242103
Probable space group: P 21/C
;
_chemical_formula_sum "Si O2"
_cell_formula_units_Z 32
_cell_length_a 11.381133
_cell_length_b 8.339951
_cell_length_c 23.776732
_cell_angle_alpha 90.000000
_cell_angle_beta 135.488735
_cell_angle_gamma 90.000000
_cell_volume 1582.157937
_symmetry_space_group_name_H-M "P 21/C"
_symmetry_group_IT_number 14
_symmetry_cell_setting 'monoclinic'
loop_
_space_group_symop_operation_xyz
x,y,z
-x,1/2+y,1/2-z
-x,-y,-z
x,1/2-y,1/2+z
loop_
_atom_site_type_symbol
_atom_site_label
_atom_site_fract_x
_atom_site_fract_y
_atom_site_fract_z
Si Si1 0.353511 0.256433 0.716145
Si Si2 0.265571 0.371934 0.950714
Si Si3 0.963516 0.285721 0.291657
Si Si4 0.344135 0.240658 0.092554
Si Si5 0.589861 0.219693 0.487813
Si Si6 0.641879 0.378429 0.245507
Si Si7 0.434602 0.068703 0.846165
Si Si8 0.809528 0.089435 0.145467
O O1 0.258574 0.232585 0.624172
O O2 0.333259 0.437495 0.729730
O O3 0.545819 0.217953 0.762131
O O4 0.326105 0.131111 0.756643
O O5 0.307177 0.555502 0.978067
O O6 0.101707 0.342902 0.857693
O O7 0.246850 0.274473 0.002610
O O8 0.426589 0.305420 0.971582
O O9 0.809661 0.295662 0.282138
O O10 0.893061 0.237847 0.206677
O O11 0.053300 0.457106 0.322052
O O12 0.505016 0.360983 0.148605
O O13 0.428233 0.064926 0.123011
O O14 0.526043 0.280736 0.406064
O O15 0.704944 0.353619 0.556301
O O16 0.317359 0.990333 0.853261
#
# Coordination Sequence:
#
# PCOD9242103 Si02
#       8
#     4   4   4   4   4   4   4   4
#     4  10  21  39  67  92 115 168 223 258 306 373
#     4  11  22  40  62  92 129 168 211 263 317 372
#     4  12  25  38  62  92 138 163 199 268 330 379
#     4  10  19  39  64  87 120 161 213 263 295 372
#     4  11  23  39  64  92 123 173 221 249 306 393
#     4  10  21  40  62  93 118 165 214 264 311 370
#     4  12  20  37  67  90 122 161 214 264 297 374
#     4  12  24  41  58  97 133 169 202 257 329 380
#
# _framework density 20.225542000000001
#
# number of rings (size 3 to 8) (size 9 to 14) (size 15 to 20)
#    0.750    0.250    5.000    2.625    1.750    2.000 
#    0.000    0.625    0.000    3.750    0.000    0.000 
#    0.000    0.000    0.000    0.000    0.000    0.000 
#
# Total GULP energy -178635.832503 kJ/mol
# GULP energy per Si atom -5582.369766 kJ/mol
# Density = 2.017951 g / cm^3
# Si number density = 20.225542 Si / 1000 Ang^3
#
#
#
# Elastic Constant Matrix: (Units=GPa)
#
#
# Indices 1 2 3 4 5 6 
#
# 1 14.0113 8.1552 6.0047 0.0000 -6.4316 0.0000
# 2 8.1552 60.1695 -6.3204 0.0000 -5.4572 0.0000
# 3 6.0047 -6.3204 36.6609 0.0000 -7.7369 0.0000
# 4 0.0000 0.0000 0.0000 31.7489 0.0000 -12.8214
# 5 -6.4316 -5.4572 -7.7369 0.0000 30.5953 0.0000
# 6 0.0000 0.0000 0.0000 -12.8214 0.0000 23.7452
#
#
#
# Elastic Compliance Matrix: (Units=1/GPa)
#
#
# Indices 1 2 3 4 5 6 
#
# 1 0.090914 -0.012619 -0.014270 0.000000 0.013252 0.000000
# 2 -0.012619 0.019147 0.005840 0.000000 0.002239 0.000000
# 3 -0.014270 0.005840 0.031911 0.000000 0.006112 0.000000
# 4 0.000000 0.000000 0.000000 0.040281 0.000000 0.021750
# 5 0.013252 0.002239 0.006112 0.000000 0.037415 0.000000
# 6 0.000000 0.000000 0.000000 0.021750 0.000000 0.053858
#
#
# Mechanical properties :
#
#
# Convention : Reuss Voigt Hill
#
# Bulk Modulus (GPa) = 10.01254 14.05784 12.03519
# Shear Modulus (GPa) = 14.33019 24.08470 19.20745
#
# Velocity S-wave (km/s) = 2.66469 3.45455 3.08500
# Velocity P-wave (km/s) = 3.79850 4.78304 4.31892
#
# Compressibility (1/GPa) = 0.09987476
#
# Stress axis : x y z
#
# Youngs Moduli (GPa) = 10.99940 52.22838 31.33727
#
# Poissons Ratio (x) = 0.65908 0.44717
# Poissons Ratio (y) = 0.13880 -0.18302
# Poissons Ratio (z) = 0.15696 -0.30503
#
# Static dielectric constant tensor:
#      x y z
#    x 1.719160 0.000000 -0.027780 
#    y 0.000000 1.728140 0.000000 
#    z -0.027780 0.000000 1.715480 
# 
# From -- ./inp_files/73112.got.cif
#   From: 2010.05.17/outbox.cif.g08.bks.cpg/sg14_37_cif.got.tgz:73112.got - 2010.06.03 17:49:19.
