data_PCOD9242816
_publ_section_title
;
Structure prediction by ZEFSAII (Michael W. Deem and Ramdas Pophale) SiO2 
 PCOD9242816
Probable space group: P 21/C
;
_chemical_formula_sum "Si O2"
_cell_formula_units_Z 32
_cell_length_a 18.603095
_cell_length_b 15.650630
_cell_length_c 5.208809
_cell_angle_alpha 90.000000
_cell_angle_beta 62.652540
_cell_angle_gamma 90.000000
_cell_volume 1347.051895
_symmetry_space_group_name_H-M "P 21/C"
_symmetry_group_IT_number 14
_symmetry_cell_setting 'monoclinic'
loop_
_space_group_symop_operation_xyz
x,y,z
-x,1/2+y,1/2-z
-x,-y,-z
x,1/2-y,1/2+z
loop_
_atom_site_type_symbol
_atom_site_label
_atom_site_fract_x
_atom_site_fract_y
_atom_site_fract_z
Si Si1 0.620064 0.800267 0.536213
Si Si2 0.129396 0.310458 0.591930
Si Si3 0.338242 0.905023 0.433002
Si Si4 0.593920 0.976522 0.043749
Si Si5 0.777123 0.306738 0.219164
Si Si6 0.947890 0.194806 0.323194
Si Si7 0.527618 0.365688 0.982458
Si Si8 0.731254 0.553206 0.664347
O O1 0.644785 0.758887 0.759693
O O2 0.523799 0.814043 0.644181
O O3 0.667967 0.887586 0.423941
O O4 0.141387 0.253775 0.829799
O O5 0.188115 0.391793 0.483084
O O6 0.036205 0.342717 0.730401
O O7 0.296207 0.864535 0.255101
O O8 0.391850 0.836348 0.501354
O O9 0.272702 0.959280 0.702076
O O10 0.404156 0.974910 0.227424
O O11 0.541489 0.893342 0.197089
O O12 0.686333 0.955754 0.965571
O O13 0.561466 0.050075 0.286244
O O14 0.775352 0.230191 0.008550
O O15 0.864062 0.352135 0.027172
O O16 0.945058 0.273666 0.533243
#
# Coordination Sequence:
#
# PCOD9242816 Si02
#       8
#     4   4   4   4   4   4   4   4
#     4  11  25  39  58  85 119 154 193 250 298 334
#     4  10  20  35  62  90 121 159 202 241 281 344
#     4  11  23  37  65  82 119 157 199 241 305 353
#     4   9  20  38  57  77 111 154 196 235 295 352
#     4  10  23  41  63  89 120 150 197 251 300 350
#     4   8  16  35  59  85 115 157 194 234 292 351
#     4   9  21  38  56  79 106 154 200 239 284 358
#     4  10  23  37  56  89 120 158 197 237 295 359
#
# _framework density 23.755579000000001
#
# number of rings (size 3 to 8) (size 9 to 14) (size 15 to 20)
#    0.000    2.250    0.000    1.875   10.500    1.000 
#    0.000    0.625    0.000    0.750    0.000    0.000 
#    0.000    0.000    0.000    0.000    0.000    0.000 
#
# Total GULP energy -178701.167705 kJ/mol
# GULP energy per Si atom -5584.411491 kJ/mol
# Density = 2.370151 g / cm^3
# Si number density = 23.755579 Si / 1000 Ang^3
#
#
#
# Elastic Constant Matrix: (Units=GPa)
#
#
# Indices 1 2 3 4 5 6 
#
# 1 91.3572 14.4488 27.7364 0.0000 -8.8722 0.0000
# 2 14.4488 45.3411 19.1694 0.0000 -1.1981 0.0000
# 3 27.7364 19.1694 78.4217 0.0000 9.4163 0.0000
# 4 0.0000 0.0000 0.0000 26.2228 0.0000 12.0930
# 5 -8.8722 -1.1981 9.4163 0.0000 45.4705 0.0000
# 6 0.0000 0.0000 0.0000 12.0930 0.0000 29.3302
#
#
#
# Elastic Compliance Matrix: (Units=1/GPa)
#
#
# Indices 1 2 3 4 5 6 
#
# 1 0.012974 -0.002155 -0.004470 0.000000 0.003401 0.000000
# 2 -0.002155 0.025123 -0.005546 0.000000 0.001390 0.000000
# 3 -0.004470 -0.005546 0.016214 0.000000 -0.004376 0.000000
# 4 0.000000 0.000000 0.000000 0.047088 0.000000 -0.019415
# 5 0.003401 0.001390 -0.004376 0.000000 0.023599 0.000000
# 6 0.000000 0.000000 0.000000 -0.019415 0.000000 0.042099
#
#
# Mechanical properties :
#
#
# Convention : Reuss Voigt Hill
#
# Bulk Modulus (GPa) = 33.36760 37.53657 35.45209
# Shear Modulus (GPa) = 24.82264 30.45573 27.63919
#
# Velocity S-wave (km/s) = 3.23603 3.58445 3.41469
# Velocity P-wave (km/s) = 5.29521 5.74165 5.52294
#
# Compressibility (1/GPa) = 0.02996920
#
# Stress axis : x y z
#
# Youngs Moduli (GPa) = 77.07553 39.80397 61.67602
#
# Poissons Ratio (x) = 0.08576 0.27572
# Poissons Ratio (y) = 0.16607 0.34205
# Poissons Ratio (z) = 0.34456 0.22075
#
# Static dielectric constant tensor:
#      x y z
#    x 1.935200 0.000000 -0.012790 
#    y 0.000000 1.911760 0.000000 
#    z -0.012790 0.000000 1.957140 
# 
# From -- ./inp_files/4243.got.cif
#   From: 2010.05.17/outbox.cif.g08.bks.cpg/sg14_3_cif.got.tgz:4243.got - 2010.06.03 17:49:19.
