data_PCOD9242375
_publ_section_title
;
Structure prediction by ZEFSAII (Michael W. Deem and Ramdas Pophale) SiO2 
 PCOD9242375
Probable space group: P 21/C
;
_chemical_formula_sum "Si O2"
_cell_formula_units_Z 32
_cell_length_a 7.736742
_cell_length_b 15.153772
_cell_length_c 13.915231
_cell_angle_alpha 90.000000
_cell_angle_beta 46.305310
_cell_angle_gamma 90.000000
_cell_volume 1179.577024
_symmetry_space_group_name_H-M "P 21/C"
_symmetry_group_IT_number 14
_symmetry_cell_setting 'monoclinic'
loop_
_space_group_symop_operation_xyz
x,y,z
-x,1/2+y,1/2-z
-x,-y,-z
x,1/2-y,1/2+z
loop_
_atom_site_type_symbol
_atom_site_label
_atom_site_fract_x
_atom_site_fract_y
_atom_site_fract_z
Si Si1 0.099333 0.691675 0.562030
Si Si2 0.980205 0.009565 0.755227
Si Si3 0.344392 0.880422 0.499553
Si Si4 0.840521 0.675762 0.911829
Si Si5 0.671647 0.718651 0.185955
Si Si6 0.643741 0.504165 0.741120
Si Si7 0.802497 0.188599 0.190890
Si Si8 0.496363 0.568307 0.397881
O O1 0.213222 0.789834 0.523553
O O2 0.091009 0.663453 0.453345
O O3 0.300371 0.627672 0.527825
O O4 0.822185 0.710298 0.687688
O O5 0.154418 0.941000 0.630886
O O6 0.104255 0.033072 0.809485
O O7 0.719008 0.969352 0.870401
O O8 0.991472 0.095648 0.684553
O O9 0.583366 0.847536 0.464807
O O10 0.440644 0.942478 0.376051
O O11 0.809491 0.684637 0.038512
O O12 0.989700 0.765413 0.828291
O O13 0.418677 0.754517 0.243357
O O14 0.618330 0.640202 0.279426
O O15 0.663171 0.401344 0.768071
O O16 0.608113 0.501601 0.640277
#
# Coordination Sequence:
#
# PCOD9242375 Si02
#       8
#     4   4   4   4   4   4   4   4
#     4   9  19  31  49  78 101 135 179 209 259 316
#     4  11  20  32  54  81 110 132 171 220 269 312
#     4  11  19  32  52  83 109 129 170 229 265 306
#     4  10  21  32  53  83 103 137 174 210 268 317
#     4   9  16  35  50  71 106 133 174 211 253 314
#     4   9  20  33  48  75 111 136 166 209 263 316
#     4   9  19  35  50  74 106 145 169 205 268 317
#     4  10  20  32  51  75 104 145 169 208 271 308
#
# _framework density 27.128368999999999
#
# number of rings (size 3 to 8) (size 9 to 14) (size 15 to 20)
#    0.000    2.500    1.250    4.500    5.250    1.000 
#    0.000    0.000    0.000    0.750    3.250   15.750 
#    0.000    0.000    0.000    0.000    0.000    0.000 
#
# Total GULP energy -178801.847080 kJ/mol
# GULP energy per Si atom -5587.557721 kJ/mol
# Density = 2.706662 g / cm^3
# Si number density = 27.128369 Si / 1000 Ang^3
#
#
#
# Elastic Constant Matrix: (Units=GPa)
#
#
# Indices 1 2 3 4 5 6 
#
# 1 80.9121 43.7009 18.2092 0.0000 -5.3089 0.0000
# 2 43.7009 109.2866 24.5800 0.0000 -0.9769 0.0000
# 3 18.2092 24.5800 100.5188 0.0000 -7.1076 0.0000
# 4 0.0000 0.0000 0.0000 37.5131 0.0000 -2.3601
# 5 -5.3089 -0.9769 -7.1076 0.0000 39.0307 0.0000
# 6 0.0000 0.0000 0.0000 -2.3601 0.0000 40.5975
#
#
#
# Elastic Compliance Matrix: (Units=1/GPa)
#
#
# Indices 1 2 3 4 5 6 
#
# 1 0.016073 -0.006122 -0.001288 0.000000 0.001799 0.000000
# 2 -0.006122 0.012016 -0.001891 0.000000 -0.000876 0.000000
# 3 -0.001288 -0.001891 0.010767 0.000000 0.001738 0.000000
# 4 0.000000 0.000000 0.000000 0.026755 0.000000 0.001555
# 5 0.001799 -0.000876 0.001738 0.000000 0.026160 0.000000
# 6 0.000000 0.000000 0.000000 0.001555 0.000000 0.024722
#
#
# Mechanical properties :
#
#
# Convention : Reuss Voigt Hill
#
# Bulk Modulus (GPa) = 49.37047 51.52197 50.44622
# Shear Modulus (GPa) = 35.24949 37.04342 36.14646
#
# Velocity S-wave (km/s) = 3.60857 3.69926 3.65420
# Velocity P-wave (km/s) = 5.96664 6.10567 6.03655
#
# Compressibility (1/GPa) = 0.02025502
#
# Stress axis : x y z
#
# Youngs Moduli (GPa) = 62.21561 83.22490 92.87622
#
# Poissons Ratio (x) = 0.50947 0.11959
# Poissons Ratio (y) = 0.38086 0.17565
# Poissons Ratio (z) = 0.08011 0.15740
#
# Static dielectric constant tensor:
#      x y z
#    x 2.225590 0.000000 -0.022610 
#    y 0.000000 2.298060 0.000000 
#    z -0.022610 0.000000 2.178850 
# 
# From -- ./inp_files/65829.got.cif
#   From: 2010.05.17/outbox.cif.g08.bks.cpg/sg14_33_cif.got.tgz:65829.got - 2010.06.03 17:49:19.
