data_PCOD9242716
_publ_section_title
;
Structure prediction by ZEFSAII (Michael W. Deem and Ramdas Pophale) SiO2 
 PCOD9242716
Probable space group: P 21/C
;
_chemical_formula_sum "Si O2"
_cell_formula_units_Z 32
_cell_length_a 12.508150
_cell_length_b 10.354808
_cell_length_c 12.243166
_cell_angle_alpha 90.000000
_cell_angle_beta 79.556579
_cell_angle_gamma 90.000000
_cell_volume 1559.460065
_symmetry_space_group_name_H-M "P 21/C"
_symmetry_group_IT_number 14
_symmetry_cell_setting 'monoclinic'
loop_
_space_group_symop_operation_xyz
x,y,z
-x,1/2+y,1/2-z
-x,-y,-z
x,1/2-y,1/2+z
loop_
_atom_site_type_symbol
_atom_site_label
_atom_site_fract_x
_atom_site_fract_y
_atom_site_fract_z
Si Si1 0.770574 0.161994 0.857287
Si Si2 0.123576 0.485113 0.843649
Si Si3 0.643839 0.061312 0.071540
Si Si4 0.582856 0.328320 0.810227
Si Si5 0.122873 0.576487 0.086856
Si Si6 0.346414 0.037921 0.536044
Si Si7 0.345080 0.116294 0.303609
Si Si8 0.586945 0.666732 0.445570
O O1 0.833832 0.068858 0.764816
O O2 0.745269 0.106161 0.981695
O O3 0.657507 0.205385 0.820192
O O4 0.835677 0.292198 0.868498
O O5 0.213421 0.368516 0.839316
O O6 0.999026 0.446634 0.851140
O O7 0.122039 0.570696 0.954764
O O8 0.627187 0.912422 0.043043
O O9 0.637596 0.094833 0.199174
O O10 0.540584 0.140325 0.042530
O O11 0.591718 0.426120 0.910598
O O12 0.456427 0.300984 0.805602
O O13 0.219556 0.474739 0.093602
O O14 0.358071 0.015875 0.402684
O O15 0.383211 0.183325 0.556045
O O16 0.361541 0.098010 0.171144
#
# Coordination Sequence:
#
# PCOD9242716 Si02
#       8
#     4   4   4   4   4   4   4   4
#     4  11  20  38  63  84 116 158 190 242 298 351
#     4  10  20  39  60  81 114 153 198 238 290 339
#     4  10  21  37  54  88 119 155 192 240 294 358
#     4  10  22  35  58  90 121 147 193 242 293 356
#     4   9  22  39  59  87 111 150 207 244 280 348
#     4  10  21  36  57  83 119 154 191 245 291 344
#     4  10  20  35  57  86 111 158 194 230 291 360
#     4  10  21  35  54  83 124 154 191 238 293 353
#
# _framework density 20.519922999999999
#
# number of rings (size 3 to 8) (size 9 to 14) (size 15 to 20)
#    0.000    2.000    1.250    1.875    1.750    5.000 
#    0.000    0.000    0.000    3.750    0.000    0.000 
#    0.000    0.000    0.000    0.000    0.000    0.000 
#
# Total GULP energy -178184.513101 kJ/mol
# GULP energy per Si atom -5568.266034 kJ/mol
# Density = 2.047322 g / cm^3
# Si number density = 20.519923 Si / 1000 Ang^3
#
#
#
# Elastic Constant Matrix: (Units=GPa)
#
#
# Indices 1 2 3 4 5 6 
#
# 1 121.2918 34.0800 26.2932 0.0000 -34.2562 0.0000
# 2 34.0800 83.2474 39.8493 0.0000 -8.6930 0.0000
# 3 26.2932 39.8493 140.7374 0.0000 -20.2557 0.0000
# 4 0.0000 0.0000 0.0000 20.2521 0.0000 -4.0023
# 5 -34.2562 -8.6930 -20.2557 0.0000 34.9477 0.0000
# 6 0.0000 0.0000 0.0000 -4.0023 0.0000 7.2711
#
#
#
# Elastic Compliance Matrix: (Units=1/GPa)
#
#
# Indices 1 2 3 4 5 6 
#
# 1 0.012582 -0.004181 0.000500 0.000000 0.011583 0.000000
# 2 -0.004181 0.015338 -0.003930 0.000000 -0.002561 0.000000
# 3 0.000500 -0.003930 0.008788 0.000000 0.004606 0.000000
# 4 0.000000 0.000000 0.000000 0.055405 0.000000 0.030497
# 5 0.011583 -0.002561 0.004606 0.000000 0.042001 0.000000
# 6 0.000000 0.000000 0.000000 0.030497 0.000000 0.154318
#
#
# Mechanical properties :
#
#
# Convention : Reuss Voigt Hill
#
# Bulk Modulus (GPa) = 46.54189 60.63576 53.58882
# Shear Modulus (GPa) = 16.08669 28.83110 22.45890
#
# Velocity S-wave (km/s) = 2.80296 3.75244 3.31190
# Velocity P-wave (km/s) = 5.76246 6.95617 6.38726
#
# Compressibility (1/GPa) = 0.02148602
#
# Stress axis : x y z
#
# Youngs Moduli (GPa) = 79.47666 65.19772 113.79435
#
# Poissons Ratio (x) = 0.27258 -0.05692
# Poissons Ratio (y) = 0.33228 0.44726
# Poissons Ratio (z) = -0.03976 0.25625
#
# Static dielectric constant tensor:
#      x y z
#    x 1.772400 0.000000 0.007940 
#    y 0.000000 1.741900 0.000000 
#    z 0.007940 0.000000 1.766920 
# 
# From -- ./inp_files/29140.got.cif
#   From: 2010.05.17/outbox.cif.g08.bks.cpg/sg14_15_cif.got.tgz:29140.got - 2010.06.03 17:49:19.
