data_PCOD9242240
_publ_section_title
;
Structure prediction by ZEFSAII (Michael W. Deem and Ramdas Pophale) SiO2 
 PCOD9242240
Probable space group: P 21/C
;
_chemical_formula_sum "Si O2"
_cell_formula_units_Z 24
_cell_length_a 8.135133
_cell_length_b 16.364056
_cell_length_c 18.200325
_cell_angle_alpha 90.000000
_cell_angle_beta 31.227235
_cell_angle_gamma 90.000000
_cell_volume 1256.110506
_symmetry_space_group_name_H-M "P 21/C"
_symmetry_group_IT_number 14
_symmetry_cell_setting 'monoclinic'
loop_
_space_group_symop_operation_xyz
x,y,z
-x,1/2+y,1/2-z
-x,-y,-z
x,1/2-y,1/2+z
loop_
_atom_site_type_symbol
_atom_site_label
_atom_site_fract_x
_atom_site_fract_y
_atom_site_fract_z
Si Si1 0.275435 0.923341 0.679041
Si Si2 0.059624 0.511175 0.062377
Si Si3 0.725637 0.038894 0.823600
Si Si4 0.932162 0.842245 0.206446
Si Si5 0.730551 0.320252 0.957234
Si Si6 0.001188 0.498623 0.587261
O O1 0.302454 0.844612 0.616744
O O2 0.600105 0.973262 0.546167
O O3 0.983619 0.974659 0.756295
O O4 0.193485 0.926035 0.797213
O O5 0.074400 0.606075 0.079320
O O6 0.000000 0.500000 0.000000
O O7 0.799647 0.462696 0.208864
O O8 0.818613 0.121826 0.829162
O O9 0.367491 0.011784 0.970863
O O10 0.610002 0.820058 0.372554
O O11 0.086641 0.764651 0.108522
O O12 0.877526 0.916388 0.169770
O O13 0.000000 0.500000 0.500000
#
# Coordination Sequence:
#
# PCOD9242240 Si02
#       6
#     4   4   4   4   4   4
#     4  10  19  41  61  85 115 158 208 243 286 367
#     4  11  20  38  66  88 118 161 203 251 302 362
#     4  10  20  37  63  87 115 158 206 243 291 358
#     4  11  23  40  60  90 124 158 207 253 300 358
#     4  11  23  39  61  90 121 161 206 254 302 356
#     4  11  23  39  64  93 123 158 203 253 304 362
#
# _framework density 19.1066
#
# number of rings (size 3 to 8) (size 9 to 14) (size 15 to 20)
#    0.000    1.333    5.000    4.000    7.000    0.000 
#    0.000    3.333    0.000    0.000    0.000    0.000 
#    0.000    0.000    0.000    0.000    0.000    0.000 
#
# Total GULP energy -133864.194143 kJ/mol
# GULP energy per Si atom -5577.674756 kJ/mol
# Density = 1.906311 g / cm^3
# Si number density = 19.106600 Si / 1000 Ang^3
#
#
#
# Elastic Constant Matrix: (Units=GPa)
#
#
# Indices 1 2 3 4 5 6 
#
# 1 63.4396 18.1720 24.9791 0.0000 23.4426 0.0000
# 2 18.1720 62.1713 28.0620 0.0000 3.0590 0.0000
# 3 24.9791 28.0620 136.3869 0.0000 14.2736 0.0000
# 4 0.0000 0.0000 0.0000 32.7727 0.0000 0.3277
# 5 23.4426 3.0590 14.2736 0.0000 46.4088 0.0000
# 6 0.0000 0.0000 0.0000 0.3277 0.0000 11.8599
#
#
#
# Elastic Compliance Matrix: (Units=1/GPa)
#
#
# Indices 1 2 3 4 5 6 
#
# 1 0.021635 -0.004978 -0.001890 0.000000 -0.010019 0.000000
# 2 -0.004978 0.018877 -0.003208 0.000000 0.002257 0.000000
# 3 -0.001890 -0.003208 0.008490 0.000000 -0.001445 0.000000
# 4 0.000000 0.000000 0.000000 0.030522 0.000000 -0.000843
# 5 -0.010019 0.002257 -0.001445 0.000000 0.026904 0.000000
# 6 0.000000 0.000000 0.000000 -0.000843 0.000000 0.084341
#
#
# Mechanical properties :
#
#
# Convention : Reuss Voigt Hill
#
# Bulk Modulus (GPa) = 34.66249 44.93600 39.79924
# Shear Modulus (GPa) = 22.67192 30.92729 26.79960
#
# Velocity S-wave (km/s) = 3.44844 4.02763 3.74924
# Velocity P-wave (km/s) = 5.83410 6.72300 6.29426
#
# Compressibility (1/GPa) = 0.02884963
#
# Stress axis : x y z
#
# Youngs Moduli (GPa) = 46.22051 52.97541 117.79179
#
# Poissons Ratio (x) = 0.26370 0.22259
# Poissons Ratio (y) = 0.23008 0.37793
# Poissons Ratio (z) = 0.08734 0.16997
#
# Static dielectric constant tensor:
#      x y z
#    x 1.712290 0.000000 0.045430 
#    y 0.000000 1.662730 0.000000 
#    z 0.045430 0.000000 1.718830 
# 
# From -- ./inp_files/8595.got.cif
#   From: 2010.05.17/outbox.cif.g08.bks.cpg/sg14_5_cif.got.tgz:8595.got - 2010.06.03 17:49:19.
