data_PCOD9242838
_publ_section_title
;
Structure prediction by ZEFSAII (Michael W. Deem and Ramdas Pophale) SiO2 
 PCOD9242838
Probable space group: P 21/C
;
_chemical_formula_sum "Si O2"
_cell_formula_units_Z 32
_cell_length_a 29.480980
_cell_length_b 5.971454
_cell_length_c 17.360078
_cell_angle_alpha 90.000000
_cell_angle_beta 149.889964
_cell_angle_gamma 90.000000
_cell_volume 1533.151664
_symmetry_space_group_name_H-M "P 21/C"
_symmetry_group_IT_number 14
_symmetry_cell_setting 'monoclinic'
loop_
_space_group_symop_operation_xyz
x,y,z
-x,1/2+y,1/2-z
-x,-y,-z
x,1/2-y,1/2+z
loop_
_atom_site_type_symbol
_atom_site_label
_atom_site_fract_x
_atom_site_fract_y
_atom_site_fract_z
Si Si1 0.347703 0.049958 0.662186
Si Si2 0.032015 0.723789 0.327402
Si Si3 0.062023 0.398365 0.657726
Si Si4 0.618264 0.468185 0.507156
Si Si5 0.478604 0.815181 0.284841
Si Si6 0.763043 0.893959 0.102215
Si Si7 0.496531 0.815652 0.560673
Si Si8 0.182579 0.727407 0.938446
O O1 0.305864 0.213396 0.535918
O O2 0.420441 0.146924 0.828350
O O3 0.403176 0.856156 0.702009
O O4 0.261572 0.942749 0.575823
O O5 0.133245 0.700123 0.443837
O O6 0.992483 0.481980 0.236167
O O7 0.001985 0.717831 0.372168
O O8 0.141030 0.231519 0.743329
O O9 0.114236 0.595018 0.780926
O O10 0.000000 0.500000 0.500000
O O11 0.575978 0.716262 0.451517
O O12 0.547860 0.368656 0.340681
O O13 0.714641 0.491720 0.605559
O O14 0.594455 0.316657 0.546879
O O15 0.470525 0.042909 0.318079
O O16 0.780057 0.071326 0.058736
O O17 0.500000 0.000000 0.500000
#
# Coordination Sequence:
#
# PCOD9242838 Si02
#       8
#     4   4   4   4   4   4   4   4
#     4  10  20  35  64  93 122 170 220 269 328 393
#     4  10  20  40  67 101 128 179 229 280 350 435
#     4  10  23  40  66  97 135 170 215 285 362 423
#     4  11  20  33  64  92 118 169 225 269 320 401
#     4  11  19  36  63  90 117 166 223 259 311 398
#     4  11  20  38  65  94 125 161 225 281 327 408
#     4  11  24  38  60  91 137 173 216 279 339 394
#     4  10  20  37  69  92 128 169 227 273 332 422
#
# _framework density 20.872039000000001
#
# number of rings (size 3 to 8) (size 9 to 14) (size 15 to 20)
#    0.000    1.500    5.000    0.750    0.000    2.500 
#    0.000    0.000   16.500    0.000    0.000    0.000 
#    0.000    0.000    0.000    0.000    0.000    0.000 
#
# Total GULP energy -178145.746864 kJ/mol
# GULP energy per Si atom -5567.054589 kJ/mol
# Density = 2.082453 g / cm^3
# Si number density = 20.872039 Si / 1000 Ang^3
#
#
#
# Elastic Constant Matrix: (Units=GPa)
#
#
# Indices 1 2 3 4 5 6 
#
# 1 144.7778 44.3918 56.7753 0.0000 29.4091 0.0000
# 2 44.3918 74.2401 26.1620 0.0000 10.8366 0.0000
# 3 56.7753 26.1620 59.9848 0.0000 16.0889 0.0000
# 4 0.0000 0.0000 0.0000 12.0993 0.0000 8.1696
# 5 29.4091 10.8366 16.0889 0.0000 29.7457 0.0000
# 6 0.0000 0.0000 0.0000 8.1696 0.0000 44.4325
#
#
#
# Elastic Compliance Matrix: (Units=1/GPa)
#
#
# Indices 1 2 3 4 5 6 
#
# 1 0.012786 -0.003594 -0.008766 0.000000 -0.006590 0.000000
# 2 -0.003594 0.017073 -0.003894 0.000000 -0.000560 0.000000
# 3 -0.008766 -0.003894 0.028028 0.000000 -0.005074 0.000000
# 4 0.000000 0.000000 0.000000 0.094365 0.000000 -0.017350
# 5 -0.006590 -0.000560 -0.005074 0.000000 0.043082 0.000000
# 6 0.000000 0.000000 0.000000 -0.017350 0.000000 0.025696
#
#
# Mechanical properties :
#
#
# Convention : Reuss Voigt Hill
#
# Bulk Modulus (GPa) = 39.40640 59.29566 49.35103
# Shear Modulus (GPa) = 19.08416 27.36706 23.22561
#
# Velocity S-wave (km/s) = 3.02709 3.62495 3.33943
# Velocity P-wave (km/s) = 5.58020 6.78168 6.21007
#
# Compressibility (1/GPa) = 0.02537659
#
# Stress axis : x y z
#
# Youngs Moduli (GPa) = 78.21337 58.57221 35.67913
#
# Poissons Ratio (x) = 0.21050 0.31278
# Poissons Ratio (y) = 0.28109 0.13895
# Poissons Ratio (z) = 0.68565 0.22810
#
# Static dielectric constant tensor:
#      x y z
#    x 1.809380 0.000000 0.017080 
#    y 0.000000 1.875200 0.000000 
#    z 0.017080 0.000000 1.742630 
# 
# From -- ./inp_files/62504.got.cif
#   From: 2010.05.17/outbox.cif.g08.bks.cpg/sg14_32_cif.got.tgz:62504.got - 2010.06.03 17:49:19.
