data_PCOD9242647
_publ_section_title
;
Structure prediction by ZEFSAII (Michael W. Deem and Ramdas Pophale) SiO2 
 PCOD9242647
Probable space group: P 21/C
;
_chemical_formula_sum "Si O2"
_cell_formula_units_Z 24
_cell_length_a 7.868884
_cell_length_b 16.538511
_cell_length_c 8.361623
_cell_angle_alpha 90.000000
_cell_angle_beta 53.835391
_cell_angle_gamma 90.000000
_cell_volume 878.513656
_symmetry_space_group_name_H-M "P 21/C"
_symmetry_group_IT_number 14
_symmetry_cell_setting 'monoclinic'
loop_
_space_group_symop_operation_xyz
x,y,z
-x,1/2+y,1/2-z
-x,-y,-z
x,1/2-y,1/2+z
loop_
_atom_site_type_symbol
_atom_site_label
_atom_site_fract_x
_atom_site_fract_y
_atom_site_fract_z
Si Si1 0.714990 0.243839 0.984263
Si Si2 0.276344 0.590036 0.728591
Si Si3 0.101632 0.629311 0.336943
Si Si4 0.416423 0.973780 0.815389
Si Si5 0.818855 0.636855 0.017701
Si Si6 0.259021 0.189674 0.801389
O O1 0.681099 0.180930 0.856848
O O2 0.805201 0.185333 0.070575
O O3 0.853746 0.317952 0.842939
O O4 0.499946 0.285528 0.152549
O O5 0.446271 0.555229 0.758096
O O6 0.307306 0.537560 0.549052
O O7 0.035524 0.588274 0.918569
O O8 0.239826 0.548084 0.280489
O O9 0.853725 0.627857 0.511983
O O10 0.607277 0.908540 0.689011
O O11 0.831663 0.722971 0.096525
O O12 0.803140 0.657648 0.838558
#
# Coordination Sequence:
#
# PCOD9242647 Si02
#       6
#     4   4   4   4   4   4
#     4  11  20  35  56  83 110 143 182 229 277 322
#     4  10  20  35  54  83 115 143 183 232 279 323
#     4  11  20  35  56  83 110 143 182 229 277 322
#     4  10  20  35  54  83 115 143 183 232 279 323
#     4  12  21  34  58  88 111 146 184 232 275 330
#     4  12  20  34  54  86 114 140 190 224 278 324
#
# _framework density 27.31887
#
# number of rings (size 3 to 8) (size 9 to 14) (size 15 to 20)
#    0.000    1.000   10.000    0.500    0.000    0.000 
#    0.000    0.000    0.000    1.000    0.000    8.167 
#    0.000    0.000    0.000    0.000    0.000    0.000 
#
# Total GULP energy -134464.962415 kJ/mol
# GULP energy per Si atom -5602.706767 kJ/mol
# Density = 2.725669 g / cm^3
# Si number density = 27.318870 Si / 1000 Ang^3
#
#
#
# Elastic Constant Matrix: (Units=GPa)
#
#
# Indices 1 2 3 4 5 6 
#
# 1 74.9744 9.8636 37.3716 0.0000 -27.2739 0.0000
# 2 9.8636 98.9763 11.9017 0.0000 -0.6306 0.0000
# 3 37.3716 11.9017 115.6255 0.0000 -37.0951 0.0000
# 4 0.0000 0.0000 0.0000 32.6678 0.0000 -1.0824
# 5 -27.2739 -0.6306 -37.0951 0.0000 44.2940 0.0000
# 6 0.0000 0.0000 0.0000 -1.0824 0.0000 44.1439
#
#
#
# Elastic Compliance Matrix: (Units=1/GPa)
#
#
# Indices 1 2 3 4 5 6 
#
# 1 0.018148 -0.001401 -0.002930 0.000000 0.008701 0.000000
# 2 -0.001401 0.010371 -0.001154 0.000000 -0.001682 0.000000
# 3 -0.002930 -0.001154 0.012485 0.000000 0.008635 0.000000
# 4 0.000000 0.000000 0.000000 0.030636 0.000000 0.000751
# 5 0.008701 -0.001682 0.008635 0.000000 0.035142 0.000000
# 6 0.000000 0.000000 0.000000 0.000751 0.000000 0.022672
#
#
# Mechanical properties :
#
#
# Convention : Reuss Voigt Hill
#
# Bulk Modulus (GPa) = 33.29615 45.31666 39.30641
# Shear Modulus (GPa) = 33.23712 39.58375 36.41043
#
# Velocity S-wave (km/s) = 3.49181 3.81064 3.65471
# Velocity P-wave (km/s) = 5.33587 5.99878 5.67701
#
# Compressibility (1/GPa) = 0.03003350
#
# Stress axis : x y z
#
# Youngs Moduli (GPa) = 55.10322 96.42166 80.09761
#
# Poissons Ratio (x) = 0.13506 0.23469
# Poissons Ratio (y) = 0.07719 0.09245
# Poissons Ratio (z) = 0.16145 0.11130
#
# Static dielectric constant tensor:
#      x y z
#    x 2.184910 0.000000 -0.024120 
#    y 0.000000 2.119220 0.000000 
#    z -0.024120 0.000000 2.078060 
# 
# From -- ./inp_files/10136.got.cif
#   From: 2010.05.17/outbox.cif.g08.bks.cpg/sg14_6_cif.got.tgz:10136.got - 2010.06.03 17:49:19.
