data_PCOD9242402
_publ_section_title
;
Structure prediction by ZEFSAII (Michael W. Deem and Ramdas Pophale) SiO2 
 PCOD9242402
Probable space group: P 21/C
;
_chemical_formula_sum "Si O2"
_cell_formula_units_Z 24
_cell_length_a 31.988180
_cell_length_b 5.289655
_cell_length_c 21.433536
_cell_angle_alpha 90.000000
_cell_angle_beta 19.165451
_cell_angle_gamma 90.000000
_cell_volume 1190.632669
_symmetry_space_group_name_H-M "P 21/C"
_symmetry_group_IT_number 14
_symmetry_cell_setting 'monoclinic'
loop_
_space_group_symop_operation_xyz
x,y,z
-x,1/2+y,1/2-z
-x,-y,-z
x,1/2-y,1/2+z
loop_
_atom_site_type_symbol
_atom_site_label
_atom_site_fract_x
_atom_site_fract_y
_atom_site_fract_z
Si Si1 0.225988 0.666563 0.768126
Si Si2 0.369326 0.368182 0.349777
Si Si3 0.483078 0.750628 0.482540
Si Si4 0.626351 0.247654 0.057469
Si Si5 0.928706 0.689702 0.531235
Si Si6 0.164125 0.391945 0.207616
O O1 0.343946 0.721924 0.647355
O O2 0.293404 0.589586 0.606865
O O3 0.134988 0.429907 0.911877
O O4 0.146348 0.927213 0.876659
O O5 0.415968 0.294087 0.215864
O O6 0.484998 0.263416 0.230446
O O7 0.370605 0.653123 0.375564
O O8 0.227397 0.272284 0.564664
O O9 0.500000 0.500000 0.500000
O O10 0.500000 0.000000 0.500000
O O11 0.709035 0.500212 0.938623
O O12 0.917217 0.735211 0.622496
O O13 0.074944 0.621840 0.310827
#
# Coordination Sequence:
#
# PCOD9242402 Si02
#       6
#     4   4   4   4   4   4
#     4  10  21  39  61  85 125 156 197 247 299 367
#     4  11  21  35  60  88 129 152 199 259 305 371
#     4  11  26  43  64  89 116 164 212 257 306 357
#     4  10  20  32  57  91 122 152 188 243 323 352
#     4  10  21  35  57  92 128 160 189 236 301 380
#     4  10  21  32  55  91 129 158 192 235 308 383
#
# _framework density 20.157350000000001
#
# number of rings (size 3 to 8) (size 9 to 14) (size 15 to 20)
#    0.000    1.667    3.333    1.000    4.667    2.000 
#    0.000    0.000    0.000    4.000    0.000    0.000 
#    0.000    0.000    0.000    0.000    0.000    0.000 
#
# Total GULP energy -133634.180580 kJ/mol
# GULP energy per Si atom -5568.090857 kJ/mol
# Density = 2.011147 g / cm^3
# Si number density = 20.157350 Si / 1000 Ang^3
#
#
#
# Elastic Constant Matrix: (Units=GPa)
#
#
# Indices 1 2 3 4 5 6 
#
# 1 81.2984 37.8400 23.9730 0.0000 5.6137 0.0000
# 2 37.8400 111.0911 33.9197 0.0000 2.4469 0.0000
# 3 23.9730 33.9197 95.4078 0.0000 -2.6983 0.0000
# 4 0.0000 0.0000 0.0000 36.9979 0.0000 -10.2449
# 5 5.6137 2.4469 -2.6983 0.0000 27.0979 0.0000
# 6 0.0000 0.0000 0.0000 -10.2449 0.0000 30.4695
#
#
#
# Elastic Compliance Matrix: (Units=1/GPa)
#
#
# Indices 1 2 3 4 5 6 
#
# 1 0.015254 -0.004413 -0.002349 0.000000 -0.002995 0.000000
# 2 -0.004413 0.011418 -0.002962 0.000000 -0.000412 0.000000
# 3 -0.002349 -0.002962 0.012180 0.000000 0.001967 0.000000
# 4 0.000000 0.000000 0.000000 0.029803 0.000000 0.010021
# 5 -0.002995 -0.000412 0.001967 0.000000 0.037757 0.000000
# 6 0.000000 0.000000 0.000000 0.010021 0.000000 0.036189
#
#
# Mechanical properties :
#
#
# Convention : Reuss Voigt Hill
#
# Bulk Modulus (GPa) = 51.53350 53.25140 52.39245
# Shear Modulus (GPa) = 29.67062 31.71738 30.69400
#
# Velocity S-wave (km/s) = 3.84076 3.97103 3.90644
# Velocity P-wave (km/s) = 6.72976 6.89207 6.81140
#
# Compressibility (1/GPa) = 0.01940485
#
# Stress axis : x y z
#
# Youngs Moduli (GPa) = 65.55833 87.57941 82.09991
#
# Poissons Ratio (x) = 0.38645 0.19283
# Poissons Ratio (y) = 0.28928 0.24321
# Poissons Ratio (z) = 0.15398 0.25944
#
# Static dielectric constant tensor:
#      x y z
#    x 1.724550 0.000000 0.020680 
#    y 0.000000 1.913770 0.000000 
#    z 0.020680 0.000000 1.779300 
# 
# From -- ./inp_files/70613.got.cif
#   From: 2010.05.17/outbox.cif.g08.bks.cpg/sg14_36_cif.got.tgz:70613.got - 2010.06.03 17:49:19.
