data_PCOD9242004
_publ_section_title
;
Structure prediction by ZEFSAII (Michael W. Deem and Ramdas Pophale) SiO2 
 PCOD9242004
Probable space group: P 21/C
;
_chemical_formula_sum "Si O2"
_cell_formula_units_Z 20
_cell_length_a 7.119940
_cell_length_b 9.333039
_cell_length_c 15.085448
_cell_angle_alpha 90.000000
_cell_angle_beta 133.646682
_cell_angle_gamma 90.000000
_cell_volume 725.374087
_symmetry_space_group_name_H-M "P 21/C"
_symmetry_group_IT_number 14
_symmetry_cell_setting 'monoclinic'
loop_
_space_group_symop_operation_xyz
x,y,z
-x,1/2+y,1/2-z
-x,-y,-z
x,1/2-y,1/2+z
loop_
_atom_site_type_symbol
_atom_site_label
_atom_site_fract_x
_atom_site_fract_y
_atom_site_fract_z
Si Si1 0.489869 0.884391 0.919031
Si Si2 0.635608 0.873495 0.253653
Si Si3 0.679287 0.622509 0.965496
Si Si4 0.941634 0.403588 0.395918
Si Si5 0.757143 0.599224 0.184285
O O1 0.401402 0.721893 0.896026
O O2 0.407456 0.972448 0.806838
O O3 0.789206 0.817049 0.015850
O O4 0.500000 0.000000 0.000000
O O5 0.777941 0.866901 0.393926
O O6 0.334157 0.831362 0.179077
O O7 0.744701 0.759679 0.219283
O O8 0.527282 0.468192 0.903109
O O9 0.838251 0.591422 0.108797
O O10 0.932358 0.507373 0.308316
O O11 0.000000 0.500000 0.500000
#
# Coordination Sequence:
#
# PCOD9242004 Si02
#       5
#     4   4   4   4   4
#     4  11  21  40  63  90 121 168 209 246 307 377
#     4  10  19  38  65  86 120 162 199 255 312 367
#     4  10  20  36  61  86 122 157 204 249 310 362
#     4   9  20  37  60  87 121 160 202 248 302 368
#     4  10  20  38  61  88 122 158 200 261 306 360
#
# _framework density 27.571981000000001
#
# number of rings (size 3 to 8) (size 9 to 14) (size 15 to 20)
#    0.000    2.000    2.000    3.600    0.000    0.000 
#    7.200    1.000    0.000    0.000    0.000    0.000 
#    0.000    0.000    0.000    0.000    0.000    0.000 
#
# Total GULP energy -111573.144365 kJ/mol
# GULP energy per Si atom -5578.657218 kJ/mol
# Density = 2.750923 g / cm^3
# Si number density = 27.571981 Si / 1000 Ang^3
#
#
#
# Elastic Constant Matrix: (Units=GPa)
#
#
# Indices 1 2 3 4 5 6 
#
# 1 57.8332 6.3947 55.0401 0.0000 3.5897 0.0000
# 2 6.3947 110.7038 56.1844 0.0000 -17.4044 0.0000
# 3 55.0401 56.1844 224.5660 0.0000 -56.3656 0.0000
# 4 0.0000 0.0000 0.0000 65.0003 0.0000 -27.0787
# 5 3.5897 -17.4044 -56.3656 0.0000 62.8738 0.0000
# 6 0.0000 0.0000 0.0000 -27.0787 0.0000 35.4524
#
#
#
# Elastic Compliance Matrix: (Units=1/GPa)
#
#
# Indices 1 2 3 4 5 6 
#
# 1 0.026505 0.001703 -0.009270 0.000000 -0.009352 0.000000
# 2 0.001703 0.010480 -0.003014 0.000000 0.000102 0.000000
# 3 -0.009270 -0.003014 0.009552 0.000000 0.008258 0.000000
# 4 0.000000 0.000000 0.000000 0.022564 0.000000 0.017235
# 5 -0.009352 0.000102 0.008258 0.000000 0.023870 0.000000
# 6 0.000000 0.000000 0.000000 0.017235 0.000000 0.041371
#
#
# Mechanical properties :
#
#
# Convention : Reuss Voigt Hill
#
# Bulk Modulus (GPa) = 39.40648 69.81570 54.61109
# Shear Modulus (GPa) = 30.49464 51.03089 40.76277
#
# Velocity S-wave (km/s) = 3.32927 4.30679 3.84918
# Velocity P-wave (km/s) = 5.39462 7.07866 6.29323
#
# Compressibility (1/GPa) = 0.02537653
#
# Stress axis : x y z
#
# Youngs Moduli (GPa) = 37.72810 95.41620 104.69159
#
# Poissons Ratio (x) = -0.16252 0.97048
# Poissons Ratio (y) = -0.06426 0.31554
# Poissons Ratio (z) = 0.34973 0.28758
#
# Static dielectric constant tensor:
#      x y z
#    x 2.465830 0.000000 0.197460 
#    y 0.000000 2.191240 0.000000 
#    z 0.197460 0.000000 2.262340 
# 
# From -- ./inp_files/39875.got.cif
#   From: 2010.05.17/outbox.cif.g08.bks.cpg/sg14_20_cif.got.tgz:39875.got - 2010.06.03 17:49:19.
