data_PCOD9242193
_publ_section_title
;
Structure prediction by ZEFSAII (Michael W. Deem and Ramdas Pophale) SiO2 
 PCOD9242193
Probable space group: P 21/C
;
_chemical_formula_sum "Si O2"
_cell_formula_units_Z 32
_cell_length_a 11.937431
_cell_length_b 16.446134
_cell_length_c 12.453598
_cell_angle_alpha 90.000000
_cell_angle_beta 143.149796
_cell_angle_gamma 90.000000
_cell_volume 1466.296125
_symmetry_space_group_name_H-M "P 21/C"
_symmetry_group_IT_number 14
_symmetry_cell_setting 'monoclinic'
loop_
_space_group_symop_operation_xyz
x,y,z
-x,1/2+y,1/2-z
-x,-y,-z
x,1/2-y,1/2+z
loop_
_atom_site_type_symbol
_atom_site_label
_atom_site_fract_x
_atom_site_fract_y
_atom_site_fract_z
Si Si1 0.516769 0.364231 0.047070
Si Si2 0.813017 0.363243 0.012090
Si Si3 0.947686 0.379019 0.337457
Si Si4 0.522337 0.716171 0.335362
Si Si5 0.719799 0.542528 0.515471
Si Si6 0.244843 0.219821 0.184323
Si Si7 0.164656 0.396724 0.172921
Si Si8 0.616639 0.532887 0.856253
O O1 0.730748 0.394185 0.198426
O O2 0.520089 0.274087 0.099430
O O3 0.417746 0.419567 0.060175
O O4 0.384840 0.347843 0.842392
O O5 0.932761 0.338126 0.207500
O O6 0.942828 0.387564 0.012414
O O7 0.671620 0.293551 0.874955
O O8 0.697885 0.444816 0.948811
O O9 0.096617 0.449961 0.420101
O O10 0.050232 0.323784 0.504619
O O11 0.602483 0.626881 0.420551
O O12 0.669958 0.749652 0.363419
O O13 0.777276 0.542673 0.684963
O O14 0.578087 0.476732 0.359023
O O15 0.227335 0.302542 0.238298
O O16 0.240944 0.427650 0.119010
#
# Coordination Sequence:
#
# PCOD9242193 Si02
#       8
#     4   4   4   4   4   4   4   4
#     4  12  23  41  67  97 130 161 222 270 312 382
#     4  10  22  41  64  90 130 176 211 257 329 387
#     4  10  23  42  64  93 125 170 212 255 327 379
#     4  10  19  40  63  92 128 165 207 261 329 375
#     4   9  21  40  63  88 130 171 206 258 326 384
#     4  11  22  41  67  99 124 167 212 270 320 380
#     4  11  20  40  67  92 134 164 217 269 319 379
#     4  11  24  39  63  97 126 174 218 265 313 380
#
# _framework density 21.823696000000002
#
# number of rings (size 3 to 8) (size 9 to 14) (size 15 to 20)
#    0.000    1.500    3.750    1.500    0.000    1.000 
#    4.500    0.000    0.000    0.000    0.000    0.000 
#    0.000    0.000    0.000    0.000    0.000    0.000 
#
# Total GULP energy -178405.162178 kJ/mol
# GULP energy per Si atom -5575.161318 kJ/mol
# Density = 2.177402 g / cm^3
# Si number density = 21.823696 Si / 1000 Ang^3
#
#
#
# Elastic Constant Matrix: (Units=GPa)
#
#
# Indices 1 2 3 4 5 6 
#
# 1 103.2891 12.0808 13.1901 0.0000 6.8812 0.0000
# 2 12.0808 37.5464 12.6995 0.0000 -1.3064 0.0000
# 3 13.1901 12.6995 80.5910 0.0000 6.0212 0.0000
# 4 0.0000 0.0000 0.0000 11.5188 0.0000 -8.8061
# 5 6.8812 -1.3064 6.0212 0.0000 29.8005 0.0000
# 6 0.0000 0.0000 0.0000 -8.8061 0.0000 11.0765
#
#
#
# Elastic Compliance Matrix: (Units=1/GPa)
#
#
# Indices 1 2 3 4 5 6 
#
# 1 0.010325 -0.003052 -0.001036 0.000000 -0.002308 0.000000
# 2 -0.003052 0.029173 -0.004311 0.000000 0.002855 0.000000
# 3 -0.001036 -0.004311 0.013457 0.000000 -0.002669 0.000000
# 4 0.000000 0.000000 0.000000 0.221346 0.000000 0.175975
# 5 -0.002308 0.002855 -0.002669 0.000000 0.034754 0.000000
# 6 0.000000 0.000000 0.000000 0.175975 0.000000 0.230186
#
#
# Mechanical properties :
#
#
# Convention : Reuss Voigt Hill
#
# Bulk Modulus (GPa) = 27.65779 33.04082 30.34931
# Shear Modulus (GPa) = 8.80141 22.70957 15.75549
#
# Velocity S-wave (km/s) = 2.01040 3.22932 2.68982
# Velocity P-wave (km/s) = 4.25321 5.39235 4.85629
#
# Compressibility (1/GPa) = 0.03615617
#
# Stress axis : x y z
#
# Youngs Moduli (GPa) = 96.85564 34.27818 74.31279
#
# Poissons Ratio (x) = 0.10461 0.07702
# Poissons Ratio (y) = 0.29558 0.32035
# Poissons Ratio (z) = 0.10039 0.14777
#
# Static dielectric constant tensor:
#      x y z
#    x 1.820970 0.000000 -0.004040 
#    y 0.000000 1.825040 0.000000 
#    z -0.004040 0.000000 1.850560 
# 
# From -- ./inp_files/30452.got.cif
#   From: 2010.05.17/outbox.cif.g08.bks.cpg/sg14_16_cif.got.tgz:30452.got - 2010.06.03 17:49:19.
