data_PCOD9242809
_publ_section_title
;
Structure prediction by ZEFSAII (Michael W. Deem and Ramdas Pophale) SiO2 
 PCOD9242809
Probable space group: P 21/C
;
_chemical_formula_sum "Si O2"
_cell_formula_units_Z 30
_cell_length_a 12.605304
_cell_length_b 15.228428
_cell_length_c 8.397928
_cell_angle_alpha 90.000000
_cell_angle_beta 44.174471
_cell_angle_gamma 90.000000
_cell_volume 1123.355224
_symmetry_space_group_name_H-M "P 21/C"
_symmetry_group_IT_number 14
_symmetry_cell_setting 'monoclinic'
loop_
_space_group_symop_operation_xyz
x,y,z
-x,1/2+y,1/2-z
-x,-y,-z
x,1/2-y,1/2+z
loop_
_atom_site_type_symbol
_atom_site_label
_atom_site_fract_x
_atom_site_fract_y
_atom_site_fract_z
Si Si1 0.760016 0.633094 0.752977
Si Si2 0.845831 0.238340 0.640066
Si Si3 0.044796 0.879466 0.226659
Si Si4 0.418113 0.006491 0.342600
Si Si5 0.360983 0.816195 0.394976
Si Si6 0.000000 0.000000 0.000000
Si Si7 0.701194 0.795742 0.982670
Si Si8 0.264587 0.486023 0.660801
O O1 0.699059 0.690085 0.672879
O O2 0.881464 0.566791 0.544103
O O3 0.630312 0.577769 0.979175
O O4 0.798125 0.709543 0.839354
O O5 0.878639 0.330697 0.512919
O O6 0.971023 0.201182 0.629057
O O7 0.783724 0.177051 0.567186
O O8 0.697597 0.249013 0.911521
O O9 0.947638 0.950295 0.228388
O O10 0.138627 0.945236 0.241594
O O11 0.328224 0.010508 0.271755
O O12 0.382501 0.910741 0.449580
O O13 0.593476 0.009364 0.106629
O O14 0.519667 0.790800 0.140396
O O15 0.768118 0.883221 0.831673
#
# Coordination Sequence:
#
# PCOD9242809 Si02
#       8
#     4   4   4   4   4   2   4   4
#     4  12  26  45  69 102 141 192 249 301 361 431
#     4  10  22  37  68 100 138 175 229 292 358 426
#     4  11  23  45  68  99 137 186 241 299 351 426
#     4  10  22  38  67 105 148 185 222 286 364 446
#     4  10  20  35  62 103 141 175 215 282 364 444
#     4  12  28  50  70  90 136 192 256 304 350 416
#     4  11  24  39  67 101 138 184 232 294 367 443
#     4  10  21  41  67 106 149 183 226 286 372 443
#
# _framework density 26.705711999999998
#
# number of rings (size 3 to 8) (size 9 to 14) (size 15 to 20)
#    0.000    1.333    2.667    2.400    5.600    2.133 
#    0.000    0.667    0.000    0.000    0.000    0.000 
#    0.000    0.000    0.000    0.000    0.000    0.000 
#
# Total GULP energy -167122.860534 kJ/mol
# GULP energy per Si atom -5570.762018 kJ/mol
# Density = 2.664493 g / cm^3
# Si number density = 26.705712 Si / 1000 Ang^3
#
#
#
# Elastic Constant Matrix: (Units=GPa)
#
#
# Indices 1 2 3 4 5 6 
#
# 1 73.3339 -10.6919 13.8742 0.0000 18.5606 0.0000
# 2 -10.6919 118.9595 61.0312 0.0000 -6.2281 0.0000
# 3 13.8742 61.0312 76.6469 0.0000 -5.4857 0.0000
# 4 0.0000 0.0000 0.0000 53.6090 0.0000 9.6715
# 5 18.5606 -6.2281 -5.4857 0.0000 19.2724 0.0000
# 6 0.0000 0.0000 0.0000 9.6715 0.0000 33.7834
#
#
#
# Elastic Compliance Matrix: (Units=1/GPa)
#
#
# Indices 1 2 3 4 5 6 
#
# 1 0.022233 0.006277 -0.010626 0.000000 -0.022409 0.000000
# 2 0.006277 0.016021 -0.014246 0.000000 -0.004923 0.000000
# 3 -0.010626 -0.014246 0.027272 0.000000 0.013393 0.000000
# 4 0.000000 0.000000 0.000000 0.019669 0.000000 -0.005631
# 5 -0.022409 -0.004923 0.013393 0.000000 0.075690 0.000000
# 6 0.000000 0.000000 0.000000 -0.005631 0.000000 0.031212
#
#
# Mechanical properties :
#
#
# Convention : Reuss Voigt Hill
#
# Bulk Modulus (GPa) = 35.29015 44.15191 39.72103
# Shear Modulus (GPa) = 20.94374 34.98141 27.96258
#
# Velocity S-wave (km/s) = 2.80347 3.62316 3.23935
# Velocity P-wave (km/s) = 4.87057 5.83710 5.37560
#
# Compressibility (1/GPa) = 0.02833652
#
# Stress axis : x y z
#
# Youngs Moduli (GPa) = 44.97737 62.41689 36.66729
#
# Poissons Ratio (x) = -0.39179 0.38964
# Poissons Ratio (y) = -0.28232 0.52235
# Poissons Ratio (z) = 0.47795 0.88917
#
# Static dielectric constant tensor:
#      x y z
#    x 1.577350 0.000000 1.033020 
#    y 0.000000 2.140100 0.000000 
#    z 1.033020 0.000000 0.603170 
# 
# From -- ./inp_files/16219.got.cif
#   From: 2010.05.17/outbox.cif.g08.bks.cpg/sg14_9_cif.got.tgz:16219.got - 2010.06.03 17:49:19.
