data_PCOD9242179
_publ_section_title
;
Structure prediction by ZEFSAII (Michael W. Deem and Ramdas Pophale) SiO2 
 PCOD9242179
Probable space group: P 21/C
;
_chemical_formula_sum "Si O2"
_cell_formula_units_Z 32
_cell_length_a 32.657214
_cell_length_b 7.561030
_cell_length_c 12.399474
_cell_angle_alpha 90.000000
_cell_angle_beta 25.050928
_cell_angle_gamma 90.000000
_cell_volume 1296.398424
_symmetry_space_group_name_H-M "P 21/C"
_symmetry_group_IT_number 14
_symmetry_cell_setting 'monoclinic'
loop_
_space_group_symop_operation_xyz
x,y,z
-x,1/2+y,1/2-z
-x,-y,-z
x,1/2-y,1/2+z
loop_
_atom_site_type_symbol
_atom_site_label
_atom_site_fract_x
_atom_site_fract_y
_atom_site_fract_z
Si Si1 0.501360 0.234923 0.811469
Si Si2 0.762126 0.322641 0.404994
Si Si3 0.854180 0.980768 0.874260
Si Si4 0.635925 0.960732 0.486184
Si Si5 0.644113 0.072543 0.831426
Si Si6 0.071399 0.765031 0.651402
Si Si7 0.702196 0.606571 0.414348
Si Si8 0.084748 0.338995 0.151965
O O1 0.568060 0.275485 0.545504
O O2 0.590991 0.129106 0.655520
O O3 0.435500 0.409365 0.944618
O O4 0.417665 0.100234 0.048915
O O5 0.837541 0.431481 0.299144
O O6 0.719471 0.157774 0.571103
O O7 0.683598 0.467913 0.553426
O O8 0.823770 0.262241 0.155956
O O9 0.744456 0.985263 0.184809
O O10 0.893682 0.782917 0.795983
O O11 0.924617 0.105661 0.774629
O O12 0.638842 0.781787 0.551349
O O13 0.692143 0.004965 0.827964
O O14 0.993993 0.737607 0.741861
O O15 0.060416 0.956938 0.731627
O O16 0.813273 0.664727 0.155519
#
# Coordination Sequence:
#
# PCOD9242179 Si02
#       8
#     4   4   4   4   4   4   4   4
#     4   9  18  34  66  85 117 166 208 253 316 381
#     4  11  22  37  65  95 122 167 214 260 307 381
#     4  11  22  42  68  87 131 174 204 259 326 371
#     4   9  18  36  63  87 114 168 209 249 319 369
#     4  10  19  40  62  87 123 167 206 255 326 365
#     4  11  23  43  66  94 129 165 213 260 313 377
#     4   9  21  39  61  88 129 165 207 257 317 380
#     4  10  21  41  65  89 123 172 207 253 316 375
#
# _framework density 24.683772000000001
#
# number of rings (size 3 to 8) (size 9 to 14) (size 15 to 20)
#    0.000    2.000    2.500    1.500    0.000    0.500 
#    0.000   23.750    0.000    0.000    0.000    0.000 
#    0.000    0.000    0.000    0.000    0.000    0.000 
#
# Total GULP energy -178230.263044 kJ/mol
# GULP energy per Si atom -5569.695720 kJ/mol
# Density = 2.462759 g / cm^3
# Si number density = 24.683772 Si / 1000 Ang^3
#
#
#
# Elastic Constant Matrix: (Units=GPa)
#
#
# Indices 1 2 3 4 5 6 
#
# 1 41.7831 12.0153 19.5178 0.0000 -4.5139 0.0000
# 2 12.0153 131.6427 24.1590 0.0000 0.1362 0.0000
# 3 19.5178 24.1590 75.2039 0.0000 -17.5652 0.0000
# 4 0.0000 0.0000 0.0000 54.1501 0.0000 -23.7255
# 5 -4.5139 0.1362 -17.5652 0.0000 34.1616 0.0000
# 6 0.0000 0.0000 0.0000 -23.7255 0.0000 45.5387
#
#
#
# Elastic Compliance Matrix: (Units=1/GPa)
#
#
# Indices 1 2 3 4 5 6 
#
# 1 0.027435 -0.001282 -0.006660 0.000000 0.000206 0.000000
# 2 -0.001282 0.008205 -0.002671 0.000000 -0.001576 0.000000
# 3 -0.006660 -0.002671 0.017821 0.000000 0.008294 0.000000
# 4 0.000000 0.000000 0.000000 0.023930 0.000000 0.012467
# 5 0.000206 -0.001576 0.008294 0.000000 0.033571 0.000000
# 6 0.000000 0.000000 0.000000 0.012467 0.000000 0.028455
#
#
# Mechanical properties :
#
#
# Convention : Reuss Voigt Hill
#
# Bulk Modulus (GPa) = 31.02292 40.00154 35.51223
# Shear Modulus (GPa) = 29.17355 39.63260 34.40308
#
# Velocity S-wave (km/s) = 3.44160 4.01136 3.73735
# Velocity P-wave (km/s) = 5.32806 6.13966 5.74820
#
# Compressibility (1/GPa) = 0.03223423
#
# Stress axis : x y z
#
# Youngs Moduli (GPa) = 36.44955 121.87440 56.11345
#
# Poissons Ratio (x) = 0.15624 0.37374
# Poissons Ratio (y) = 0.04673 0.14989
# Poissons Ratio (z) = 0.24277 0.32555
#
# Static dielectric constant tensor:
#      x y z
#    x 2.033040 0.000000 -0.041740 
#    y 0.000000 2.030480 0.000000 
#    z -0.041740 0.000000 1.957970 
# 
# From -- ./inp_files/36476.got.cif
#   From: 2010.05.17/outbox.cif.g08.bks.cpg/sg14_19_cif.got.tgz:36476.got - 2010.06.03 17:49:19.
