data_PCOD9242884
_publ_section_title
;
Structure prediction by ZEFSAII (Michael W. Deem and Ramdas Pophale) SiO2 
 PCOD9242884
Probable space group: P 21/C
;
_chemical_formula_sum "Si O2"
_cell_formula_units_Z 28
_cell_length_a 7.124605
_cell_length_b 28.746045
_cell_length_c 8.176114
_cell_angle_alpha 90.000000
_cell_angle_beta 123.167818
_cell_angle_gamma 90.000000
_cell_volume 1401.678816
_symmetry_space_group_name_H-M "P 21/C"
_symmetry_group_IT_number 14
_symmetry_cell_setting 'monoclinic'
loop_
_space_group_symop_operation_xyz
x,y,z
-x,1/2+y,1/2-z
-x,-y,-z
x,1/2-y,1/2+z
loop_
_atom_site_type_symbol
_atom_site_label
_atom_site_fract_x
_atom_site_fract_y
_atom_site_fract_z
Si Si1 0.150309 0.311300 0.642627
Si Si2 0.909463 0.229301 0.718618
Si Si3 0.077937 0.615765 0.251353
Si Si4 0.671142 0.021604 0.453313
Si Si5 0.874608 0.565778 0.849780
Si Si6 0.660850 0.196538 0.289743
Si Si7 0.525393 0.445904 0.557356
O O1 0.411431 0.308764 0.732836
O O2 0.074015 0.269842 0.729708
O O3 0.023536 0.301216 0.412348
O O4 0.074060 0.359558 0.686903
O O5 0.824668 0.200819 0.523339
O O6 0.703050 0.256894 0.704142
O O7 0.261129 0.653712 0.282785
O O8 0.231439 0.572854 0.383183
O O9 0.937064 0.601489 0.023765
O O10 0.541007 0.054466 0.261704
O O11 0.889877 0.049719 0.619315
O O12 0.500000 0.000000 0.500000
O O13 0.774514 0.978584 0.400175
O O14 0.683478 0.579420 0.628763
O O15 0.500000 0.500000 0.500000
#
# Coordination Sequence:
#
# PCOD9242884 Si02
#       7
#     4   4   4   4   4   4   4
#     4  10  20  36  58  82 113 145 178 224 269 318
#     4   9  20  37  58  83 108 144 184 215 266 328
#     4  10  22  35  52  83 112 141 183 225 270 327
#     4   9  18  34  57  79  97 132 184 224 265 323
#     4   9  19  36  52  73 110 139 167 223 273 310
#     4  10  20  36  56  81 112 142 179 222 266 323
#     4   9  19  38  57  74 106 147 183 226 279 327
#
# _framework density 19.976044999999999
#
# number of rings (size 3 to 8) (size 9 to 14) (size 15 to 20)
#    0.000    2.571    0.000    1.714    0.000    5.143 
#    0.000    8.571    0.000    0.000    0.000    0.000 
#    0.000    0.000    0.000    0.000    0.000    0.000 
#
# Total GULP energy -156174.987380 kJ/mol
# GULP energy per Si atom -5577.678121 kJ/mol
# Density = 1.993058 g / cm^3
# Si number density = 19.976045 Si / 1000 Ang^3
#
#
#
# Elastic Constant Matrix: (Units=GPa)
#
#
# Indices 1 2 3 4 5 6 
#
# 1 86.5439 -1.9050 13.9373 0.0000 14.4418 0.0000
# 2 -1.9050 35.5034 3.4145 0.0000 8.4364 0.0000
# 3 13.9373 3.4145 63.0434 0.0000 14.8526 0.0000
# 4 0.0000 0.0000 0.0000 79.9415 0.0000 21.5603
# 5 14.4418 8.4364 14.8526 0.0000 23.7975 0.0000
# 6 0.0000 0.0000 0.0000 21.5603 0.0000 31.1197
#
#
#
# Elastic Compliance Matrix: (Units=1/GPa)
#
#
# Indices 1 2 3 4 5 6 
#
# 1 0.013179 0.002784 -0.001111 0.000000 -0.008291 0.000000
# 2 0.002784 0.031406 0.000826 0.000000 -0.013339 0.000000
# 3 -0.001111 0.000826 0.018727 0.000000 -0.011306 0.000000
# 4 0.000000 0.000000 0.000000 0.015384 0.000000 -0.010658
# 5 -0.008291 -0.013339 -0.011306 0.000000 0.058838 0.000000
# 6 0.000000 0.000000 0.000000 -0.010658 0.000000 0.039518
#
#
# Mechanical properties :
#
#
# Convention : Reuss Voigt Hill
#
# Bulk Modulus (GPa) = 14.63921 23.99825 19.31873
# Shear Modulus (GPa) = 25.66443 38.28134 31.97288
#
# Velocity S-wave (km/s) = 3.58824 4.38238 4.00504
# Velocity P-wave (km/s) = 4.95092 6.13568 5.57486
#
# Compressibility (1/GPa) = 0.06830972
#
# Stress axis : x y z
#
# Youngs Moduli (GPa) = 75.88063 31.84116 53.39987
#
# Poissons Ratio (x) = -0.08865 0.05932
# Poissons Ratio (y) = -0.21126 -0.04411
# Poissons Ratio (z) = 0.08430 -0.02630
#
# Static dielectric constant tensor:
#      x y z
#    x 1.696200 0.000000 0.017980 
#    y 0.000000 1.760930 0.000000 
#    z 0.017980 0.000000 1.743050 
# 
# From -- ./inp_files/6866.got.cif
#   From: 2010.05.17/outbox.cif.g08.bks.cpg/sg14_4_cif.got.tgz:6866.got - 2010.06.03 17:49:19.
