data_PCOD9242934
_publ_section_title
;
Structure prediction by ZEFSAII (Michael W. Deem and Ramdas Pophale) SiO2 
 PCOD9242934
Probable space group: P 21/C
;
_chemical_formula_sum "Si O2"
_cell_formula_units_Z 32
_cell_length_a 12.024012
_cell_length_b 9.785588
_cell_length_c 17.995006
_cell_angle_alpha 90.000000
_cell_angle_beta 54.183687
_cell_angle_gamma 90.000000
_cell_volume 1716.936153
_symmetry_space_group_name_H-M "P 21/C"
_symmetry_group_IT_number 14
_symmetry_cell_setting 'monoclinic'
loop_
_space_group_symop_operation_xyz
x,y,z
-x,1/2+y,1/2-z
-x,-y,-z
x,1/2-y,1/2+z
loop_
_atom_site_type_symbol
_atom_site_label
_atom_site_fract_x
_atom_site_fract_y
_atom_site_fract_z
Si Si1 0.524644 0.522042 0.329678
Si Si2 0.230017 0.996993 0.010002
Si Si3 0.104360 0.513012 0.130551
Si Si4 0.405965 0.741701 0.271505
Si Si5 0.940237 0.758293 0.935531
Si Si6 0.803731 0.478578 0.303486
Si Si7 0.806912 0.159879 0.260812
Si Si8 0.850889 0.287387 0.023068
O O1 0.390833 0.527112 0.434058
O O2 0.504472 0.642766 0.278503
O O3 0.524834 0.373788 0.290919
O O4 0.667653 0.532477 0.316800
O O5 0.174631 0.135334 0.994841
O O6 0.200836 0.011599 0.108324
O O7 0.151184 0.867282 0.006938
O O8 0.117987 0.358234 0.096091
O O9 0.180875 0.553245 0.176904
O O10 0.942571 0.532349 0.211515
O O11 0.149176 0.611639 0.046359
O O12 0.326350 0.654333 0.239380
O O13 0.284917 0.797414 0.372941
O O14 0.059608 0.841178 0.844633
O O15 0.019173 0.690691 0.973991
O O16 0.805450 0.313704 0.294647
#
# Coordination Sequence:
#
# PCOD9242934 Si02
#       8
#     4   4   4   4   4   4   4   4
#     4  10  22  39  59  79 110 156 188 232 277 335
#     4  11  20  36  57  82 115 150 187 230 280 340
#     4  11  20  35  62  86 115 149 182 241 291 330
#     4   9  21  40  58  81 113 150 195 230 280 342
#     4  10  21  34  53  91 114 141 194 236 274 339
#     4  10  20  36  58  83 115 148 191 227 277 347
#     4   9  18  37  57  79 117 150 178 234 291 329
#     4  10  21  37  59  82 117 153 181 233 300 335
#
# _framework density 18.637851000000001
#
# number of rings (size 3 to 8) (size 9 to 14) (size 15 to 20)
#    0.000    2.000    2.500    1.875    0.000    2.000 
#    2.250    0.000    0.000    2.250    0.000    0.000 
#    0.000    0.000    0.000    0.000    0.000    0.000 
#
# Total GULP energy -178581.816505 kJ/mol
# GULP energy per Si atom -5580.681766 kJ/mol
# Density = 1.859543 g / cm^3
# Si number density = 18.637851 Si / 1000 Ang^3
#
#
#
# Elastic Constant Matrix: (Units=GPa)
#
#
# Indices 1 2 3 4 5 6 
#
# 1 34.0684 -0.3667 15.7559 0.0000 2.8706 0.0000
# 2 -0.3667 29.6058 13.1991 0.0000 -0.0366 0.0000
# 3 15.7559 13.1991 29.6334 0.0000 9.4569 0.0000
# 4 0.0000 0.0000 0.0000 22.0904 0.0000 7.5454
# 5 2.8706 -0.0366 9.4569 0.0000 18.9210 0.0000
# 6 0.0000 0.0000 0.0000 7.5454 0.0000 30.6238
#
#
#
# Elastic Compliance Matrix: (Units=1/GPa)
#
#
# Indices 1 2 3 4 5 6 
#
# 1 0.044262 0.015597 -0.033727 0.000000 0.010172 0.000000
# 2 0.015597 0.049761 -0.035375 0.000000 0.015411 0.000000
# 3 -0.033727 -0.035375 0.078315 0.000000 -0.034094 0.000000
# 4 0.000000 0.000000 0.000000 0.049428 0.000000 -0.012179
# 5 0.010172 0.015411 -0.034094 0.000000 0.068379 0.000000
# 6 0.000000 0.000000 0.000000 -0.012179 0.000000 0.035655
#
#
# Mechanical properties :
#
#
# Convention : Reuss Voigt Hill
#
# Bulk Modulus (GPa) = 15.30746 16.72047 16.01396
# Shear Modulus (GPa) = 10.99904 18.64166 14.82035
#
# Velocity S-wave (km/s) = 2.43193 3.16603 2.82294
# Velocity P-wave (km/s) = 4.01455 4.72818 4.38591
#
# Compressibility (1/GPa) = 0.06532764
#
# Stress axis : x y z
#
# Youngs Moduli (GPa) = 22.59298 20.09620 12.76891
#
# Poissons Ratio (x) = -0.31345 0.43066
# Poissons Ratio (y) = -0.35239 0.45170
# Poissons Ratio (z) = 0.76200 0.71091
#
# Static dielectric constant tensor:
#      x y z
#    x 1.635160 0.000000 0.012280 
#    y 0.000000 1.631430 0.000000 
#    z 0.012280 0.000000 1.636950 
# 
# From -- ./inp_files/57262.got.cif
#   From: 2010.05.17/outbox.cif.g08.bks.cpg/sg14_29_cif.got.tgz:57262.got - 2010.06.03 17:49:19.
