data_PCOD9242802
_publ_section_title
;
Structure prediction by ZEFSAII (Michael W. Deem and Ramdas Pophale) SiO2 
 PCOD9242802
Probable space group: P 21/C
;
_chemical_formula_sum "Si O2"
_cell_formula_units_Z 24
_cell_length_a 9.354007
_cell_length_b 7.485188
_cell_length_c 13.491344
_cell_angle_alpha 90.000000
_cell_angle_beta 117.121539
_cell_angle_gamma 90.000000
_cell_volume 840.748055
_symmetry_space_group_name_H-M "P 21/C"
_symmetry_group_IT_number 14
_symmetry_cell_setting 'monoclinic'
loop_
_space_group_symop_operation_xyz
x,y,z
-x,1/2+y,1/2-z
-x,-y,-z
x,1/2-y,1/2+z
loop_
_atom_site_type_symbol
_atom_site_label
_atom_site_fract_x
_atom_site_fract_y
_atom_site_fract_z
Si Si1 0.378198 0.490226 0.323831
Si Si2 0.274077 0.091748 0.296584
Si Si3 0.730298 0.901814 0.942477
Si Si4 0.042966 0.931507 0.674173
Si Si5 0.893259 0.253154 0.014918
Si Si6 0.386910 0.482838 0.088098
O O1 0.550535 0.544290 0.416787
O O2 0.396602 0.498474 0.210372
O O3 0.210371 0.592469 0.285774
O O4 0.341898 0.288093 0.338663
O O5 0.256725 0.073496 0.172687
O O6 0.106742 0.077107 0.299777
O O7 0.425403 0.971342 0.380981
O O8 0.859478 0.044673 0.022042
O O9 0.720441 0.692515 0.964904
O O10 0.019786 0.130509 0.618796
O O11 0.059090 0.799253 0.584647
O O12 0.721143 0.349438 0.976197
#
# Coordination Sequence:
#
# PCOD9242802 Si02
#       6
#     4   4   4   4   4   4
#     4   9  19  36  56  88 115 157 204 246 295 360
#     4  10  20  35  61  93 116 160 205 262 290 359
#     4  10  20  38  68  85 117 165 213 242 297 368
#     4  10  23  36  62  89 130 157 199 255 319 356
#     4  10  21  43  60  85 127 168 189 253 317 368
#     4   9  19  36  62  86 113 158 208 242 298 367
#
# _framework density 28.546009000000002
#
# number of rings (size 3 to 8) (size 9 to 14) (size 15 to 20)
#    0.000    2.333    1.667    0.000    9.333    0.667 
#    0.000   14.167    0.000    0.000    0.000    0.000 
#    0.000    0.000    0.000    0.000    0.000    0.000 
#
# Total GULP energy -134516.614917 kJ/mol
# GULP energy per Si atom -5604.858955 kJ/mol
# Density = 2.848104 g / cm^3
# Si number density = 28.546009 Si / 1000 Ang^3
#
#
#
# Elastic Constant Matrix: (Units=GPa)
#
#
# Indices 1 2 3 4 5 6 
#
# 1 274.7620 32.3466 39.0672 0.0000 19.8741 0.0000
# 2 32.3466 116.3700 3.6293 0.0000 34.2876 0.0000
# 3 39.0672 3.6293 76.3157 0.0000 -16.3539 0.0000
# 4 0.0000 0.0000 0.0000 19.4702 0.0000 26.4367
# 5 19.8741 34.2876 -16.3539 0.0000 54.1516 0.0000
# 6 0.0000 0.0000 0.0000 26.4367 0.0000 42.0145
#
#
#
# Elastic Compliance Matrix: (Units=1/GPa)
#
#
# Indices 1 2 3 4 5 6 
#
# 1 0.004207 -0.000500 -0.002558 0.000000 -0.002000 0.000000
# 2 -0.000500 0.010939 -0.001827 0.000000 -0.007294 0.000000
# 3 -0.002558 -0.001827 0.015983 0.000000 0.006923 0.000000
# 4 0.000000 0.000000 0.000000 0.352678 0.000000 -0.221915
# 5 -0.002000 -0.007294 0.006923 0.000000 0.025910 0.000000
# 6 0.000000 0.000000 0.000000 -0.221915 0.000000 0.163437
#
#
# Mechanical properties :
#
#
# Convention : Reuss Voigt Hill
#
# Bulk Modulus (GPa) = 46.82242 68.61490 57.71866
# Shear Modulus (GPa) = 8.47394 49.28756 28.88075
#
# Velocity S-wave (km/s) = 1.72481 4.15975 3.18422
# Velocity P-wave (km/s) = 4.51715 6.86732 5.81226
#
# Compressibility (1/GPa) = 0.02135729
#
# Stress axis : x y z
#
# Youngs Moduli (GPa) = 237.70985 91.41994 62.56462
#
# Poissons Ratio (x) = 0.04574 0.16006
# Poissons Ratio (y) = 0.11894 0.11432
# Poissons Ratio (z) = 0.60812 0.16704
#
# Static dielectric constant tensor:
#      x y z
#    x 2.273500 0.000000 -0.018060 
#    y 0.000000 2.251240 0.000000 
#    z -0.018060 0.000000 2.248670 
# 
# From -- ./inp_files/54641.got.cif
#   From: 2010.05.17/outbox.cif.g08.bks.cpg/sg14_28_cif.got.tgz:54641.got - 2010.06.03 17:49:19.
