data_PCOD9242433
_publ_section_title
;
Structure prediction by ZEFSAII (Michael W. Deem and Ramdas Pophale) SiO2 
 PCOD9242433
Probable space group: P 21/C
;
_chemical_formula_sum "Si O2"
_cell_formula_units_Z 28
_cell_length_a 13.104570
_cell_length_b 17.600456
_cell_length_c 9.308473
_cell_angle_alpha 90.000000
_cell_angle_beta 31.103647
_cell_angle_gamma 90.000000
_cell_volume 1109.096436
_symmetry_space_group_name_H-M "P 21/C"
_symmetry_group_IT_number 14
_symmetry_cell_setting 'monoclinic'
loop_
_space_group_symop_operation_xyz
x,y,z
-x,1/2+y,1/2-z
-x,-y,-z
x,1/2-y,1/2+z
loop_
_atom_site_type_symbol
_atom_site_label
_atom_site_fract_x
_atom_site_fract_y
_atom_site_fract_z
Si Si1 0.981251 0.719229 0.750322
Si Si2 0.439262 0.292751 0.894999
Si Si3 0.309169 0.607528 0.217091
Si Si4 0.283694 0.650801 0.924533
Si Si5 0.118959 0.104301 0.408801
Si Si6 0.219441 0.495102 0.552280
Si Si7 0.463330 0.909494 0.947797
O O1 0.138553 0.663189 0.484558
O O2 0.089308 0.798715 0.641115
O O3 0.781717 0.715559 0.897545
O O4 0.937813 0.686806 0.963011
O O5 0.490518 0.351529 0.962995
O O6 0.536006 0.211494 0.808458
O O7 0.555392 0.332399 0.622275
O O8 0.300004 0.611573 0.058094
O O9 0.262109 0.524106 0.340085
O O10 0.308131 0.594415 0.763029
O O11 0.951221 0.049722 0.677322
O O12 0.164356 0.085581 0.187531
O O13 0.319912 0.085919 0.251136
O O14 0.414855 0.522856 0.399590
#
# Coordination Sequence:
#
# PCOD9242433 Si02
#       7
#     4   4   4   4   4   4   4
#     4   9  19  33  53  76 102 142 182 217 259 314
#     4   9  18  33  51  71 100 139 182 214 252 322
#     4   9  19  33  50  77 107 136 170 220 276 317
#     4  11  21  32  49  79 115 138 164 215 281 332
#     4   9  18  34  58  78  96 136 190 225 250 300
#     4   9  18  36  58  76  99 135 185 228 255 303
#     4  10  20  33  52  79 105 137 177 219 268 317
#
# _framework density 25.245777
#
# number of rings (size 3 to 8) (size 9 to 14) (size 15 to 20)
#    0.000    2.571    0.000    3.000    0.000    4.571 
#    0.000    0.714    0.000    7.714    0.000    0.000 
#    0.000    0.000    0.000    0.286    0.000    0.000 
#
# Total GULP energy -156633.916116 kJ/mol
# GULP energy per Si atom -5594.068433 kJ/mol
# Density = 2.518832 g / cm^3
# Si number density = 25.245777 Si / 1000 Ang^3
#
#
#
# Elastic Constant Matrix: (Units=GPa)
#
#
# Indices 1 2 3 4 5 6 
#
# 1 108.6258 27.7847 54.1056 0.0000 -10.2775 0.0000
# 2 27.7847 64.6648 29.5633 0.0000 -4.9873 0.0000
# 3 54.1056 29.5633 79.5589 0.0000 -1.1270 0.0000
# 4 0.0000 0.0000 0.0000 32.6006 0.0000 0.3376
# 5 -10.2775 -4.9873 -1.1270 0.0000 57.5139 0.0000
# 6 0.0000 0.0000 0.0000 0.3376 0.0000 21.5569
#
#
#
# Elastic Compliance Matrix: (Units=1/GPa)
#
#
# Indices 1 2 3 4 5 6 
#
# 1 0.014418 -0.001872 -0.009078 0.000000 0.002236 0.000000
# 2 -0.001872 0.018999 -0.005770 0.000000 0.001200 0.000000
# 3 -0.009078 -0.005770 0.020863 0.000000 -0.001714 0.000000
# 4 0.000000 0.000000 0.000000 0.030679 0.000000 -0.000481
# 5 0.002236 0.001200 -0.001714 0.000000 0.017857 0.000000
# 6 0.000000 0.000000 0.000000 -0.000481 0.000000 0.046396
#
#
# Mechanical properties :
#
#
# Convention : Reuss Voigt Hill
#
# Bulk Modulus (GPa) = 47.98434 52.86186 50.42310
# Shear Modulus (GPa) = 26.37150 31.76068 29.06609
#
# Velocity S-wave (km/s) = 3.23552 3.55076 3.39680
# Velocity P-wave (km/s) = 5.74511 6.14775 5.94984
#
# Compressibility (1/GPa) = 0.02084013
#
# Stress axis : x y z
#
# Youngs Moduli (GPa) = 69.35774 52.63402 47.93288
#
# Poissons Ratio (x) = 0.09855 0.43513
# Poissons Ratio (y) = 0.12986 0.27655
# Poissons Ratio (z) = 0.62962 0.30367
#
# Static dielectric constant tensor:
#      x y z
#    x 1.987660 0.000000 -0.010930 
#    y 0.000000 2.031150 0.000000 
#    z -0.010930 0.000000 1.995850 
# 
# From -- ./inp_files/14463.got.cif
#   From: 2010.05.17/outbox.cif.g08.bks.cpg/sg14_8_cif.got.tgz:14463.got - 2010.06.03 17:49:19.
