data_PCOD9242537
_publ_section_title
;
Structure prediction by ZEFSAII (Michael W. Deem and Ramdas Pophale) SiO2 
 PCOD9242537
Probable space group: P 21/C
;
_chemical_formula_sum "Si O2"
_cell_formula_units_Z 26
_cell_length_a 12.257647
_cell_length_b 5.046059
_cell_length_c 21.497156
_cell_angle_alpha 90.000000
_cell_angle_beta 59.237756
_cell_angle_gamma 90.000000
_cell_volume 1142.572596
_symmetry_space_group_name_H-M "P 21/C"
_symmetry_group_IT_number 14
_symmetry_cell_setting 'monoclinic'
loop_
_space_group_symop_operation_xyz
x,y,z
-x,1/2+y,1/2-z
-x,-y,-z
x,1/2-y,1/2+z
loop_
_atom_site_type_symbol
_atom_site_label
_atom_site_fract_x
_atom_site_fract_y
_atom_site_fract_z
Si Si1 0.344178 0.375174 0.835543
Si Si2 0.284656 0.566966 0.654464
Si Si3 0.938220 0.774286 0.238121
Si Si4 0.350280 0.624669 0.256621
Si Si5 0.873207 0.303248 0.914957
Si Si6 0.500000 0.500000 0.500000
Si Si7 0.752138 0.819866 0.004053
O O1 0.497386 0.368297 0.796217
O O2 0.312081 0.668051 0.821660
O O3 0.283428 0.285279 0.917683
O O4 0.312728 0.163825 0.790973
O O5 0.199311 0.322061 0.701244
O O6 0.296157 0.764333 0.708651
O O7 0.217346 0.714185 0.616190
O O8 0.420381 0.478450 0.588800
O O9 0.025101 0.569806 0.253310
O O10 0.985822 0.725734 0.153859
O O11 0.836528 0.596651 0.945553
O O12 0.831698 0.092749 0.979358
O O13 0.377215 0.364531 0.497843
#
# Coordination Sequence:
#
# PCOD9242537 Si02
#       7
#     4   4   4   4   4   2   4
#     4  10  21  38  56  80 115 157 192 228 279 340
#     4  10  21  37  59  88 120 145 192 239 285 349
#     4  10  20  37  57  82 117 153 189 227 286 349
#     4  10  21  37  57  81 113 156 195 228 276 341
#     4  10  22  36  59  86 115 154 183 235 295 338
#     4  10  20  34  54  90 112 142 176 236 298 332
#     4  11  21  38  57  85 120 148 187 238 288 347
#
# _framework density 22.755669000000001
#
# number of rings (size 3 to 8) (size 9 to 14) (size 15 to 20)
#    0.000    1.846    1.538    3.692    0.000    7.385 
#    2.769    0.000    0.000    5.538    0.000    0.000 
#    0.000    0.000    0.000    0.000    0.000    0.000 
#
# Total GULP energy -144849.927442 kJ/mol
# GULP energy per Si atom -5571.151055 kJ/mol
# Density = 2.270388 g / cm^3
# Si number density = 22.755669 Si / 1000 Ang^3
#
#
#
# Elastic Constant Matrix: (Units=GPa)
#
#
# Indices 1 2 3 4 5 6 
#
# 1 33.6732 18.8771 21.3869 0.0000 -1.5747 0.0000
# 2 18.8771 52.2637 1.3665 0.0000 -14.8431 0.0000
# 3 21.3869 1.3665 115.0280 0.0000 -21.0086 0.0000
# 4 0.0000 0.0000 0.0000 30.9536 0.0000 4.9048
# 5 -1.5747 -14.8431 -21.0086 0.0000 34.8132 0.0000
# 6 0.0000 0.0000 0.0000 4.9048 0.0000 20.1454
#
#
#
# Elastic Compliance Matrix: (Units=1/GPa)
#
#
# Indices 1 2 3 4 5 6 
#
# 1 0.047734 -0.020748 -0.011070 0.000000 -0.013368 0.000000
# 2 -0.020748 0.031058 0.006446 0.000000 0.016194 0.000000
# 3 -0.011070 0.006446 0.012459 0.000000 0.009766 0.000000
# 4 0.000000 0.000000 0.000000 0.033603 0.000000 -0.008181
# 5 -0.013368 0.016194 0.009766 0.000000 0.040918 0.000000
# 6 0.000000 0.000000 0.000000 -0.008181 0.000000 0.051631
#
#
# Mechanical properties :
#
#
# Convention : Reuss Voigt Hill
#
# Bulk Modulus (GPa) = 24.68666 31.58066 28.13366
# Shear Modulus (GPa) = 17.75255 27.80474 22.77864
#
# Velocity S-wave (km/s) = 2.79612 3.49934 3.16731
# Velocity P-wave (km/s) = 4.61482 5.49867 5.07602
#
# Compressibility (1/GPa) = 0.04050770
#
# Stress axis : x y z
#
# Youngs Moduli (GPa) = 20.94930 32.19757 80.26382
#
# Poissons Ratio (x) = 0.66804 0.88853
# Poissons Ratio (y) = 0.43466 -0.51741
# Poissons Ratio (z) = 0.23191 -0.20756
#
# Static dielectric constant tensor:
#      x y z
#    x 1.892020 0.000000 -0.015210 
#    y 0.000000 1.831240 0.000000 
#    z -0.015210 0.000000 1.827060 
# 
# From -- ./inp_files/67680.got.cif
#   From: 2010.05.17/outbox.cif.g08.bks.cpg/sg14_34_cif.got.tgz:67680.got - 2010.06.03 17:49:19.
