data_PCOD9242125
_publ_section_title
;
Structure prediction by ZEFSAII (Michael W. Deem and Ramdas Pophale) SiO2 
 PCOD9242125
Probable space group: P 21/C
;
_chemical_formula_sum "Si O2"
_cell_formula_units_Z 32
_cell_length_a 12.004800
_cell_length_b 7.533044
_cell_length_c 13.714018
_cell_angle_alpha 90.000000
_cell_angle_beta 76.434615
_cell_angle_gamma 90.000000
_cell_volume 1205.597614
_symmetry_space_group_name_H-M "P 21/C"
_symmetry_group_IT_number 14
_symmetry_cell_setting 'monoclinic'
loop_
_space_group_symop_operation_xyz
x,y,z
-x,1/2+y,1/2-z
-x,-y,-z
x,1/2-y,1/2+z
loop_
_atom_site_type_symbol
_atom_site_label
_atom_site_fract_x
_atom_site_fract_y
_atom_site_fract_z
Si Si1 0.030248 0.481095 0.702077
Si Si2 0.594915 0.714296 0.198750
Si Si3 0.948777 0.893670 0.407628
Si Si4 0.686560 0.532392 0.004226
Si Si5 0.410098 0.383292 0.581560
Si Si6 0.641646 0.235406 0.861883
Si Si7 0.915383 0.160402 0.984175
Si Si8 0.227134 0.963532 0.821227
O O1 0.069497 0.292157 0.651126
O O2 0.090804 0.639122 0.629493
O O3 0.031838 0.500470 0.817111
O O4 0.895683 0.504815 0.701556
O O5 0.554847 0.675789 0.316991
O O6 0.483470 0.772883 0.162235
O O7 0.691844 0.866636 0.182496
O O8 0.649261 0.552540 0.124518
O O9 0.822625 0.965123 0.457472
O O10 0.017400 0.827368 0.488122
O O11 0.638502 0.712259 0.963135
O O12 0.716055 0.331108 0.765634
O O13 0.318339 0.537287 0.622610
O O14 0.362982 0.863142 0.542670
O O15 0.500000 0.000000 0.000000
O O16 0.800957 0.126471 0.068992
O O17 0.000000 0.000000 0.000000
#
# Coordination Sequence:
#
# PCOD9242125 Si02
#       8
#     4   4   4   4   4   4   4   4
#     4  10  19  39  65  99 133 180 226 282 348 424
#     4  12  24  45  70  96 142 195 239 292 364 417
#     4  10  20  38  68  98 134 179 222 282 359 414
#     4  12  25  46  70 103 143 187 236 305 358 431
#     4  12  28  45  66 101 136 189 243 294 358 433
#     4  12  25  43  70  98 143 183 241 299 357 427
#     4   8  18  36  66  95 129 179 228 271 350 420
#     4  10  20  43  67  95 143 185 234 291 345 423
#
# _framework density 26.542853999999998
#
# number of rings (size 3 to 8) (size 9 to 14) (size 15 to 20)
#    0.000    1.500    3.750    3.375    0.000    2.000 
#    0.000    1.875    0.000    0.000    0.000    0.875 
#    0.000    0.000    0.000    0.000    0.000    0.000 
#
# Total GULP energy -179374.790692 kJ/mol
# GULP energy per Si atom -5605.462209 kJ/mol
# Density = 2.648244 g / cm^3
# Si number density = 26.542854 Si / 1000 Ang^3
#
#
#
# Elastic Constant Matrix: (Units=GPa)
#
#
# Indices 1 2 3 4 5 6 
#
# 1 104.0703 8.6130 14.1943 0.0000 14.1861 0.0000
# 2 8.6130 96.9882 -11.0499 0.0000 16.5125 0.0000
# 3 14.1943 -11.0499 156.7204 0.0000 0.8168 0.0000
# 4 0.0000 0.0000 0.0000 40.9109 0.0000 1.8538
# 5 14.1861 16.5125 0.8168 0.0000 29.5968 0.0000
# 6 0.0000 0.0000 0.0000 1.8538 0.0000 34.7334
#
#
#
# Elastic Compliance Matrix: (Units=1/GPa)
#
#
# Indices 1 2 3 4 5 6 
#
# 1 0.010414 -0.000205 -0.000932 0.000000 -0.004852 0.000000
# 2 -0.000205 0.011507 0.000863 0.000000 -0.006346 0.000000
# 3 -0.000932 0.000863 0.006527 0.000000 -0.000215 0.000000
# 4 0.000000 0.000000 0.000000 0.024503 0.000000 -0.001308
# 5 -0.004852 -0.006346 -0.000215 0.000000 0.039659 0.000000
# 6 0.000000 0.000000 0.000000 -0.001308 0.000000 0.028861
#
#
# Mechanical properties :
#
#
# Convention : Reuss Voigt Hill
#
# Bulk Modulus (GPa) = 35.84221 42.36595 39.10408
# Shear Modulus (GPa) = 38.07482 44.11630 41.09556
#
# Velocity S-wave (km/s) = 3.79154 4.08128 3.93908
# Velocity P-wave (km/s) = 5.71844 6.18103 5.95423
#
# Compressibility (1/GPa) = 0.02790006
#
# Stress axis : x y z
#
# Youngs Moduli (GPa) = 96.02114 86.90031 153.20490
#
# Poissons Ratio (x) = 0.01782 0.14285
# Poissons Ratio (y) = 0.01969 -0.13222
# Poissons Ratio (z) = 0.08953 -0.07500
#
# Static dielectric constant tensor:
#      x y z
#    x 2.067420 0.000000 0.006620 
#    y 0.000000 2.223690 0.000000 
#    z 0.006620 0.000000 2.200630 
# 
# From -- ./inp_files/32198.got.cif
#   From: 2010.05.17/outbox.cif.g08.bks.cpg/sg14_17_cif.got.tgz:32198.got - 2010.06.03 17:49:19.
