data_PCOD9242626
_publ_section_title
;
Structure prediction by ZEFSAII (Michael W. Deem and Ramdas Pophale) SiO2 
 PCOD9242626
Probable space group: P 21/C
;
_chemical_formula_sum "Si O2"
_cell_formula_units_Z 30
_cell_length_a 8.784520
_cell_length_b 8.647565
_cell_length_c 24.931716
_cell_angle_alpha 90.000000
_cell_angle_beta 132.642400
_cell_angle_gamma 90.000000
_cell_volume 1393.167683
_symmetry_space_group_name_H-M "P 21/C"
_symmetry_group_IT_number 14
_symmetry_cell_setting 'monoclinic'
loop_
_space_group_symop_operation_xyz
x,y,z
-x,1/2+y,1/2-z
-x,-y,-z
x,1/2-y,1/2+z
loop_
_atom_site_type_symbol
_atom_site_label
_atom_site_fract_x
_atom_site_fract_y
_atom_site_fract_z
Si Si1 0.880139 0.263481 0.787281
Si Si2 0.739985 0.752489 0.277366
Si Si3 0.478713 0.514932 0.915870
Si Si4 0.216645 0.052452 0.811003
Si Si5 0.500000 0.500000 0.500000
Si Si6 0.249006 0.312093 0.940673
Si Si7 0.507007 0.547540 0.798297
Si Si8 0.773761 0.309766 0.605805
O O1 0.856460 0.409653 0.742917
O O2 0.664153 0.182736 0.745495
O O3 0.023626 0.138293 0.791331
O O4 0.006842 0.306885 0.870515
O O5 0.681277 0.830429 0.206161
O O6 0.599730 0.602586 0.252798
O O7 0.699552 0.883146 0.312181
O O8 0.980881 0.702221 0.332906
O O9 0.355314 0.369316 0.910102
O O10 0.536423 0.511211 0.867840
O O11 0.321983 0.659222 0.890019
O O12 0.675309 0.559560 0.999191
O O13 0.328016 0.965355 0.888029
O O14 0.664525 0.645362 0.523215
O O15 0.677846 0.359762 0.527055
#
# Coordination Sequence:
#
# PCOD9242626 Si02
#       8
#     4   4   4   4   2   4   4   4
#     4  12  20  36  63  92 123 161 216 267 320 379
#     4  12  25  39  62  94 131 166 212 268 327 389
#     4  10  22  38  61  89 124 170 212 267 316 383
#     4  12  20  36  64  93 120 159 216 274 316 369
#     4  10  20  34  62  92 124 158 212 278 322 370
#     4  10  20  35  61  92 124 161 220 268 315 369
#     4  12  24  40  59  90 130 170 208 258 331 394
#     4  11  21  38  63  93 120 164 219 275 317 374
#
# _framework density 21.533662
#
# number of rings (size 3 to 8) (size 9 to 14) (size 15 to 20)
#    0.000    0.800    5.333    3.200    0.000    0.000 
#    0.000    0.000    2.933   14.400    0.000    0.000 
#    0.000    0.000    0.000    0.000    0.000    0.000 
#
# Total GULP energy -167118.114275 kJ/mol
# GULP energy per Si atom -5570.603809 kJ/mol
# Density = 2.148465 g / cm^3
# Si number density = 21.533662 Si / 1000 Ang^3
#
#
#
# Elastic Constant Matrix: (Units=GPa)
#
#
# Indices 1 2 3 4 5 6 
#
# 1 63.0039 28.7368 15.3955 0.0000 -15.9341 0.0000
# 2 28.7368 100.1932 4.1905 0.0000 4.7814 0.0000
# 3 15.3955 4.1905 64.6215 0.0000 -1.6614 0.0000
# 4 0.0000 0.0000 0.0000 45.0382 0.0000 -5.0197
# 5 -15.9341 4.7814 -1.6614 0.0000 13.6461 0.0000
# 6 0.0000 0.0000 0.0000 -5.0197 0.0000 33.7533
#
#
#
# Elastic Compliance Matrix: (Units=1/GPa)
#
#
# Indices 1 2 3 4 5 6 
#
# 1 0.033030 -0.011212 -0.006068 0.000000 0.041758 0.000000
# 2 -0.011212 0.013993 0.001305 0.000000 -0.017836 0.000000
# 3 -0.006068 0.001305 0.016694 0.000000 -0.005511 0.000000
# 4 0.000000 0.000000 0.000000 0.022578 0.000000 0.003358
# 5 0.041758 -0.017836 -0.005511 0.000000 0.127619 0.000000
# 6 0.000000 0.000000 0.000000 0.003358 0.000000 0.030126
#
#
# Mechanical properties :
#
#
# Convention : Reuss Voigt Hill
#
# Bulk Modulus (GPa) = 31.48010 36.05158 33.76584
# Shear Modulus (GPa) = 17.44718 30.45391 23.95055
#
# Velocity S-wave (km/s) = 2.84954 3.76473 3.33864
# Velocity P-wave (km/s) = 5.04750 5.97293 5.52961
#
# Compressibility (1/GPa) = 0.03176610
#
# Stress axis : x y z
#
# Youngs Moduli (GPa) = 30.27567 71.46332 59.90117
#
# Poissons Ratio (x) = 0.80127 0.36351
# Poissons Ratio (y) = 0.33946 -0.07819
# Poissons Ratio (z) = 0.18373 -0.09328
#
# Static dielectric constant tensor:
#      x y z
#    x 1.724630 0.000000 0.202990 
#    y 0.000000 1.816960 0.000000 
#    z 0.202990 0.000000 0.802110 
# 
# From -- ./inp_files/64577.got.cif
#   From: 2010.05.17/outbox.cif.g08.bks.cpg/sg14_33_cif.got.tgz:64577.got - 2010.06.03 17:49:19.
