data_PCOD9242738
_publ_section_title
;
Structure prediction by ZEFSAII (Michael W. Deem and Ramdas Pophale) SiO2 
 PCOD9242738
Probable space group: P 21/C
;
_chemical_formula_sum "Si O2"
_cell_formula_units_Z 28
_cell_length_a 13.065201
_cell_length_b 5.785830
_cell_length_c 20.563310
_cell_angle_alpha 90.000000
_cell_angle_beta 133.376969
_cell_angle_gamma 90.000000
_cell_volume 1129.848099
_symmetry_space_group_name_H-M "P 21/C"
_symmetry_group_IT_number 14
_symmetry_cell_setting 'monoclinic'
loop_
_space_group_symop_operation_xyz
x,y,z
-x,1/2+y,1/2-z
-x,-y,-z
x,1/2-y,1/2+z
loop_
_atom_site_type_symbol
_atom_site_label
_atom_site_fract_x
_atom_site_fract_y
_atom_site_fract_z
Si Si1 0.561757 0.963230 0.228742
Si Si2 0.024514 0.350623 0.795751
Si Si3 0.259769 0.716866 0.292475
Si Si4 0.261657 0.521625 0.551819
Si Si5 0.680231 0.867881 0.063053
Si Si6 0.272718 0.471843 0.064090
Si Si7 0.540813 0.892700 0.603560
O O1 0.636085 0.164870 0.220928
O O2 0.393456 0.983940 0.158984
O O3 0.638320 0.960392 0.330364
O O4 0.576651 0.756542 0.183556
O O5 0.181898 0.293497 0.885419
O O6 0.013476 0.620086 0.766524
O O7 0.903078 0.313283 0.796669
O O8 0.278061 0.542636 0.360686
O O9 0.317636 0.958479 0.341381
O O10 0.332009 0.501014 0.510506
O O11 0.196482 0.777787 0.527492
O O12 0.189218 0.271572 0.527713
O O13 0.545295 0.742937 0.036492
O O14 0.394664 0.484111 0.060607
#
# Coordination Sequence:
#
# PCOD9242738 Si02
#       7
#     4   4   4   4   4   4   4
#     4  10  22  38  56  86 113 153 198 233 275 338
#     4  10  20  37  59  82 114 150 188 234 277 340
#     4  10  20  36  60  85 112 152 193 232 283 334
#     4  11  23  37  58  85 119 157 179 236 290 340
#     4  10  23  37  56  89 121 147 186 233 295 346
#     4  11  24  38  58  84 116 155 196 228 277 339
#     4  10  20  35  58  84 116 147 191 229 286 335
#
# _framework density 24.78209
#
# number of rings (size 3 to 8) (size 9 to 14) (size 15 to 20)
#    0.000    1.714    2.857    1.714    4.000    5.714 
#    0.000    0.000    0.000    1.714    0.000    0.000 
#    0.000    0.000    0.000    0.000    0.000    0.000 
#
# Total GULP energy -156035.453754 kJ/mol
# GULP energy per Si atom -5572.694777 kJ/mol
# Density = 2.472568 g / cm^3
# Si number density = 24.782090 Si / 1000 Ang^3
#
#
#
# Elastic Constant Matrix: (Units=GPa)
#
#
# Indices 1 2 3 4 5 6 
#
# 1 19.5817 12.9729 15.4701 0.0000 8.9287 0.0000
# 2 12.9729 161.7731 6.2479 0.0000 -0.8441 0.0000
# 3 15.4701 6.2479 81.4912 0.0000 -13.4859 0.0000
# 4 0.0000 0.0000 0.0000 21.6866 0.0000 -4.5911
# 5 8.9287 -0.8441 -13.4859 0.0000 34.6406 0.0000
# 6 0.0000 0.0000 0.0000 -4.5911 0.0000 22.4113
#
#
#
# Elastic Compliance Matrix: (Units=1/GPa)
#
#
# Indices 1 2 3 4 5 6 
#
# 1 0.085320 -0.006199 -0.020721 0.000000 -0.030210 0.000000
# 2 -0.006199 0.006650 0.001024 0.000000 0.002159 0.000000
# 3 -0.020721 0.001024 0.018186 0.000000 0.012446 0.000000
# 4 0.000000 0.000000 0.000000 0.048202 0.000000 0.009874
# 5 -0.030210 0.002159 0.012446 0.000000 0.041552 0.000000
# 6 0.000000 0.000000 0.000000 0.009874 0.000000 0.046643
#
#
# Mechanical properties :
#
#
# Convention : Reuss Voigt Hill
#
# Bulk Modulus (GPa) = 17.13380 36.91420 27.02400
# Shear Modulus (GPa) = 15.73312 30.95802 23.34557
#
# Velocity S-wave (km/s) = 2.52237 3.53825 3.07259
# Velocity P-wave (km/s) = 3.92581 5.62318 4.84933
#
# Compressibility (1/GPa) = 0.05836415
#
# Stress axis : x y z
#
# Youngs Moduli (GPa) = 11.72057 150.36809 54.98728
#
# Poissons Ratio (x) = 0.93219 1.13939
# Poissons Ratio (y) = 0.07266 -0.05632
# Poissons Ratio (z) = 0.24286 -0.15401
#
# Static dielectric constant tensor:
#      x y z
#    x 1.937990 0.000000 -0.016870 
#    y 0.000000 2.224460 0.000000 
#    z -0.016870 0.000000 1.959480 
# 
# From -- ./inp_files/67696.got.cif
#   From: 2010.05.17/outbox.cif.g08.bks.cpg/sg14_34_cif.got.tgz:67696.got - 2010.06.03 17:49:19.
