data_PCOD9242563
_publ_section_title
;
Structure prediction by ZEFSAII (Michael W. Deem and Ramdas Pophale) SiO2 
 PCOD9242563
Probable space group: P 21/C
;
_chemical_formula_sum "Si O2"
_cell_formula_units_Z 28
_cell_length_a 15.107348
_cell_length_b 6.720509
_cell_length_c 22.398682
_cell_angle_alpha 90.000000
_cell_angle_beta 151.108753
_cell_angle_gamma 90.000000
_cell_volume 1098.736673
_symmetry_space_group_name_H-M "P 21/C"
_symmetry_group_IT_number 14
_symmetry_cell_setting 'monoclinic'
loop_
_space_group_symop_operation_xyz
x,y,z
-x,1/2+y,1/2-z
-x,-y,-z
x,1/2-y,1/2+z
loop_
_atom_site_type_symbol
_atom_site_label
_atom_site_fract_x
_atom_site_fract_y
_atom_site_fract_z
Si Si1 0.882069 0.337493 0.135936
Si Si2 0.458952 0.713366 0.628399
Si Si3 0.240979 0.299371 0.023378
Si Si4 0.167562 0.121322 0.715667
Si Si5 0.118153 0.832259 0.225020
Si Si6 0.620499 0.140420 0.716975
Si Si7 0.194456 0.667006 0.070791
O O1 0.906062 0.366299 0.219586
O O2 0.069312 0.265895 0.214035
O O3 0.703546 0.205826 0.017169
O O4 0.816670 0.538184 0.062077
O O5 0.637377 0.632680 0.700284
O O6 0.333829 0.693551 0.614462
O O7 0.543398 0.932531 0.694747
O O8 0.439151 0.222918 0.120059
O O9 0.244927 0.434628 0.085815
O O10 0.075512 0.144477 0.923591
O O11 0.013397 0.170197 0.574750
O O12 0.165820 0.900005 0.741699
O O13 0.293624 0.923894 0.295623
O O14 0.777580 0.249775 0.847093
#
# Coordination Sequence:
#
# PCOD9242563 Si02
#       7
#     4   4   4   4   4   4   4
#     4   8  18  36  53  75 111 147 181 220 273 330
#     4   9  20  36  55  79 110 145 181 230 279 319
#     4   8  20  38  54  80 116 148 180 230 280 320
#     4   9  20  36  55  79 110 145 181 230 279 319
#     4  10  20  34  56  82 106 146 189 220 274 335
#     4  10  20  34  56  82 106 146 189 220 274 335
#     4   8  18  36  53  75 111 147 181 220 273 330
#
# _framework density 25.483812
#
# number of rings (size 3 to 8) (size 9 to 14) (size 15 to 20)
#    0.000    4.000    0.000    0.000    0.000   12.571 
#    0.000    5.714    0.000    0.000    0.000    0.000 
#    0.000    0.000    0.000    0.000    0.000    0.000 
#
# Total GULP energy -155889.130309 kJ/mol
# GULP energy per Si atom -5567.468940 kJ/mol
# Density = 2.542581 g / cm^3
# Si number density = 25.483812 Si / 1000 Ang^3
#
#
#
# Elastic Constant Matrix: (Units=GPa)
#
#
# Indices 1 2 3 4 5 6 
#
# 1 179.0699 17.1709 57.6082 0.0000 28.4160 0.0000
# 2 17.1709 36.5826 16.2765 0.0000 3.1489 0.0000
# 3 57.6082 16.2765 53.3860 0.0000 18.1630 0.0000
# 4 0.0000 0.0000 0.0000 33.6117 0.0000 13.6399
# 5 28.4160 3.1489 18.1630 0.0000 57.8291 0.0000
# 6 0.0000 0.0000 0.0000 13.6399 0.0000 32.0203
#
#
#
# Elastic Compliance Matrix: (Units=1/GPa)
#
#
# Indices 1 2 3 4 5 6 
#
# 1 0.008665 -0.000004 -0.008846 0.000000 -0.001479 0.000000
# 2 -0.000004 0.031736 -0.010171 0.000000 0.001468 0.000000
# 3 -0.008846 -0.010171 0.033266 0.000000 -0.005547 0.000000
# 4 0.000000 0.000000 0.000000 0.035969 0.000000 -0.015322
# 5 -0.001479 0.001468 -0.005547 0.000000 0.019682 0.000000
# 6 0.000000 0.000000 0.000000 -0.015322 0.000000 0.037757
#
#
# Mechanical properties :
#
#
# Convention : Reuss Voigt Hill
#
# Bulk Modulus (GPa) = 28.07043 50.12775 39.09909
# Shear Modulus (GPa) = 23.04218 36.55774 29.79996
#
# Velocity S-wave (km/s) = 3.01024 3.79165 3.42331
# Velocity P-wave (km/s) = 4.80842 6.23554 5.56789
#
# Compressibility (1/GPa) = 0.03562468
#
# Stress axis : x y z
#
# Youngs Moduli (GPa) = 115.40070 31.50963 30.06097
#
# Poissons Ratio (x) = 0.00013 0.26593
# Poissons Ratio (y) = 0.00047 0.30575
# Poissons Ratio (z) = 1.02086 0.32049
#
# Static dielectric constant tensor:
#      x y z
#    x 2.093160 0.000000 0.069420 
#    y 0.000000 2.320520 0.000000 
#    z 0.069420 0.000000 2.048330 
# 
# From -- ./inp_files/68238.got.cif
#   From: 2010.05.17/outbox.cif.g08.bks.cpg/sg14_35_cif.got.tgz:68238.got - 2010.06.03 17:49:19.
