data_PCOD9242779
_publ_section_title
;
Structure prediction by ZEFSAII (Michael W. Deem and Ramdas Pophale) SiO2 
 PCOD9242779
Probable space group: P 21/C
;
_chemical_formula_sum "Si O2"
_cell_formula_units_Z 24
_cell_length_a 20.530643
_cell_length_b 8.709433
_cell_length_c 20.616997
_cell_angle_alpha 90.000000
_cell_angle_beta 20.122060
_cell_angle_gamma 90.000000
_cell_volume 1268.244819
_symmetry_space_group_name_H-M "P 21/C"
_symmetry_group_IT_number 14
_symmetry_cell_setting 'monoclinic'
loop_
_space_group_symop_operation_xyz
x,y,z
-x,1/2+y,1/2-z
-x,-y,-z
x,1/2-y,1/2+z
loop_
_atom_site_type_symbol
_atom_site_label
_atom_site_fract_x
_atom_site_fract_y
_atom_site_fract_z
Si Si1 0.191725 0.536123 0.283954
Si Si2 0.467901 0.144982 0.442955
Si Si3 0.858293 0.283608 0.282884
Si Si4 0.588319 0.407973 0.121712
Si Si5 0.704036 0.859043 0.622660
Si Si6 0.524016 0.500978 0.555121
O O1 0.348715 0.595773 0.187395
O O2 0.153855 0.665041 0.265460
O O3 0.000000 0.500000 0.500000
O O4 0.286731 0.392981 0.157659
O O5 0.480842 0.324011 0.416837
O O6 0.452512 0.036194 0.394986
O O7 0.763042 0.196113 0.432829
O O8 0.720650 0.423303 0.392674
O O9 0.073205 0.333015 0.092090
O O10 0.410533 0.293084 0.291589
O O11 0.637270 0.499732 0.140501
O O12 0.637464 0.901020 0.757847
O O13 0.500000 0.500000 0.500000
#
# Coordination Sequence:
#
# PCOD9242779 Si02
#       6
#     4   4   4   4   4   4
#     4  10  20  35  60  87 118 163 203 251 311 363
#     4  10  21  38  59  86 126 159 202 258 305 366
#     4  10  23  40  62  93 122 161 213 261 303 381
#     4  10  23  42  62  90 122 164 210 258 315 374
#     4  11  24  42  66  89 127 168 208 259 318 372
#     4  11  23  40  62  93 130 165 206 259 313 368
#
# _framework density 18.923791000000001
#
# number of rings (size 3 to 8) (size 9 to 14) (size 15 to 20)
#    0.000    1.667    1.667    2.000    4.667    6.000 
#    0.000    3.333    0.000    0.000    0.000    0.000 
#    0.000    0.000    0.000    0.000    0.000    0.000 
#
# Total GULP energy -134105.041502 kJ/mol
# GULP energy per Si atom -5587.710063 kJ/mol
# Density = 1.888072 g / cm^3
# Si number density = 18.923791 Si / 1000 Ang^3
#
#
#
# Elastic Constant Matrix: (Units=GPa)
#
#
# Indices 1 2 3 4 5 6 
#
# 1 78.0861 27.2236 27.1686 0.0000 7.4324 0.0000
# 2 27.2236 84.2866 33.3634 0.0000 -13.5941 0.0000
# 3 27.1686 33.3634 112.1334 0.0000 -12.8784 0.0000
# 4 0.0000 0.0000 0.0000 11.7541 0.0000 3.0904
# 5 7.4324 -13.5941 -12.8784 0.0000 17.6905 0.0000
# 6 0.0000 0.0000 0.0000 3.0904 0.0000 24.9647
#
#
#
# Elastic Compliance Matrix: (Units=1/GPa)
#
#
# Indices 1 2 3 4 5 6 
#
# 1 0.018135 -0.006751 -0.004208 0.000000 -0.015870 0.000000
# 2 -0.006751 0.017116 -0.001768 0.000000 0.014702 0.000000
# 3 -0.004208 -0.001768 0.011469 0.000000 0.008759 0.000000
# 4 0.000000 0.000000 0.000000 0.087939 0.000000 -0.010886
# 5 -0.015870 0.014702 0.008759 0.000000 0.080869 0.000000
# 6 0.000000 0.000000 0.000000 -0.010886 0.000000 0.041404
#
#
# Mechanical properties :
#
#
# Convention : Reuss Voigt Hill
#
# Bulk Modulus (GPa) = 47.02482 50.00191 48.51337
# Shear Modulus (GPa) = 17.27263 23.33189 20.30226
#
# Velocity S-wave (km/s) = 3.02445 3.51513 3.27898
# Velocity P-wave (km/s) = 6.09097 6.55401 6.32673
#
# Compressibility (1/GPa) = 0.02126537
#
# Stress axis : x y z
#
# Youngs Moduli (GPa) = 55.14287 58.42472 87.18793
#
# Poissons Ratio (x) = 0.39445 0.36686
# Poissons Ratio (y) = 0.37229 0.15418
# Poissons Ratio (z) = 0.23203 0.10331
#
# Static dielectric constant tensor:
#      x y z
#    x 1.654240 0.000000 0.031430 
#    y 0.000000 1.645690 0.000000 
#    z 0.031430 0.000000 1.636380 
# 
# From -- ./inp_files/69730.got.cif
#   From: 2010.05.17/outbox.cif.g08.bks.cpg/sg14_35_cif.got.tgz:69730.got - 2010.06.03 17:49:19.
