data_PCOD9242640
_publ_section_title
;
Structure prediction by ZEFSAII (Michael W. Deem and Ramdas Pophale) SiO2 
 PCOD9242640
Probable space group: P 21/C
;
_chemical_formula_sum "Si O2"
_cell_formula_units_Z 28
_cell_length_a 20.638573
_cell_length_b 7.894564
_cell_length_c 13.179480
_cell_angle_alpha 90.000000
_cell_angle_beta 33.192154
_cell_angle_gamma 90.000000
_cell_volume 1175.572632
_symmetry_space_group_name_H-M "P 21/C"
_symmetry_group_IT_number 14
_symmetry_cell_setting 'monoclinic'
loop_
_space_group_symop_operation_xyz
x,y,z
-x,1/2+y,1/2-z
-x,-y,-z
x,1/2-y,1/2+z
loop_
_atom_site_type_symbol
_atom_site_label
_atom_site_fract_x
_atom_site_fract_y
_atom_site_fract_z
Si Si1 0.925201 0.911991 0.908951
Si Si2 0.836329 0.248431 0.909779
Si Si3 0.681913 0.303384 0.286367
Si Si4 0.746121 0.945266 0.306977
Si Si5 0.857666 0.023302 0.696564
Si Si6 0.240777 0.243691 0.521453
Si Si7 0.563745 0.680875 0.896198
O O1 0.859740 0.762106 0.932548
O O2 0.062923 0.888012 0.715747
O O3 0.883570 0.085543 0.912068
O O4 0.875179 0.909379 0.088682
O O5 0.836016 0.185617 0.796163
O O6 0.715025 0.286524 0.124810
O O7 0.775440 0.439703 0.207263
O O8 0.540854 0.317350 0.477111
O O9 0.710468 0.128519 0.309198
O O10 0.740583 0.923047 0.434918
O O11 0.654699 0.815348 0.371378
O O12 0.803863 0.871234 0.832536
O O13 0.000000 0.000000 0.500000
O O14 0.356908 0.307569 0.309397
O O15 0.500000 0.500000 0.000000
#
# Coordination Sequence:
#
# PCOD9242640 Si02
#       7
#     4   4   4   4   4   4   4
#     4   9  19  34  53  76 105 141 179 222 279 336
#     4  10  20  35  53  76 108 142 177 227 280 332
#     4  10  21  36  56  81 110 147 189 229 282 346
#     4   9  19  36  56  80 107 142 186 231 279 335
#     4  11  22  37  57  84 113 148 190 236 289 349
#     4  10  20  35  57  81 111 147 185 237 288 333
#     4   9  19  37  58  80 112 151 191 232 283 345
#
# _framework density 23.818180000000002
#
# number of rings (size 3 to 8) (size 9 to 14) (size 15 to 20)
#    0.000    2.286    0.000    5.143    0.000    4.571 
#    0.000    5.714    0.000    0.000    0.000    0.000 
#    0.000    0.000    0.000    0.000    0.000    0.000 
#
# Total GULP energy -156303.659385 kJ/mol
# GULP energy per Si atom -5582.273549 kJ/mol
# Density = 2.376397 g / cm^3
# Si number density = 23.818180 Si / 1000 Ang^3
#
#
#
# Elastic Constant Matrix: (Units=GPa)
#
#
# Indices 1 2 3 4 5 6 
#
# 1 63.1734 26.4025 53.2187 0.0000 3.0440 0.0000
# 2 26.4025 63.4223 33.1544 0.0000 0.2172 0.0000
# 3 53.2187 33.1544 179.7087 0.0000 -5.5321 0.0000
# 4 0.0000 0.0000 0.0000 26.2745 0.0000 0.4449
# 5 3.0440 0.2172 -5.5321 0.0000 36.4335 0.0000
# 6 0.0000 0.0000 0.0000 0.4449 0.0000 44.3836
#
#
#
# Elastic Compliance Matrix: (Units=1/GPa)
#
#
# Indices 1 2 3 4 5 6 
#
# 1 0.023754 -0.006813 -0.005865 0.000000 -0.002835 0.000000
# 2 -0.006813 0.019417 -0.001558 0.000000 0.000217 0.000000
# 3 -0.005865 -0.001558 0.007640 0.000000 0.001659 0.000000
# 4 0.000000 0.000000 0.000000 0.038066 0.000000 -0.000382
# 5 -0.002835 0.000217 0.001659 0.000000 0.027935 0.000000
# 6 0.000000 0.000000 0.000000 -0.000382 0.000000 0.022535
#
#
# Mechanical properties :
#
#
# Convention : Reuss Voigt Hill
#
# Bulk Modulus (GPa) = 44.76396 59.09507 51.92952
# Shear Modulus (GPa) = 28.52815 34.32023 31.42419
#
# Velocity S-wave (km/s) = 3.46460 3.80007 3.63621
# Velocity P-wave (km/s) = 5.90250 6.64220 6.28324
#
# Compressibility (1/GPa) = 0.02233940
#
# Stress axis : x y z
#
# Youngs Moduli (GPa) = 42.09784 51.50044 130.89222
#
# Poissons Ratio (x) = 0.35088 0.76766
# Poissons Ratio (y) = 0.28682 0.20393
# Poissons Ratio (z) = 0.24690 0.08024
#
# Static dielectric constant tensor:
#      x y z
#    x 1.978860 0.000000 0.000810 
#    y 0.000000 2.075260 0.000000 
#    z 0.000810 0.000000 1.853560 
# 
# From -- ./inp_files/51120.got.cif
#   From: 2010.05.17/outbox.cif.g08.bks.cpg/sg14_26_cif.got.tgz:51120.got - 2010.06.03 17:49:19.
