data_PCOD9242406
_publ_section_title
;
Structure prediction by ZEFSAII (Michael W. Deem and Ramdas Pophale) SiO2 
 PCOD9242406
Probable space group: P 21/C
;
_chemical_formula_sum "Si O2"
_cell_formula_units_Z 28
_cell_length_a 12.905874
_cell_length_b 16.686981
_cell_length_c 8.682328
_cell_angle_alpha 90.000000
_cell_angle_beta 143.784408
_cell_angle_gamma 90.000000
_cell_volume 1104.740879
_symmetry_space_group_name_H-M "P 21/C"
_symmetry_group_IT_number 14
_symmetry_cell_setting 'monoclinic'
loop_
_space_group_symop_operation_xyz
x,y,z
-x,1/2+y,1/2-z
-x,-y,-z
x,1/2-y,1/2+z
loop_
_atom_site_type_symbol
_atom_site_label
_atom_site_fract_x
_atom_site_fract_y
_atom_site_fract_z
Si Si1 0.639388 0.423213 0.525833
Si Si2 0.920053 0.482537 0.073029
Si Si3 0.143235 0.636754 0.775894
Si Si4 0.241819 0.707769 0.579496
Si Si5 0.645731 0.709522 0.154061
Si Si6 0.521981 0.559522 0.172251
Si Si7 0.745818 0.642048 0.946471
O O1 0.749556 0.433830 0.810292
O O2 0.725304 0.360397 0.509906
O O3 0.619338 0.508316 0.417309
O O4 0.443715 0.394822 0.322750
O O5 0.986196 0.426246 0.293003
O O6 0.879009 0.569791 0.089653
O O7 0.000000 0.500000 0.000000
O O8 0.160318 0.714739 0.903411
O O9 0.326584 0.588138 0.977364
O O10 0.129072 0.673010 0.585931
O O11 0.439455 0.730762 0.875309
O O12 0.722376 0.673812 0.090364
O O13 0.627623 0.639115 0.256585
O O14 0.761236 0.782515 0.352683
O O15 0.500000 0.500000 0.000000
#
# Coordination Sequence:
#
# PCOD9242406 Si02
#       7
#     4   4   4   4   4   4   4
#     4  11  21  37  66  94 119 160 206 247 319 362
#     4  12  27  43  60  86 127 167 219 258 304 370
#     4  11  20  38  60  88 129 157 202 253 309 368
#     4  10  20  34  65  98 124 154 198 258 315 373
#     4  10  20  32  59  98 129 144 198 251 320 364
#     4  11  17  33  62  99 125 151 191 260 310 374
#     4  11  22  39  63  92 123 162 199 262 316 366
#
# _framework density 25.345309
#
# number of rings (size 3 to 8) (size 9 to 14) (size 15 to 20)
#    0.000    1.143    5.714    5.571    4.000    0.000 
#    0.000    3.571    0.000    0.000    0.000    0.000 
#    0.000    0.000    0.000    0.000    0.000    0.000 
#
# Total GULP energy -156840.550251 kJ/mol
# GULP energy per Si atom -5601.448223 kJ/mol
# Density = 2.528762 g / cm^3
# Si number density = 25.345309 Si / 1000 Ang^3
#
#
#
# Elastic Constant Matrix: (Units=GPa)
#
#
# Indices 1 2 3 4 5 6 
#
# 1 128.7288 49.1571 18.0213 0.0000 -19.6237 0.0000
# 2 49.1571 159.4516 22.4375 0.0000 -20.8154 0.0000
# 3 18.0213 22.4375 30.8400 0.0000 -0.9576 0.0000
# 4 0.0000 0.0000 0.0000 28.1043 0.0000 -34.6135
# 5 -19.6237 -20.8154 -0.9576 0.0000 39.7325 0.0000
# 6 0.0000 0.0000 0.0000 -34.6135 0.0000 35.2822
#
#
#
# Elastic Compliance Matrix: (Units=1/GPa)
#
#
# Indices 1 2 3 4 5 6 
#
# 1 0.009633 -0.001912 -0.004125 0.000000 0.003657 0.000000
# 2 -0.001912 0.007902 -0.004536 0.000000 0.003086 0.000000
# 3 -0.004125 -0.004536 0.038027 0.000000 -0.003497 0.000000
# 4 0.000000 0.000000 0.000000 -0.170846 0.000000 -0.167608
# 5 0.003657 0.003086 -0.003497 0.000000 0.028507 0.000000
# 6 0.000000 0.000000 0.000000 -0.167608 0.000000 -0.136089
#
#
# Mechanical properties :
#
#
# Convention : Reuss Voigt Hill
#
# Bulk Modulus (GPa) = 29.05516 55.36135 42.20826
# Shear Modulus (GPa) = -26.28149 35.91742 4.81797
#
# Velocity S-wave (km/s) = -3.22364 3.76855 1.38024
# Velocity P-wave (km/s) = 1.53858 6.38954 4.38515
#
# Compressibility (1/GPa) = 0.03441729
#
# Stress axis : x y z
#
# Youngs Moduli (GPa) = 103.80697 126.54805 26.29705
#
# Poissons Ratio (x) = 0.24197 0.10846
# Poissons Ratio (y) = 0.19849 0.11928
# Poissons Ratio (z) = 0.42815 0.57402
#
# Static dielectric constant tensor:
#      x y z
#    x 2.055850 0.000000 0.013490 
#    y 0.000000 1.978680 0.000000 
#    z 0.013490 0.000000 2.023270 
# 
# From -- ./inp_files/13420.got.cif
#   From: 2010.05.17/outbox.cif.g08.bks.cpg/sg14_7_cif.got.tgz:13420.got - 2010.06.03 17:49:19.
