data_PCOD9242089
_publ_section_title
;
Structure prediction by ZEFSAII (Michael W. Deem and Ramdas Pophale) SiO2 
 PCOD9242089
Probable space group: P 21/C
;
_chemical_formula_sum "Si O2"
_cell_formula_units_Z 32
_cell_length_a 13.922389
_cell_length_b 14.060630
_cell_length_c 9.812117
_cell_angle_alpha 90.000000
_cell_angle_beta 127.520896
_cell_angle_gamma 90.000000
_cell_volume 1523.443439
_symmetry_space_group_name_H-M "P 21/C"
_symmetry_group_IT_number 14
_symmetry_cell_setting 'monoclinic'
loop_
_space_group_symop_operation_xyz
x,y,z
-x,1/2+y,1/2-z
-x,-y,-z
x,1/2-y,1/2+z
loop_
_atom_site_type_symbol
_atom_site_label
_atom_site_fract_x
_atom_site_fract_y
_atom_site_fract_z
Si Si1 0.555776 0.463074 0.408677
Si Si2 0.816770 0.480445 0.735659
Si Si3 0.493890 0.250084 0.923417
Si Si4 0.919411 0.825931 0.282178
Si Si5 0.215286 0.054152 0.484497
Si Si6 0.663328 0.746123 0.450479
Si Si7 0.586447 0.448143 0.966459
Si Si8 0.994554 0.180784 0.343058
O O1 0.500000 0.500000 0.500000
O O2 0.697961 0.487154 0.539641
O O3 0.539914 0.348448 0.398327
O O4 0.481184 0.519256 0.230382
O O5 0.916658 0.559899 0.782034
O O6 0.873014 0.376098 0.770854
O O7 0.784817 0.507127 0.864997
O O8 0.442058 0.234345 0.029428
O O9 0.382580 0.289531 0.734780
O O10 0.586850 0.336375 0.997214
O O11 0.784529 0.798628 0.116531
O O12 0.008882 0.771873 0.257266
O O13 0.944107 0.794384 0.458626
O O14 0.304799 0.144454 0.552133
O O15 0.085678 0.104008 0.351718
O O16 0.275422 0.983767 0.428229
O O17 0.500000 0.500000 0.000000
#
# Coordination Sequence:
#
# PCOD9242089 Si02
#       8
#     4   4   4   4   4   4   4   4
#     4  12  23  41  65  94 129 176 219 264 327 393
#     4  11  22  43  67  91 128 175 216 265 324 400
#     4  12  22  36  57  93 128 166 214 261 320 384
#     4  10  20  39  68  94 119 166 219 266 317 383
#     4  10  19  39  63  88 123 165 215 259 319 376
#     4  11  20  35  62  91 123 163 215 261 306 383
#     4  12  23  39  59  93 134 168 210 268 327 383
#     4  10  23  42  68  95 121 163 223 272 321 381
#
# _framework density 21.005046
#
# number of rings (size 3 to 8) (size 9 to 14) (size 15 to 20)
#    0.000    1.000    3.750    6.000    0.000    0.000 
#    4.500    0.625    0.000    0.000    0.000    0.000 
#    0.000    0.000    0.000    0.000    0.000    0.000 
#
# Total GULP energy -178623.255145 kJ/mol
# GULP energy per Si atom -5581.976723 kJ/mol
# Density = 2.095724 g / cm^3
# Si number density = 21.005046 Si / 1000 Ang^3
#
#
#
# Elastic Constant Matrix: (Units=GPa)
#
#
# Indices 1 2 3 4 5 6 
#
# 1 29.0789 21.5664 12.6353 0.0000 -13.5969 0.0000
# 2 21.5664 100.4609 -4.8646 0.0000 -14.3166 0.0000
# 3 12.6353 -4.8646 52.2460 0.0000 -17.4233 0.0000
# 4 0.0000 0.0000 0.0000 17.6736 0.0000 -2.4912
# 5 -13.5969 -14.3166 -17.4233 0.0000 26.1946 0.0000
# 6 0.0000 0.0000 0.0000 -2.4912 0.0000 43.1375
#
#
#
# Elastic Compliance Matrix: (Units=1/GPa)
#
#
# Indices 1 2 3 4 5 6 
#
# 1 0.052652 -0.009265 -0.007930 0.000000 0.016992 0.000000
# 2 -0.009265 0.013053 0.005438 0.000000 0.005942 0.000000
# 3 -0.007930 0.005438 0.027221 0.000000 0.016962 0.000000
# 4 0.000000 0.000000 0.000000 0.057046 0.000000 0.003294
# 5 0.016992 0.005942 0.016962 0.000000 0.061525 0.000000
# 6 0.000000 0.000000 0.000000 0.003294 0.000000 0.023372
#
#
# Mechanical properties :
#
#
# Convention : Reuss Voigt Hill
#
# Bulk Modulus (GPa) = 14.40703 26.71777 20.56240
# Shear Modulus (GPa) = 17.76069 27.56439 22.66254
#
# Velocity S-wave (km/s) = 2.91098 3.62646 3.28824
# Velocity P-wave (km/s) = 4.26288 5.50293 4.92211
#
# Compressibility (1/GPa) = 0.06941056
#
# Stress axis : x y z
#
# Youngs Moduli (GPa) = 18.99276 76.60942 36.73660
#
# Poissons Ratio (x) = 0.70982 0.29131
# Poissons Ratio (y) = 0.17598 -0.19976
# Poissons Ratio (z) = 0.15061 -0.41657
#
# Static dielectric constant tensor:
#      x y z
#    x 1.778430 0.000000 0.022540 
#    y 0.000000 1.839250 0.000000 
#    z 0.022540 0.000000 1.791180 
# 
# From -- ./inp_files/16271.got.cif
#   From: 2010.05.17/outbox.cif.g08.bks.cpg/sg14_9_cif.got.tgz:16271.got - 2010.06.03 17:49:19.
