data_PCOD9242917
_publ_section_title
;
Structure prediction by ZEFSAII (Michael W. Deem and Ramdas Pophale) SiO2 
 PCOD9242917
Probable space group: P 21/C
;
_chemical_formula_sum "Si O2"
_cell_formula_units_Z 32
_cell_length_a 22.353002
_cell_length_b 12.239125
_cell_length_c 9.488708
_cell_angle_alpha 90.000000
_cell_angle_beta 38.003885
_cell_angle_gamma 90.000000
_cell_volume 1598.354017
_symmetry_space_group_name_H-M "P 21/C"
_symmetry_group_IT_number 14
_symmetry_cell_setting 'monoclinic'
loop_
_space_group_symop_operation_xyz
x,y,z
-x,1/2+y,1/2-z
-x,-y,-z
x,1/2-y,1/2+z
loop_
_atom_site_type_symbol
_atom_site_label
_atom_site_fract_x
_atom_site_fract_y
_atom_site_fract_z
Si Si1 0.046275 0.886692 0.588084
Si Si2 0.827874 0.196391 0.133508
Si Si3 0.204589 0.611941 0.998295
Si Si4 0.365391 0.439237 0.643872
Si Si5 0.495556 0.849198 0.906049
Si Si6 0.354227 0.059510 0.848375
Si Si7 0.851274 0.500390 0.371000
Si Si8 0.536389 0.334958 0.847878
O O1 0.068509 0.757451 0.535861
O O2 0.095773 0.916919 0.645685
O O3 0.108968 0.945791 0.348009
O O4 0.936595 0.922458 0.770636
O O5 0.791916 0.159655 0.352109
O O6 0.768112 0.293987 0.167544
O O7 0.834324 0.096376 0.014507
O O8 0.271346 0.507083 0.861369
O O9 0.403397 0.361502 0.697228
O O10 0.450048 0.530907 0.472143
O O11 0.350745 0.394840 0.513970
O O12 0.494501 0.802618 0.751769
O O13 0.432638 0.771519 0.123500
O O14 0.383723 0.930519 0.801472
O O15 0.441303 0.115838 0.601805
O O16 0.249071 0.062420 0.972741
#
# Coordination Sequence:
#
# PCOD9242917 Si02
#       8
#     4   4   4   4   4   4   4   4
#     4   9  20  37  57  87 115 149 186 234 294 343
#     4  10  20  36  58  87 114 146 196 242 285 342
#     4  10  20  36  57  88 117 149 195 241 286 344
#     4  10  21  36  57  87 119 148 197 237 296 341
#     4  10  22  37  56  84 116 157 188 247 289 349
#     4  10  21  39  60  89 112 157 194 242 291 349
#     4  11  20  37  62  83 119 151 187 242 291 345
#     4  10  22  38  60  82 120 150 200 236 297 346
#
# _framework density 20.020596000000001
#
# number of rings (size 3 to 8) (size 9 to 14) (size 15 to 20)
#    0.750    1.250    2.500    0.750    3.500    2.500 
#    0.000    1.250    8.250    0.000    0.000    0.000 
#    0.000    0.000    0.000    0.000    0.000    0.000 
#
# Total GULP energy -178420.882419 kJ/mol
# GULP energy per Si atom -5575.652576 kJ/mol
# Density = 1.997503 g / cm^3
# Si number density = 20.020596 Si / 1000 Ang^3
#
#
#
# Elastic Constant Matrix: (Units=GPa)
#
#
# Indices 1 2 3 4 5 6 
#
# 1 114.0144 19.9785 40.2066 0.0000 2.2561 0.0000
# 2 19.9785 22.9101 1.5814 0.0000 7.8914 0.0000
# 3 40.2066 1.5814 43.6306 0.0000 -1.7782 0.0000
# 4 0.0000 0.0000 0.0000 23.9305 0.0000 4.0652
# 5 2.2561 7.8914 -1.7782 0.0000 40.5623 0.0000
# 6 0.0000 0.0000 0.0000 4.0652 0.0000 6.3738
#
#
#
# Elastic Compliance Matrix: (Units=1/GPa)
#
#
# Indices 1 2 3 4 5 6 
#
# 1 0.016187 -0.013500 -0.014382 0.000000 0.001096 0.000000
# 2 -0.013500 0.058231 0.009916 0.000000 -0.010143 0.000000
# 3 -0.014382 0.009916 0.035832 0.000000 0.000442 0.000000
# 4 0.000000 0.000000 0.000000 0.046865 0.000000 -0.029891
# 5 0.001096 -0.010143 0.000442 0.000000 0.026585 0.000000
# 6 0.000000 0.000000 0.000000 -0.029891 0.000000 0.175958
#
#
# Mechanical properties :
#
#
# Convention : Reuss Voigt Hill
#
# Bulk Modulus (GPa) = 13.45575 33.78757 23.62166
# Shear Modulus (GPa) = 11.89453 22.09255 16.99354
#
# Velocity S-wave (km/s) = 2.44009 3.32549 2.91658
# Velocity P-wave (km/s) = 3.83070 5.62656 4.81313
#
# Compressibility (1/GPa) = 0.07431766
#
# Stress axis : x y z
#
# Youngs Moduli (GPa) = 61.77968 17.17306 27.90807
#
# Poissons Ratio (x) = 0.23183 0.40138
# Poissons Ratio (y) = 0.83402 -0.27675
# Poissons Ratio (z) = 0.88854 -0.17030
#
# Static dielectric constant tensor:
#      x y z
#    x 1.726330 0.000000 -0.004330 
#    y 0.000000 1.732040 0.000000 
#    z -0.004330 0.000000 1.711650 
# 
# From -- ./inp_files/19061.got.cif
#   From: 2010.05.17/outbox.cif.g08.bks.cpg/sg14_10_cif.got.tgz:19061.got - 2010.06.03 17:49:19.
