data_PCOD9242708
_publ_section_title
;
Structure prediction by ZEFSAII (Michael W. Deem and Ramdas Pophale) SiO2 
 PCOD9242708
Probable space group: P 21/C
;
_chemical_formula_sum "Si O2"
_cell_formula_units_Z 32
_cell_length_a 9.227089
_cell_length_b 15.148126
_cell_length_c 14.966230
_cell_angle_alpha 90.000000
_cell_angle_beta 129.968134
_cell_angle_gamma 90.000000
_cell_volume 1603.217933
_symmetry_space_group_name_H-M "P 21/C"
_symmetry_group_IT_number 14
_symmetry_cell_setting 'monoclinic'
loop_
_space_group_symop_operation_xyz
x,y,z
-x,1/2+y,1/2-z
-x,-y,-z
x,1/2-y,1/2+z
loop_
_atom_site_type_symbol
_atom_site_label
_atom_site_fract_x
_atom_site_fract_y
_atom_site_fract_z
Si Si1 0.607569 0.263155 0.123507
Si Si2 0.697009 0.461547 0.116922
Si Si3 0.642308 0.658057 0.829280
Si Si4 0.002830 0.269687 0.518080
Si Si5 0.784852 0.636458 0.254064
Si Si6 0.432688 0.754522 0.099813
Si Si7 0.001869 0.298639 0.830194
Si Si8 0.150754 0.472336 0.988908
O O1 0.681324 0.364393 0.149074
O O2 0.445185 0.272782 0.133258
O O3 0.780627 0.201796 0.220095
O O4 0.549025 0.238727 0.999847
O O5 0.776253 0.537030 0.213542
O O6 0.500000 0.500000 0.000000
O O7 0.816188 0.455396 0.072945
O O8 0.853745 0.692131 0.894210
O O9 0.518699 0.664971 0.691761
O O10 0.664299 0.563702 0.885687
O O11 0.087100 0.351398 0.607434
O O12 0.786835 0.248496 0.458975
O O13 0.021492 0.273289 0.417566
O O14 0.571068 0.673095 0.181495
O O15 0.880177 0.699800 0.215153
O O16 0.073669 0.387649 0.905136
O O17 0.000000 0.500000 0.000000
#
# Coordination Sequence:
#
# PCOD9242708 Si02
#       8
#     4   4   4   4   4   4   4   4
#     4  12  21  37  59  88 119 156 194 243 295 357
#     4  11  21  34  57  84 114 152 193 238 300 343
#     4  10  22  36  54  89 120 148 196 248 284 347
#     4  10  20  35  57  84 113 157 194 238 297 344
#     4  10  21  38  55  88 120 146 199 251 287 354
#     4  11  20  33  62  84 114 156 196 238 296 351
#     4  10  21  37  59  87 119 152 192 244 295 346
#     4  10  22  38  59  86 120 147 195 250 290 344
#
# _framework density 19.959855999999998
#
# number of rings (size 3 to 8) (size 9 to 14) (size 15 to 20)
#    0.000    1.500    5.000    1.500    3.500    0.000 
#    0.000    0.625    0.000    0.750    0.000    0.000 
#    0.000    0.000    0.000    0.000    0.000    0.000 
#
# Total GULP energy -178355.325013 kJ/mol
# GULP energy per Si atom -5573.603907 kJ/mol
# Density = 1.991443 g / cm^3
# Si number density = 19.959856 Si / 1000 Ang^3
#
#
#
# Elastic Constant Matrix: (Units=GPa)
#
#
# Indices 1 2 3 4 5 6 
#
# 1 84.7789 4.8071 29.1361 0.0000 4.3727 0.0000
# 2 4.8071 25.1182 14.8892 0.0000 -9.7434 0.0000
# 3 29.1361 14.8892 110.2970 0.0000 -3.7090 0.0000
# 4 0.0000 0.0000 0.0000 14.0741 0.0000 -0.2219
# 5 4.3727 -9.7434 -3.7090 0.0000 36.6490 0.0000
# 6 0.0000 0.0000 0.0000 -0.2219 0.0000 23.8848
#
#
#
# Elastic Compliance Matrix: (Units=1/GPa)
#
#
# Indices 1 2 3 4 5 6 
#
# 1 0.013148 -0.001411 -0.003359 0.000000 -0.002284 0.000000
# 2 -0.001411 0.048299 -0.005729 0.000000 0.012429 0.000000
# 3 -0.003359 -0.005729 0.010726 0.000000 -0.000037 0.000000
# 4 0.000000 0.000000 0.000000 0.071063 0.000000 0.000660
# 5 -0.002284 0.012429 -0.000037 0.000000 0.030859 0.000000
# 6 0.000000 0.000000 0.000000 0.000660 0.000000 0.041874
#
#
# Mechanical properties :
#
#
# Convention : Reuss Voigt Hill
#
# Bulk Modulus (GPa) = 19.54126 35.31766 27.42946
# Shear Modulus (GPa) = 19.68306 26.34570 23.01438
#
# Velocity S-wave (km/s) = 3.14368 3.63703 3.39932
# Velocity P-wave (km/s) = 4.79463 5.94728 5.40179
#
# Compressibility (1/GPa) = 0.05117378
#
# Stress axis : x y z
#
# Youngs Moduli (GPa) = 76.05877 20.70431 93.23105
#
# Poissons Ratio (x) = 0.02921 0.31321
# Poissons Ratio (y) = 0.10730 0.53416
# Poissons Ratio (z) = 0.25552 0.11862
#
# Static dielectric constant tensor:
#      x y z
#    x 1.793940 0.000000 -0.023990 
#    y 0.000000 1.720390 0.000000 
#    z -0.023990 0.000000 1.742980 
# 
# From -- ./inp_files/41709.got.cif
#   From: 2010.05.17/outbox.cif.g08.bks.cpg/sg14_21_cif.got.tgz:41709.got - 2010.06.03 17:49:19.
