data_PCOD9242511
_publ_section_title
;
Structure prediction by ZEFSAII (Michael W. Deem and Ramdas Pophale) SiO2 
 PCOD9242511
Probable space group: P 21/C
;
_chemical_formula_sum "Si O2"
_cell_formula_units_Z 32
_cell_length_a 9.984486
_cell_length_b 30.266084
_cell_length_c 5.255298
_cell_angle_alpha 90.000000
_cell_angle_beta 111.653235
_cell_angle_gamma 90.000000
_cell_volume 1476.039134
_symmetry_space_group_name_H-M "P 21/C"
_symmetry_group_IT_number 14
_symmetry_cell_setting 'monoclinic'
loop_
_space_group_symop_operation_xyz
x,y,z
-x,1/2+y,1/2-z
-x,-y,-z
x,1/2-y,1/2+z
loop_
_atom_site_type_symbol
_atom_site_label
_atom_site_fract_x
_atom_site_fract_y
_atom_site_fract_z
Si Si1 0.136416 0.227634 0.118458
Si Si2 0.672974 0.518994 0.261180
Si Si3 0.846541 0.923779 0.543834
Si Si4 0.787213 0.275050 0.424923
Si Si5 0.598452 0.438073 0.903074
Si Si6 0.106337 0.368177 0.406287
Si Si7 0.782758 0.127076 0.780226
Si Si8 0.847114 0.457705 0.682693
O O1 0.187413 0.262725 0.941027
O O2 0.164628 0.180206 0.012588
O O3 0.961972 0.228881 0.031376
O O4 0.719871 0.543795 0.038148
O O5 0.558183 0.550804 0.317577
O O6 0.814532 0.503445 0.513086
O O7 0.603201 0.471523 0.147217
O O8 0.826238 0.892437 0.288379
O O9 0.991808 0.952020 0.605472
O O10 0.870776 0.895403 0.818446
O O11 0.734180 0.249217 0.634257
O O12 0.753633 0.327069 0.401065
O O13 0.727930 0.453529 0.815875
O O14 0.645979 0.389456 0.021791
O O15 0.932687 0.365237 0.231567
O O16 0.819862 0.085494 0.986329
#
# Coordination Sequence:
#
# PCOD9242511 Si02
#       8
#     4   4   4   4   4   4   4   4
#     4   9  16  28  48  76 108 141 172 217 274 328
#     4  10  23  36  53  81 106 147 195 229 272 326
#     4  11  22  36  55  81 113 147 181 231 276 327
#     4   9  18  28  48  78 112 139 171 219 272 327
#     4  10  20  38  56  75 111 145 190 231 275 322
#     4  10  20  34  53  81 114 143 181 226 278 331
#     4   9  19  33  52  81 109 146 181 222 281 327
#     4  10  20  35  56  78 108 149 183 231 277 325
#
# _framework density 21.679644
#
# number of rings (size 3 to 8) (size 9 to 14) (size 15 to 20)
#    0.000    2.250    1.250    1.500    3.500    3.500 
#    0.000    0.000    0.000    0.000    0.000    5.250 
#    0.000    0.000    0.000    0.000    0.000    0.000 
#
# Total GULP energy -178502.602969 kJ/mol
# GULP energy per Si atom -5578.206343 kJ/mol
# Density = 2.163030 g / cm^3
# Si number density = 21.679644 Si / 1000 Ang^3
#
#
#
# Elastic Constant Matrix: (Units=GPa)
#
#
# Indices 1 2 3 4 5 6 
#
# 1 56.2791 10.4583 -0.5360 0.0000 -10.0472 0.0000
# 2 10.4583 69.9575 9.1757 0.0000 5.1230 0.0000
# 3 -0.5360 9.1757 70.7469 0.0000 -9.6802 0.0000
# 4 0.0000 0.0000 0.0000 27.3580 0.0000 -5.5060
# 5 -10.0472 5.1230 -9.6802 0.0000 15.9725 0.0000
# 6 0.0000 0.0000 0.0000 -5.5060 0.0000 14.8127
#
#
#
# Elastic Compliance Matrix: (Units=1/GPa)
#
#
# Indices 1 2 3 4 5 6 
#
# 1 0.021785 -0.004930 0.003158 0.000000 0.017199 0.000000
# 2 -0.004930 0.016270 -0.003583 0.000000 -0.010491 0.000000
# 3 0.003158 -0.003583 0.016414 0.000000 0.013083 0.000000
# 4 0.000000 0.000000 0.000000 0.039508 0.000000 0.014685
# 5 0.017199 -0.010491 0.013083 0.000000 0.084720 0.000000
# 6 0.000000 0.000000 0.000000 0.014685 0.000000 0.072968
#
#
# Mechanical properties :
#
#
# Convention : Reuss Voigt Hill
#
# Bulk Modulus (GPa) = 22.85329 26.13106 24.49218
# Shear Modulus (GPa) = 18.05299 23.48768 20.77033
#
# Velocity S-wave (km/s) = 2.88881 3.29507 3.09861
# Velocity P-wave (km/s) = 4.65738 5.15326 4.91158
#
# Compressibility (1/GPa) = 0.04375738
#
# Stress axis : x y z
#
# Youngs Moduli (GPa) = 45.90249 61.46398 60.92488
#
# Poissons Ratio (x) = 0.30305 -0.19239
# Poissons Ratio (y) = 0.22632 0.21829
# Poissons Ratio (z) = -0.14495 0.22022
#
# Static dielectric constant tensor:
#      x y z
#    x 1.826860 0.000000 0.057950 
#    y 0.000000 1.817390 0.000000 
#    z 0.057950 0.000000 1.879810 
# 
# From -- ./inp_files/2241.got.cif
#   From: 2010.05.17/outbox.cif.g08.bks.cpg/sg14_2_cif.got.tgz:2241.got - 2010.06.03 17:49:19.
