data_PCOD9242373
_publ_section_title
;
Structure prediction by ZEFSAII (Michael W. Deem and Ramdas Pophale) SiO2 
 PCOD9242373
Probable space group: P 21/C
;
_chemical_formula_sum "Si O2"
_cell_formula_units_Z 32
_cell_length_a 11.373613
_cell_length_b 22.057879
_cell_length_c 16.792071
_cell_angle_alpha 90.000000
_cell_angle_beta 20.458829
_cell_angle_gamma 90.000000
_cell_volume 1472.502930
_symmetry_space_group_name_H-M "P 21/C"
_symmetry_group_IT_number 14
_symmetry_cell_setting 'monoclinic'
loop_
_space_group_symop_operation_xyz
x,y,z
-x,1/2+y,1/2-z
-x,-y,-z
x,1/2-y,1/2+z
loop_
_atom_site_type_symbol
_atom_site_label
_atom_site_fract_x
_atom_site_fract_y
_atom_site_fract_z
Si Si1 0.817854 0.775745 0.743789
Si Si2 0.533594 0.934737 0.718938
Si Si3 0.316245 0.091243 0.202143
Si Si4 0.180495 0.775760 0.257055
Si Si5 0.546454 0.300943 0.789847
Si Si6 0.464842 0.934700 0.281850
Si Si7 0.544702 0.800857 0.290706
Si Si8 0.314740 0.908742 0.202895
O O1 0.728607 0.837058 0.752705
O O2 0.810963 0.719891 0.687727
O O3 0.162636 0.793030 0.568668
O O4 0.499130 0.766079 0.000435
O O5 0.499109 0.933198 0.836909
O O6 0.407105 0.870315 0.765833
O O7 0.934778 0.933495 0.444683
O O8 0.401770 0.000099 0.773408
O O9 0.936389 0.066413 0.443872
O O10 0.500734 0.082899 0.999632
O O11 0.187375 0.719880 0.313087
O O12 0.270201 0.837040 0.247880
O O13 0.835748 0.793116 0.432170
O O14 0.500813 0.250064 0.749584
O O15 0.590801 0.870213 0.235172
O O16 0.499144 0.933260 0.163988
#
# Coordination Sequence:
#
# PCOD9242373 Si02
#       8
#     4   4   4   4   4   4   4   4
#     4  10  20  34  57  85 111 140 187 230 277 324
#     4  10  20  32  50  78 110 143 181 225 275 327
#     4   9  17  31  52  80 108 139 178 228 280 323
#     4  10  20  34  57  85 111 140 187 230 277 324
#     4  11  20  36  57  81 110 148 181 229 278 325
#     4  10  20  32  50  78 110 143 181 225 275 327
#     4  11  20  36  57  81 110 148 181 229 278 325
#     4   9  17  31  52  80 108 139 178 228 280 323
#
# _framework density 21.731705000000002
#
# number of rings (size 3 to 8) (size 9 to 14) (size 15 to 20)
#    0.000    2.000    2.500    3.000    0.000    2.000 
#    0.000    0.000    0.000    3.750    0.000    0.000 
#    0.000    0.000    0.000    0.000    0.000    0.000 
#
# Total GULP energy -178322.822215 kJ/mol
# GULP energy per Si atom -5572.588194 kJ/mol
# Density = 2.168224 g / cm^3
# Si number density = 21.731705 Si / 1000 Ang^3
#
#
#
# Elastic Constant Matrix: (Units=GPa)
#
#
# Indices 1 2 3 4 5 6 
#
# 1 49.7377 51.7560 27.9642 0.0000 -5.9404 0.0000
# 2 51.7560 211.8818 10.8621 0.0000 -1.9483 0.0000
# 3 27.9642 10.8621 72.1546 0.0000 13.9729 0.0000
# 4 0.0000 0.0000 0.0000 6.7915 0.0000 6.0500
# 5 -5.9404 -1.9483 13.9729 0.0000 37.8924 0.0000
# 6 0.0000 0.0000 0.0000 6.0500 0.0000 11.0595
#
#
#
# Elastic Compliance Matrix: (Units=1/GPa)
#
#
# Indices 1 2 3 4 5 6 
#
# 1 0.039931 -0.008801 -0.016450 0.000000 0.011873 0.000000
# 2 -0.008801 0.006707 0.002802 0.000000 -0.002068 0.000000
# 3 -0.016450 0.002802 0.021844 0.000000 -0.010490 0.000000
# 4 0.000000 0.000000 0.000000 0.287201 0.000000 -0.157111
# 5 0.011873 -0.002068 -0.010490 0.000000 0.032014 0.000000
# 6 0.000000 0.000000 0.000000 -0.157111 0.000000 0.176366
#
#
# Mechanical properties :
#
#
# Convention : Reuss Voigt Hill
#
# Bulk Modulus (GPa) = 42.40350 57.21542 49.80946
# Shear Modulus (GPa) = 8.10606 27.36146 17.73376
#
# Velocity S-wave (km/s) = 1.93343 3.55217 2.85973
# Velocity P-wave (km/s) = 4.95367 6.57336 5.82014
#
# Compressibility (1/GPa) = 0.02358296
#
# Stress axis : x y z
#
# Youngs Moduli (GPa) = 25.04343 149.10160 45.77924
#
# Poissons Ratio (x) = 1.31229 0.75306
# Poissons Ratio (y) = 0.22041 -0.12827
# Poissons Ratio (z) = 0.41196 -0.41776
#
# Static dielectric constant tensor:
#      x y z
#    x 1.801230 0.000000 0.022940 
#    y 0.000000 1.857300 0.000000 
#    z 0.022940 0.000000 1.929420 
# 
# From -- ./inp_files/58202.got.cif
#   From: 2010.05.17/outbox.cif.g08.bks.cpg/sg14_30_cif.got.tgz:58202.got - 2010.06.03 17:49:19.
