data_PCOD9242044
_publ_section_title
;
Structure prediction by ZEFSAII (Michael W. Deem and Ramdas Pophale) SiO2 
 PCOD9242044
Probable space group: P 21/C
;
_chemical_formula_sum "Si O2"
_cell_formula_units_Z 32
_cell_length_a 10.419013
_cell_length_b 21.547676
_cell_length_c 9.106571
_cell_angle_alpha 90.000000
_cell_angle_beta 139.897191
_cell_angle_gamma 90.000000
_cell_volume 1316.971600
_symmetry_space_group_name_H-M "P 21/C"
_symmetry_group_IT_number 14
_symmetry_cell_setting 'monoclinic'
loop_
_space_group_symop_operation_xyz
x,y,z
-x,1/2+y,1/2-z
-x,-y,-z
x,1/2-y,1/2+z
loop_
_atom_site_type_symbol
_atom_site_label
_atom_site_fract_x
_atom_site_fract_y
_atom_site_fract_z
Si Si1 0.107393 0.771079 0.349162
Si Si2 0.701467 0.696568 0.412963
Si Si3 0.186392 0.839029 0.692910
Si Si4 0.763245 0.699558 0.160500
Si Si5 0.880738 0.554869 0.968367
Si Si6 0.970116 0.929778 0.861442
Si Si7 0.341939 0.498040 0.726933
Si Si8 0.453597 0.080327 0.044291
O O1 0.235207 0.812605 0.570857
O O2 0.192534 0.715432 0.322775
O O3 0.947425 0.747283 0.332323
O O4 0.944848 0.808576 0.110583
O O5 0.880435 0.636729 0.243464
O O6 0.640345 0.643107 0.468537
O O7 0.654280 0.765851 0.431571
O O8 0.980536 0.877363 0.526293
O O9 0.340704 0.895572 0.842535
O O10 0.625195 0.692493 0.180536
O O11 0.673879 0.557366 0.703773
O O12 0.892795 0.535402 0.148798
O O13 0.000000 0.500000 0.000000
O O14 0.843013 0.953344 0.888035
O O15 0.208377 0.939223 0.086135
O O16 0.439743 0.468137 0.667740
O O17 0.500000 0.500000 0.000000
#
# Coordination Sequence:
#
# PCOD9242044 Si02
#       8
#     4   4   4   4   4   4   4   4
#     4  10  20  43  66  95 140 184 226 283 353 420
#     4  10  20  39  68  95 133 180 226 285 350 414
#     4  12  26  44  69 105 145 189 237 295 360 424
#     4  10  19  38  71  94 134 179 233 281 344 423
#     4  12  25  47  75 103 144 191 240 299 362 431
#     4  11  24  46  76  99 134 194 236 285 364 414
#     4  11  27  48  69 105 139 186 241 295 348 427
#     4  12  27  44  69 107 143 186 238 296 364 420
#
# _framework density 24.298169000000001
#
# number of rings (size 3 to 8) (size 9 to 14) (size 15 to 20)
#    0.750    0.250    6.250    0.000    3.500    3.500 
#    0.000    0.000    0.000    0.000    0.000    0.000 
#    0.000    0.000    0.000    0.000    0.000    0.000 
#
# Total GULP energy -178257.728488 kJ/mol
# GULP energy per Si atom -5570.554015 kJ/mol
# Density = 2.424287 g / cm^3
# Si number density = 24.298169 Si / 1000 Ang^3
#
#
#
# Elastic Constant Matrix: (Units=GPa)
#
#
# Indices 1 2 3 4 5 6 
#
# 1 81.7514 29.9803 42.9958 0.0000 -11.4880 0.0000
# 2 29.9803 88.0642 9.8288 0.0000 -0.6294 0.0000
# 3 42.9958 9.8288 109.4789 0.0000 -8.5928 0.0000
# 4 0.0000 0.0000 0.0000 36.9550 0.0000 -1.2012
# 5 -11.4880 -0.6294 -8.5928 0.0000 29.1198 0.0000
# 6 0.0000 0.0000 0.0000 -1.2012 0.0000 54.7708
#
#
#
# Elastic Compliance Matrix: (Units=1/GPa)
#
#
# Indices 1 2 3 4 5 6 
#
# 1 0.018281 -0.005486 -0.006276 0.000000 0.005242 0.000000
# 2 -0.005486 0.013116 0.000849 0.000000 -0.001630 0.000000
# 3 -0.006276 0.000849 0.011598 0.000000 0.000965 0.000000
# 4 0.000000 0.000000 0.000000 0.027079 0.000000 0.000594
# 5 0.005242 -0.001630 0.000965 0.000000 0.036658 0.000000
# 6 0.000000 0.000000 0.000000 0.000594 0.000000 0.018271
#
#
# Mechanical properties :
#
#
# Convention : Reuss Voigt Hill
#
# Bulk Modulus (GPa) = 47.23439 49.43383 48.33411
# Shear Modulus (GPa) = 32.49151 37.26842 34.87997
#
# Velocity S-wave (km/s) = 3.66074 3.92062 3.79291
# Velocity P-wave (km/s) = 6.11144 6.39405 6.25434
#
# Compressibility (1/GPa) = 0.02117102
#
# Stress axis : x y z
#
# Youngs Moduli (GPa) = 54.70133 76.23995 86.21905
#
# Poissons Ratio (x) = 0.41823 0.54108
# Poissons Ratio (y) = 0.30007 -0.07319
# Poissons Ratio (z) = 0.34329 -0.06472
#
# Static dielectric constant tensor:
#      x y z
#    x 1.953680 0.000000 0.051520 
#    y 0.000000 2.153150 0.000000 
#    z 0.051520 0.000000 1.996400 
# 
# From -- ./inp_files/14556.got.cif
#   From: 2010.05.17/outbox.cif.g08.bks.cpg/sg14_8_cif.got.tgz:14556.got - 2010.06.03 17:49:19.
