data_PCOD9242973
_publ_section_title
;
Structure prediction by ZEFSAII (Michael W. Deem and Ramdas Pophale) SiO2 
 PCOD9242973
Probable space group: P 21/C
;
_chemical_formula_sum "Si O2"
_cell_formula_units_Z 24
_cell_length_a 19.154983
_cell_length_b 8.410382
_cell_length_c 25.078525
_cell_angle_alpha 90.000000
_cell_angle_beta 18.983916
_cell_angle_gamma 90.000000
_cell_volume 1314.277803
_symmetry_space_group_name_H-M "P 21/C"
_symmetry_group_IT_number 14
_symmetry_cell_setting 'monoclinic'
loop_
_space_group_symop_operation_xyz
x,y,z
-x,1/2+y,1/2-z
-x,-y,-z
x,1/2-y,1/2+z
loop_
_atom_site_type_symbol
_atom_site_label
_atom_site_fract_x
_atom_site_fract_y
_atom_site_fract_z
Si Si1 0.253460 0.642971 0.822290
Si Si2 0.475374 0.960805 0.681170
Si Si3 0.628510 0.936933 0.356375
Si Si4 0.688962 0.563063 0.326158
Si Si5 0.849219 0.539197 0.994237
Si Si6 0.950459 0.857050 0.973793
O O1 0.434213 0.772569 0.705038
O O2 0.309021 0.533470 0.731344
O O3 0.207987 0.540776 0.907481
O O4 0.049366 0.750000 0.950635
O O5 0.666702 0.995362 0.583298
O O6 0.506504 0.027674 0.599479
O O7 0.253887 0.040774 0.861585
O O8 0.667598 0.750002 0.332403
O O9 0.500000 0.000000 0.500000
O O10 0.852438 0.033480 0.187939
O O11 0.500000 0.500000 0.500000
O O12 0.917437 0.527688 0.188550
O O13 0.877222 0.727427 0.983532
#
# Coordination Sequence:
#
# PCOD9242973 Si02
#       6
#     4   4   4   4   4   4
#     4  10  20  36  59  83 115 152 188 225 276 339
#     4  11  21  36  58  88 116 145 187 238 280 323
#     4  11  22  40  61  81 111 153 192 227 278 344
#     4  11  22  40  61  81 111 153 192 227 278 344
#     4  11  21  36  58  88 116 145 187 238 280 323
#     4  10  20  36  59  83 115 152 188 225 276 339
#
# _framework density 18.260978999999999
#
# number of rings (size 3 to 8) (size 9 to 14) (size 15 to 20)
#    0.000    1.333    0.000   11.000    0.000    0.000 
#    0.000   10.000    0.000    0.000    0.000    0.000 
#    0.000    0.000    0.000    0.000    0.000    0.000 
#
# Total GULP energy -134093.427657 kJ/mol
# GULP energy per Si atom -5587.226152 kJ/mol
# Density = 1.821942 g / cm^3
# Si number density = 18.260979 Si / 1000 Ang^3
#
#
#
# Elastic Constant Matrix: (Units=GPa)
#
#
# Indices 1 2 3 4 5 6 
#
# 1 143.5705 63.7969 109.7966 0.0000 -11.7864 0.0000
# 2 63.7969 152.9391 66.8831 0.0000 2.6922 0.0000
# 3 109.7966 66.8831 131.5718 0.0000 1.2151 0.0000
# 4 0.0000 0.0000 0.0000 28.9603 0.0000 5.3436
# 5 -11.7864 2.6922 1.2151 0.0000 21.5938 0.0000
# 6 0.0000 0.0000 0.0000 5.3436 0.0000 22.8705
#
#
#
# Elastic Compliance Matrix: (Units=1/GPa)
#
#
# Indices 1 2 3 4 5 6 
#
# 1 0.022915 -0.001778 -0.018346 0.000000 0.013762 0.000000
# 2 -0.001778 0.008560 -0.002850 0.000000 -0.001877 0.000000
# 3 -0.018346 -0.002850 0.024461 0.000000 -0.011035 0.000000
# 4 0.000000 0.000000 0.000000 0.036086 0.000000 -0.008431
# 5 0.013762 -0.001877 -0.011035 0.000000 0.054676 0.000000
# 6 0.000000 0.000000 0.000000 -0.008431 0.000000 0.045694
#
#
# Mechanical properties :
#
#
# Convention : Reuss Voigt Hill
#
# Bulk Modulus (GPa) = 100.12519 101.00384 100.56451
# Shear Modulus (GPa) = 20.68936 27.19193 23.94064
#
# Velocity S-wave (km/s) = 3.36963 3.86304 3.62474
# Velocity P-wave (km/s) = 8.37188 8.67922 8.52693
#
# Compressibility (1/GPa) = 0.00998750
#
# Stress axis : x y z
#
# Youngs Moduli (GPa) = 43.63863 116.82661 40.88137
#
# Poissons Ratio (x) = 0.20773 0.75002
# Poissons Ratio (y) = 0.07759 0.11652
# Poissons Ratio (z) = 0.80060 0.33297
#
# Static dielectric constant tensor:
#      x y z
#    x 1.620360 0.000000 -0.002870 
#    y 0.000000 1.646690 0.000000 
#    z -0.002870 0.000000 1.616740 
# 
# From -- ./inp_files/38922.got.cif
#   From: 2010.05.17/outbox.cif.g08.bks.cpg/sg14_20_cif.got.tgz:38922.got - 2010.06.03 17:49:19.
