data_PCOD9242727
_publ_section_title
;
Structure prediction by ZEFSAII (Michael W. Deem and Ramdas Pophale) SiO2 
 PCOD9242727
Probable space group: P 21/C
;
_chemical_formula_sum "Si O2"
_cell_formula_units_Z 32
_cell_length_a 15.702924
_cell_length_b 7.831808
_cell_length_c 11.623626
_cell_angle_alpha 90.000000
_cell_angle_beta 121.281627
_cell_angle_gamma 90.000000
_cell_volume 1221.687062
_symmetry_space_group_name_H-M "P 21/C"
_symmetry_group_IT_number 14
_symmetry_cell_setting 'monoclinic'
loop_
_space_group_symop_operation_xyz
x,y,z
-x,1/2+y,1/2-z
-x,-y,-z
x,1/2-y,1/2+z
loop_
_atom_site_type_symbol
_atom_site_label
_atom_site_fract_x
_atom_site_fract_y
_atom_site_fract_z
Si Si1 0.114682 0.843432 0.114158
Si Si2 0.264011 0.663449 0.079083
Si Si3 0.467098 0.532750 0.160104
Si Si4 0.088640 0.021891 0.327806
Si Si5 0.588935 0.765427 0.575929
Si Si6 0.775981 0.813783 0.865755
Si Si7 0.062133 0.331420 0.150612
Si Si8 0.346261 0.006163 0.043964
O O1 0.212604 0.729400 0.159757
O O2 0.079918 0.886625 0.216996
O O3 0.148949 0.027330 0.090587
O O4 0.028920 0.764411 0.976037
O O5 0.370264 0.574844 0.166498
O O6 0.284599 0.831732 0.013990
O O7 0.188449 0.540914 0.959424
O O8 0.500878 0.693007 0.104032
O O9 0.561080 0.490847 0.303968
O O10 0.440045 0.379901 0.054623
O O11 0.989893 0.999544 0.336293
O O12 0.095594 0.208136 0.277833
O O13 0.688651 0.830544 0.709745
O O14 0.612978 0.576408 0.547694
O O15 0.845560 0.658812 0.871774
O O16 0.722051 0.841420 0.949122
#
# Coordination Sequence:
#
# PCOD9242727 Si02
#       8
#     4   4   4   4   4   4   4   4
#     4   9  19  37  57  79 107 148 185 219 274 334
#     4  10  21  37  57  81 110 145 184 227 276 323
#     4  10  20  37  57  79 109 146 184 225 275 330
#     4  10  20  36  57  83 111 146 184 225 275 330
#     4  10  21  35  55  82 108 143 186 224 271 330
#     4   9  18  33  54  77 106 142 179 220 268 326
#     4  10  20  35  58  82 108 144 186 225 274 329
#     4  10  21  36  55  80 109 142 184 229 272 322
#
# _framework density 26.193287000000002
#
# number of rings (size 3 to 8) (size 9 to 14) (size 15 to 20)
#    0.000    2.250    0.000    3.750    0.000    7.500 
#    0.000    6.250    0.000    1.500    0.000    0.000 
#    0.000    0.000    0.000    0.000    0.000    0.000 
#
# Total GULP energy -179234.939327 kJ/mol
# GULP energy per Si atom -5601.091854 kJ/mol
# Density = 2.613367 g / cm^3
# Si number density = 26.193287 Si / 1000 Ang^3
#
#
#
# Elastic Constant Matrix: (Units=GPa)
#
#
# Indices 1 2 3 4 5 6 
#
# 1 139.8794 28.9003 39.4246 0.0000 19.0602 0.0000
# 2 28.9003 104.0077 35.3315 0.0000 -5.1132 0.0000
# 3 39.4246 35.3315 82.9238 0.0000 6.3339 0.0000
# 4 0.0000 0.0000 0.0000 17.7132 0.0000 -0.9853
# 5 19.0602 -5.1132 6.3339 0.0000 28.6776 0.0000
# 6 0.0000 0.0000 0.0000 -0.9853 0.0000 49.4591
#
#
#
# Elastic Compliance Matrix: (Units=1/GPa)
#
#
# Indices 1 2 3 4 5 6 
#
# 1 0.009187 -0.001752 -0.003185 0.000000 -0.005715 0.000000
# 2 -0.001752 0.011856 -0.004546 0.000000 0.004282 0.000000
# 3 -0.003185 -0.004546 0.015675 0.000000 -0.002156 0.000000
# 4 0.000000 0.000000 0.000000 0.056518 0.000000 0.001126
# 5 -0.005715 0.004282 -0.002156 0.000000 0.039909 0.000000
# 6 0.000000 0.000000 0.000000 0.001126 0.000000 0.020241
#
#
# Mechanical properties :
#
#
# Convention : Reuss Voigt Hill
#
# Bulk Modulus (GPa) = 56.32774 59.34708 57.83741
# Shear Modulus (GPa) = 28.04748 34.04696 31.04722
#
# Velocity S-wave (km/s) = 3.27584 3.60923 3.44657
# Velocity P-wave (km/s) = 5.98828 6.33051 6.16177
#
# Compressibility (1/GPa) = 0.01775324
#
# Stress axis : x y z
#
# Youngs Moduli (GPa) = 108.84453 84.34403 63.79584
#
# Poissons Ratio (x) = 0.14776 0.20319
# Poissons Ratio (y) = 0.19068 0.29000
# Poissons Ratio (z) = 0.34667 0.38341
#
# Static dielectric constant tensor:
#      x y z
#    x 2.049940 0.000000 -0.021320 
#    y 0.000000 2.124900 0.000000 
#    z -0.021320 0.000000 1.978930 
# 
# From -- ./inp_files/48430.got.cif
#   From: 2010.05.17/outbox.cif.g08.bks.cpg/sg14_25_cif.got.tgz:48430.got - 2010.06.03 17:49:19.
