data_PCOD9242896
_publ_section_title
;
Structure prediction by ZEFSAII (Michael W. Deem and Ramdas Pophale) SiO2 
 PCOD9242896
Probable space group: P 21/C
;
_chemical_formula_sum "Si O2"
_cell_formula_units_Z 28
_cell_length_a 24.181169
_cell_length_b 9.508702
_cell_length_c 10.369668
_cell_angle_alpha 90.000000
_cell_angle_beta 32.689455
_cell_angle_gamma 90.000000
_cell_volume 1287.733065
_symmetry_space_group_name_H-M "P 21/C"
_symmetry_group_IT_number 14
_symmetry_cell_setting 'monoclinic'
loop_
_space_group_symop_operation_xyz
x,y,z
-x,1/2+y,1/2-z
-x,-y,-z
x,1/2-y,1/2+z
loop_
_atom_site_type_symbol
_atom_site_label
_atom_site_fract_x
_atom_site_fract_y
_atom_site_fract_z
Si Si1 0.430704 0.396748 0.297892
Si Si2 0.823158 0.995082 0.352694
Si Si3 0.990183 0.429511 0.183793
Si Si4 0.576518 0.843088 0.473035
Si Si5 0.013305 0.713672 0.534887
Si Si6 0.207399 0.109198 0.852547
Si Si7 0.213246 0.439177 0.801830
O O1 0.449515 0.317336 0.125454
O O2 0.436062 0.288791 0.406564
O O3 0.314817 0.458663 0.520858
O O4 0.508298 0.526056 0.153427
O O5 0.764555 0.965767 0.336543
O O6 0.760103 0.987889 0.606235
O O7 0.886017 0.137146 0.216762
O O8 0.912020 0.875558 0.192572
O O9 0.991793 0.352129 0.043312
O O10 0.979651 0.316796 0.324444
O O11 0.894737 0.535241 0.393117
O O12 0.102233 0.500868 0.984129
O O13 0.695499 0.889222 0.246110
O O14 0.191550 0.272113 0.848653
#
# Coordination Sequence:
#
# PCOD9242896 Si02
#       7
#     4   4   4   4   4   4   4
#     4  10  24  46  68  95 126 165 214 267 320 383
#     4   9  18  36  54  82 116 164 200 230 300 363
#     4  10  20  36  56  89 122 162 203 242 303 359
#     4  10  24  47  68  95 127 163 215 269 320 381
#     4   9  18  35  54  75 125 160 196 245 284 360
#     4  10  21  37  61  86 126 157 201 254 297 367
#     4  10  21  35  64  85 120 164 202 250 304 372
#
# _framework density 21.743637
#
# number of rings (size 3 to 8) (size 9 to 14) (size 15 to 20)
#    0.000    2.286    1.429    0.857    8.000    0.571 
#    5.143    6.429    0.000    0.000    0.000    0.000 
#    0.000    0.000    0.000    0.000    0.000    0.000 
#
# Total GULP energy -156292.602664 kJ/mol
# GULP energy per Si atom -5581.878667 kJ/mol
# Density = 2.169415 g / cm^3
# Si number density = 21.743637 Si / 1000 Ang^3
#
#
#
# Elastic Constant Matrix: (Units=GPa)
#
#
# Indices 1 2 3 4 5 6 
#
# 1 49.2845 -9.0749 5.7591 0.0000 19.0952 0.0000
# 2 -9.0749 12.5345 1.1967 0.0000 -10.3822 0.0000
# 3 5.7591 1.1967 66.3037 0.0000 -5.4915 0.0000
# 4 0.0000 0.0000 0.0000 9.5589 0.0000 11.4434
# 5 19.0952 -10.3822 -5.4915 0.0000 41.1365 0.0000
# 6 0.0000 0.0000 0.0000 11.4434 0.0000 17.4551
#
#
#
# Elastic Compliance Matrix: (Units=1/GPa)
#
#
# Indices 1 2 3 4 5 6 
#
# 1 0.026623 0.011364 -0.003340 0.000000 -0.009936 0.000000
# 2 0.011364 0.105722 -0.001135 0.000000 0.021256 0.000000
# 3 -0.003340 -0.001135 0.015671 0.000000 0.003356 0.000000
# 4 0.000000 0.000000 0.000000 0.486216 0.000000 -0.318759
# 5 -0.009936 0.021256 0.003356 0.000000 0.034734 0.000000
# 6 0.000000 0.000000 0.000000 -0.318759 0.000000 0.266266
#
#
# Mechanical properties :
#
#
# Convention : Reuss Voigt Hill
#
# Bulk Modulus (GPa) = 6.18075 13.76494 9.97285
# Shear Modulus (GPa) = 5.12618 22.31288 13.71953
#
# Velocity S-wave (km/s) = 1.53710 3.20688 2.51463
# Velocity P-wave (km/s) = 2.44928 4.47844 3.60939
#
# Compressibility (1/GPa) = 0.16179265
#
# Stress axis : x y z
#
# Youngs Moduli (GPa) = 37.56175 9.45879 63.81330
#
# Poissons Ratio (x) = -0.10749 0.21317
# Poissons Ratio (y) = -0.42684 0.07241
# Poissons Ratio (z) = 0.12547 0.01073
#
# Static dielectric constant tensor:
#      x y z
#    x 1.831880 0.000000 0.027120 
#    y 0.000000 1.842590 0.000000 
#    z 0.027120 0.000000 1.791820 
# 
# From -- ./inp_files/36148.got.cif
#   From: 2010.05.17/outbox.cif.g08.bks.cpg/sg14_19_cif.got.tgz:36148.got - 2010.06.03 17:49:19.
