data_PCOD9242812
_publ_section_title
;
Structure prediction by ZEFSAII (Michael W. Deem and Ramdas Pophale) SiO2 
 PCOD9242812
Probable space group: P 21/C
;
_chemical_formula_sum "Si O2"
_cell_formula_units_Z 24
_cell_length_a 5.868450
_cell_length_b 16.178128
_cell_length_c 13.739557
_cell_angle_alpha 90.000000
_cell_angle_beta 113.199963
_cell_angle_gamma 90.000000
_cell_volume 1198.958057
_symmetry_space_group_name_H-M "P 21/C"
_symmetry_group_IT_number 14
_symmetry_cell_setting 'monoclinic'
loop_
_space_group_symop_operation_xyz
x,y,z
-x,1/2+y,1/2-z
-x,-y,-z
x,1/2-y,1/2+z
loop_
_atom_site_type_symbol
_atom_site_label
_atom_site_fract_x
_atom_site_fract_y
_atom_site_fract_z
Si Si1 0.670081 0.567161 0.973837
Si Si2 0.776440 0.443556 0.846732
Si Si3 0.006198 0.384081 0.698054
Si Si4 0.732405 0.970926 0.918262
Si Si5 0.437340 0.632498 0.517647
Si Si6 0.427366 0.308297 0.890136
O O1 0.581944 0.654746 0.000908
O O2 0.949253 0.561521 0.060640
O O3 0.500000 0.500000 0.000000
O O4 0.672070 0.532249 0.864842
O O5 0.825311 0.432953 0.740996
O O6 0.621787 0.366698 0.865032
O O7 0.825181 0.352345 0.582490
O O8 0.213404 0.441646 0.681786
O O9 0.164830 0.320941 0.790333
O O10 0.574420 0.052338 0.914755
O O11 0.630582 0.895296 0.966136
O O12 0.000000 0.000000 0.000000
O O13 0.504900 0.713434 0.588529
#
# Coordination Sequence:
#
# PCOD9242812 Si02
#       6
#     4   4   4   4   4   4
#     4   8  16  31  55  84 113 158 192 232 303 358
#     4   9  17  33  59  80 120 157 193 241 300 361
#     4  10  20  35  62  86 119 161 203 249 305 366
#     4   9  20  39  64  83 113 159 208 253 300 360
#     4  10  21  39  65  84 121 161 204 252 306 356
#     4  10  20  35  64  85 123 159 197 252 308 359
#
# _framework density 20.017382000000001
#
# number of rings (size 3 to 8) (size 9 to 14) (size 15 to 20)
#    0.000    2.667    0.000    1.000    0.000    5.333 
#    0.000    0.000  157.667    0.000    0.000    0.000 
#    0.000    0.000    0.000    0.000    0.000    0.000 
#
# Total GULP energy -133603.498462 kJ/mol
# GULP energy per Si atom -5566.812436 kJ/mol
# Density = 1.997182 g / cm^3
# Si number density = 20.017382 Si / 1000 Ang^3
#
#
#
# Elastic Constant Matrix: (Units=GPa)
#
#
# Indices 1 2 3 4 5 6 
#
# 1 86.2952 28.3564 29.6523 0.0000 -4.7977 0.0000
# 2 28.3564 95.3074 46.9621 0.0000 -2.3448 0.0000
# 3 29.6523 46.9621 93.1408 0.0000 -2.6427 0.0000
# 4 0.0000 0.0000 0.0000 26.6651 0.0000 9.2907
# 5 -4.7977 -2.3448 -2.6427 0.0000 48.0836 0.0000
# 6 0.0000 0.0000 0.0000 9.2907 0.0000 18.0146
#
#
#
# Elastic Compliance Matrix: (Units=1/GPa)
#
#
# Indices 1 2 3 4 5 6 
#
# 1 0.013504 -0.002512 -0.003002 0.000000 0.001060 0.000000
# 2 -0.002512 0.014432 -0.006474 0.000000 0.000097 0.000000
# 3 -0.003002 -0.006474 0.014963 0.000000 0.000207 0.000000
# 4 0.000000 0.000000 0.000000 0.045717 0.000000 -0.023578
# 5 0.001060 0.000097 0.000207 0.000000 0.020919 0.000000
# 6 0.000000 0.000000 0.000000 -0.023578 0.000000 0.067670
#
#
# Mechanical properties :
#
#
# Convention : Reuss Voigt Hill
#
# Bulk Modulus (GPa) = 52.85112 53.85390 53.35251
# Shear Modulus (GPa) = 24.09744 29.87083 26.98413
#
# Velocity S-wave (km/s) = 3.47338 3.86715 3.67554
# Velocity P-wave (km/s) = 6.52271 6.84849 6.68758
#
# Compressibility (1/GPa) = 0.01892107
#
# Stress axis : x y z
#
# Youngs Moduli (GPa) = 74.05055 69.28842 66.83360
#
# Poissons Ratio (x) = 0.17408 0.20066
# Poissons Ratio (y) = 0.18604 0.43270
# Poissons Ratio (z) = 0.22233 0.44859
#
# Static dielectric constant tensor:
#      x y z
#    x 1.774220 0.000000 -0.003150 
#    y 0.000000 1.682930 0.000000 
#    z -0.003150 0.000000 1.779130 
# 
# From -- ./inp_files/37208.got.cif
#   From: 2010.05.17/outbox.cif.g08.bks.cpg/sg14_19_cif.got.tgz:37208.got - 2010.06.03 17:49:19.
