data_PCOD9242830
_publ_section_title
;
Structure prediction by ZEFSAII (Michael W. Deem and Ramdas Pophale) SiO2 
 PCOD9242830
Probable space group: P 21/C
;
_chemical_formula_sum "Si O2"
_cell_formula_units_Z 24
_cell_length_a 9.092936
_cell_length_b 6.970098
_cell_length_c 22.415333
_cell_angle_alpha 90.000000
_cell_angle_beta 63.626433
_cell_angle_gamma 90.000000
_cell_volume 1272.787471
_symmetry_space_group_name_H-M "P 21/C"
_symmetry_group_IT_number 14
_symmetry_cell_setting 'monoclinic'
loop_
_space_group_symop_operation_xyz
x,y,z
-x,1/2+y,1/2-z
-x,-y,-z
x,1/2-y,1/2+z
loop_
_atom_site_type_symbol
_atom_site_label
_atom_site_fract_x
_atom_site_fract_y
_atom_site_fract_z
Si Si1 0.399221 0.929365 0.701498
Si Si2 0.266930 0.517162 0.100147
Si Si3 0.946331 0.958194 0.577821
Si Si4 0.445583 0.215395 0.001119
Si Si5 0.336801 0.760633 0.839584
Si Si6 0.687737 0.661640 0.600718
O O1 0.272764 0.941276 0.669365
O O2 0.325103 0.863668 0.777469
O O3 0.535423 0.769780 0.659402
O O4 0.499093 0.129892 0.688248
O O5 0.394141 0.661744 0.044826
O O6 0.095996 0.532949 0.096926
O O7 0.350504 0.310673 0.072955
O O8 0.854535 0.752486 0.595877
O O9 0.811452 0.116353 0.620446
O O10 0.000000 0.000000 0.500000
O O11 0.325799 0.221593 0.965766
O O12 0.500000 0.000000 0.000000
O O13 0.332031 0.935341 0.887152
#
# Coordination Sequence:
#
# PCOD9242830 Si02
#       6
#     4   4   4   4   4   4
#     4  10  21  41  64  86 117 155 212 254 293 362
#     4  10  22  40  56  89 127 151 196 255 294 360
#     4  11  24  41  59  90 132 161 195 254 312 366
#     4  10  20  35  63  90 114 157 202 245 298 352
#     4  11  22  40  65  88 117 163 206 253 305 365
#     4  10  21  38  64  89 115 163 202 247 304 360
#
# _framework density 18.856251
#
# number of rings (size 3 to 8) (size 9 to 14) (size 15 to 20)
#    0.000    1.667    3.333    1.000    4.667    2.000 
#    3.000    0.000    0.000    0.000    0.000    0.000 
#    0.000    0.000    0.000    0.000    0.000    0.000 
#
# Total GULP energy -133983.530892 kJ/mol
# GULP energy per Si atom -5582.647121 kJ/mol
# Density = 1.881333 g / cm^3
# Si number density = 18.856251 Si / 1000 Ang^3
#
#
#
# Elastic Constant Matrix: (Units=GPa)
#
#
# Indices 1 2 3 4 5 6 
#
# 1 103.0358 29.9947 32.0509 0.0000 10.7197 0.0000
# 2 29.9947 101.9331 -1.8069 0.0000 -10.4783 0.0000
# 3 32.0509 -1.8069 71.8037 0.0000 6.4778 0.0000
# 4 0.0000 0.0000 0.0000 28.2693 0.0000 3.8221
# 5 10.7197 -10.4783 6.4778 0.0000 13.6750 0.0000
# 6 0.0000 0.0000 0.0000 3.8221 0.0000 17.8179
#
#
#
# Elastic Compliance Matrix: (Units=1/GPa)
#
#
# Indices 1 2 3 4 5 6 
#
# 1 0.014395 -0.005676 -0.005388 0.000000 -0.013081 0.000000
# 2 -0.005676 0.012904 0.001635 0.000000 0.013562 0.000000
# 3 -0.005388 0.001635 0.016588 0.000000 -0.002381 0.000000
# 4 0.000000 0.000000 0.000000 0.036431 0.000000 -0.007815
# 5 -0.013081 0.013562 -0.002381 0.000000 0.094900 0.000000
# 6 0.000000 0.000000 0.000000 -0.007815 0.000000 0.057800
#
#
# Mechanical properties :
#
#
# Convention : Reuss Voigt Hill
#
# Bulk Modulus (GPa) = 39.95568 44.13889 42.04728
# Shear Modulus (GPa) = 19.21470 26.38803 22.80136
#
# Velocity S-wave (km/s) = 3.19566 3.74496 3.48116
# Velocity P-wave (km/s) = 5.90355 6.49296 6.20526
#
# Compressibility (1/GPa) = 0.02502773
#
# Stress axis : x y z
#
# Youngs Moduli (GPa) = 69.47056 77.49749 60.28493
#
# Poissons Ratio (x) = 0.43987 0.32482
# Poissons Ratio (y) = 0.39431 -0.09855
# Poissons Ratio (z) = 0.37431 -0.12669
#
# Static dielectric constant tensor:
#      x y z
#    x 1.649490 0.000000 0.026080 
#    y 0.000000 1.656070 0.000000 
#    z 0.026080 0.000000 1.662460 
# 
# From -- ./inp_files/71611.got.cif
#   From: 2010.05.17/outbox.cif.g08.bks.cpg/sg14_36_cif.got.tgz:71611.got - 2010.06.03 17:49:19.
