data_PCOD9242368
_publ_section_title
;
Structure prediction by ZEFSAII (Michael W. Deem and Ramdas Pophale) SiO2 
 PCOD9242368
Probable space group: P 21/C
;
_chemical_formula_sum "Si O2"
_cell_formula_units_Z 28
_cell_length_a 10.739916
_cell_length_b 20.902529
_cell_length_c 9.183738
_cell_angle_alpha 90.000000
_cell_angle_beta 29.354244
_cell_angle_gamma 90.000000
_cell_volume 1010.646946
_symmetry_space_group_name_H-M "P 21/C"
_symmetry_group_IT_number 14
_symmetry_cell_setting 'monoclinic'
loop_
_space_group_symop_operation_xyz
x,y,z
-x,1/2+y,1/2-z
-x,-y,-z
x,1/2-y,1/2+z
loop_
_atom_site_type_symbol
_atom_site_label
_atom_site_fract_x
_atom_site_fract_y
_atom_site_fract_z
Si Si1 0.540100 0.678763 0.798075
Si Si2 0.750000 0.579192 0.250000
Si Si3 0.040100 0.321237 0.298075
Si Si4 0.950914 0.186191 0.400420
Si Si5 0.450915 0.813808 0.900420
Si Si6 0.391708 0.037207 0.785498
Si Si7 0.891708 0.962793 0.285498
O O1 0.826013 0.684226 0.447197
O O2 0.488735 0.744342 0.936354
O O3 0.530101 0.605944 0.860321
O O4 0.320921 0.681665 0.898155
O O5 0.972024 0.626082 0.081589
O O6 0.527976 0.626082 0.418412
O O7 0.637870 0.544390 0.506624
O O8 0.862130 0.544390 0.993376
O O9 0.988735 0.255658 0.436353
O O10 0.030101 0.394056 0.360321
O O11 0.820920 0.318335 0.398155
O O12 0.326013 0.315774 0.947197
O O13 0.614132 0.987448 0.527002
O O14 0.114132 0.012552 0.027002
#
# Coordination Sequence:
#
# PCOD9242368 Si02
#       7
#     4   4   4   4   4   4   4
#     4   9  18  33  46  64  90 127 162 187 223 272
#     4  10  20  32  48  74  98 122 154 196 242 276
#     4   9  18  33  46  64  90 127 162 187 223 272
#     4   9  18  31  49  65  90 121 158 200 228 264
#     4   9  18  31  49  65  90 121 158 200 228 264
#     4  11  21  31  46  69 101 131 151 181 229 291
#     4  11  21  31  46  69 101 131 151 181 229 291
#
# _framework density 27.705027000000001
#
# number of rings (size 3 to 8) (size 9 to 14) (size 15 to 20)
#    0.000    2.286    0.000    4.286    0.000    9.143 
#    0.000    0.000    0.000    0.000    0.000    2.000 
#    0.000    0.000    0.000    1.714    0.000    0.000 
#
# Total GULP energy -156820.104262 kJ/mol
# GULP energy per Si atom -5600.718009 kJ/mol
# Density = 2.764197 g / cm^3
# Si number density = 27.705027 Si / 1000 Ang^3
#
#
#
# Elastic Constant Matrix: (Units=GPa)
#
#
# Indices 1 2 3 4 5 6 
#
# 1 107.7236 24.6518 58.0235 0.0000 -28.0028 0.0000
# 2 24.6518 182.9110 44.4261 0.0000 -10.2257 0.0000
# 3 58.0235 44.4261 171.0964 0.0000 -7.4418 0.0000
# 4 0.0000 0.0000 0.0000 7.8601 0.0000 -30.6283
# 5 -28.0028 -10.2257 -7.4418 0.0000 48.4320 0.0000
# 6 0.0000 0.0000 0.0000 -30.6283 0.0000 34.4742
#
#
#
# Elastic Compliance Matrix: (Units=1/GPa)
#
#
# Indices 1 2 3 4 5 6 
#
# 1 0.013442 -0.000411 -0.004145 0.000000 0.007048 0.000000
# 2 -0.000411 0.005897 -0.001357 0.000000 0.000799 0.000000
# 3 -0.004145 -0.001357 0.007536 0.000000 -0.001525 0.000000
# 4 0.000000 0.000000 0.000000 -0.051676 0.000000 -0.045911
# 5 0.007048 0.000799 -0.001525 0.000000 0.024657 0.000000
# 6 0.000000 0.000000 0.000000 -0.045911 0.000000 -0.011782
#
#
# Mechanical properties :
#
#
# Convention : Reuss Voigt Hill
#
# Bulk Modulus (GPa) = 66.44985 79.54822 72.99903
# Shear Modulus (GPa) = 1016.89644 40.46191 528.67917
#
# Velocity S-wave (km/s) = 19.17918 3.82573 13.82890
# Velocity P-wave (km/s) = 22.68240 6.94909 16.77470
#
# Compressibility (1/GPa) = 0.01504894
#
# Stress axis : x y z
#
# Youngs Moduli (GPa) = 74.39328 169.58403 132.68777
#
# Poissons Ratio (x) = 0.06966 0.55004
# Poissons Ratio (y) = 0.03056 0.18007
# Poissons Ratio (z) = 0.30839 0.23014
#
# Static dielectric constant tensor:
#      x y z
#    x 2.294920 0.000000 0.083780 
#    y 0.000000 2.144740 0.000000 
#    z 0.083780 0.000000 2.060100 
# 
# From -- ./inp_files/47575.got.cif
#   From: 2010.05.17/outbox.cif.g08.bks.cpg/sg14_24_cif.got.tgz:47575.got - 2010.06.03 17:49:19.
