data_PCOD9242311
_publ_section_title
;
Structure prediction by ZEFSAII (Michael W. Deem and Ramdas Pophale) SiO2 
 PCOD9242311
Probable space group: P 21/C
;
_chemical_formula_sum "Si O2"
_cell_formula_units_Z 20
_cell_length_a 6.238689
_cell_length_b 7.701799
_cell_length_c 21.047204
_cell_angle_alpha 90.000000
_cell_angle_beta 63.196413
_cell_angle_gamma 90.000000
_cell_volume 902.643324
_symmetry_space_group_name_H-M "P 21/C"
_symmetry_group_IT_number 14
_symmetry_cell_setting 'monoclinic'
loop_
_space_group_symop_operation_xyz
x,y,z
-x,1/2+y,1/2-z
-x,-y,-z
x,1/2-y,1/2+z
loop_
_atom_site_type_symbol
_atom_site_label
_atom_site_fract_x
_atom_site_fract_y
_atom_site_fract_z
Si Si1 0.794454 0.250290 0.105864
Si Si2 0.680354 0.618235 0.791543
Si Si3 0.416923 0.042717 0.440016
Si Si4 0.457599 0.438351 0.433733
Si Si5 0.933975 0.915060 0.828570
O O1 0.587540 0.308951 0.184467
O O2 0.786728 0.409922 0.057995
O O3 0.028084 0.198438 0.112964
O O4 0.702006 0.081900 0.080417
O O5 0.632057 0.504942 0.861738
O O6 0.817800 0.508041 0.721218
O O7 0.845982 0.781543 0.787058
O O8 0.357251 0.244914 0.442464
O O9 0.500000 0.000000 0.500000
O O10 0.500000 0.500000 0.500000
O O11 0.721223 0.448881 0.367029
#
# Coordination Sequence:
#
# PCOD9242311 Si02
#       5
#     4   4   4   4   4
#     4   9  23  39  62  92 121 165 214 256 308 394
#     4   9  22  37  60  88 126 158 208 266 315 374
#     4  10  19  43  62  87 130 163 204 268 314 365
#     4  11  21  41  64  90 130 166 210 269 317 373
#     4  11  21  42  62  92 128 168 217 256 329 382
#
# _framework density 22.157145
#
# number of rings (size 3 to 8) (size 9 to 14) (size 15 to 20)
#    1.200    0.800    2.000    1.200    0.000    5.600 
#    7.200    2.000    0.000    0.000    0.000    0.000 
#    0.000    0.000    0.000    0.000    0.000    0.000 
#
# Total GULP energy -111591.161069 kJ/mol
# GULP energy per Si atom -5579.558053 kJ/mol
# Density = 2.210671 g / cm^3
# Si number density = 22.157145 Si / 1000 Ang^3
#
#
#
# Elastic Constant Matrix: (Units=GPa)
#
#
# Indices 1 2 3 4 5 6 
#
# 1 40.9862 21.6410 0.0221 0.0000 0.5104 0.0000
# 2 21.6410 156.2977 23.6375 0.0000 -9.7123 0.0000
# 3 0.0221 23.6375 59.2514 0.0000 -9.6528 0.0000
# 4 0.0000 0.0000 0.0000 36.1925 0.0000 0.4209
# 5 0.5104 -9.7123 -9.6528 0.0000 18.7369 0.0000
# 6 0.0000 0.0000 0.0000 0.4209 0.0000 16.7856
#
#
#
# Elastic Compliance Matrix: (Units=1/GPa)
#
#
# Indices 1 2 3 4 5 6 
#
# 1 0.026534 -0.003994 0.001232 0.000000 -0.002159 0.000000
# 2 -0.003994 0.007504 -0.002555 0.000000 0.002682 0.000000
# 3 0.001232 -0.002555 0.019294 0.000000 0.008582 0.000000
# 4 0.000000 0.000000 0.000000 0.027638 0.000000 -0.000693
# 5 -0.002159 0.002682 0.008582 0.000000 0.059241 0.000000
# 6 0.000000 0.000000 0.000000 -0.000693 0.000000 0.059592
#
#
# Mechanical properties :
#
#
# Convention : Reuss Voigt Hill
#
# Bulk Modulus (GPa) = 23.42093 38.57073 30.99583
# Shear Modulus (GPa) = 22.25477 28.42532 25.34005
#
# Velocity S-wave (km/s) = 3.17268 3.58564 3.38546
# Velocity P-wave (km/s) = 4.90046 5.88116 5.41306
#
# Compressibility (1/GPa) = 0.04269685
#
# Stress axis : x y z
#
# Youngs Moduli (GPa) = 37.68798 133.25855 51.82893
#
# Poissons Ratio (x) = 0.53227 -0.06385
# Poissons Ratio (y) = 0.15054 0.13244
# Poissons Ratio (z) = -0.04643 0.34051
#
# Static dielectric constant tensor:
#      x y z
#    x 1.794640 0.000000 -0.033240 
#    y 0.000000 1.801990 0.000000 
#    z -0.033240 0.000000 1.851660 
# 
# From -- ./inp_files/63058.got.cif
#   From: 2010.05.17/outbox.cif.g08.bks.cpg/sg14_32_cif.got.tgz:63058.got - 2010.06.03 17:49:19.
