data_PCOD9242243
_publ_section_title
;
Structure prediction by ZEFSAII (Michael W. Deem and Ramdas Pophale) SiO2 
 PCOD9242243
Probable space group: P 21/C
;
_chemical_formula_sum "Si O2"
_cell_formula_units_Z 24
_cell_length_a 8.992272
_cell_length_b 14.331722
_cell_length_c 16.883961
_cell_angle_alpha 90.000000
_cell_angle_beta 30.723980
_cell_angle_gamma 90.000000
_cell_volume 1111.681526
_symmetry_space_group_name_H-M "P 21/C"
_symmetry_group_IT_number 14
_symmetry_cell_setting 'monoclinic'
loop_
_space_group_symop_operation_xyz
x,y,z
-x,1/2+y,1/2-z
-x,-y,-z
x,1/2-y,1/2+z
loop_
_atom_site_type_symbol
_atom_site_label
_atom_site_fract_x
_atom_site_fract_y
_atom_site_fract_z
Si Si1 0.388712 0.175328 0.536528
Si Si2 0.439230 0.919921 0.912174
Si Si3 0.464474 0.721026 0.857669
Si Si4 0.024007 0.653955 0.313913
Si Si5 0.116399 0.536627 0.713322
Si Si6 0.026696 0.153119 0.977143
O O1 0.536448 0.173255 0.555921
O O2 0.640739 0.178562 0.356404
O O3 0.181160 0.264507 0.624230
O O4 0.171007 0.088263 0.627441
O O5 0.598047 0.824899 0.813330
O O6 0.174544 0.925967 0.971656
O O7 0.654900 0.006018 0.824215
O O8 0.285725 0.904044 0.068318
O O9 0.156194 0.752281 0.962360
O O10 0.665063 0.663210 0.706726
O O11 0.963913 0.643845 0.434006
O O12 0.961431 0.558683 0.296263
#
# Coordination Sequence:
#
# PCOD9242243 Si02
#       6
#     4   4   4   4   4   4
#     4  12  23  42  66  97 121 177 214 268 307 390
#     4   9  21  39  62  91 126 169 206 262 322 371
#     4  10  19  41  62  89 123 168 212 248 320 380
#     4  12  25  40  66  98 131 161 221 267 320 379
#     4  11  22  42  66  95 129 169 223 261 313 388
#     4  10  21  40  63  93 128 167 207 265 327 369
#
# _framework density 21.588916999999999
#
# number of rings (size 3 to 8) (size 9 to 14) (size 15 to 20)
#    1.000    0.333    3.333    3.500    2.333    0.667 
#    0.000    0.833    0.000    0.000    0.000    0.000 
#    0.000    0.000    0.000    0.000    0.000    0.000 
#
# Total GULP energy -134032.828870 kJ/mol
# GULP energy per Si atom -5584.701203 kJ/mol
# Density = 2.153978 g / cm^3
# Si number density = 21.588917 Si / 1000 Ang^3
#
#
#
# Elastic Constant Matrix: (Units=GPa)
#
#
# Indices 1 2 3 4 5 6 
#
# 1 28.6593 9.0387 -4.0335 0.0000 -0.1724 0.0000
# 2 9.0387 59.8928 18.4868 0.0000 -0.5418 0.0000
# 3 -4.0335 18.4868 77.1412 0.0000 4.5924 0.0000
# 4 0.0000 0.0000 0.0000 29.5641 0.0000 -19.0001
# 5 -0.1724 -0.5418 4.5924 0.0000 29.2977 0.0000
# 6 0.0000 0.0000 0.0000 -19.0001 0.0000 19.4985
#
#
#
# Elastic Compliance Matrix: (Units=1/GPa)
#
#
# Indices 1 2 3 4 5 6 
#
# 1 0.037539 -0.006786 0.003617 0.000000 -0.000472 0.000000
# 2 -0.006786 0.019287 -0.005043 0.000000 0.001107 0.000000
# 3 0.003617 -0.005043 0.014500 0.000000 -0.002345 0.000000
# 4 0.000000 0.000000 0.000000 0.090501 0.000000 0.088188
# 5 -0.000472 0.001107 -0.002345 0.000000 0.034518 0.000000
# 6 0.000000 0.000000 0.000000 0.088188 0.000000 0.137220
#
#
# Mechanical properties :
#
#
# Convention : Reuss Voigt Hill
#
# Bulk Modulus (GPa) = 18.21380 23.63080 20.92230
# Shear Modulus (GPa) = 13.57628 25.15214 19.36421
#
# Velocity S-wave (km/s) = 2.51042 3.41698 2.99816
# Velocity P-wave (km/s) = 4.10584 5.15143 4.65807
#
# Compressibility (1/GPa) = 0.05490342
#
# Stress axis : x y z
#
# Youngs Moduli (GPa) = 26.63890 51.84793 68.96316
#
# Poissons Ratio (x) = 0.35184 -0.24945
# Poissons Ratio (y) = 0.18077 0.34777
# Poissons Ratio (z) = -0.09636 0.26146
#
# Static dielectric constant tensor:
#      x y z
#    x 1.812080 0.000000 -0.034270 
#    y 0.000000 1.826530 0.000000 
#    z -0.034270 0.000000 1.751530 
# 
# From -- ./inp_files/41063.got.cif
#   From: 2010.05.17/outbox.cif.g08.bks.cpg/sg14_21_cif.got.tgz:41063.got - 2010.06.03 17:49:19.
