data_PCOD9242436
_publ_section_title
;
Structure prediction by ZEFSAII (Michael W. Deem and Ramdas Pophale) SiO2 
 PCOD9242436
Probable space group: P 21/C
;
_chemical_formula_sum "Si O2"
_cell_formula_units_Z 32
_cell_length_a 8.289725
_cell_length_b 10.396376
_cell_length_c 20.797516
_cell_angle_alpha 90.000000
_cell_angle_beta 81.702129
_cell_angle_gamma 90.000000
_cell_volume 1773.630057
_symmetry_space_group_name_H-M "P 21/C"
_symmetry_group_IT_number 14
_symmetry_cell_setting 'monoclinic'
loop_
_space_group_symop_operation_xyz
x,y,z
-x,1/2+y,1/2-z
-x,-y,-z
x,1/2-y,1/2+z
loop_
_atom_site_type_symbol
_atom_site_label
_atom_site_fract_x
_atom_site_fract_y
_atom_site_fract_z
Si Si1 0.648509 0.931414 0.784451
Si Si2 0.206194 0.164367 0.729607
Si Si3 0.366060 0.413142 0.350266
Si Si4 0.967207 0.902633 0.059612
Si Si5 0.752640 0.424622 0.860503
Si Si6 0.600576 0.881296 0.635409
Si Si7 0.956491 0.605779 0.055077
Si Si8 0.865433 0.158226 0.817839
O O1 0.724110 0.796352 0.801979
O O2 0.600930 0.912562 0.712009
O O3 0.502191 0.978103 0.838812
O O4 0.779728 0.045041 0.783707
O O5 0.325877 0.114201 0.778172
O O6 0.038406 0.191781 0.776219
O O7 0.190073 0.049273 0.681205
O O8 0.200781 0.446435 0.396631
O O9 0.415676 0.272871 0.373557
O O10 0.949307 0.755991 0.034891
O O11 0.097188 0.890741 0.111292
O O12 0.000000 0.000000 0.000000
O O13 0.560894 0.442542 0.887082
O O14 0.762392 0.289487 0.821452
O O15 0.889803 0.402851 0.905934
O O16 0.779120 0.919284 0.597914
O O17 0.000000 0.500000 0.000000
#
# Coordination Sequence:
#
# PCOD9242436 Si02
#       8
#     4   4   4   4   4   4   4   4
#     4  11  19  34  57  89 115 144 185 226 286 343
#     4  10  20  33  52  89 116 143 188 230 276 348
#     4   9  18  35  56  80 117 146 176 231 283 338
#     4   9  20  40  60  78 106 150 195 234 283 331
#     4  11  20  37  59  80 117 154 183 230 294 336
#     4  10  20  37  60  83 117 153 182 228 290 344
#     4  10  23  41  59  81 111 152 197 235 282 338
#     4  10  20  35  59  80 114 155 184 228 293 346
#
# _framework density 18.042093999999999
#
# number of rings (size 3 to 8) (size 9 to 14) (size 15 to 20)
#    0.000    2.000    2.500    3.750    0.000    1.500 
#    2.250    1.875    0.000    0.000    0.000    0.000 
#    0.000    0.000    0.000    0.000    0.000    0.000 
#
# Total GULP energy -178228.225106 kJ/mol
# GULP energy per Si atom -5569.632035 kJ/mol
# Density = 1.800103 g / cm^3
# Si number density = 18.042094 Si / 1000 Ang^3
#
#
#
# Elastic Constant Matrix: (Units=GPa)
#
#
# Indices 1 2 3 4 5 6 
#
# 1 87.2248 33.5199 24.3217 0.0000 -5.0571 0.0000
# 2 33.5199 111.0402 52.4637 0.0000 -5.3645 0.0000
# 3 24.3217 52.4637 52.4290 0.0000 -14.9096 0.0000
# 4 0.0000 0.0000 0.0000 30.0890 0.0000 -0.3262
# 5 -5.0571 -5.3645 -14.9096 0.0000 13.5219 0.0000
# 6 0.0000 0.0000 0.0000 -0.3262 0.0000 24.9819
#
#
#
# Elastic Compliance Matrix: (Units=1/GPa)
#
#
# Indices 1 2 3 4 5 6 
#
# 1 0.013426 -0.002003 -0.004402 0.000000 -0.000627 0.000000
# 2 -0.002003 0.020830 -0.025898 0.000000 -0.021042 0.000000
# 3 -0.004402 -0.025898 0.063576 0.000000 0.058179 0.000000
# 4 0.000000 0.000000 0.000000 0.033239 0.000000 0.000434
# 5 -0.000627 -0.021042 0.058179 0.000000 0.129522 0.000000
# 6 0.000000 0.000000 0.000000 0.000434 0.000000 0.040035
#
#
# Mechanical properties :
#
#
# Convention : Reuss Voigt Hill
#
# Bulk Modulus (GPa) = 30.09826 52.36717 41.23272
# Shear Modulus (GPa) = 13.28693 23.07780 18.18236
#
# Velocity S-wave (km/s) = 2.71669 3.58034 3.17799
# Velocity P-wave (km/s) = 5.15354 6.79557 6.03070
#
# Compressibility (1/GPa) = 0.03322451
#
# Stress axis : x y z
#
# Youngs Moduli (GPa) = 74.48501 48.00699 15.72925
#
# Poissons Ratio (x) = 0.09618 0.06924
# Poissons Ratio (y) = 0.14922 0.40736
# Poissons Ratio (z) = 0.32787 1.24331
#
# Static dielectric constant tensor:
#      x y z
#    x 1.686500 0.000000 0.013340 
#    y 0.000000 1.647290 0.000000 
#    z 0.013340 0.000000 1.608130 
# 
# From -- ./inp_files/64818.got.cif
#   From: 2010.05.17/outbox.cif.g08.bks.cpg/sg14_33_cif.got.tgz:64818.got - 2010.06.03 17:49:19.
