data_PCOD9242789
_publ_section_title
;
Structure prediction by ZEFSAII (Michael W. Deem and Ramdas Pophale) SiO2 
 PCOD9242789
Probable space group: P 21/C
;
_chemical_formula_sum "Si O2"
_cell_formula_units_Z 24
_cell_length_a 12.790462
_cell_length_b 15.010904
_cell_length_c 7.380901
_cell_angle_alpha 90.000000
_cell_angle_beta 135.703572
_cell_angle_gamma 90.000000
_cell_volume 989.665540
_symmetry_space_group_name_H-M "P 21/C"
_symmetry_group_IT_number 14
_symmetry_cell_setting 'monoclinic'
loop_
_space_group_symop_operation_xyz
x,y,z
-x,1/2+y,1/2-z
-x,-y,-z
x,1/2-y,1/2+z
loop_
_atom_site_type_symbol
_atom_site_label
_atom_site_fract_x
_atom_site_fract_y
_atom_site_fract_z
Si Si1 0.842969 0.686901 0.144175
Si Si2 0.998375 0.016079 0.215144
Si Si3 0.533593 0.874390 0.190202
Si Si4 0.693247 0.068874 0.371154
Si Si5 0.214032 0.129157 0.012059
Si Si6 0.467215 0.603374 0.003451
O O1 0.964226 0.619710 0.211047
O O2 0.807097 0.648334 0.299114
O O3 0.684846 0.680642 0.840325
O O4 0.875519 0.791138 0.193260
O O5 0.138579 0.958770 0.462228
O O6 0.850311 0.968865 0.105858
O O7 0.000000 0.000000 0.000000
O O8 0.473230 0.851323 0.315818
O O9 0.602225 0.975006 0.272047
O O10 0.396237 0.872215 0.882882
O O11 0.678343 0.110648 0.553606
O O12 0.390668 0.131089 0.197823
O O13 0.500000 0.500000 0.000000
#
# Coordination Sequence:
#
# PCOD9242789 Si02
#       6
#     4   4   4   4   4   4
#     4   9  19  34  57  81 111 147 199 238 284 359
#     4   9  18  36  60  80 113 162 188 233 299 349
#     4   8  16  30  51  82 107 134 179 237 276 330
#     4   9  16  30  59  77 107 142 182 228 285 333
#     4  10  20  35  61  80 113 154 193 237 295 347
#     4   9  17  31  55  83 103 140 185 231 276 345
#
# _framework density 24.250616000000001
#
# number of rings (size 3 to 8) (size 9 to 14) (size 15 to 20)
#    0.000    3.000    0.000    3.000    2.333    0.000 
#    0.000    0.833   18.333    0.000    0.000    0.000 
#    0.000    0.000    0.000    0.000    0.000    0.000 
#
# Total GULP energy -133990.875490 kJ/mol
# GULP energy per Si atom -5582.953145 kJ/mol
# Density = 2.419542 g / cm^3
# Si number density = 24.250616 Si / 1000 Ang^3
#
#
#
# Elastic Constant Matrix: (Units=GPa)
#
#
# Indices 1 2 3 4 5 6 
#
# 1 29.9479 1.9061 10.3777 0.0000 -8.7201 0.0000
# 2 1.9061 91.7857 6.6865 0.0000 1.9612 0.0000
# 3 10.3777 6.6865 75.1979 0.0000 -12.3762 0.0000
# 4 0.0000 0.0000 0.0000 30.3970 0.0000 1.2704
# 5 -8.7201 1.9612 -12.3762 0.0000 14.1697 0.0000
# 6 0.0000 0.0000 0.0000 1.2704 0.0000 19.7990
#
#
#
# Elastic Compliance Matrix: (Units=1/GPa)
#
#
# Indices 1 2 3 4 5 6 
#
# 1 0.041018 -0.001249 -0.001596 0.000000 0.024022 0.000000
# 2 -0.001249 0.011098 -0.001394 0.000000 -0.003522 0.000000
# 3 -0.001596 -0.001394 0.015781 0.000000 0.012994 0.000000
# 4 0.000000 0.000000 0.000000 0.032986 0.000000 -0.002117
# 5 0.024022 -0.003522 0.012994 0.000000 0.097194 0.000000
# 6 0.000000 0.000000 0.000000 -0.002117 0.000000 0.050643
#
#
# Mechanical properties :
#
#
# Convention : Reuss Voigt Hill
#
# Bulk Modulus (GPa) = 16.82960 26.09688 21.46324
# Shear Modulus (GPa) = 18.05017 24.73722 21.39369
#
# Velocity S-wave (km/s) = 2.73118 3.19731 2.97339
# Velocity P-wave (km/s) = 4.11105 4.94116 4.54510
#
# Compressibility (1/GPa) = 0.05941911
#
# Stress axis : x y z
#
# Youngs Moduli (GPa) = 24.37925 90.10870 63.36675
#
# Poissons Ratio (x) = 0.11253 0.10114
# Poissons Ratio (y) = 0.03045 0.08834
# Poissons Ratio (z) = 0.03891 0.12563
#
# Static dielectric constant tensor:
#      x y z
#    x 1.948270 0.000000 -0.038850 
#    y 0.000000 1.975460 0.000000 
#    z -0.038850 0.000000 1.964090 
# 
# From -- ./inp_files/16330.got.cif
#   From: 2010.05.17/outbox.cif.g08.bks.cpg/sg14_9_cif.got.tgz:16330.got - 2010.06.03 17:49:19.
