data_PCOD9242630
_publ_section_title
;
Structure prediction by ZEFSAII (Michael W. Deem and Ramdas Pophale) SiO2 
 PCOD9242630
Probable space group: P 21/C
;
_chemical_formula_sum "Si O2"
_cell_formula_units_Z 30
_cell_length_a 7.929645
_cell_length_b 9.227786
_cell_length_c 25.783270
_cell_angle_alpha 90.000000
_cell_angle_beta 136.233001
_cell_angle_gamma 90.000000
_cell_volume 1305.041128
_symmetry_space_group_name_H-M "P 21/C"
_symmetry_group_IT_number 14
_symmetry_cell_setting 'monoclinic'
loop_
_space_group_symop_operation_xyz
x,y,z
-x,1/2+y,1/2-z
-x,-y,-z
x,1/2-y,1/2+z
loop_
_atom_site_type_symbol
_atom_site_label
_atom_site_fract_x
_atom_site_fract_y
_atom_site_fract_z
Si Si1 0.483931 0.316170 0.639052
Si Si2 0.729662 0.665034 0.209249
Si Si3 0.262036 0.461934 0.246352
Si Si4 0.000000 0.000000 0.000000
Si Si5 0.698075 0.900830 0.481048
Si Si6 0.892034 0.672533 0.126393
Si Si7 0.302113 0.608209 0.728883
Si Si8 0.223814 0.696305 0.054937
O O1 0.694045 0.437523 0.693018
O O2 0.231661 0.401588 0.574428
O O3 0.488112 0.193963 0.594846
O O4 0.530846 0.222213 0.701734
O O5 0.835436 0.805293 0.260658
O O6 0.800638 0.673257 0.164934
O O7 0.778233 0.517358 0.249667
O O8 0.437164 0.686937 0.144688
O O9 0.524401 0.452983 0.277002
O O10 0.077965 0.538274 0.166471
O O11 0.812800 0.138366 0.970158
O O12 0.689213 0.853468 0.538474
O O13 0.967791 0.850149 0.522944
O O14 0.703016 0.070995 0.469583
O O15 0.060029 0.813183 0.154187
#
# Coordination Sequence:
#
# PCOD9242630 Si02
#       8
#     4   4   4   2   4   4   4   4
#     4  10  21  38  65  92 128 159 218 284 323 375
#     4  12  22  43  64  94 134 174 207 282 347 391
#     4  11  23  42  67  95 125 174 227 274 324 398
#     4  10  20  34  64  96 118 158 216 272 326 370
#     4  10  21  41  64  95 124 174 222 272 325 394
#     4  11  26  40  64  97 134 168 221 272 343 410
#     4  11  23  43  67  95 125 175 227 275 321 406
#     4  10  20  37  68  88 126 163 221 268 327 379
#
# _framework density 22.987783
#
# number of rings (size 3 to 8) (size 9 to 14) (size 15 to 20)
#    0.000    1.333    2.667    4.000    5.600    0.533 
#    0.000    0.667    0.000    0.000    0.000    0.000 
#    0.000    0.000    0.000    0.000    0.000    0.000 
#
# Total GULP energy -167064.218143 kJ/mol
# GULP energy per Si atom -5568.807271 kJ/mol
# Density = 2.293546 g / cm^3
# Si number density = 22.987783 Si / 1000 Ang^3
#
#
#
# Elastic Constant Matrix: (Units=GPa)
#
#
# Indices 1 2 3 4 5 6 
#
# 1 71.9800 7.2291 -12.1639 0.0000 -9.9642 0.0000
# 2 7.2291 146.8178 37.5596 0.0000 -10.1228 0.0000
# 3 -12.1639 37.5596 90.4386 0.0000 -5.4344 0.0000
# 4 0.0000 0.0000 0.0000 29.7126 0.0000 1.0415
# 5 -9.9642 -10.1228 -5.4344 0.0000 29.0000 0.0000
# 6 0.0000 0.0000 0.0000 1.0415 0.0000 9.8507
#
#
#
# Elastic Compliance Matrix: (Units=1/GPa)
#
#
# Indices 1 2 3 4 5 6 
#
# 1 0.015226 -0.001103 0.002829 0.000000 0.005377 0.000000
# 2 -0.001103 0.007828 -0.003295 0.000000 0.001736 0.000000
# 3 0.002829 -0.003295 0.012941 0.000000 0.002247 0.000000
# 4 0.000000 0.000000 0.000000 0.033781 0.000000 -0.003572
# 5 0.005377 0.001736 0.002247 0.000000 0.037357 0.000000
# 6 0.000000 0.000000 0.000000 -0.003572 0.000000 0.101893
#
#
# Mechanical properties :
#
#
# Convention : Reuss Voigt Hill
#
# Bulk Modulus (GPa) = 30.43447 41.60955 36.02201
# Shear Modulus (GPa) = 22.40978 32.15342 27.28160
#
# Velocity S-wave (km/s) = 3.12566 3.74400 3.44871
# Velocity P-wave (km/s) = 5.12781 6.06878 5.61803
#
# Compressibility (1/GPa) = 0.03285748
#
# Stress axis : x y z
#
# Youngs Moduli (GPa) = 65.67774 127.74470 77.27273
#
# Poissons Ratio (x) = 0.14086 -0.21860
# Poissons Ratio (y) = 0.07242 0.25462
# Poissons Ratio (z) = -0.18580 0.42092
#
# Static dielectric constant tensor:
#      x y z
#    x 1.895700 0.000000 -0.004770 
#    y 0.000000 1.930590 0.000000 
#    z -0.004770 0.000000 1.867350 
# 
# From -- ./inp_files/76531.got.cif
#   From: 2010.05.17/outbox.cif.g08.bks.cpg/sg14_39_cif.got.tgz:76531.got - 2010.06.03 17:49:19.
