data_PCOD9242607
_publ_section_title
;
Structure prediction by ZEFSAII (Michael W. Deem and Ramdas Pophale) SiO2 
 PCOD9242607
Probable space group: P 21/C
;
_chemical_formula_sum "Si O2"
_cell_formula_units_Z 28
_cell_length_a 20.432099
_cell_length_b 7.457401
_cell_length_c 19.375266
_cell_angle_alpha 90.000000
_cell_angle_beta 152.152711
_cell_angle_gamma 90.000000
_cell_volume 1379.029088
_symmetry_space_group_name_H-M "P 21/C"
_symmetry_group_IT_number 14
_symmetry_cell_setting 'monoclinic'
loop_
_space_group_symop_operation_xyz
x,y,z
-x,1/2+y,1/2-z
-x,-y,-z
x,1/2-y,1/2+z
loop_
_atom_site_type_symbol
_atom_site_label
_atom_site_fract_x
_atom_site_fract_y
_atom_site_fract_z
Si Si1 0.334213 0.031684 0.276629
Si Si2 0.348121 0.063445 0.446370
Si Si3 0.826575 0.420861 0.098460
Si Si4 0.782773 0.902687 0.342750
Si Si5 0.022441 0.311886 0.855889
Si Si6 0.145225 0.378336 0.247160
Si Si7 0.166854 0.762495 0.034306
O O1 0.294777 0.002560 0.320484
O O2 0.334819 0.247548 0.266958
O O3 0.485290 0.944797 0.404216
O O4 0.225759 0.939115 0.123989
O O5 0.275181 0.255986 0.390324
O O6 0.296192 0.945392 0.461658
O O7 0.963242 0.369100 0.270313
O O8 0.865453 0.598815 0.091434
O O9 0.803287 0.270182 0.018482
O O10 0.826344 0.934919 0.304880
O O11 0.908691 0.814775 0.504699
O O12 0.760329 0.093414 0.358145
O O13 0.892593 0.451026 0.741682
O O14 0.000325 0.264287 0.112779
#
# Coordination Sequence:
#
# PCOD9242607 Si02
#       7
#     4   4   4   4   4   4   4
#     4  10  23  41  61  83 121 162 197 244 290 351
#     4  10  22  41  57  87 120 151 204 245 290 353
#     4  10  21  36  56  88 117 152 189 242 301 347
#     4   9  20  36  60  87 116 149 196 249 285 354
#     4  10  20  34  59  88 120 146 193 254 295 353
#     4   9  19  36  60  89 112 144 199 246 296 347
#     4  10  21  39  59  87 118 150 200 240 300 355
#
# _framework density 20.30414
#
# number of rings (size 3 to 8) (size 9 to 14) (size 15 to 20)
#    0.000    2.571    0.000    3.429    8.000    1.143 
#    7.714    2.143    0.000    0.000    0.000    0.000 
#    0.000    0.000    0.000    0.000    0.000    0.000 
#
# Total GULP energy -156147.258453 kJ/mol
# GULP energy per Si atom -5576.687802 kJ/mol
# Density = 2.025793 g / cm^3
# Si number density = 20.304140 Si / 1000 Ang^3
#
#
#
# Elastic Constant Matrix: (Units=GPa)
#
#
# Indices 1 2 3 4 5 6 
#
# 1 101.9195 14.8532 6.7291 0.0000 0.5158 0.0000
# 2 14.8532 47.8124 8.4354 0.0000 4.6425 0.0000
# 3 6.7291 8.4354 24.1128 0.0000 5.8822 0.0000
# 4 0.0000 0.0000 0.0000 30.7199 0.0000 -1.4287
# 5 0.5158 4.6425 5.8822 0.0000 17.8490 0.0000
# 6 0.0000 0.0000 0.0000 -1.4287 0.0000 20.0041
#
#
#
# Elastic Compliance Matrix: (Units=1/GPa)
#
#
# Indices 1 2 3 4 5 6 
#
# 1 0.010379 -0.002960 -0.002148 0.000000 0.001178 0.000000
# 2 -0.002960 0.023339 -0.006393 0.000000 -0.003878 0.000000
# 3 -0.002148 -0.006393 0.047723 0.000000 -0.014003 0.000000
# 4 0.000000 0.000000 0.000000 0.032661 0.000000 0.002333
# 5 0.001178 -0.003878 -0.014003 0.000000 0.061615 0.000000
# 6 0.000000 0.000000 0.000000 0.002333 0.000000 0.050156
#
#
# Mechanical properties :
#
#
# Convention : Reuss Voigt Hill
#
# Bulk Modulus (GPa) = 17.11161 25.98669 21.54915
# Shear Modulus (GPa) = 18.63209 23.30307 20.96758
#
# Velocity S-wave (km/s) = 3.03256 3.39145 3.21701
# Velocity P-wave (km/s) = 4.55059 5.30683 4.94319
#
# Compressibility (1/GPa) = 0.05843987
#
# Stress axis : x y z
#
# Youngs Moduli (GPa) = 96.34966 42.84689 20.95405
#
# Poissons Ratio (x) = 0.12681 0.04502
# Poissons Ratio (y) = 0.28516 0.13395
# Poissons Ratio (z) = 0.20699 0.27391
#
# Static dielectric constant tensor:
#      x y z
#    x 1.694860 0.000000 -0.021880 
#    y 0.000000 1.774240 0.000000 
#    z -0.021880 0.000000 1.726450 
# 
# From -- ./inp_files/54876.got.cif
#   From: 2010.05.17/outbox.cif.g08.bks.cpg/sg14_28_cif.got.tgz:54876.got - 2010.06.03 17:49:19.
