data_PCOD9242412
_publ_section_title
;
Structure prediction by ZEFSAII (Michael W. Deem and Ramdas Pophale) SiO2 
 PCOD9242412
Probable space group: P 21/C
;
_chemical_formula_sum "Si O2"
_cell_formula_units_Z 32
_cell_length_a 16.537138
_cell_length_b 21.278002
_cell_length_c 15.801859
_cell_angle_alpha 90.000000
_cell_angle_beta 17.149141
_cell_angle_gamma 90.000000
_cell_volume 1639.514271
_symmetry_space_group_name_H-M "P 21/C"
_symmetry_group_IT_number 14
_symmetry_cell_setting 'monoclinic'
loop_
_space_group_symop_operation_xyz
x,y,z
-x,1/2+y,1/2-z
-x,-y,-z
x,1/2-y,1/2+z
loop_
_atom_site_type_symbol
_atom_site_label
_atom_site_fract_x
_atom_site_fract_y
_atom_site_fract_z
Si Si1 0.051009 0.190150 0.135685
Si Si2 0.645579 0.632146 0.521546
Si Si3 0.540567 0.234531 0.362301
Si Si4 0.948973 0.690135 0.737690
Si Si5 0.855261 0.065945 0.741816
Si Si6 0.459444 0.734543 0.943395
Si Si7 0.144727 0.934045 0.452337
Si Si8 0.645588 0.867869 0.687266
O O1 0.197263 0.137202 0.045935
O O2 0.061698 0.250007 0.188319
O O3 0.242584 0.204425 0.864555
O O4 0.745140 0.190952 0.406328
O O5 0.494791 0.697095 0.645926
O O6 0.900071 0.616717 0.205388
O O7 0.403066 0.582042 0.752667
O O8 0.242607 0.204407 0.650284
O O9 0.623615 0.241666 0.376400
O O10 0.745161 0.190937 0.103407
O O11 0.802729 0.637188 0.940443
O O12 0.755741 0.064270 0.744265
O O13 0.099910 0.116708 0.505575
O O14 0.999998 0.999994 0.617298
O O15 0.596912 0.082025 0.058838
O O16 0.494786 0.802921 0.864476
#
# Coordination Sequence:
#
# PCOD9242412 Si02
#       8
#     4   4   4   4   4   4   4   4
#     4  10  20  33  48  72 102 134 170 210 251 305
#     4  11  21  35  53  74 107 147 177 210 265 310
#     4  11  20  32  51  75 103 135 172 207 250 311
#     4  10  20  33  48  72 102 134 170 210 251 305
#     4  11  22  35  52  77 108 142 184 224 252 294
#     4  11  20  32  51  75 103 135 172 207 250 311
#     4  11  22  35  52  77 108 142 184 224 252 294
#     4  11  21  35  53  74 107 147 177 210 265 310
#
# _framework density 19.517976000000001
#
# number of rings (size 3 to 8) (size 9 to 14) (size 15 to 20)
#    0.000    1.250    0.000   10.500    0.000    2.000 
#    0.000    0.000    0.000    0.000    0.000    0.000 
#    0.000   70.000    0.000    0.000    0.000    0.000 
#
# Total GULP energy -178483.362261 kJ/mol
# GULP energy per Si atom -5577.605071 kJ/mol
# Density = 1.947355 g / cm^3
# Si number density = 19.517976 Si / 1000 Ang^3
#
#
#
# Elastic Constant Matrix: (Units=GPa)
#
#
# Indices 1 2 3 4 5 6 
#
# 1 72.4359 11.4181 21.2354 0.0000 3.4816 0.0000
# 2 11.4181 28.4969 12.6172 0.0000 -0.3454 0.0000
# 3 21.2354 12.6172 100.1056 0.0000 -11.2953 0.0000
# 4 0.0000 0.0000 0.0000 26.0921 0.0000 -1.8717
# 5 3.4816 -0.3454 -11.2953 0.0000 23.5694 0.0000
# 6 0.0000 0.0000 0.0000 -1.8717 0.0000 19.4476
#
#
#
# Elastic Compliance Matrix: (Units=1/GPa)
#
#
# Indices 1 2 3 4 5 6 
#
# 1 0.015694 -0.004943 -0.003146 0.000000 -0.003898 0.000000
# 2 -0.004943 0.038794 -0.003906 0.000000 -0.000573 0.000000
# 3 -0.003146 -0.003906 0.011835 0.000000 0.006079 0.000000
# 4 0.000000 0.000000 0.000000 0.038592 0.000000 0.003714
# 5 -0.003898 -0.000573 0.006079 0.000000 0.045909 0.000000
# 6 0.000000 0.000000 0.000000 0.003714 0.000000 0.051778
#
#
# Mechanical properties :
#
#
# Convention : Reuss Voigt Hill
#
# Bulk Modulus (GPa) = 23.62142 32.39778 28.00960
# Shear Modulus (GPa) = 20.77251 24.20633 22.48942
#
# Velocity S-wave (km/s) = 3.26586 3.52548 3.39815
# Velocity P-wave (km/s) = 5.13321 5.76255 5.45696
#
# Compressibility (1/GPa) = 0.04233446
#
# Stress axis : x y z
#
# Youngs Moduli (GPa) = 63.71820 25.77698 84.49468
#
# Poissons Ratio (x) = 0.12741 0.26583
# Poissons Ratio (y) = 0.31493 0.33002
# Poissons Ratio (z) = 0.20046 0.10068
#
# Static dielectric constant tensor:
#      x y z
#    x 1.705040 0.000000 0.000550 
#    y 0.000000 1.739830 0.000000 
#    z 0.000550 0.000000 1.703130 
# 
# From -- ./inp_files/47694.got.cif
#   From: 2010.05.17/outbox.cif.g08.bks.cpg/sg14_24_cif.got.tgz:47694.got - 2010.06.03 17:49:19.
