data_PCOD9242695
_publ_section_title
;
Structure prediction by ZEFSAII (Michael W. Deem and Ramdas Pophale) SiO2 
 PCOD9242695
Probable space group: P 21/C
;
_chemical_formula_sum "Si O2"
_cell_formula_units_Z 32
_cell_length_a 19.997519
_cell_length_b 16.910122
_cell_length_c 9.743446
_cell_angle_alpha 90.000000
_cell_angle_beta 152.856907
_cell_angle_gamma 90.000000
_cell_volume 1503.157040
_symmetry_space_group_name_H-M "P 21/C"
_symmetry_group_IT_number 14
_symmetry_cell_setting 'monoclinic'
loop_
_space_group_symop_operation_xyz
x,y,z
-x,1/2+y,1/2-z
-x,-y,-z
x,1/2-y,1/2+z
loop_
_atom_site_type_symbol
_atom_site_label
_atom_site_fract_x
_atom_site_fract_y
_atom_site_fract_z
Si Si1 0.384308 0.545600 0.195784
Si Si2 0.915673 0.488424 0.203013
Si Si3 0.061050 0.073060 0.704123
Si Si4 0.306008 0.682064 0.644375
Si Si5 0.981156 0.734051 0.043217
Si Si6 0.341648 0.704611 0.994869
Si Si7 0.010093 0.163419 0.173095
Si Si8 0.348195 0.992068 0.305012
O O1 0.500000 0.500000 0.500000
O O2 0.240103 0.538151 0.025757
O O3 0.414959 0.638031 0.223022
O O4 0.365700 0.513578 0.003320
O O5 0.937920 0.577367 0.186209
O O6 0.000000 0.500000 0.500000
O O7 0.975092 0.431453 0.192595
O O8 0.044163 0.155466 0.593931
O O9 0.230560 0.057597 0.049856
O O10 0.000000 0.000000 0.500000
O O11 0.402237 0.704306 0.951653
O O12 0.361387 0.710247 0.599081
O O13 0.280390 0.589860 0.621083
O O14 0.157472 0.733189 0.381886
O O15 0.933625 0.810326 0.872536
O O16 0.927111 0.722434 0.097708
O O17 0.168712 0.674786 0.662969
O O18 0.500000 0.000000 0.500000
#
# Coordination Sequence:
#
# PCOD9242695 Si02
#       8
#     4   4   4   4   4   4   4   4
#     4  11  25  40  60  91 123 162 203 250 308 361
#     4  12  22  40  65  89 126 160 207 258 303 362
#     4  12  22  40  65  92 121 161 208 253 305 363
#     4   9  18  35  56  85 117 152 194 248 295 361
#     4  10  21  34  58  91 123 157 204 252 309 361
#     4   9  18  35  56  84 118 150 198 245 297 359
#     4  10  20  35  56  90 123 156 201 256 306 361
#     4  11  24  41  60  90 126 158 203 254 303 363
#
# _framework density 21.288526999999998
#
# number of rings (size 3 to 8) (size 9 to 14) (size 15 to 20)
#    0.000    1.500    5.000    0.750    3.500    3.000 
#    0.000    1.250    0.000    0.000    0.000    0.000 
#    0.000    0.000    0.000    0.000    0.000    0.000 
#
# Total GULP energy -178278.673691 kJ/mol
# GULP energy per Si atom -5571.208553 kJ/mol
# Density = 2.124007 g / cm^3
# Si number density = 21.288527 Si / 1000 Ang^3
#
#
#
# Elastic Constant Matrix: (Units=GPa)
#
#
# Indices 1 2 3 4 5 6 
#
# 1 95.2965 -2.2482 26.0798 0.0000 -5.1574 0.0000
# 2 -2.2482 48.0626 11.4614 0.0000 -18.2028 0.0000
# 3 26.0798 11.4614 55.5229 0.0000 -7.6829 0.0000
# 4 0.0000 0.0000 0.0000 27.0985 0.0000 -15.7066
# 5 -5.1574 -18.2028 -7.6829 0.0000 27.3314 0.0000
# 6 0.0000 0.0000 0.0000 -15.7066 0.0000 27.1016
#
#
#
# Elastic Compliance Matrix: (Units=1/GPa)
#
#
# Indices 1 2 3 4 5 6 
#
# 1 0.012369 0.003027 -0.006069 0.000000 0.002644 0.000000
# 2 0.003027 0.029162 -0.004864 0.000000 0.018626 0.000000
# 3 -0.006069 -0.004864 0.022119 0.000000 0.001833 0.000000
# 4 0.000000 0.000000 0.000000 0.055569 0.000000 0.032204
# 5 0.002644 0.018626 0.001833 0.000000 0.050007 0.000000
# 6 0.000000 0.000000 0.000000 0.032204 0.000000 0.055562
#
#
# Mechanical properties :
#
#
# Convention : Reuss Voigt Hill
#
# Bulk Modulus (GPa) = 20.90395 29.94089 25.42242
# Shear Modulus (GPa) = 19.48973 27.21224 23.35098
#
# Velocity S-wave (km/s) = 3.02901 3.57915 3.31551
# Velocity P-wave (km/s) = 4.69828 5.58349 5.15990
#
# Compressibility (1/GPa) = 0.04783786
#
# Stress axis : x y z
#
# Youngs Moduli (GPa) = 80.84758 34.29114 45.21012
#
# Poissons Ratio (x) = -0.10381 0.27437
# Poissons Ratio (y) = -0.24475 0.21992
# Poissons Ratio (z) = 0.49065 0.16681
#
# Static dielectric constant tensor:
#      x y z
#    x 1.841530 0.000000 -0.021150 
#    y 0.000000 1.678360 0.000000 
#    z -0.021150 0.000000 1.793210 
# 
# From -- ./inp_files/19186.got.cif
#   From: 2010.05.17/outbox.cif.g08.bks.cpg/sg14_10_cif.got.tgz:19186.got - 2010.06.03 17:49:19.
