data_PCOD9242354
_publ_section_title
;
Structure prediction by ZEFSAII (Michael W. Deem and Ramdas Pophale) SiO2 
 PCOD9242354
Probable space group: P 21/C
;
_chemical_formula_sum "Si O2"
_cell_formula_units_Z 28
_cell_length_a 10.708345
_cell_length_b 20.481599
_cell_length_c 5.531833
_cell_angle_alpha 90.000000
_cell_angle_beta 72.553024
_cell_angle_gamma 90.000000
_cell_volume 1157.447483
_symmetry_space_group_name_H-M "P 21/C"
_symmetry_group_IT_number 14
_symmetry_cell_setting 'monoclinic'
loop_
_space_group_symop_operation_xyz
x,y,z
-x,1/2+y,1/2-z
-x,-y,-z
x,1/2-y,1/2+z
loop_
_atom_site_type_symbol
_atom_site_label
_atom_site_fract_x
_atom_site_fract_y
_atom_site_fract_z
Si Si1 0.828392 0.956901 0.963324
Si Si2 0.922262 0.715169 0.921912
Si Si3 0.795892 0.208914 0.842680
Si Si4 0.681579 0.071678 0.819979
Si Si5 0.577075 0.871442 0.099640
Si Si6 0.644695 0.851667 0.556665
Si Si7 0.823524 0.974168 0.468104
O O1 0.900111 0.953242 0.665796
O O2 0.737498 0.021545 0.986327
O O3 0.726210 0.897513 0.029343
O O4 0.896868 0.960596 0.179049
O O5 0.927100 0.770750 0.707261
O O6 0.783524 0.683158 0.955654
O O7 0.056395 0.679909 0.771584
O O8 0.781687 0.255566 0.612261
O O9 0.705198 0.146401 0.870031
O O10 0.527435 0.070417 0.860347
O O11 0.766944 0.046251 0.542928
O O12 0.558428 0.838599 0.370518
O O13 0.577254 0.833330 0.847441
O O14 0.691163 0.928246 0.544354
#
# Coordination Sequence:
#
# PCOD9242354 Si02
#       7
#     4   4   4   4   4   4   4
#     4   8  17  29  49  79 112 146 179 204 255 336
#     4  10  21  42  64  76 100 147 196 233 271 323
#     4  10  24  41  60  80 103 146 194 233 269 324
#     4  10  21  34  58  81 119 147 180 218 279 329
#     4  10  20  31  56  87 116 145 172 216 275 333
#     4  10  20  35  54  85 111 140 186 228 266 325
#     4   8  18  29  52  79 112 144 173 218 268 321
#
# _framework density 24.191161999999998
#
# number of rings (size 3 to 8) (size 9 to 14) (size 15 to 20)
#    0.857    1.714    0.000    1.286    4.000    1.143 
#    0.000    5.000    0.000    1.714    0.000    0.000 
#    0.000    0.000    0.000    0.000    0.000    0.000 
#
# Total GULP energy -155918.469037 kJ/mol
# GULP energy per Si atom -5568.516751 kJ/mol
# Density = 2.413610 g / cm^3
# Si number density = 24.191162 Si / 1000 Ang^3
#
#
#
# Elastic Constant Matrix: (Units=GPa)
#
#
# Indices 1 2 3 4 5 6 
#
# 1 42.3035 1.8899 25.4995 0.0000 0.2484 0.0000
# 2 1.8899 13.4540 -8.2474 0.0000 -3.5705 0.0000
# 3 25.4995 -8.2474 171.0488 0.0000 53.8031 0.0000
# 4 0.0000 0.0000 0.0000 9.1321 0.0000 -1.6800
# 5 0.2484 -3.5705 53.8031 0.0000 37.8714 0.0000
# 6 0.0000 0.0000 0.0000 -1.6800 0.0000 35.8429
#
#
#
# Elastic Compliance Matrix: (Units=1/GPa)
#
#
# Indices 1 2 3 4 5 6 
#
# 1 0.028544 -0.006049 -0.007790 0.000000 0.010309 0.000000
# 2 -0.006049 0.078141 0.004230 0.000000 0.001397 0.000000
# 3 -0.007790 0.004230 0.012782 0.000000 -0.017709 0.000000
# 4 0.000000 0.000000 0.000000 0.110456 0.000000 0.005177
# 5 0.010309 0.001397 -0.017709 0.000000 0.051628 0.000000
# 6 0.000000 0.000000 0.000000 0.005177 0.000000 0.028142
#
#
# Mechanical properties :
#
#
# Convention : Reuss Voigt Hill
#
# Bulk Modulus (GPa) = 9.97512 29.45447 19.71480
# Shear Modulus (GPa) = 13.79972 30.41357 22.10665
#
# Velocity S-wave (km/s) = 2.39099 3.54957 3.02624
# Velocity P-wave (km/s) = 3.42854 5.38530 4.51422
#
# Compressibility (1/GPa) = 0.10024939
#
# Stress axis : x y z
#
# Youngs Moduli (GPa) = 35.03391 12.79744 78.23628
#
# Poissons Ratio (x) = 0.07741 0.60942
# Poissons Ratio (y) = 0.21191 -0.33093
# Poissons Ratio (z) = 0.27290 -0.05413
#
# Static dielectric constant tensor:
#      x y z
#    x 1.954290 0.000000 0.068760 
#    y 0.000000 1.952650 0.000000 
#    z 0.068760 0.000000 2.034100 
# 
# From -- ./inp_files/2937.got.cif
#   From: 2010.05.17/outbox.cif.g08.bks.cpg/sg14_2_cif.got.tgz:2937.got - 2010.06.03 17:49:19.
