data_PCOD9242502
_publ_section_title
;
Structure prediction by ZEFSAII (Michael W. Deem and Ramdas Pophale) SiO2 
 PCOD9242502
Probable space group: P 21/C
;
_chemical_formula_sum "Si O2"
_cell_formula_units_Z 28
_cell_length_a 19.863141
_cell_length_b 11.098768
_cell_length_c 11.258916
_cell_angle_alpha 90.000000
_cell_angle_beta 148.179284
_cell_angle_gamma 90.000000
_cell_volume 1308.719627
_symmetry_space_group_name_H-M "P 21/C"
_symmetry_group_IT_number 14
_symmetry_cell_setting 'monoclinic'
loop_
_space_group_symop_operation_xyz
x,y,z
-x,1/2+y,1/2-z
-x,-y,-z
x,1/2-y,1/2+z
loop_
_atom_site_type_symbol
_atom_site_label
_atom_site_fract_x
_atom_site_fract_y
_atom_site_fract_z
Si Si1 0.032127 0.594423 0.870383
Si Si2 0.624853 0.957547 0.990911
Si Si3 0.358921 0.029244 0.584963
Si Si4 0.879086 0.639900 0.863638
Si Si5 0.568719 0.767314 0.119649
Si Si6 0.790170 0.617622 0.352913
Si Si7 0.299896 0.655420 0.209582
O O1 0.983356 0.655014 0.918786
O O2 0.908364 0.569987 0.605234
O O3 0.083763 0.463914 0.987716
O O4 0.147613 0.673384 0.988666
O O5 0.747413 0.908241 0.108024
O O6 0.593699 0.861174 0.048273
O O7 0.665633 0.078030 0.121366
O O8 0.492819 0.985239 0.729494
O O9 0.387895 0.155778 0.698352
O O10 0.254869 0.041538 0.327634
O O11 0.320868 0.932837 0.628423
O O12 0.847542 0.759448 0.885217
O O13 0.662631 0.657381 0.233037
O O14 0.415023 0.747047 0.883581
#
# Coordination Sequence:
#
# PCOD9242502 Si02
#       7
#     4   4   4   4   4   4   4
#     4  10  20  34  53  77 107 146 176 212 269 319
#     4   7  13  29  53  70  89 128 169 206 252 307
#     4   9  16  29  52  77  99 128 174 224 262 306
#     4   9  19  36  54  73 106 145 177 210 261 324
#     4   8  15  30  50  71  95 127 169 211 255 310
#     4  11  20  31  54  81 104 136 181 225 263 310
#     4   8  15  31  51  72 100 136 174 211 258 315
#
# _framework density 21.394957999999999
#
# number of rings (size 3 to 8) (size 9 to 14) (size 15 to 20)
#    0.000    3.143    0.000    3.429    0.000    0.571 
#    0.000    6.429    0.000   10.286    0.000    0.000 
#    0.000    0.000    0.000    0.000    0.000    0.000 
#
# Total GULP energy -156008.042877 kJ/mol
# GULP energy per Si atom -5571.715817 kJ/mol
# Density = 2.134626 g / cm^3
# Si number density = 21.394958 Si / 1000 Ang^3
#
#
#
# Elastic Constant Matrix: (Units=GPa)
#
#
# Indices 1 2 3 4 5 6 
#
# 1 106.5268 5.9919 61.8047 0.0000 27.6524 0.0000
# 2 5.9919 16.2060 16.8525 0.0000 1.4994 0.0000
# 3 61.8047 16.8525 154.9964 0.0000 13.1786 0.0000
# 4 0.0000 0.0000 0.0000 20.5336 0.0000 -6.8070
# 5 27.6524 1.4994 13.1786 0.0000 39.2941 0.0000
# 6 0.0000 0.0000 0.0000 -6.8070 0.0000 2.8876
#
#
#
# Elastic Compliance Matrix: (Units=1/GPa)
#
#
# Indices 1 2 3 4 5 6 
#
# 1 0.014556 0.000777 -0.005162 0.000000 -0.008542 0.000000
# 2 0.000777 0.069614 -0.007830 0.000000 -0.000577 0.000000
# 3 -0.005162 -0.007830 0.009292 0.000000 0.000815 0.000000
# 4 0.000000 0.000000 0.000000 0.222858 0.000000 0.525351
# 5 -0.008542 -0.000577 0.000815 0.000000 0.031209 0.000000
# 6 0.000000 0.000000 0.000000 0.525351 0.000000 1.584732
#
#
# Mechanical properties :
#
#
# Convention : Reuss Voigt Hill
#
# Bulk Modulus (GPa) = 14.48609 49.66970 32.07789
# Shear Modulus (GPa) = 2.52563 25.41508 13.97036
#
# Velocity S-wave (km/s) = 1.08768 3.45033 2.55811
# Velocity P-wave (km/s) = 2.89187 6.25612 4.87350
#
# Compressibility (1/GPa) = 0.06903175
#
# Stress axis : x y z
#
# Youngs Moduli (GPa) = 68.70012 14.36493 107.61642
#
# Poissons Ratio (x) = -0.01116 0.55556
# Poissons Ratio (y) = -0.05337 0.84261
# Poissons Ratio (z) = 0.35466 0.11247
#
# Static dielectric constant tensor:
#      x y z
#    x 1.799380 0.000000 0.045380 
#    y 0.000000 1.786380 0.000000 
#    z 0.045380 0.000000 1.825320 
# 
# From -- ./inp_files/35137.got.cif
#   From: 2010.05.17/outbox.cif.g08.bks.cpg/sg14_18_cif.got.tgz:35137.got - 2010.06.03 17:49:19.
