data_PCOD9242945
_publ_section_title
;
Structure prediction by ZEFSAII (Michael W. Deem and Ramdas Pophale) SiO2 
 PCOD9242945
Probable space group: P 21/C
;
_chemical_formula_sum "Si O2"
_cell_formula_units_Z 32
_cell_length_a 13.867832
_cell_length_b 12.203415
_cell_length_c 14.774092
_cell_angle_alpha 90.000000
_cell_angle_beta 148.639237
_cell_angle_gamma 90.000000
_cell_volume 1301.214488
_symmetry_space_group_name_H-M "P 21/C"
_symmetry_group_IT_number 14
_symmetry_cell_setting 'monoclinic'
loop_
_space_group_symop_operation_xyz
x,y,z
-x,1/2+y,1/2-z
-x,-y,-z
x,1/2-y,1/2+z
loop_
_atom_site_type_symbol
_atom_site_label
_atom_site_fract_x
_atom_site_fract_y
_atom_site_fract_z
Si Si1 0.063460 0.708515 0.756868
Si Si2 0.722572 0.019439 0.634213
Si Si3 0.018829 0.146799 0.473092
Si Si4 0.687495 0.029690 0.298842
Si Si5 0.752074 0.080933 0.862600
Si Si6 0.445086 0.387429 0.767687
Si Si7 0.117815 0.210659 0.214460
Si Si8 0.437244 0.661998 0.617355
O O1 0.116186 0.581052 0.792964
O O2 0.997556 0.756601 0.610287
O O3 0.917426 0.735163 0.717175
O O4 0.248639 0.781995 0.929535
O O5 0.730138 0.079612 0.737481
O O6 0.548068 0.053611 0.434142
O O7 0.737817 0.888950 0.659003
O O8 0.146441 0.050395 0.534141
O O9 0.117598 0.189735 0.643539
O O10 0.809501 0.105011 0.329844
O O11 0.524155 0.944495 0.138743
O O12 0.583529 0.098984 0.293288
O O13 0.596672 0.131608 0.804317
O O14 0.743706 0.954950 0.889823
O O15 0.938132 0.141809 0.038062
O O16 0.420639 0.261839 0.769975
#
# Coordination Sequence:
#
# PCOD9242945 Si02
#       8
#     4   4   4   4   4   4   4   4
#     4  10  22  38  61  84 120 164 198 252 306 363
#     4  11  21  36  60  90 122 158 209 253 308 371
#     4  11  22  39  63  86 121 161 201 247 310 368
#     4  10  22  39  62  88 119 161 203 249 305 366
#     4  10  20  36  58  86 116 161 200 252 306 361
#     4  10  21  38  61  86 124 157 203 258 305 366
#     4  11  23  39  60  90 125 158 206 254 308 367
#     4   9  21  39  59  85 122 156 203 248 306 360
#
# _framework density 24.592410000000001
#
# number of rings (size 3 to 8) (size 9 to 14) (size 15 to 20)
#    0.000    1.750    1.250    3.750    1.750    1.500 
#    0.000    0.000    0.000    1.500    0.000    0.000 
#    0.000    0.000    0.000    0.000    0.000    0.000 
#
# Total GULP energy -178727.168631 kJ/mol
# GULP energy per Si atom -5585.224020 kJ/mol
# Density = 2.453644 g / cm^3
# Si number density = 24.592410 Si / 1000 Ang^3
#
#
#
# Elastic Constant Matrix: (Units=GPa)
#
#
# Indices 1 2 3 4 5 6 
#
# 1 84.1315 16.0556 19.2967 0.0000 -1.6563 0.0000
# 2 16.0556 92.2147 10.0752 0.0000 -8.0421 0.0000
# 3 19.2967 10.0752 29.3702 0.0000 2.9701 0.0000
# 4 0.0000 0.0000 0.0000 30.7261 0.0000 5.7635
# 5 -1.6563 -8.0421 2.9701 0.0000 25.2169 0.0000
# 6 0.0000 0.0000 0.0000 5.7635 0.0000 42.3799
#
#
#
# Elastic Compliance Matrix: (Units=1/GPa)
#
#
# Indices 1 2 3 4 5 6 
#
# 1 0.014253 -0.001355 -0.009059 0.000000 0.001571 0.000000
# 2 -0.001355 0.011830 -0.003583 0.000000 0.004106 0.000000
# 3 -0.009059 -0.003583 0.041904 0.000000 -0.006673 0.000000
# 4 0.000000 0.000000 0.000000 0.033398 0.000000 -0.004542
# 5 0.001571 0.004106 -0.006673 0.000000 0.041855 0.000000
# 6 0.000000 0.000000 0.000000 -0.004542 0.000000 0.024214
#
#
# Mechanical properties :
#
#
# Convention : Reuss Voigt Hill
#
# Bulk Modulus (GPa) = 25.00415 32.95240 28.97828
# Shear Modulus (GPa) = 23.94893 30.35050 27.14971
#
# Velocity S-wave (km/s) = 3.12402 3.51685 3.32624
# Velocity P-wave (km/s) = 4.81686 5.46987 5.15372
#
# Compressibility (1/GPa) = 0.03999337
#
# Stress axis : x y z
#
# Youngs Moduli (GPa) = 70.15860 84.53293 23.86414
#
# Poissons Ratio (x) = 0.11454 0.21618
# Poissons Ratio (y) = 0.09506 0.08551
# Poissons Ratio (z) = 0.63555 0.30289
#
# Static dielectric constant tensor:
#      x y z
#    x 1.986290 0.000000 0.049670 
#    y 0.000000 1.997180 0.000000 
#    z 0.049670 0.000000 1.977420 
# 
# From -- ./inp_files/47154.got.cif
#   From: 2010.05.17/outbox.cif.g08.bks.cpg/sg14_24_cif.got.tgz:47154.got - 2010.06.03 17:49:19.
