data_PCOD9242566
_publ_section_title
;
Structure prediction by ZEFSAII (Michael W. Deem and Ramdas Pophale) SiO2 
 PCOD9242566
Probable space group: P 21/C
;
_chemical_formula_sum "Si O2"
_cell_formula_units_Z 24
_cell_length_a 7.860696
_cell_length_b 24.548298
_cell_length_c 5.720264
_cell_angle_alpha 90.000000
_cell_angle_beta 64.400140
_cell_angle_gamma 90.000000
_cell_volume 995.462407
_symmetry_space_group_name_H-M "P 21/C"
_symmetry_group_IT_number 14
_symmetry_cell_setting 'monoclinic'
loop_
_space_group_symop_operation_xyz
x,y,z
-x,1/2+y,1/2-z
-x,-y,-z
x,1/2-y,1/2+z
loop_
_atom_site_type_symbol
_atom_site_label
_atom_site_fract_x
_atom_site_fract_y
_atom_site_fract_z
Si Si1 0.683779 0.724600 0.955846
Si Si2 0.776426 0.222666 0.253428
Si Si3 0.657611 0.894565 0.373125
Si Si4 0.240207 0.899458 0.846174
Si Si5 0.139736 0.503960 0.133843
Si Si6 0.431000 0.557362 0.646674
O O1 0.740303 0.744980 0.180851
O O2 0.453525 0.724927 0.099603
O O3 0.746869 0.662737 0.878683
O O4 0.833218 0.248033 0.473044
O O5 0.832244 0.158888 0.196229
O O6 0.465279 0.898574 0.640898
O O7 0.591503 0.902206 0.143040
O O8 0.791174 0.944612 0.343921
O O9 0.106248 0.950492 0.852240
O O10 0.274200 0.909259 0.099821
O O11 0.327124 0.533627 0.930798
O O12 0.000000 0.500000 0.000000
O O13 0.500000 0.500000 0.500000
#
# Coordination Sequence:
#
# PCOD9242566 Si02
#       6
#     4   4   4   4   4   4
#     4   9  19  31  52  84 117 146 192 244 292 345
#     4   9  19  31  52  85 117 146 190 245 294 344
#     4  10  20  34  56  84 113 151 188 241 295 347
#     4  10  20  35  57  83 112 152 190 238 293 350
#     4  11  23  37  54  85 120 148 194 245 297 348
#     4  11  19  35  59  81 115 151 193 233 292 359
#
# _framework density 24.109400999999998
#
# number of rings (size 3 to 8) (size 9 to 14) (size 15 to 20)
#    0.000    2.000    3.333    1.000   14.000    0.667 
#    0.000    0.000    0.000    2.000    0.000    0.000 
#    0.000    0.000    0.000    0.000    0.000    0.000 
#
# Total GULP energy -133761.485404 kJ/mol
# GULP energy per Si atom -5573.395225 kJ/mol
# Density = 2.405453 g / cm^3
# Si number density = 24.109401 Si / 1000 Ang^3
#
#
#
# Elastic Constant Matrix: (Units=GPa)
#
#
# Indices 1 2 3 4 5 6 
#
# 1 59.5838 47.6317 22.8481 0.0000 14.5040 0.0000
# 2 47.6317 217.0040 82.3049 0.0000 28.0115 0.0000
# 3 22.8481 82.3049 110.6126 0.0000 21.0903 0.0000
# 4 0.0000 0.0000 0.0000 26.8442 0.0000 13.2781
# 5 14.5040 28.0115 21.0903 0.0000 32.3035 0.0000
# 6 0.0000 0.0000 0.0000 13.2781 0.0000 -5.3283
#
#
#
# Elastic Compliance Matrix: (Units=1/GPa)
#
#
# Indices 1 2 3 4 5 6 
#
# 1 0.021434 -0.003735 -0.000492 0.000000 -0.006063 0.000000
# 2 -0.003735 0.007300 -0.004310 0.000000 -0.001839 0.000000
# 3 -0.000492 -0.004310 0.013243 0.000000 -0.004688 0.000000
# 4 0.000000 0.000000 0.000000 0.016685 0.000000 0.041579
# 5 -0.006063 -0.001839 -0.004688 0.000000 0.038334 0.000000
# 6 0.000000 0.000000 0.000000 0.041579 0.000000 -0.084061
#
#
# Mechanical properties :
#
#
# Convention : Reuss Voigt Hill
#
# Bulk Modulus (GPa) = 40.15585 76.97442 58.56513
# Shear Modulus (GPa) = 130.51366 26.39158 78.45262
#
# Velocity S-wave (km/s) = 7.36556 3.31215 5.71060
# Velocity P-wave (km/s) = 9.43542 6.82815 8.23561
#
# Compressibility (1/GPa) = 0.02490297
#
# Stress axis : x y z
#
# Youngs Moduli (GPa) = 46.65534 136.98478 75.51334
#
# Poissons Ratio (x) = 0.51170 0.03714
# Poissons Ratio (y) = 0.17428 0.32543
# Poissons Ratio (z) = 0.02294 0.59035
#
# Static dielectric constant tensor:
#      x y z
#    x 1.954330 0.000000 -0.104550 
#    y 0.000000 1.745880 0.000000 
#    z -0.104550 0.000000 1.630500 
# 
# From -- ./inp_files/1640.got.cif
#   From: 2010.05.17/outbox.cif.g08.bks.cpg/sg14_1_cif.got.tgz:1640.got - 2010.06.03 17:49:19.
