data_PCOD9242762
_publ_section_title
;
Structure prediction by ZEFSAII (Michael W. Deem and Ramdas Pophale) SiO2 
 PCOD9242762
Probable space group: P 21/C
;
_chemical_formula_sum "Si O2"
_cell_formula_units_Z 20
_cell_length_a 9.130281
_cell_length_b 10.756879
_cell_length_c 13.297192
_cell_angle_alpha 90.000000
_cell_angle_beta 33.875863
_cell_angle_gamma 90.000000
_cell_volume 727.936921
_symmetry_space_group_name_H-M "P 21/C"
_symmetry_group_IT_number 14
_symmetry_cell_setting 'monoclinic'
loop_
_space_group_symop_operation_xyz
x,y,z
-x,1/2+y,1/2-z
-x,-y,-z
x,1/2-y,1/2+z
loop_
_atom_site_type_symbol
_atom_site_label
_atom_site_fract_x
_atom_site_fract_y
_atom_site_fract_z
Si Si1 0.044300 0.289640 0.496404
Si Si2 0.504556 0.640129 0.037305
Si Si3 0.552521 0.363763 0.688530
Si Si4 0.180560 0.537392 0.803616
Si Si5 0.952331 0.849584 0.793900
O O1 0.857542 0.328864 0.512330
O O2 0.074804 0.383288 0.571653
O O3 0.326959 0.241261 0.299730
O O4 0.871550 0.182393 0.653068
O O5 0.740909 0.740008 0.894432
O O6 0.500000 0.500000 0.000000
O O7 0.484373 0.615929 0.169804
O O8 0.256803 0.691025 0.113832
O O9 0.458763 0.478678 0.674581
O O10 0.092837 0.466372 0.753794
O O11 0.000000 0.500000 0.000000
#
# Coordination Sequence:
#
# PCOD9242762 Si02
#       5
#     4   4   4   4   4
#     4   9  19  37  53  79 114 146 190 242 289 354
#     4  10  20  38  58  84 119 160 201 248 300 360
#     4   9  19  34  55  77 108 147 189 238 292 345
#     4  10  20  36  59  84 113 154 198 247 299 347
#     4  10  20  35  59  86 117 159 201 241 300 366
#
# _framework density 27.474909
#
# number of rings (size 3 to 8) (size 9 to 14) (size 15 to 20)
#    0.000    2.400    0.000    3.600    0.000    4.800 
#    0.000   19.000    0.000    0.000    0.000    0.000 
#    0.000    0.000    0.000    0.000    0.000    0.000 
#
# Total GULP energy -111701.554016 kJ/mol
# GULP energy per Si atom -5585.077701 kJ/mol
# Density = 2.741237 g / cm^3
# Si number density = 27.474909 Si / 1000 Ang^3
#
#
#
# Elastic Constant Matrix: (Units=GPa)
#
#
# Indices 1 2 3 4 5 6 
#
# 1 181.5740 29.7742 45.2158 0.0000 -49.4110 0.0000
# 2 29.7742 82.3237 3.4563 0.0000 -26.5868 0.0000
# 3 45.2158 3.4563 63.4423 0.0000 -42.0462 0.0000
# 4 0.0000 0.0000 0.0000 25.0669 0.0000 -19.7035
# 5 -49.4110 -26.5868 -42.0462 0.0000 76.0882 0.0000
# 6 0.0000 0.0000 0.0000 -19.7035 0.0000 46.4263
#
#
#
# Elastic Compliance Matrix: (Units=1/GPa)
#
#
# Indices 1 2 3 4 5 6 
#
# 1 0.007293 -0.001827 -0.003759 0.000000 0.002020 0.000000
# 2 -0.001827 0.014765 0.004940 0.000000 0.006702 0.000000
# 3 -0.003759 0.004940 0.027926 0.000000 0.014717 0.000000
# 4 0.000000 0.000000 0.000000 0.059863 0.000000 0.025406
# 5 0.002020 0.006702 0.014717 0.000000 0.024929 0.000000
# 6 0.000000 0.000000 0.000000 0.025406 0.000000 0.032322
#
#
# Mechanical properties :
#
#
# Convention : Reuss Voigt Hill
#
# Bulk Modulus (GPa) = 20.53785 53.80362 37.17074
# Shear Modulus (GPa) = 27.08229 46.10921 36.59575
#
# Velocity S-wave (km/s) = 3.14301 4.10106 3.65358
# Velocity P-wave (km/s) = 4.54562 6.48462 5.59969
#
# Compressibility (1/GPa) = 0.04869058
#
# Stress axis : x y z
#
# Youngs Moduli (GPa) = 137.11917 67.72642 35.80883
#
# Poissons Ratio (x) = 0.12377 0.13462
# Poissons Ratio (y) = 0.25058 -0.17690
# Poissons Ratio (z) = 0.51549 -0.33457
#
# Static dielectric constant tensor:
#      x y z
#    x 2.162990 0.000000 -0.070820 
#    y 0.000000 2.468690 0.000000 
#    z -0.070820 0.000000 2.270590 
# 
# From -- ./inp_files/40549.got.cif
#   From: 2010.05.17/outbox.cif.g08.bks.cpg/sg14_21_cif.got.tgz:40549.got - 2010.06.03 17:49:19.
