data_PCOD9242370
_publ_section_title
;
Structure prediction by ZEFSAII (Michael W. Deem and Ramdas Pophale) SiO2 
 PCOD9242370
Probable space group: P 21/C
;
_chemical_formula_sum "Si O2"
_cell_formula_units_Z 32
_cell_length_a 20.670144
_cell_length_b 5.320022
_cell_length_c 27.394184
_cell_angle_alpha 90.000000
_cell_angle_beta 30.166874
_cell_angle_gamma 90.000000
_cell_volume 1513.801048
_symmetry_space_group_name_H-M "P 21/C"
_symmetry_group_IT_number 14
_symmetry_cell_setting 'monoclinic'
loop_
_space_group_symop_operation_xyz
x,y,z
-x,1/2+y,1/2-z
-x,-y,-z
x,1/2-y,1/2+z
loop_
_atom_site_type_symbol
_atom_site_label
_atom_site_fract_x
_atom_site_fract_y
_atom_site_fract_z
Si Si1 0.514246 0.992856 0.675285
Si Si2 0.821530 0.845620 0.638154
Si Si3 0.349094 0.998427 0.878899
Si Si4 0.135655 0.621088 0.269688
Si Si5 0.312246 0.852601 0.736287
Si Si6 0.947937 0.926659 0.457063
Si Si7 0.891170 0.197204 0.918955
Si Si8 0.917906 0.344025 0.297721
O O1 0.399060 0.978797 0.790820
O O2 0.606566 0.765786 0.630069
O O3 0.454594 0.922735 0.661844
O O4 0.580564 0.263905 0.639216
O O5 0.768978 0.575277 0.685732
O O6 0.844998 0.861517 0.565100
O O7 0.730323 0.075678 0.716219
O O8 0.959578 0.874391 0.574925
O O9 0.198049 0.967634 0.987565
O O10 0.275432 0.608753 0.203321
O O11 0.139038 0.787320 0.218368
O O12 0.052481 0.734723 0.368578
O O13 0.041434 0.387411 0.318652
O O14 0.888559 0.036768 0.446644
O O15 0.835319 0.189066 0.900875
O O16 0.976183 0.622383 0.264056
#
# Coordination Sequence:
#
# PCOD9242370 Si02
#       8
#     4   4   4   4   4   4   4   4
#     4  10  22  40  54  80 109 150 194 230 274 326
#     4  10  22  31  51  81 117 147 180 217 271 344
#     4  10  23  37  58  78 110 149 193 233 269 331
#     4  10  22  35  57  86 117 143 186 228 294 334
#     4  11  21  38  57  79 115 154 183 230 281 339
#     4  10  20  32  49  82 118 145 178 219 278 339
#     4  11  21  36  59  83 114 150 190 233 287 334
#     4  10  21  37  55  82 117 147 184 229 283 345
#
# _framework density 21.138839000000001
#
# number of rings (size 3 to 8) (size 9 to 14) (size 15 to 20)
#    0.000    1.750    2.500    1.500    5.250    2.500 
#    0.000    0.000    0.000    1.500    0.000    0.000 
#    0.000    0.000    0.000    0.000    0.000    0.000 
#
# Total GULP energy -178395.717271 kJ/mol
# GULP energy per Si atom -5574.866165 kJ/mol
# Density = 2.109073 g / cm^3
# Si number density = 21.138839 Si / 1000 Ang^3
#
#
#
# Elastic Constant Matrix: (Units=GPa)
#
#
# Indices 1 2 3 4 5 6 
#
# 1 103.2970 19.2216 0.4578 0.0000 -1.0570 0.0000
# 2 19.2216 73.2390 12.9400 0.0000 2.8313 0.0000
# 3 0.4578 12.9400 19.7237 0.0000 2.8687 0.0000
# 4 0.0000 0.0000 0.0000 17.5003 0.0000 4.5571
# 5 -1.0570 2.8313 2.8687 0.0000 23.3541 0.0000
# 6 0.0000 0.0000 0.0000 4.5571 0.0000 32.1688
#
#
#
# Elastic Compliance Matrix: (Units=1/GPa)
#
#
# Indices 1 2 3 4 5 6 
#
# 1 0.010238 -0.003001 0.001640 0.000000 0.000626 0.000000
# 2 -0.003001 0.016333 -0.010526 0.000000 -0.000823 0.000000
# 3 0.001640 -0.010526 0.058416 0.000000 -0.005825 0.000000
# 4 0.000000 0.000000 0.000000 0.059331 0.000000 -0.008405
# 5 0.000626 -0.000823 -0.005825 0.000000 0.043663 0.000000
# 6 0.000000 0.000000 0.000000 -0.008405 0.000000 0.032277
#
#
# Mechanical properties :
#
#
# Convention : Reuss Voigt Hill
#
# Bulk Modulus (GPa) = 16.33641 29.05542 22.69592
# Shear Modulus (GPa) = 18.90819 25.51399 22.21109
#
# Velocity S-wave (km/s) = 2.99402 3.47792 3.24500
# Velocity P-wave (km/s) = 4.43815 5.46834 4.97996
#
# Compressibility (1/GPa) = 0.06121295
#
# Stress axis : x y z
#
# Youngs Moduli (GPa) = 97.67154 61.22506 17.11871
#
# Poissons Ratio (x) = 0.18374 -0.02808
# Poissons Ratio (y) = 0.29312 0.18020
# Poissons Ratio (z) = -0.16020 0.64447
#
# Static dielectric constant tensor:
#      x y z
#    x 1.886630 0.000000 -0.028570 
#    y 0.000000 1.816870 0.000000 
#    z -0.028570 0.000000 1.782780 
# 
# From -- ./inp_files/72839.got.cif
#   From: 2010.05.17/outbox.cif.g08.bks.cpg/sg14_37_cif.got.tgz:72839.got - 2010.06.03 17:49:19.
