data_PCOD9242039
_publ_section_title
;
Structure prediction by ZEFSAII (Michael W. Deem and Ramdas Pophale) SiO2 
 PCOD9242039
Probable space group: P 21/C
;
_chemical_formula_sum "Si O2"
_cell_formula_units_Z 24
_cell_length_a 11.977409
_cell_length_b 11.308918
_cell_length_c 14.726941
_cell_angle_alpha 90.000000
_cell_angle_beta 149.912969
_cell_angle_gamma 90.000000
_cell_volume 1000.016328
_symmetry_space_group_name_H-M "P 21/C"
_symmetry_group_IT_number 14
_symmetry_cell_setting 'monoclinic'
loop_
_space_group_symop_operation_xyz
x,y,z
-x,1/2+y,1/2-z
-x,-y,-z
x,1/2-y,1/2+z
loop_
_atom_site_type_symbol
_atom_site_label
_atom_site_fract_x
_atom_site_fract_y
_atom_site_fract_z
Si Si1 0.458529 0.253145 0.411799
Si Si2 0.984900 0.879647 0.875153
Si Si3 0.333913 0.934297 0.563596
Si Si4 0.305433 0.606991 0.765500
Si Si5 0.392299 0.525488 0.313487
Si Si6 0.853981 0.498845 0.684687
O O1 0.208987 0.215231 0.261716
O O2 0.531949 0.179104 0.374980
O O3 0.617229 0.200855 0.604092
O O4 0.444678 0.388116 0.371352
O O5 0.099673 0.901205 0.859587
O O6 0.855470 0.003744 0.807238
O O7 0.164951 0.849461 0.079697
O O8 0.471644 0.042298 0.614673
O O9 0.326615 0.950352 0.665804
O O10 0.082041 0.930957 0.353048
O O11 0.641041 0.576886 0.504121
O O12 0.210332 0.554064 0.261943
#
# Coordination Sequence:
#
# PCOD9242039 Si02
#       6
#     4   4   4   4   4   4
#     4  11  23  42  68 102 129 174 234 271 331 404
#     4  10  19  38  71  93 124 175 218 272 333 393
#     4  11  21  44  69  91 135 180 218 276 338 391
#     4  10  19  38  68  99 123 168 224 275 328 391
#     4  11  27  42  62 103 135 177 224 274 334 399
#     4  11  22  45  63  88 140 175 213 278 340 387
#
# _framework density 23.999607000000001
#
# number of rings (size 3 to 8) (size 9 to 14) (size 15 to 20)
#    0.000    1.333    5.000    1.500    0.000    2.667 
#    6.000    0.000    0.000    0.000    0.000    0.000 
#    0.000    0.000    0.000    0.000    0.000    0.000 
#
# Total GULP energy -134281.049703 kJ/mol
# GULP energy per Si atom -5595.043738 kJ/mol
# Density = 2.394498 g / cm^3
# Si number density = 23.999607 Si / 1000 Ang^3
#
#
#
# Elastic Constant Matrix: (Units=GPa)
#
#
# Indices 1 2 3 4 5 6 
#
# 1 185.6989 31.9023 40.6781 0.0000 -9.4612 0.0000
# 2 31.9023 90.5839 28.4106 0.0000 -7.0843 0.0000
# 3 40.6781 28.4106 119.0561 0.0000 1.9624 0.0000
# 4 0.0000 0.0000 0.0000 16.9978 0.0000 1.7363
# 5 -9.4612 -7.0843 1.9624 0.0000 56.7999 0.0000
# 6 0.0000 0.0000 0.0000 1.7363 0.0000 16.3593
#
#
#
# Elastic Compliance Matrix: (Units=1/GPa)
#
#
# Indices 1 2 3 4 5 6 
#
# 1 0.006070 -0.001528 -0.001724 0.000000 0.000880 0.000000
# 2 -0.001528 0.012462 -0.002475 0.000000 0.001385 0.000000
# 3 -0.001724 -0.002475 0.009594 0.000000 -0.000927 0.000000
# 4 0.000000 0.000000 0.000000 0.059476 0.000000 -0.006313
# 5 0.000880 0.001385 -0.000927 0.000000 0.017957 0.000000
# 6 0.000000 0.000000 0.000000 -0.006313 0.000000 0.061797
#
#
# Mechanical properties :
#
#
# Convention : Reuss Voigt Hill
#
# Bulk Modulus (GPa) = 59.97664 66.36900 63.17282
# Shear Modulus (GPa) = 27.11970 37.65457 32.38714
#
# Velocity S-wave (km/s) = 3.36520 3.96532 3.67752
# Velocity P-wave (km/s) = 6.33596 6.97705 6.66422
#
# Compressibility (1/GPa) = 0.01667316
#
# Stress axis : x y z
#
# Youngs Moduli (GPa) = 164.74311 80.24277 104.23014
#
# Poissons Ratio (x) = 0.12264 0.17967
# Poissons Ratio (y) = 0.25178 0.25792
# Poissons Ratio (z) = 0.28398 0.19856
#
# Static dielectric constant tensor:
#      x y z
#    x 1.913150 0.000000 -0.006330 
#    y 0.000000 1.982780 0.000000 
#    z -0.006330 0.000000 1.943000 
# 
# From -- ./inp_files/45142.got.cif
#   From: 2010.05.17/outbox.cif.g08.bks.cpg/sg14_23_cif.got.tgz:45142.got - 2010.06.03 17:49:19.
