data_PCOD9242531
_publ_section_title
;
Structure prediction by ZEFSAII (Michael W. Deem and Ramdas Pophale) SiO2 
 PCOD9242531
Probable space group: P 21/C
;
_chemical_formula_sum "Si O2"
_cell_formula_units_Z 24
_cell_length_a 9.718191
_cell_length_b 7.936943
_cell_length_c 18.931440
_cell_angle_alpha 90.000000
_cell_angle_beta 136.809150
_cell_angle_gamma 90.000000
_cell_volume 999.428688
_symmetry_space_group_name_H-M "P 21/C"
_symmetry_group_IT_number 14
_symmetry_cell_setting 'monoclinic'
loop_
_space_group_symop_operation_xyz
x,y,z
-x,1/2+y,1/2-z
-x,-y,-z
x,1/2-y,1/2+z
loop_
_atom_site_type_symbol
_atom_site_label
_atom_site_fract_x
_atom_site_fract_y
_atom_site_fract_z
Si Si1 0.964837 0.107192 0.791176
Si Si2 0.492820 0.086691 0.572981
Si Si3 0.588573 0.212471 0.365219
Si Si4 0.113888 0.255621 0.198759
Si Si5 0.830522 0.096671 0.321293
Si Si6 0.526335 0.962470 0.926075
O O1 0.729044 0.097062 0.681942
O O2 0.980264 0.262095 0.849913
O O3 0.083091 0.166146 0.765892
O O4 0.005039 0.922201 0.839055
O O5 0.399340 0.270892 0.544066
O O6 0.500000 0.000000 0.500000
O O7 0.378829 0.956490 0.579182
O O8 0.345123 0.215085 0.265107
O O9 0.705985 0.183722 0.337146
O O10 0.635006 0.381893 0.427047
O O11 0.067079 0.413605 0.129831
O O12 0.669605 0.059984 0.197956
O O13 0.500000 0.000000 0.000000
#
# Coordination Sequence:
#
# PCOD9242531 Si02
#       6
#     4   4   4   4   4   4
#     4  10  20  35  56  84 114 156 192 240 296 353
#     4  10  20  35  56  85 114 157 197 237 290 356
#     4  10  22  35  56  88 118 144 195 253 294 336
#     4  10  20  34  54  83 118 149 190 243 295 352
#     4  10  22  35  56  88 117 144 197 250 294 337
#     4  10  20  34  54  82 115 153 189 236 292 348
#
# _framework density 24.013718000000001
#
# number of rings (size 3 to 8) (size 9 to 14) (size 15 to 20)
#    0.000    2.000    3.333    0.000   14.000    0.000 
#    0.000    0.000    0.000    1.000    8.667    9.333 
#    0.000    0.000    0.000    0.000    0.000    0.000 
#
# Total GULP energy -133864.039850 kJ/mol
# GULP energy per Si atom -5577.668327 kJ/mol
# Density = 2.395906 g / cm^3
# Si number density = 24.013718 Si / 1000 Ang^3
#
#
#
# Elastic Constant Matrix: (Units=GPa)
#
#
# Indices 1 2 3 4 5 6 
#
# 1 130.3119 46.0704 19.1936 0.0000 -33.6769 0.0000
# 2 46.0704 259.3350 10.2310 0.0000 -33.1591 0.0000
# 3 19.1936 10.2310 66.5252 0.0000 -1.9166 0.0000
# 4 0.0000 0.0000 0.0000 -4.5632 0.0000 -16.0167
# 5 -33.6769 -33.1591 -1.9166 0.0000 31.9996 0.0000
# 6 0.0000 0.0000 0.0000 -16.0167 0.0000 28.4276
#
#
#
# Elastic Compliance Matrix: (Units=1/GPa)
#
#
# Indices 1 2 3 4 5 6 
#
# 1 0.011103 -0.000448 -0.002816 0.000000 0.011052 0.000000
# 2 -0.000448 0.004483 -0.000441 0.000000 0.004148 0.000000
# 3 -0.002816 -0.000441 0.015841 0.000000 -0.002472 0.000000
# 4 0.000000 0.000000 0.000000 -0.073598 0.000000 -0.041467
# 5 0.011052 0.004148 -0.002472 0.000000 0.047032 0.000000
# 6 0.000000 0.000000 0.000000 -0.041467 0.000000 0.011814
#
#
# Mechanical properties :
#
#
# Convention : Reuss Voigt Hill
#
# Bulk Modulus (GPa) = 41.63615 67.46246 54.54930
# Shear Modulus (GPa) = 155.80423 36.55127 96.17775
#
# Velocity S-wave (km/s) = 8.06363 3.90564 6.33547
# Velocity P-wave (km/s) = 10.20159 6.96369 8.73400
#
# Compressibility (1/GPa) = 0.02401759
#
# Stress axis : x y z
#
# Youngs Moduli (GPa) = 90.06218 223.04692 63.12743
#
# Poissons Ratio (x) = 0.09998 0.17778
# Poissons Ratio (y) = 0.04037 0.02782
# Poissons Ratio (z) = 0.25363 0.09829
#
# Static dielectric constant tensor:
#      x y z
#    x 1.712260 0.000000 0.034360 
#    y 0.000000 2.001770 0.000000 
#    z 0.034360 0.000000 1.994190 
# 
# From -- ./inp_files/64413.got.cif
#   From: 2010.05.17/outbox.cif.g08.bks.cpg/sg14_33_cif.got.tgz:64413.got - 2010.06.03 17:49:19.
