data_PCOD9242117
_publ_section_title
;
Structure prediction by ZEFSAII (Michael W. Deem and Ramdas Pophale) SiO2 
 PCOD9242117
Probable space group: P 21/C
;
_chemical_formula_sum "Si O2"
_cell_formula_units_Z 28
_cell_length_a 8.955194
_cell_length_b 11.349984
_cell_length_c 14.167589
_cell_angle_alpha 90.000000
_cell_angle_beta 63.754905
_cell_angle_gamma 90.000000
_cell_volume 1291.562286
_symmetry_space_group_name_H-M "P 21/C"
_symmetry_group_IT_number 14
_symmetry_cell_setting 'monoclinic'
loop_
_space_group_symop_operation_xyz
x,y,z
-x,1/2+y,1/2-z
-x,-y,-z
x,1/2-y,1/2+z
loop_
_atom_site_type_symbol
_atom_site_label
_atom_site_fract_x
_atom_site_fract_y
_atom_site_fract_z
Si Si1 0.178007 0.043859 0.485519
Si Si2 0.495497 0.411794 0.767189
Si Si3 0.757111 0.487835 0.833000
Si Si4 0.542998 0.075748 0.895528
Si Si5 0.284512 0.232603 0.742129
Si Si6 0.866272 0.546790 0.332027
Si Si7 0.223261 0.195193 0.971027
O O1 0.322671 0.052277 0.367039
O O2 0.243570 0.968756 0.555278
O O3 0.154715 0.179600 0.524127
O O4 0.000000 0.000000 0.500000
O O5 0.641527 0.406381 0.801577
O O6 0.524696 0.508102 0.678051
O O7 0.459246 0.289381 0.725119
O O8 0.693872 0.619216 0.827501
O O9 0.946770 0.481186 0.746643
O O10 0.423942 0.188982 0.933619
O O11 0.742829 0.062082 0.840376
O O12 0.500000 0.000000 0.000000
O O13 0.194063 0.339674 0.712730
O O14 0.196095 0.194879 0.865519
O O15 0.849222 0.589772 0.445464
#
# Coordination Sequence:
#
# PCOD9242117 Si02
#       7
#     4   4   4   4   4   4   4
#     4  11  23  42  68  94 135 177 215 270 329 393
#     4  10  22  41  65  90 129 170 220 266 324 386
#     4  12  22  42  67  96 130 172 219 272 326 395
#     4   9  18  37  64  90 127 171 206 269 326 373
#     4  10  21  41  61  92 129 166 213 269 323 378
#     4  10  22  40  65  94 131 166 218 268 331 386
#     4  10  19  39  65  92 127 168 214 265 323 383
#
# _framework density 21.679169999999999
#
# number of rings (size 3 to 8) (size 9 to 14) (size 15 to 20)
#    0.000    1.714    2.857    3.000    0.000    0.571 
#    7.714    0.000    0.000    0.000    0.000    0.000 
#    0.000    0.000    0.000    0.000    0.000    0.000 
#
# Total GULP energy -156236.967954 kJ/mol
# GULP energy per Si atom -5579.891713 kJ/mol
# Density = 2.162983 g / cm^3
# Si number density = 21.679170 Si / 1000 Ang^3
#
#
#
# Elastic Constant Matrix: (Units=GPa)
#
#
# Indices 1 2 3 4 5 6 
#
# 1 108.9390 36.1771 21.4669 0.0000 6.7534 0.0000
# 2 36.1771 59.3673 -9.3212 0.0000 -2.7521 0.0000
# 3 21.4669 -9.3212 78.9296 0.0000 15.1571 0.0000
# 4 0.0000 0.0000 0.0000 26.4295 0.0000 7.2694
# 5 6.7534 -2.7521 15.1571 0.0000 40.2828 0.0000
# 6 0.0000 0.0000 0.0000 7.2694 0.0000 31.2463
#
#
#
# Elastic Compliance Matrix: (Units=1/GPa)
#
#
# Indices 1 2 3 4 5 6 
#
# 1 0.012971 -0.008637 -0.004330 0.000000 -0.001136 0.000000
# 2 -0.008637 0.022921 0.004826 0.000000 0.001198 0.000000
# 3 -0.004330 0.004826 0.015321 0.000000 -0.004709 0.000000
# 4 0.000000 0.000000 0.000000 0.040423 0.000000 -0.009404
# 5 -0.001136 0.001198 -0.004709 0.000000 0.026869 0.000000
# 6 0.000000 0.000000 0.000000 -0.009404 0.000000 0.034192
#
#
# Mechanical properties :
#
#
# Convention : Reuss Voigt Hill
#
# Bulk Modulus (GPa) = 28.62748 38.20907 33.41827
# Shear Modulus (GPa) = 27.68210 32.85261 30.26736
#
# Velocity S-wave (km/s) = 3.57725 3.89704 3.74056
# Velocity P-wave (km/s) = 5.50418 6.15729 5.83987
#
# Compressibility (1/GPa) = 0.03493147
#
# Stress axis : x y z
#
# Youngs Moduli (GPa) = 77.09386 43.62891 65.26838
#
# Poissons Ratio (x) = 0.37681 0.28260
# Poissons Ratio (y) = 0.66585 -0.31497
# Poissons Ratio (z) = 0.33380 -0.21054
#
# Static dielectric constant tensor:
#      x y z
#    x 1.806170 0.000000 0.032420 
#    y 0.000000 1.845650 0.000000 
#    z 0.032420 0.000000 1.833520 
# 
# From -- ./inp_files/40018.got.cif
#   From: 2010.05.17/outbox.cif.g08.bks.cpg/sg14_21_cif.got.tgz:40018.got - 2010.06.03 17:49:19.
