data_PCOD9242027
_publ_section_title
;
Structure prediction by ZEFSAII (Michael W. Deem and Ramdas Pophale) SiO2 
 PCOD9242027
Probable space group: P 21/C
;
_chemical_formula_sum "Si O2"
_cell_formula_units_Z 32
_cell_length_a 17.096416
_cell_length_b 11.264716
_cell_length_c 13.727421
_cell_angle_alpha 90.000000
_cell_angle_beta 153.629088
_cell_angle_gamma 90.000000
_cell_volume 1174.285380
_symmetry_space_group_name_H-M "P 21/C"
_symmetry_group_IT_number 14
_symmetry_cell_setting 'monoclinic'
loop_
_space_group_symop_operation_xyz
x,y,z
-x,1/2+y,1/2-z
-x,-y,-z
x,1/2-y,1/2+z
loop_
_atom_site_type_symbol
_atom_site_label
_atom_site_fract_x
_atom_site_fract_y
_atom_site_fract_z
Si Si1 0.305007 0.925452 0.182625
Si Si2 0.553173 0.385384 0.864692
Si Si3 0.270077 0.398765 0.984447
Si Si4 0.671035 0.132057 0.994879
Si Si5 0.988939 0.178974 0.023427
Si Si6 0.187871 0.570590 0.148784
Si Si7 0.155563 0.179898 0.559687
Si Si8 0.518332 0.682741 0.429019
O O1 0.218932 0.889097 0.981279
O O2 0.434861 0.814409 0.345804
O O3 0.420901 0.045050 0.291806
O O4 0.155183 0.916601 0.099006
O O5 0.728639 0.459990 0.031869
O O6 0.637549 0.263902 0.998165
O O7 0.448833 0.345118 0.649240
O O8 0.478133 0.399248 0.240400
O O9 0.193021 0.326230 0.988398
O O10 0.172549 0.348976 0.781612
O O11 0.734741 0.058511 0.156509
O O12 0.036870 0.287227 0.465745
O O13 0.920810 0.308271 0.983472
O O14 0.086763 0.453000 0.005570
O O15 0.363235 0.590561 0.281293
O O16 0.330518 0.177786 0.821840
#
# Coordination Sequence:
#
# PCOD9242027 Si02
#       8
#     4   4   4   4   4   4   4   4
#     4   9  21  39  62  91 138 172 218 271 334 405
#     4  10  19  40  67  95 124 182 225 276 334 392
#     4  11  23  42  66  98 133 174 224 276 334 400
#     4  10  21  40  69  96 127 174 228 278 332 388
#     4  11  26  41  59  98 143 172 211 278 337 409
#     4  11  22  41  67 104 128 166 225 284 330 398
#     4  12  21  40  71  98 134 171 222 278 347 385
#     4  10  19  38  66  98 127 160 227 295 311 389
#
# _framework density 27.250616000000001
#
# number of rings (size 3 to 8) (size 9 to 14) (size 15 to 20)
#    0.000    1.500    2.500    4.500    1.750    0.000 
#    4.500    3.125    0.000    0.000    0.000    0.000 
#    0.000    0.000    0.000    0.000    0.000    0.000 
#
# Total GULP energy -178869.174100 kJ/mol
# GULP energy per Si atom -5589.661691 kJ/mol
# Density = 2.718859 g / cm^3
# Si number density = 27.250616 Si / 1000 Ang^3
#
#
#
# Elastic Constant Matrix: (Units=GPa)
#
#
# Indices 1 2 3 4 5 6 
#
# 1 129.8467 10.0736 18.6399 0.0000 -5.2550 0.0000
# 2 10.0736 65.7589 22.0269 0.0000 -10.6775 0.0000
# 3 18.6399 22.0269 87.4495 0.0000 16.5104 0.0000
# 4 0.0000 0.0000 0.0000 35.9252 0.0000 -2.2445
# 5 -5.2550 -10.6775 16.5104 0.0000 37.1557 0.0000
# 6 0.0000 0.0000 0.0000 -2.2445 0.0000 40.7858
#
#
#
# Elastic Compliance Matrix: (Units=1/GPa)
#
#
# Indices 1 2 3 4 5 6 
#
# 1 0.008093 -0.000234 -0.002041 0.000000 0.001984 0.000000
# 2 -0.000234 0.018613 -0.006159 0.000000 0.008053 0.000000
# 3 -0.002041 -0.006159 0.015075 0.000000 -0.008757 0.000000
# 4 0.000000 0.000000 0.000000 0.027932 0.000000 0.001537
# 5 0.001984 0.008053 -0.008757 0.000000 0.033400 0.000000
# 6 0.000000 0.000000 0.000000 0.001537 0.000000 0.024603
#
#
# Mechanical properties :
#
#
# Convention : Reuss Voigt Hill
#
# Bulk Modulus (GPa) = 40.13803 42.72619 41.43211
# Shear Modulus (GPa) = 32.70394 38.26100 35.48247
#
# Velocity S-wave (km/s) = 3.46803 3.75112 3.61235
# Velocity P-wave (km/s) = 5.54955 5.87147 5.71278
#
# Compressibility (1/GPa) = 0.02491403
#
# Stress axis : x y z
#
# Youngs Moduli (GPa) = 123.56697 53.72466 66.33613
#
# Poissons Ratio (x) = 0.01257 0.13537
# Poissons Ratio (y) = 0.02892 0.40855
# Poissons Ratio (z) = 0.25215 0.33088
#
# Static dielectric constant tensor:
#      x y z
#    x 2.308930 0.000000 0.076440 
#    y 0.000000 2.315060 0.000000 
#    z 0.076440 0.000000 2.069840 
# 
# From -- ./inp_files/62377.got.cif
#   From: 2010.05.17/outbox.cif.g08.bks.cpg/sg14_32_cif.got.tgz:62377.got - 2010.06.03 17:49:19.
