data_PCOD9242215
_publ_section_title
;
Structure prediction by ZEFSAII (Michael W. Deem and Ramdas Pophale) SiO2 
 PCOD9242215
Probable space group: P 21/C
;
_chemical_formula_sum "Si O2"
_cell_formula_units_Z 24
_cell_length_a 13.530037
_cell_length_b 11.520967
_cell_length_c 14.371965
_cell_angle_alpha 90.000000
_cell_angle_beta 28.922100
_cell_angle_gamma 90.000000
_cell_volume 1083.448686
_symmetry_space_group_name_H-M "P 21/C"
_symmetry_group_IT_number 14
_symmetry_cell_setting 'monoclinic'
loop_
_space_group_symop_operation_xyz
x,y,z
-x,1/2+y,1/2-z
-x,-y,-z
x,1/2-y,1/2+z
loop_
_atom_site_type_symbol
_atom_site_label
_atom_site_fract_x
_atom_site_fract_y
_atom_site_fract_z
Si Si1 0.839929 0.408587 0.917265
Si Si2 0.768952 0.264907 0.156966
Si Si3 0.153536 0.273754 0.552008
Si Si4 0.849006 0.890522 0.126013
Si Si5 0.938034 0.067883 0.643072
Si Si6 0.610815 0.882522 0.506963
O O1 0.691789 0.503142 0.993292
O O2 0.932626 0.320441 0.766271
O O3 0.044975 0.476077 0.787215
O O4 0.743845 0.338104 0.082750
O O5 0.752480 0.351882 0.259657
O O6 0.621569 0.155100 0.287988
O O7 0.998354 0.213983 0.969106
O O8 0.234082 0.363738 0.408998
O O9 0.277324 0.230252 0.538901
O O10 0.115688 0.155946 0.526448
O O11 0.677038 0.897721 0.345875
O O12 0.000000 0.000000 0.000000
O O13 0.000000 0.000000 0.500000
#
# Coordination Sequence:
#
# PCOD9242215 Si02
#       6
#     4   4   4   4   4   4
#     4  10  19  40  66  89 132 170 209 265 326 380
#     4  10  22  41  63  92 128 169 217 265 312 384
#     4  10  20  38  63  89 125 169 206 262 320 381
#     4  11  22  40  64  92 129 173 209 259 330 382
#     4   8  18  37  62  82 121 171 200 250 320 369
#     4  11  23  41  65  96 129 167 218 268 317 384
#
# _framework density 22.151488000000001
#
# number of rings (size 3 to 8) (size 9 to 14) (size 15 to 20)
#    0.000    2.000    3.333    0.000    0.000    2.000 
#    6.000    0.833    0.000    0.000    0.000    0.000 
#    0.000    0.000    0.000    0.000    0.000    0.000 
#
# Total GULP energy -133741.148773 kJ/mol
# GULP energy per Si atom -5572.547866 kJ/mol
# Density = 2.210107 g / cm^3
# Si number density = 22.151488 Si / 1000 Ang^3
#
#
#
# Elastic Constant Matrix: (Units=GPa)
#
#
# Indices 1 2 3 4 5 6 
#
# 1 69.0187 19.6639 34.6669 0.0000 17.2079 0.0000
# 2 19.6639 71.5280 18.6867 0.0000 4.1185 0.0000
# 3 34.6669 18.6867 82.3800 0.0000 10.9351 0.0000
# 4 0.0000 0.0000 0.0000 30.6445 0.0000 -1.7718
# 5 17.2079 4.1185 10.9351 0.0000 31.7108 0.0000
# 6 0.0000 0.0000 0.0000 -1.7718 0.0000 50.8597
#
#
#
# Elastic Compliance Matrix: (Units=1/GPa)
#
#
# Indices 1 2 3 4 5 6 
#
# 1 0.021124 -0.003495 -0.006954 0.000000 -0.008611 0.000000
# 2 -0.003495 0.015459 -0.002118 0.000000 0.000619 0.000000
# 3 -0.006954 -0.002118 0.015728 0.000000 -0.001375 0.000000
# 4 0.000000 0.000000 0.000000 0.032698 0.000000 0.001139
# 5 -0.008611 0.000619 -0.001375 0.000000 0.036602 0.000000
# 6 0.000000 0.000000 0.000000 0.001139 0.000000 0.019702
#
#
# Mechanical properties :
#
#
# Convention : Reuss Voigt Hill
#
# Bulk Modulus (GPa) = 36.79433 40.99575 38.89504
# Shear Modulus (GPa) = 28.48918 32.63696 30.56307
#
# Velocity S-wave (km/s) = 3.59012 3.84259 3.71850
# Velocity P-wave (km/s) = 5.81650 6.18341 6.00276
#
# Compressibility (1/GPa) = 0.02717810
#
# Stress axis : x y z
#
# Youngs Moduli (GPa) = 47.33909 64.68711 63.58060
#
# Poissons Ratio (x) = 0.22607 0.44211
# Poissons Ratio (y) = 0.16544 0.13467
# Poissons Ratio (z) = 0.32918 0.13702
#
# Static dielectric constant tensor:
#      x y z
#    x 1.893750 0.000000 -0.016410 
#    y 0.000000 1.921500 0.000000 
#    z -0.016410 0.000000 1.787780 
# 
# From -- ./inp_files/47069.got.cif
#   From: 2010.05.17/outbox.cif.g08.bks.cpg/sg14_24_cif.got.tgz:47069.got - 2010.06.03 17:49:19.
