data_PCOD9242288
_publ_section_title
;
Structure prediction by ZEFSAII (Michael W. Deem and Ramdas Pophale) SiO2 
 PCOD9242288
Probable space group: P 21/C
;
_chemical_formula_sum "Si O2"
_cell_formula_units_Z 30
_cell_length_a 17.052717
_cell_length_b 7.423043
_cell_length_c 17.652144
_cell_angle_alpha 90.000000
_cell_angle_beta 31.335588
_cell_angle_gamma 90.000000
_cell_volume 1162.031514
_symmetry_space_group_name_H-M "P 21/C"
_symmetry_group_IT_number 14
_symmetry_cell_setting 'monoclinic'
loop_
_space_group_symop_operation_xyz
x,y,z
-x,1/2+y,1/2-z
-x,-y,-z
x,1/2-y,1/2+z
loop_
_atom_site_type_symbol
_atom_site_label
_atom_site_fract_x
_atom_site_fract_y
_atom_site_fract_z
Si Si1 0.340372 0.004679 0.946421
Si Si2 0.501043 0.691773 0.555063
Si Si3 0.500000 0.500000 0.000000
Si Si4 0.992132 0.116994 0.377445
Si Si5 0.684735 0.991521 0.627552
Si Si6 0.946784 0.723410 0.339514
Si Si7 0.280857 0.358013 0.741773
Si Si8 0.733613 0.392834 0.930699
O O1 0.369388 0.100378 0.003364
O O2 0.507334 0.035097 0.774933
O O3 0.308505 0.796879 0.993064
O O4 0.200945 0.103208 0.022557
O O5 0.442766 0.881789 0.628207
O O6 0.372015 0.545693 0.650040
O O7 0.602132 0.774712 0.399704
O O8 0.639967 0.412818 0.933682
O O9 0.982528 0.908496 0.355358
O O10 0.814231 0.138205 0.544601
O O11 0.037834 0.228460 0.265320
O O12 0.115581 0.141844 0.341675
O O13 0.715847 0.960703 0.512850
O O14 0.706837 0.848092 0.677915
O O15 0.095026 0.610291 0.235978
#
# Coordination Sequence:
#
# PCOD9242288 Si02
#       8
#     4   4   2   4   4   4   4   4
#     4  11  23  45  66  94 137 177 217 272 332 398
#     4  10  21  36  66  94 123 177 218 263 331 385
#     4  12  24  38  66  98 132 156 230 274 320 398
#     4  11  22  39  66  98 125 173 222 274 326 394
#     4  10  25  37  68  95 132 171 220 266 338 386
#     4  11  22  40  67  94 127 168 225 266 319 391
#     4  10  19  42  63  91 134 176 212 268 330 400
#     4  11  25  43  64 101 127 172 223 279 323 401
#
# _framework density 25.816855
#
# number of rings (size 3 to 8) (size 9 to 14) (size 15 to 20)
#    0.000    1.333    2.667    3.600    5.600    1.067 
#    0.000    0.000    0.000    1.600    0.000    0.000 
#    0.000    0.000    0.000    0.000    0.000    0.000 
#
# Total GULP energy -167018.442485 kJ/mol
# GULP energy per Si atom -5567.281416 kJ/mol
# Density = 2.575809 g / cm^3
# Si number density = 25.816855 Si / 1000 Ang^3
#
#
#
# Elastic Constant Matrix: (Units=GPa)
#
#
# Indices 1 2 3 4 5 6 
#
# 1 163.2848 18.6602 57.3527 0.0000 -46.1938 0.0000
# 2 18.6602 140.9757 29.3253 0.0000 -8.2410 0.0000
# 3 57.3527 29.3253 156.9858 0.0000 -37.6482 0.0000
# 4 0.0000 0.0000 0.0000 20.7551 0.0000 2.8918
# 5 -46.1938 -8.2410 -37.6482 0.0000 61.1193 0.0000
# 6 0.0000 0.0000 0.0000 2.8918 0.0000 35.2026
#
#
#
# Elastic Compliance Matrix: (Units=1/GPa)
#
#
# Indices 1 2 3 4 5 6 
#
# 1 0.008214 -0.000436 -0.001695 0.000000 0.005105 0.000000
# 2 -0.000436 0.007405 -0.001248 0.000000 -0.000100 0.000000
# 3 -0.001695 -0.001248 0.008066 0.000000 0.003519 0.000000
# 4 0.000000 0.000000 0.000000 0.048739 0.000000 -0.004004
# 5 0.005105 -0.000100 0.003519 0.000000 0.022374 0.000000
# 6 0.000000 0.000000 0.000000 -0.004004 0.000000 0.028736
#
#
# Mechanical properties :
#
#
# Convention : Reuss Voigt Hill
#
# Bulk Modulus (GPa) = 59.07774 74.65808 66.86791
# Shear Modulus (GPa) = 36.78254 47.14261 41.96257
#
# Velocity S-wave (km/s) = 3.77868 4.27785 4.03599
# Velocity P-wave (km/s) = 6.47850 7.30624 6.90479
#
# Compressibility (1/GPa) = 0.01692685
#
# Stress axis : x y z
#
# Youngs Moduli (GPa) = 121.74793 135.04589 123.97155
#
# Poissons Ratio (x) = 0.05891 0.21013
# Poissons Ratio (y) = 0.05311 0.15470
# Poissons Ratio (z) = 0.20636 0.16852
#
# Static dielectric constant tensor:
#      x y z
#    x 2.029730 0.000000 0.108200 
#    y 0.000000 2.431840 0.000000 
#    z 0.108200 0.000000 2.255630 
# 
# From -- ./inp_files/69077.got.cif
#   From: 2010.05.17/outbox.cif.g08.bks.cpg/sg14_35_cif.got.tgz:69077.got - 2010.06.03 17:49:19.
