data_PCOD9242990
_publ_section_title
;
Structure prediction by ZEFSAII (Michael W. Deem and Ramdas Pophale) SiO2 
 PCOD9242990
Probable space group: P 21/C
;
_chemical_formula_sum "Si O2"
_cell_formula_units_Z 30
_cell_length_a 14.594675
_cell_length_b 10.705787
_cell_length_c 8.021172
_cell_angle_alpha 90.000000
_cell_angle_beta 107.003844
_cell_angle_gamma 90.000000
_cell_volume 1198.500619
_symmetry_space_group_name_H-M "P 21/C"
_symmetry_group_IT_number 14
_symmetry_cell_setting 'monoclinic'
loop_
_space_group_symop_operation_xyz
x,y,z
-x,1/2+y,1/2-z
-x,-y,-z
x,1/2-y,1/2+z
loop_
_atom_site_type_symbol
_atom_site_label
_atom_site_fract_x
_atom_site_fract_y
_atom_site_fract_z
Si Si1 0.310399 0.502535 0.074106
Si Si2 0.348247 0.790733 0.853154
Si Si3 0.615468 0.454415 0.323187
Si Si4 0.931875 0.688993 0.188881
Si Si5 0.135987 0.832328 0.864915
Si Si6 0.500000 0.500000 0.000000
Si Si7 0.819874 0.011070 0.812927
Si Si8 0.151370 0.092690 0.692943
O O1 0.337425 0.632444 0.177136
O O2 0.400401 0.444764 0.029857
O O3 0.259880 0.418200 0.185960
O O4 0.226247 0.525229 0.894696
O O5 0.392050 0.654191 0.831909
O O6 0.239348 0.782112 0.864997
O O7 0.399872 0.878370 0.016217
O O8 0.536048 0.544430 0.210511
O O9 0.721894 0.511572 0.369689
O O10 0.900952 0.590804 0.317519
O O11 0.860058 0.803549 0.173461
O O12 0.038302 0.739247 0.279386
O O13 0.914979 0.630568 0.998777
O O14 0.123165 0.959624 0.752343
O O15 0.140268 0.873213 0.060292
#
# Coordination Sequence:
#
# PCOD9242990 Si02
#       8
#     4   4   4   4   4   2   4   4
#     4   9  20  40  61  84 116 150 191 243 297 348
#     4  10  21  38  60  86 118 152 188 238 289 336
#     4  10  20  36  59  87 117 149 188 237 289 341
#     4  11  21  35  56  82 117 158 199 240 288 352
#     4  10  21  36  58  85 112 155 201 239 284 341
#     4  10  20  38  62  86 112 148 190 236 292 356
#     4   9  19  35  56  82 117 152 191 243 292 336
#     4  10  22  38  54  80 118 155 195 245 296 342
#
# _framework density 25.031275999999998
#
# number of rings (size 3 to 8) (size 9 to 14) (size 15 to 20)
#    0.000    2.133    0.000    3.200    0.000    3.733 
#    0.000    8.000    0.000    1.600    0.000    0.000 
#    0.000    0.000    0.000    0.000    0.000    0.000 
#
# Total GULP energy -167118.643789 kJ/mol
# GULP energy per Si atom -5570.621460 kJ/mol
# Density = 2.497430 g / cm^3
# Si number density = 25.031276 Si / 1000 Ang^3
#
#
#
# Elastic Constant Matrix: (Units=GPa)
#
#
# Indices 1 2 3 4 5 6 
#
# 1 100.6380 12.2670 20.1490 0.0000 -11.1840 0.0000
# 2 12.2670 19.3544 -6.5299 0.0000 -19.9206 0.0000
# 3 20.1490 -6.5299 100.2757 0.0000 -12.8547 0.0000
# 4 0.0000 0.0000 0.0000 35.2730 0.0000 -22.4489
# 5 -11.1840 -19.9206 -12.8547 0.0000 37.5801 0.0000
# 6 0.0000 0.0000 0.0000 -22.4489 0.0000 -12.8732
#
#
#
# Elastic Compliance Matrix: (Units=1/GPa)
#
#
# Indices 1 2 3 4 5 6 
#
# 1 0.011927 -0.014803 -0.004091 0.000000 -0.005696 0.000000
# 2 -0.014803 0.162513 0.025138 0.000000 0.090339 0.000000
# 3 -0.004091 0.025138 0.014625 0.000000 0.017111 0.000000
# 4 0.000000 0.000000 0.000000 0.013437 0.000000 -0.023432
# 5 -0.005696 0.090339 0.017111 0.000000 0.078655 0.000000
# 6 0.000000 0.000000 0.000000 -0.023432 0.000000 -0.036818
#
#
# Mechanical properties :
#
#
# Convention : Reuss Voigt Hill
#
# Bulk Modulus (GPa) = 4.96144 30.22669 17.59407
# Shear Modulus (GPa) = 16.72053 24.95477 20.83765
#
# Velocity S-wave (km/s) = 2.58735 3.16087 2.88838
# Velocity P-wave (km/s) = 3.30336 5.04214 4.26236
#
# Compressibility (1/GPa) = 0.20155421
#
# Stress axis : x y z
#
# Youngs Moduli (GPa) = 83.84402 6.15336 68.37635
#
# Poissons Ratio (x) = 0.09109 0.27971
# Poissons Ratio (y) = 1.24111 -1.71885
# Poissons Ratio (z) = 0.34298 -0.15468
#
# Static dielectric constant tensor:
#      x y z
#    x -1.615290 0.000000 -2.700630 
#    y 0.000000 1.795160 0.000000 
#    z -2.700630 0.000000 0.023680 
# 
# From -- ./inp_files/15841.got.cif
#   From: 2010.05.17/outbox.cif.g08.bks.cpg/sg14_8_cif.got.tgz:15841.got - 2010.06.03 17:49:19.
