data_PCOD9242468
_publ_section_title
;
Structure prediction by ZEFSAII (Michael W. Deem and Ramdas Pophale) SiO2 
 PCOD9242468
Probable space group: P 21/C
;
_chemical_formula_sum "Si O2"
_cell_formula_units_Z 28
_cell_length_a 21.015938
_cell_length_b 7.752249
_cell_length_c 17.143125
_cell_angle_alpha 90.000000
_cell_angle_beta 22.495944
_cell_angle_gamma 90.000000
_cell_volume 1068.641202
_symmetry_space_group_name_H-M "P 21/C"
_symmetry_group_IT_number 14
_symmetry_cell_setting 'monoclinic'
loop_
_space_group_symop_operation_xyz
x,y,z
-x,1/2+y,1/2-z
-x,-y,-z
x,1/2-y,1/2+z
loop_
_atom_site_type_symbol
_atom_site_label
_atom_site_fract_x
_atom_site_fract_y
_atom_site_fract_z
Si Si1 0.430683 0.898315 0.313266
Si Si2 0.437631 0.897608 0.143629
Si Si3 0.746213 0.029582 0.023036
Si Si4 0.026812 0.846579 0.354007
Si Si5 0.168271 0.485848 0.231508
Si Si6 0.197298 0.137903 0.251218
Si Si7 0.311683 0.944875 0.736515
O O1 0.349689 0.711337 0.387169
O O2 0.624863 0.897250 0.115808
O O3 0.335099 0.986914 0.492406
O O4 0.396084 0.995374 0.270205
O O5 0.612091 0.806553 0.969244
O O6 0.309884 0.757845 0.258661
O O7 0.500000 0.000000 0.000000
O O8 0.739332 0.980213 0.121492
O O9 0.928948 0.066658 0.779315
O O10 0.061919 0.643545 0.317540
O O11 0.860570 0.871319 0.592929
O O12 0.160622 0.951688 0.256250
O O13 0.105091 0.288436 0.306286
O O14 0.203758 0.520831 0.282575
O O15 0.500000 0.000000 0.500000
#
# Coordination Sequence:
#
# PCOD9242468 Si02
#       7
#     4   4   4   4   4   4   4
#     4  10  20  33  57  88 113 150 198 249 299 358
#     4  11  22  36  58  89 123 149 197 256 304 353
#     4  10  20  35  55  86 119 152 200 249 297 353
#     4  10  23  38  63  83 120 165 200 243 287 361
#     4  11  21  40  64  88 121 155 198 250 305 352
#     4  11  21  40  61  89 117 160 208 234 293 375
#     4  11  20  34  57  89 116 148 191 254 303 350
#
# _framework density 26.201497
#
# number of rings (size 3 to 8) (size 9 to 14) (size 15 to 20)
#    0.000    1.429    4.286    2.143    2.000    0.000 
#    0.000    0.000   18.857    0.000    0.000    0.000 
#    0.000    0.000    0.000    0.000    0.000    0.000 
#
# Total GULP energy -156440.777466 kJ/mol
# GULP energy per Si atom -5587.170624 kJ/mol
# Density = 2.614186 g / cm^3
# Si number density = 26.201497 Si / 1000 Ang^3
#
#
#
# Elastic Constant Matrix: (Units=GPa)
#
#
# Indices 1 2 3 4 5 6 
#
# 1 102.4458 33.1961 34.6049 0.0000 38.4702 0.0000
# 2 33.1961 82.9063 8.0594 0.0000 3.2813 0.0000
# 3 34.6049 8.0594 141.8756 0.0000 35.1306 0.0000
# 4 0.0000 0.0000 0.0000 34.2583 0.0000 8.7411
# 5 38.4702 3.2813 35.1306 0.0000 54.5550 0.0000
# 6 0.0000 0.0000 0.0000 8.7411 0.0000 30.1764
#
#
#
# Elastic Compliance Matrix: (Units=1/GPa)
#
#
# Indices 1 2 3 4 5 6 
#
# 1 0.015798 -0.005826 -0.001012 0.000000 -0.010138 0.000000
# 2 -0.005826 0.014283 -0.000232 0.000000 0.003399 0.000000
# 3 -0.001012 -0.000232 0.008481 0.000000 -0.004733 0.000000
# 4 0.000000 0.000000 0.000000 0.031520 0.000000 -0.009130
# 5 -0.010138 0.003399 -0.004733 0.000000 0.028323 0.000000
# 6 0.000000 0.000000 0.000000 -0.009130 0.000000 0.035783
#
#
# Mechanical properties :
#
#
# Convention : Reuss Voigt Hill
#
# Bulk Modulus (GPa) = 40.94760 53.21647 47.08204
# Shear Modulus (GPa) = 31.95569 40.55577 36.25573
#
# Velocity S-wave (km/s) = 3.49608 3.93853 3.72388
# Velocity P-wave (km/s) = 5.65320 6.40603 6.04136
#
# Compressibility (1/GPa) = 0.02442145
#
# Stress axis : x y z
#
# Youngs Moduli (GPa) = 63.29941 70.01531 117.91745
#
# Poissons Ratio (x) = 0.40791 0.11933
# Poissons Ratio (y) = 0.36878 0.02734
# Poissons Ratio (z) = 0.06406 0.01623
#
# Static dielectric constant tensor:
#      x y z
#    x 2.055670 0.000000 0.002210 
#    y 0.000000 2.077340 0.000000 
#    z 0.002210 0.000000 2.179400 
# 
# From -- ./inp_files/50210.got.cif
#   From: 2010.05.17/outbox.cif.g08.bks.cpg/sg14_26_cif.got.tgz:50210.got - 2010.06.03 17:49:19.
