data_PCOD9242214
_publ_section_title
;
Structure prediction by ZEFSAII (Michael W. Deem and Ramdas Pophale) SiO2 
 PCOD9242214
Probable space group: P 21/C
;
_chemical_formula_sum "Si O2"
_cell_formula_units_Z 24
_cell_length_a 19.030469
_cell_length_b 11.047544
_cell_length_c 13.857965
_cell_angle_alpha 90.000000
_cell_angle_beta 18.961266
_cell_angle_gamma 90.000000
_cell_volume 946.679558
_symmetry_space_group_name_H-M "P 21/C"
_symmetry_group_IT_number 14
_symmetry_cell_setting 'monoclinic'
loop_
_space_group_symop_operation_xyz
x,y,z
-x,1/2+y,1/2-z
-x,-y,-z
x,1/2-y,1/2+z
loop_
_atom_site_type_symbol
_atom_site_label
_atom_site_fract_x
_atom_site_fract_y
_atom_site_fract_z
Si Si1 0.350806 0.300537 0.355069
Si Si2 0.941500 0.023540 0.206947
Si Si3 0.133372 0.104183 0.508075
Si Si4 0.588045 0.703201 0.510366
Si Si5 0.633646 0.977819 0.440298
Si Si6 0.778198 0.261286 0.382424
O O1 0.185175 0.223194 0.507561
O O2 0.281146 0.310803 0.557969
O O3 0.432931 0.430670 0.209843
O O4 0.584038 0.228458 0.059090
O O5 0.901215 0.001614 0.371210
O O6 0.739925 0.968493 0.409288
O O7 0.952919 0.156143 0.141065
O O8 0.174477 0.969292 0.875328
O O9 0.324301 0.109983 0.181581
O O10 0.910815 0.122943 0.739001
O O11 0.585873 0.840707 0.473695
O O12 0.346753 0.698401 0.865418
#
# Coordination Sequence:
#
# PCOD9242214 Si02
#       6
#     4   4   4   4   4   4
#     4   9  23  38  60  94 124 159 207 255 309 358
#     4  10  20  37  67  90 119 170 206 252 318 359
#     4  12  22  39  66  91 127 164 204 261 310 363
#     4  10  22  41  60  94 126 158 211 254 302 374
#     4  10  19  40  66  88 123 167 208 256 300 377
#     4   9  22  41  56  97 122 156 212 253 304 375
#
# _framework density 25.351766999999999
#
# number of rings (size 3 to 8) (size 9 to 14) (size 15 to 20)
#    1.000    1.000    3.333    0.000    2.333    2.667 
#    0.000    0.000    0.000    2.000    0.000    0.000 
#    0.000    0.000    0.000    0.000    0.000    0.000 
#
# Total GULP energy -133751.023385 kJ/mol
# GULP energy per Si atom -5572.959308 kJ/mol
# Density = 2.529407 g / cm^3
# Si number density = 25.351767 Si / 1000 Ang^3
#
#
#
# Elastic Constant Matrix: (Units=GPa)
#
#
# Indices 1 2 3 4 5 6 
#
# 1 70.4945 -2.1398 2.7016 0.0000 -7.8034 0.0000
# 2 -2.1398 35.0930 -6.2743 0.0000 -14.8804 0.0000
# 3 2.7016 -6.2743 43.1705 0.0000 3.3760 0.0000
# 4 0.0000 0.0000 0.0000 25.2801 0.0000 3.5106
# 5 -7.8034 -14.8804 3.3760 0.0000 37.2035 0.0000
# 6 0.0000 0.0000 0.0000 3.5106 0.0000 34.2416
#
#
#
# Elastic Compliance Matrix: (Units=1/GPa)
#
#
# Indices 1 2 3 4 5 6 
#
# 1 0.014759 0.002515 -0.000885 0.000000 0.004182 0.000000
# 2 0.002515 0.035423 0.003869 0.000000 0.014345 0.000000
# 3 -0.000885 0.003869 0.023844 0.000000 -0.000802 0.000000
# 4 0.000000 0.000000 0.000000 0.040128 0.000000 -0.004114
# 5 0.004182 0.014345 -0.000802 0.000000 0.033567 0.000000
# 6 0.000000 0.000000 0.000000 -0.004114 0.000000 0.029626
#
#
# Mechanical properties :
#
#
# Convention : Reuss Voigt Hill
#
# Bulk Modulus (GPa) = 11.76135 15.25924 13.51029
# Shear Modulus (GPa) = 25.68173 29.64306 27.66240
#
# Velocity S-wave (km/s) = 3.18624 3.42317 3.30683
# Velocity P-wave (km/s) = 4.26445 4.65362 4.46328
#
# Compressibility (1/GPa) = 0.08502423
#
# Stress axis : x y z
#
# Youngs Moduli (GPa) = 67.75683 28.22993 41.93859
#
# Poissons Ratio (x) = -0.07099 0.03712
# Poissons Ratio (y) = -0.17040 -0.16227
# Poissons Ratio (z) = 0.05997 -0.10923
#
# Static dielectric constant tensor:
#      x y z
#    x 2.037700 0.000000 0.028780 
#    y 0.000000 2.142040 0.000000 
#    z 0.028780 0.000000 2.035900 
# 
# From -- ./inp_files/44480.got.cif
#   From: 2010.05.17/outbox.cif.g08.bks.cpg/sg14_23_cif.got.tgz:44480.got - 2010.06.03 17:49:19.
