data_PCOD9242555
_publ_section_title
;
Structure prediction by ZEFSAII (Michael W. Deem and Ramdas Pophale) SiO2 
 PCOD9242555
Probable space group: P 21/C
;
_chemical_formula_sum "Si O2"
_cell_formula_units_Z 30
_cell_length_a 10.959785
_cell_length_b 9.666066
_cell_length_c 13.903082
_cell_angle_alpha 90.000000
_cell_angle_beta 116.643789
_cell_angle_gamma 90.000000
_cell_volume 1316.463870
_symmetry_space_group_name_H-M "P 21/C"
_symmetry_group_IT_number 14
_symmetry_cell_setting 'monoclinic'
loop_
_space_group_symop_operation_xyz
x,y,z
-x,1/2+y,1/2-z
-x,-y,-z
x,1/2-y,1/2+z
loop_
_atom_site_type_symbol
_atom_site_label
_atom_site_fract_x
_atom_site_fract_y
_atom_site_fract_z
Si Si1 0.418547 0.893904 0.091988
Si Si2 0.213689 0.713437 0.924647
Si Si3 0.811171 0.589924 0.136194
Si Si4 0.304989 0.383146 0.401135
Si Si5 0.984997 0.694495 0.490929
Si Si6 0.123021 0.901124 0.737115
Si Si7 0.796041 0.468647 0.335112
Si Si8 0.000000 0.000000 0.500000
O O1 0.580196 0.886314 0.141815
O O2 0.339325 0.909751 0.163508
O O3 0.356747 0.756983 0.019954
O O4 0.367005 0.023298 0.008424
O O5 0.180232 0.550874 0.925066
O O6 0.097410 0.793370 0.944755
O O7 0.209369 0.776597 0.815736
O O8 0.729462 0.727016 0.080874
O O9 0.760767 0.529354 0.219594
O O10 0.967084 0.630131 0.208675
O O11 0.174427 0.463023 0.312872
O O12 0.076262 0.638621 0.611783
O O13 0.864178 0.591157 0.422800
O O14 0.929388 0.847762 0.479058
O O15 0.114625 0.940636 0.622359
#
# Coordination Sequence:
#
# PCOD9242555 Si02
#       8
#     4   4   4   4   4   4   4   2
#     4   9  22  44  65  85 123 177 209 250 304 385
#     4  10  20  38  59  91 129 160 208 255 316 369
#     4  12  21  36  62  98 124 160 206 271 321 364
#     4  10  23  43  64  90 126 166 213 249 315 382
#     4  10  20  34  55  91 125 158 206 261 300 378
#     4  11  22  37  61  91 131 161 201 266 317 373
#     4  10  21  37  62  87 122 166 213 249 315 370
#     4  12  22  34  56  92 128 156 200 256 326 354
#
# _framework density 22.788319999999999
#
# number of rings (size 3 to 8) (size 9 to 14) (size 15 to 20)
#    0.000    1.600    2.667    2.400    3.733    0.533 
#    0.000    6.667    0.000    0.000    0.000    0.000 
#    0.000    0.000    0.000    0.000    0.000    0.000 
#
# Total GULP energy -167075.302810 kJ/mol
# GULP energy per Si atom -5569.176760 kJ/mol
# Density = 2.273645 g / cm^3
# Si number density = 22.788320 Si / 1000 Ang^3
#
#
#
# Elastic Constant Matrix: (Units=GPa)
#
#
# Indices 1 2 3 4 5 6 
#
# 1 81.5266 -0.7634 -7.1419 0.0000 6.2983 0.0000
# 2 -0.7634 141.8230 -0.3517 0.0000 14.1221 0.0000
# 3 -7.1419 -0.3517 44.0263 0.0000 -11.5811 0.0000
# 4 0.0000 0.0000 0.0000 21.2366 0.0000 -5.7813
# 5 6.2983 14.1221 -11.5811 0.0000 15.8320 0.0000
# 6 0.0000 0.0000 0.0000 -5.7813 0.0000 26.1846
#
#
#
# Elastic Compliance Matrix: (Units=1/GPa)
#
#
# Indices 1 2 3 4 5 6 
#
# 1 0.012725 0.000571 0.000747 0.000000 -0.005025 0.000000
# 2 0.000571 0.007935 -0.002186 0.000000 -0.008905 0.000000
# 3 0.000747 -0.002186 0.028793 0.000000 0.022715 0.000000
# 4 0.000000 0.000000 0.000000 0.050100 0.000000 0.011062
# 5 -0.005025 -0.008905 0.022715 0.000000 0.089721 0.000000
# 6 0.000000 0.000000 0.000000 0.011062 0.000000 0.040633
#
#
# Mechanical properties :
#
#
# Convention : Reuss Voigt Hill
#
# Bulk Modulus (GPa) = 20.95760 27.87355 24.41558
# Shear Modulus (GPa) = 20.19805 31.02619 25.61212
#
# Velocity S-wave (km/s) = 2.98036 3.69385 3.35612
# Velocity P-wave (km/s) = 4.58912 5.51822 5.07498
#
# Compressibility (1/GPa) = 0.04771538
#
# Stress axis : x y z
#
# Youngs Moduli (GPa) = 78.58603 126.01777 34.73120
#
# Poissons Ratio (x) = -0.07192 -0.02594
# Poissons Ratio (y) = -0.04485 0.07594
# Poissons Ratio (z) = -0.05870 0.27553
#
# Static dielectric constant tensor:
#      x y z
#    x 1.659840 0.000000 -0.039300 
#    y 0.000000 1.899340 0.000000 
#    z -0.039300 0.000000 1.859060 
# 
# From -- ./inp_files/43836.got.cif
#   From: 2010.05.17/outbox.cif.g08.bks.cpg/sg14_22_cif.got.tgz:43836.got - 2010.06.03 17:49:19.
