data_PCOD9242899
_publ_section_title
;
Structure prediction by ZEFSAII (Michael W. Deem and Ramdas Pophale) SiO2 
 PCOD9242899
Probable space group: P 21/C
;
_chemical_formula_sum "Si O2"
_cell_formula_units_Z 28
_cell_length_a 12.849585
_cell_length_b 5.596522
_cell_length_c 22.543542
_cell_angle_alpha 90.000000
_cell_angle_beta 134.907488
_cell_angle_gamma 90.000000
_cell_volume 1148.192140
_symmetry_space_group_name_H-M "P 21/C"
_symmetry_group_IT_number 14
_symmetry_cell_setting 'monoclinic'
loop_
_space_group_symop_operation_xyz
x,y,z
-x,1/2+y,1/2-z
-x,-y,-z
x,1/2-y,1/2+z
loop_
_atom_site_type_symbol
_atom_site_label
_atom_site_fract_x
_atom_site_fract_y
_atom_site_fract_z
Si Si1 0.351250 0.362507 0.237815
Si Si2 0.943143 0.027334 0.655304
Si Si3 0.691637 0.363552 0.333928
Si Si4 0.742177 0.285771 0.486493
Si Si5 0.305960 0.347969 0.442838
Si Si6 0.557349 0.610359 0.110381
Si Si7 0.213433 0.712369 0.306062
O O1 0.516244 0.368628 0.276453
O O2 0.283781 0.616856 0.191826
O O3 0.381572 0.309215 0.319295
O O4 0.273920 0.120709 0.181651
O O5 0.841898 0.797010 0.605745
O O6 0.111109 0.951236 0.723970
O O7 0.884557 0.211731 0.582045
O O8 0.901806 0.116553 0.704856
O O9 0.769008 0.332758 0.428820
O O10 0.661829 0.515890 0.483551
O O11 0.614862 0.084748 0.444475
O O12 0.413068 0.187411 0.445750
O O13 0.278039 0.560997 0.385763
O O14 0.655532 0.378612 0.164062
#
# Coordination Sequence:
#
# PCOD9242899 Si02
#       7
#     4   4   4   4   4   4   4
#     4   9  19  36  58  83 118 162 205 247 299 363
#     4  10  20  36  57  79 113 159 201 234 290 372
#     4   9  19  36  58  83 118 162 205 247 299 363
#     4  10  22  35  56  90 121 151 196 254 308 354
#     4  10  21  34  58  82 117 156 190 244 305 368
#     4  10  22  35  56  90 121 151 196 254 308 354
#     4  10  20  36  57  79 113 159 201 234 290 372
#
# _framework density 24.386161999999999
#
# number of rings (size 3 to 8) (size 9 to 14) (size 15 to 20)
#    0.000    2.286    1.429    0.429    4.000    6.286 
#    0.000    0.000    0.000    1.714    0.000    0.000 
#    0.000    0.000    0.000    0.000    0.000    0.000 
#
# Total GULP energy -156456.389737 kJ/mol
# GULP energy per Si atom -5587.728205 kJ/mol
# Density = 2.433066 g / cm^3
# Si number density = 24.386162 Si / 1000 Ang^3
#
#
#
# Elastic Constant Matrix: (Units=GPa)
#
#
# Indices 1 2 3 4 5 6 
#
# 1 39.5091 17.3813 20.6902 0.0000 3.2723 0.0000
# 2 17.3813 121.4957 49.4447 0.0000 -7.0733 0.0000
# 3 20.6902 49.4447 125.9309 0.0000 -2.9909 0.0000
# 4 0.0000 0.0000 0.0000 37.1966 0.0000 -0.2568
# 5 3.2723 -7.0733 -2.9909 0.0000 37.1093 0.0000
# 6 0.0000 0.0000 0.0000 -0.2568 0.0000 23.7367
#
#
#
# Elastic Compliance Matrix: (Units=1/GPa)
#
#
# Indices 1 2 3 4 5 6 
#
# 1 0.028763 -0.002803 -0.003705 0.000000 -0.003369 0.000000
# 2 -0.002803 0.010160 -0.003483 0.000000 0.001903 0.000000
# 3 -0.003705 -0.003483 0.009928 0.000000 0.000463 0.000000
# 4 0.000000 0.000000 0.000000 0.026886 0.000000 0.000291
# 5 -0.003369 0.001903 0.000463 0.000000 0.027645 0.000000
# 6 0.000000 0.000000 0.000000 0.000291 0.000000 0.042132
#
#
# Mechanical properties :
#
#
# Convention : Reuss Voigt Hill
#
# Bulk Modulus (GPa) = 34.64024 51.32977 42.98501
# Shear Modulus (GPa) = 28.55170 32.90315 30.72743
#
# Velocity S-wave (km/s) = 3.42543 3.67721 3.55355
# Velocity P-wave (km/s) = 5.46630 6.25488 5.87384
#
# Compressibility (1/GPa) = 0.02886816
#
# Stress axis : x y z
#
# Youngs Moduli (GPa) = 34.76665 98.42304 100.72181
#
# Poissons Ratio (x) = 0.27590 0.37319
# Poissons Ratio (y) = 0.09746 0.35086
# Poissons Ratio (z) = 0.12882 0.34286
#
# Static dielectric constant tensor:
#      x y z
#    x 1.950580 0.000000 -0.012360 
#    y 0.000000 2.035990 0.000000 
#    z -0.012360 0.000000 1.945930 
# 
# From -- ./inp_files/67892.got.cif
#   From: 2010.05.17/outbox.cif.g08.bks.cpg/sg14_34_cif.got.tgz:67892.got - 2010.06.03 17:49:19.
