data_PCOD9242104
_publ_section_title
;
Structure prediction by ZEFSAII (Michael W. Deem and Ramdas Pophale) SiO2 
 PCOD9242104
Probable space group: P 21/C
;
_chemical_formula_sum "Si O2"
_cell_formula_units_Z 28
_cell_length_a 10.108570
_cell_length_b 9.905931
_cell_length_c 14.979448
_cell_angle_alpha 90.000000
_cell_angle_beta 54.201393
_cell_angle_gamma 90.000000
_cell_volume 1216.587849
_symmetry_space_group_name_H-M "P 21/C"
_symmetry_group_IT_number 14
_symmetry_cell_setting 'monoclinic'
loop_
_space_group_symop_operation_xyz
x,y,z
-x,1/2+y,1/2-z
-x,-y,-z
x,1/2-y,1/2+z
loop_
_atom_site_type_symbol
_atom_site_label
_atom_site_fract_x
_atom_site_fract_y
_atom_site_fract_z
Si Si1 0.681471 0.713222 0.673554
Si Si2 0.378617 0.301721 0.616230
Si Si3 0.279792 0.486453 0.198747
Si Si4 0.571878 0.219565 0.878455
Si Si5 0.024142 0.658828 0.075462
Si Si6 0.980898 0.644554 0.286701
Si Si7 0.129855 0.863536 0.352075
O O1 0.599756 0.804587 0.785227
O O2 0.681002 0.563873 0.716754
O O3 0.591034 0.721316 0.616839
O O4 0.866940 0.763153 0.599857
O O5 0.526936 0.335273 0.493558
O O6 0.210306 0.373112 0.654448
O O7 0.337446 0.141022 0.618116
O O8 0.363576 0.626893 0.143026
O O9 0.087155 0.512151 0.264398
O O10 0.704851 0.136695 0.769656
O O11 0.053581 0.704377 0.164712
O O12 0.967400 0.503532 0.110194
O O13 0.159398 0.667018 0.945498
O O14 0.020892 0.748260 0.349392
#
# Coordination Sequence:
#
# PCOD9242104 Si02
#       7
#     4   4   4   4   4   4   4
#     4   9  22  37  60  86 120 154 195 246 300 359
#     4   9  20  38  61  90 117 153 197 250 300 351
#     4   9  21  38  62  88 116 158 201 238 303 361
#     4  11  21  38  62  87 124 156 198 248 298 362
#     4  10  21  40  63  84 120 159 202 254 294 360
#     4  10  19  39  64  89 117 154 207 254 295 354
#     4  10  23  37  62  92 113 160 210 240 300 367
#
# _framework density 23.015187999999998
#
# number of rings (size 3 to 8) (size 9 to 14) (size 15 to 20)
#    0.857    1.429    0.000    2.143    2.000    3.429 
#    0.000    9.286    3.143    0.000    0.000    0.000 
#    0.000    0.000    0.000    0.000    0.000    0.000 
#
# Total GULP energy -156268.186614 kJ/mol
# GULP energy per Si atom -5581.006665 kJ/mol
# Density = 2.296280 g / cm^3
# Si number density = 23.015188 Si / 1000 Ang^3
#
#
#
# Elastic Constant Matrix: (Units=GPa)
#
#
# Indices 1 2 3 4 5 6 
#
# 1 31.6195 7.0881 -7.5984 0.0000 10.3268 0.0000
# 2 7.0881 62.5250 11.9191 0.0000 -4.6496 0.0000
# 3 -7.5984 11.9191 164.5273 0.0000 0.4850 0.0000
# 4 0.0000 0.0000 0.0000 -18.0075 0.0000 -11.8012
# 5 10.3268 -4.6496 0.4850 0.0000 26.5411 0.0000
# 6 0.0000 0.0000 0.0000 -11.8012 0.0000 19.1765
#
#
#
# Elastic Compliance Matrix: (Units=1/GPa)
#
#
# Indices 1 2 3 4 5 6 
#
# 1 0.038820 -0.006040 0.002278 0.000000 -0.016204 0.000000
# 2 -0.006040 0.017378 -0.001554 0.000000 0.005423 0.000000
# 3 0.002278 -0.001554 0.006300 0.000000 -0.001274 0.000000
# 4 0.000000 0.000000 0.000000 -0.039573 0.000000 -0.024353
# 5 -0.016204 0.005423 -0.001274 0.000000 0.044956 0.000000
# 6 0.000000 0.000000 0.000000 -0.024353 0.000000 0.037160
#
#
# Mechanical properties :
#
#
# Convention : Reuss Voigt Hill
#
# Bulk Modulus (GPa) = 19.28061 31.27660 25.27860
# Shear Modulus (GPa) = 37.60521 22.02622 29.81571
#
# Velocity S-wave (km/s) = 4.04658 3.09695 3.60318
# Velocity P-wave (km/s) = 5.49805 5.13879 5.32145
#
# Compressibility (1/GPa) = 0.05186558
#
# Stress axis : x y z
#
# Youngs Moduli (GPa) = 25.76007 57.54463 158.74133
#
# Poissons Ratio (x) = 0.34757 -0.36164
# Poissons Ratio (y) = 0.15559 0.24666
# Poissons Ratio (z) = -0.05869 0.08942
#
# Static dielectric constant tensor:
#      x y z
#    x 1.839100 0.000000 -0.001700 
#    y 0.000000 1.876920 0.000000 
#    z -0.001700 0.000000 1.911820 
# 
# From -- ./inp_files/44324.got.cif
#   From: 2010.05.17/outbox.cif.g08.bks.cpg/sg14_23_cif.got.tgz:44324.got - 2010.06.03 17:49:19.
