data_PCOD9242084
_publ_section_title
;
Structure prediction by ZEFSAII (Michael W. Deem and Ramdas Pophale) SiO2 
 PCOD9242084
Probable space group: P 21/C
;
_chemical_formula_sum "Si O2"
_cell_formula_units_Z 20
_cell_length_a 5.286567
_cell_length_b 12.650344
_cell_length_c 11.268598
_cell_angle_alpha 90.000000
_cell_angle_beta 106.325079
_cell_angle_gamma 90.000000
_cell_volume 723.225065
_symmetry_space_group_name_H-M "P 21/C"
_symmetry_group_IT_number 14
_symmetry_cell_setting 'monoclinic'
loop_
_space_group_symop_operation_xyz
x,y,z
-x,1/2+y,1/2-z
-x,-y,-z
x,1/2-y,1/2+z
loop_
_atom_site_type_symbol
_atom_site_label
_atom_site_fract_x
_atom_site_fract_y
_atom_site_fract_z
Si Si1 0.695025 0.211512 0.272995
Si Si2 0.878118 0.643241 0.892403
Si Si3 0.623524 0.429553 0.305273
Si Si4 0.185621 0.060673 0.372436
Si Si5 0.327030 0.700296 0.486913
O O1 0.809492 0.332295 0.283516
O O2 0.549381 0.198026 0.127922
O O3 0.573736 0.224467 0.389759
O O4 0.922085 0.125283 0.305837
O O5 0.664831 0.615906 0.764616
O O6 0.103491 0.554514 0.910596
O O7 0.033857 0.753047 0.925005
O O8 0.724180 0.616335 0.994502
O O9 0.665630 0.532619 0.231011
O O10 0.669037 0.415587 0.451285
#
# Coordination Sequence:
#
# PCOD9242084 Si02
#       5
#     4   4   4   4   4
#     4   9  20  39  59  84 126 157 190 256 293 353
#     4  10  19  39  63  85 118 165 197 248 290 364
#     4  10  21  38  60  89 118 156 205 240 303 352
#     4  10  20  38  60  89 121 153 206 247 290 359
#     4   9  19  40  56  86 123 154 197 249 294 350
#
# _framework density 27.653911000000001
#
# number of rings (size 3 to 8) (size 9 to 14) (size 15 to 20)
#    1.200    1.200    2.000    0.600    0.000    0.800 
#   14.400    1.000    0.000    0.000    0.000    0.000 
#    0.000    0.000    0.000    0.000    0.000    0.000 
#
# Total GULP energy -111395.948152 kJ/mol
# GULP energy per Si atom -5569.797408 kJ/mol
# Density = 2.759097 g / cm^3
# Si number density = 27.653911 Si / 1000 Ang^3
#
#
#
# Elastic Constant Matrix: (Units=GPa)
#
#
# Indices 1 2 3 4 5 6 
#
# 1 79.3610 19.8921 34.0878 0.0000 -4.9311 0.0000
# 2 19.8921 56.1255 27.1514 0.0000 4.2159 0.0000
# 3 34.0878 27.1514 163.8358 0.0000 -21.9653 0.0000
# 4 0.0000 0.0000 0.0000 62.9897 0.0000 -5.4062
# 5 -4.9311 4.2159 -21.9653 0.0000 44.3638 0.0000
# 6 0.0000 0.0000 0.0000 -5.4062 0.0000 29.9014
#
#
#
# Elastic Compliance Matrix: (Units=1/GPa)
#
#
# Indices 1 2 3 4 5 6 
#
# 1 0.014667 -0.004187 -0.002234 0.000000 0.000922 0.000000
# 2 -0.004187 0.021141 -0.003175 0.000000 -0.004046 0.000000
# 3 -0.002234 -0.003175 0.007607 0.000000 0.003820 0.000000
# 4 0.000000 0.000000 0.000000 0.016126 0.000000 0.002916
# 5 0.000922 -0.004046 0.003820 0.000000 0.024919 0.000000
# 6 0.000000 0.000000 0.000000 0.002916 0.000000 0.033970
#
#
# Mechanical properties :
#
#
# Convention : Reuss Voigt Hill
#
# Bulk Modulus (GPa) = 41.28311 51.28722 46.28517
# Shear Modulus (GPa) = 34.31800 41.99704 38.15752
#
# Velocity S-wave (km/s) = 3.52658 3.90123 3.71863
# Velocity P-wave (km/s) = 5.61634 6.23532 5.93390
#
# Compressibility (1/GPa) = 0.02422298
#
# Stress axis : x y z
#
# Youngs Moduli (GPa) = 68.18026 47.30156 131.46175
#
# Poissons Ratio (x) = 0.19804 0.29371
# Poissons Ratio (y) = 0.28545 0.41738
# Poissons Ratio (z) = 0.15233 0.15018
#
# Static dielectric constant tensor:
#      x y z
#    x 2.240470 0.000000 -0.086410 
#    y 0.000000 2.304090 0.000000 
#    z -0.086410 0.000000 2.243360 
# 
# From -- ./inp_files/20882.got.cif
#   From: 2010.05.17/outbox.cif.g08.bks.cpg/sg14_11_cif.got.tgz:20882.got - 2010.06.03 17:49:19.
