data_PCOD9242435
_publ_section_title
;
Structure prediction by ZEFSAII (Michael W. Deem and Ramdas Pophale) SiO2 
 PCOD9242435
Probable space group: P 21/C
;
_chemical_formula_sum "Si O2"
_cell_formula_units_Z 28
_cell_length_a 5.366084
_cell_length_b 14.413777
_cell_length_c 15.736081
_cell_angle_alpha 90.000000
_cell_angle_beta 110.300375
_cell_angle_gamma 90.000000
_cell_volume 1141.516540
_symmetry_space_group_name_H-M "P 21/C"
_symmetry_group_IT_number 14
_symmetry_cell_setting 'monoclinic'
loop_
_space_group_symop_operation_xyz
x,y,z
-x,1/2+y,1/2-z
-x,-y,-z
x,1/2-y,1/2+z
loop_
_atom_site_type_symbol
_atom_site_label
_atom_site_fract_x
_atom_site_fract_y
_atom_site_fract_z
Si Si1 0.466529 0.381613 0.910944
Si Si2 0.156576 0.948765 0.425266
Si Si3 0.022100 0.241926 0.357548
Si Si4 0.213653 0.779277 0.340956
Si Si5 0.293673 0.950784 0.712563
Si Si6 0.505659 0.901062 0.907170
Si Si7 0.083373 0.656454 0.480868
O O1 0.291819 0.451517 0.945618
O O2 0.333823 0.282095 0.906160
O O3 0.453763 0.419820 0.813774
O O4 0.768534 0.399109 0.977503
O O5 0.309142 0.879714 0.380126
O O6 0.868079 0.966415 0.351690
O O7 0.908037 0.293545 0.426415
O O8 0.958646 0.293996 0.263174
O O9 0.887688 0.142363 0.317660
O O10 0.444749 0.703014 0.361352
O O11 0.054335 0.734126 0.402028
O O12 0.375363 0.965807 0.819498
O O13 0.819877 0.906307 0.951188
O O14 0.340247 0.899369 0.975690
#
# Coordination Sequence:
#
# PCOD9242435 Si02
#       7
#     4   4   4   4   4   4   4
#     4  10  20  33  55  84 118 155 187 239 298 358
#     4  10  20  33  52  86 120 148 189 239 297 349
#     4  10  20  34  58  83 111 152 195 239 295 340
#     4   9  20  35  54  85 115 153 191 240 289 345
#     4  10  20  34  55  81 115 155 189 233 291 363
#     4   9  21  36  58  79 112 151 194 232 286 334
#     4  10  20  37  57  84 112 147 191 248 277 344
#
# _framework density 24.528772
#
# number of rings (size 3 to 8) (size 9 to 14) (size 15 to 20)
#    0.857    1.429    0.000    3.000    4.000    3.429 
#    0.000    0.000    0.000    1.714    0.000    0.000 
#    0.000    0.000    0.000    0.000    0.000    0.000 
#
# Total GULP energy -155967.095771 kJ/mol
# GULP energy per Si atom -5570.253420 kJ/mol
# Density = 2.447294 g / cm^3
# Si number density = 24.528772 Si / 1000 Ang^3
#
#
#
# Elastic Constant Matrix: (Units=GPa)
#
#
# Indices 1 2 3 4 5 6 
#
# 1 99.2205 13.8462 15.9805 0.0000 -4.1244 0.0000
# 2 13.8462 28.5032 25.2530 0.0000 6.2484 0.0000
# 3 15.9805 25.2530 114.3950 0.0000 -20.3282 0.0000
# 4 0.0000 0.0000 0.0000 29.3647 0.0000 5.0349
# 5 -4.1244 6.2484 -20.3282 0.0000 27.1431 0.0000
# 6 0.0000 0.0000 0.0000 5.0349 0.0000 16.4216
#
#
#
# Elastic Compliance Matrix: (Units=1/GPa)
#
#
# Indices 1 2 3 4 5 6 
#
# 1 0.011071 -0.006696 0.000582 0.000000 0.003659 0.000000
# 2 -0.006696 0.059512 -0.017092 0.000000 -0.027518 0.000000
# 3 0.000582 -0.017092 0.015167 0.000000 0.015382 0.000000
# 4 0.000000 0.000000 0.000000 0.035944 0.000000 -0.011020
# 5 0.003659 -0.027518 0.015382 0.000000 0.055252 0.000000
# 6 0.000000 0.000000 0.000000 -0.011020 0.000000 0.064274
#
#
# Mechanical properties :
#
#
# Convention : Reuss Voigt Hill
#
# Bulk Modulus (GPa) = 25.42077 39.14200 32.28139
# Shear Modulus (GPa) = 16.62539 27.05514 21.84026
#
# Velocity S-wave (km/s) = 2.60627 3.32474 2.98718
# Velocity P-wave (km/s) = 4.40942 5.54353 5.00868
#
# Compressibility (1/GPa) = 0.03933791
#
# Stress axis : x y z
#
# Youngs Moduli (GPa) = 90.32298 16.80345 65.93347
#
# Poissons Ratio (x) = 0.11251 -0.03836
# Poissons Ratio (y) = 0.60479 1.12693
# Poissons Ratio (z) = -0.05255 0.28720
#
# Static dielectric constant tensor:
#      x y z
#    x 2.013540 0.000000 0.061780 
#    y 0.000000 1.966000 0.000000 
#    z 0.061780 0.000000 2.039230 
# 
# From -- ./inp_files/53593.got.cif
#   From: 2010.05.17/outbox.cif.g08.bks.cpg/sg14_27_cif.got.tgz:53593.got - 2010.06.03 17:49:19.
