data_PCOD9242323
_publ_section_title
;
Structure prediction by ZEFSAII (Michael W. Deem and Ramdas Pophale) SiO2 
 PCOD9242323
Probable space group: P 21/C
;
_chemical_formula_sum "Si O2"
_cell_formula_units_Z 28
_cell_length_a 6.390029
_cell_length_b 11.548229
_cell_length_c 18.833237
_cell_angle_alpha 90.000000
_cell_angle_beta 66.026729
_cell_angle_gamma 90.000000
_cell_volume 1269.882383
_symmetry_space_group_name_H-M "P 21/C"
_symmetry_group_IT_number 14
_symmetry_cell_setting 'monoclinic'
loop_
_space_group_symop_operation_xyz
x,y,z
-x,1/2+y,1/2-z
-x,-y,-z
x,1/2-y,1/2+z
loop_
_atom_site_type_symbol
_atom_site_label
_atom_site_fract_x
_atom_site_fract_y
_atom_site_fract_z
Si Si1 0.986881 0.227647 0.375105
Si Si2 0.619824 0.083278 0.884338
Si Si3 0.413018 0.572551 0.114397
Si Si4 0.484174 0.244113 0.779711
Si Si5 0.364377 0.839953 0.388829
Si Si6 0.373538 0.159139 0.060309
Si Si7 0.876628 0.833005 0.487275
O O1 0.839527 0.338285 0.372313
O O2 0.821633 0.116474 0.388150
O O3 0.220305 0.228447 0.298482
O O4 0.071209 0.228362 0.444663
O O5 0.512239 0.131886 0.826942
O O6 0.671211 0.947732 0.881665
O O7 0.448518 0.110683 0.973100
O O8 0.433039 0.649368 0.183021
O O9 0.445374 0.439403 0.128655
O O10 0.632029 0.605139 0.034199
O O11 0.619519 0.217280 0.690180
O O12 0.424929 0.739171 0.436241
O O13 0.114447 0.895769 0.436236
O O14 0.163225 0.241746 0.070360
#
# Coordination Sequence:
#
# PCOD9242323 Si02
#       7
#     4   4   4   4   4   4   4
#     4  10  19  44  66  87 128 173 215 263 339 392
#     4  10  21  43  64  93 131 169 221 272 322 397
#     4  10  23  44  67  94 130 174 218 275 331 399
#     4  10  24  44  65  92 129 179 212 271 352 382
#     4  12  26  41  66 101 132 169 229 276 327 411
#     4  11  23  38  66 101 126 165 227 269 318 401
#     4  11  21  42  67 100 126 172 221 274 334 391
#
# _framework density 22.049285999999999
#
# number of rings (size 3 to 8) (size 9 to 14) (size 15 to 20)
#    0.000    1.429    5.714    0.429    2.000    8.571 
#    2.571    0.000    0.000    0.000    0.000    0.000 
#    0.000    0.000    0.000    0.000    0.000    0.000 
#
# Total GULP energy -156410.596714 kJ/mol
# GULP energy per Si atom -5586.092740 kJ/mol
# Density = 2.199910 g / cm^3
# Si number density = 22.049286 Si / 1000 Ang^3
#
#
#
# Elastic Constant Matrix: (Units=GPa)
#
#
# Indices 1 2 3 4 5 6 
#
# 1 94.3963 7.1156 21.2355 0.0000 -3.6856 0.0000
# 2 7.1156 66.1308 3.3270 0.0000 12.0675 0.0000
# 3 21.2355 3.3270 79.1261 0.0000 -3.3232 0.0000
# 4 0.0000 0.0000 0.0000 15.2233 0.0000 1.2249
# 5 -3.6856 12.0675 -3.3232 0.0000 21.5760 0.0000
# 6 0.0000 0.0000 0.0000 1.2249 0.0000 25.3169
#
#
#
# Elastic Compliance Matrix: (Units=1/GPa)
#
#
# Indices 1 2 3 4 5 6 
#
# 1 0.011455 -0.001516 -0.002912 0.000000 0.002356 0.000000
# 2 -0.001516 0.017139 -0.000732 0.000000 -0.009957 0.000000
# 3 -0.002912 -0.000732 0.013534 0.000000 0.001997 0.000000
# 4 0.000000 0.000000 0.000000 0.065945 0.000000 -0.003191
# 5 0.002356 -0.009957 0.001997 0.000000 0.052627 0.000000
# 6 0.000000 0.000000 0.000000 -0.003191 0.000000 0.039654
#
#
# Mechanical properties :
#
#
# Convention : Reuss Voigt Hill
#
# Bulk Modulus (GPa) = 31.43814 33.66771 32.55292
# Shear Modulus (GPa) = 22.59630 26.28826 24.44228
#
# Velocity S-wave (km/s) = 3.20474 3.45664 3.33307
# Velocity P-wave (km/s) = 5.28988 5.58870 5.44135
#
# Compressibility (1/GPa) = 0.03180850
#
# Stress axis : x y z
#
# Youngs Moduli (GPa) = 87.29898 58.34816 73.88767
#
# Poissons Ratio (x) = 0.08846 0.21512
# Poissons Ratio (y) = 0.13235 0.05408
# Poissons Ratio (z) = 0.25417 0.04271
#
# Static dielectric constant tensor:
#      x y z
#    x 1.819160 0.000000 -0.006790 
#    y 0.000000 1.840470 0.000000 
#    z -0.006790 0.000000 1.799690 
# 
# From -- ./inp_files/63282.got.cif
#   From: 2010.05.17/outbox.cif.g08.bks.cpg/sg14_32_cif.got.tgz:63282.got - 2010.06.03 17:49:19.
