data_PCOD9242546
_publ_section_title
;
Structure prediction by ZEFSAII (Michael W. Deem and Ramdas Pophale) SiO2 
 PCOD9242546
Probable space group: P 21/C
;
_chemical_formula_sum "Si O2"
_cell_formula_units_Z 32
_cell_length_a 16.539262
_cell_length_b 7.851652
_cell_length_c 15.607790
_cell_angle_alpha 90.000000
_cell_angle_beta 35.339490
_cell_angle_gamma 90.000000
_cell_volume 1172.362395
_symmetry_space_group_name_H-M "P 21/C"
_symmetry_group_IT_number 14
_symmetry_cell_setting 'monoclinic'
loop_
_space_group_symop_operation_xyz
x,y,z
-x,1/2+y,1/2-z
-x,-y,-z
x,1/2-y,1/2+z
loop_
_atom_site_type_symbol
_atom_site_label
_atom_site_fract_x
_atom_site_fract_y
_atom_site_fract_z
Si Si1 0.859323 0.632964 0.659886
Si Si2 0.118277 0.784144 0.035609
Si Si3 0.721030 0.750131 0.608406
Si Si4 0.395015 0.231653 0.536082
Si Si5 0.541371 0.128515 0.591456
Si Si6 0.647361 0.113718 0.751558
Si Si7 0.036999 0.415622 0.177368
Si Si8 0.203351 0.744689 0.214014
O O1 0.809320 0.650433 0.605424
O O2 0.818435 0.448717 0.733712
O O3 0.018169 0.683913 0.540021
O O4 0.763795 0.758157 0.800477
O O5 0.055971 0.917294 0.156985
O O6 0.078657 0.603123 0.112381
O O7 0.279039 0.762350 0.869049
O O8 0.568956 0.661853 0.737682
O O9 0.823292 0.797681 0.441930
O O10 0.686076 0.935187 0.677945
O O11 0.465031 0.182398 0.567838
O O12 0.484679 0.377111 0.414599
O O13 0.422929 0.069168 0.451328
O O14 0.688216 0.226684 0.459453
O O15 0.724083 0.145647 0.775261
O O16 0.937872 0.330876 0.192810
#
# Coordination Sequence:
#
# PCOD9242546 Si02
#       8
#     4   4   4   4   4   4   4   4
#     4  10  20  35  57  83 109 139 176 216 261 315
#     4  11  24  39  54  76 107 142 181 222 264 313
#     4  10  20  34  55  83 110 137 175 220 263 312
#     4   8  16  31  52  80 109 136 171 215 261 311
#     4   8  16  31  52  80 109 136 171 215 261 311
#     4  10  20  34  55  83 110 137 175 220 263 312
#     4  11  24  39  54  76 107 142 181 222 264 313
#     4  10  20  35  57  83 109 139 176 216 261 315
#
# _framework density 27.295314999999999
#
# number of rings (size 3 to 8) (size 9 to 14) (size 15 to 20)
#    0.000    2.250    0.000    4.500    0.000   12.500 
#    0.000    1.250    0.000    0.000    0.000    0.000 
#    0.000    0.000    0.000    0.000    0.000    0.000 
#
# Total GULP energy -179294.833844 kJ/mol
# GULP energy per Si atom -5602.963558 kJ/mol
# Density = 2.723319 g / cm^3
# Si number density = 27.295315 Si / 1000 Ang^3
#
#
#
# Elastic Constant Matrix: (Units=GPa)
#
#
# Indices 1 2 3 4 5 6 
#
# 1 55.8916 -0.5588 24.1911 0.0000 16.3692 0.0000
# 2 -0.5588 79.2269 17.4774 0.0000 -5.2103 0.0000
# 3 24.1911 17.4774 151.0411 0.0000 -16.7010 0.0000
# 4 0.0000 0.0000 0.0000 47.4004 0.0000 -1.2660
# 5 16.3692 -5.2103 -16.7010 0.0000 35.8244 0.0000
# 6 0.0000 0.0000 0.0000 -1.2660 0.0000 22.5766
#
#
#
# Elastic Compliance Matrix: (Units=1/GPa)
#
#
# Indices 1 2 3 4 5 6 
#
# 1 0.024205 0.000479 -0.005427 0.000000 -0.013521 0.000000
# 2 0.000479 0.013015 -0.001474 0.000000 0.000987 0.000000
# 3 -0.005427 -0.001474 0.008341 0.000000 0.006154 0.000000
# 4 0.000000 0.000000 0.000000 0.021129 0.000000 0.001185
# 5 -0.013521 0.000987 0.006154 0.000000 0.037104 0.000000
# 6 0.000000 0.000000 0.000000 0.001185 0.000000 0.044360
#
#
# Mechanical properties :
#
#
# Convention : Reuss Voigt Hill
#
# Bulk Modulus (GPa) = 30.56451 40.93101 35.74776
# Shear Modulus (GPa) = 29.08589 37.49692 33.29141
#
# Velocity S-wave (km/s) = 3.26789 3.71043 3.49617
# Velocity P-wave (km/s) = 5.04588 5.77794 5.42427
#
# Compressibility (1/GPa) = 0.03271769
#
# Stress axis : x y z
#
# Youngs Moduli (GPa) = 41.31308 76.83238 119.89089
#
# Poissons Ratio (x) = -0.03679 0.65067
# Poissons Ratio (y) = -0.01978 0.17667
# Poissons Ratio (z) = 0.22421 0.11322
#
# Static dielectric constant tensor:
#      x y z
#    x 2.138550 0.000000 0.014440 
#    y 0.000000 2.093030 0.000000 
#    z 0.014440 0.000000 2.156390 
# 
# From -- ./inp_files/61114.got.cif
#   From: 2010.05.17/outbox.cif.g08.bks.cpg/sg14_31_cif.got.tgz:61114.got - 2010.06.03 17:49:19.
