data_PCOD9242849
_publ_section_title
;
Structure prediction by ZEFSAII (Michael W. Deem and Ramdas Pophale) SiO2 
 PCOD9242849
Probable space group: P 21/C
;
_chemical_formula_sum "Si O2"
_cell_formula_units_Z 28
_cell_length_a 22.413973
_cell_length_b 8.112475
_cell_length_c 20.541628
_cell_angle_alpha 90.000000
_cell_angle_beta 19.208039
_cell_angle_gamma 90.000000
_cell_volume 1228.858412
_symmetry_space_group_name_H-M "P 21/C"
_symmetry_group_IT_number 14
_symmetry_cell_setting 'monoclinic'
loop_
_space_group_symop_operation_xyz
x,y,z
-x,1/2+y,1/2-z
-x,-y,-z
x,1/2-y,1/2+z
loop_
_atom_site_type_symbol
_atom_site_label
_atom_site_fract_x
_atom_site_fract_y
_atom_site_fract_z
Si Si1 0.944229 0.835744 0.143921
Si Si2 0.684287 0.180085 0.756498
Si Si3 0.141340 0.183385 0.912565
Si Si4 0.482781 0.476031 0.113529
Si Si5 0.635681 0.661176 0.068411
Si Si6 0.762159 0.298016 0.320184
Si Si7 0.487248 0.490612 0.681953
O O1 0.816303 0.840804 0.338258
O O2 0.840704 0.788788 0.183535
O O3 0.047221 0.006075 0.022400
O O4 0.113539 0.714425 0.977931
O O5 0.572094 0.354857 0.867671
O O6 0.708786 0.125345 0.805544
O O7 0.596386 0.048517 0.799913
O O8 0.978884 0.301070 0.103530
O O9 0.331972 0.161069 0.752088
O O10 0.497213 0.539773 0.172423
O O11 0.675333 0.386696 0.902571
O O12 0.646191 0.601391 0.131217
O O13 0.554138 0.842236 0.146787
O O14 0.659185 0.378944 0.486187
#
# Coordination Sequence:
#
# PCOD9242849 Si02
#       7
#     4   4   4   4   4   4   4
#     4   9  18  37  63  96 130 156 205 269 312 383
#     4   9  21  39  64  99 125 161 214 265 329 382
#     4   9  19  34  64 104 122 155 209 257 321 382
#     4  10  20  35  68  94 125 168 204 257 323 389
#     4  11  23  41  63  87 129 178 218 259 326 391
#     4  11  20  39  65  97 131 161 206 272 321 382
#     4  11  25  42  62  87 126 181 217 264 328 388
#
# _framework density 22.785374999999998
#
# number of rings (size 3 to 8) (size 9 to 14) (size 15 to 20)
#    0.000    2.000    1.429    2.571    4.000    0.000 
#    2.571    8.571    3.143    0.000    0.000    0.000 
#    0.000    0.000    0.000    0.000    0.000    0.000 
#
# Total GULP energy -156404.247399 kJ/mol
# GULP energy per Si atom -5585.865979 kJ/mol
# Density = 2.273351 g / cm^3
# Si number density = 22.785375 Si / 1000 Ang^3
#
#
#
# Elastic Constant Matrix: (Units=GPa)
#
#
# Indices 1 2 3 4 5 6 
#
# 1 33.5518 21.3097 33.6596 0.0000 7.1146 0.0000
# 2 21.3097 63.5084 33.0481 0.0000 7.7218 0.0000
# 3 33.6596 33.0481 152.3475 0.0000 11.1714 0.0000
# 4 0.0000 0.0000 0.0000 29.2756 0.0000 3.3609
# 5 7.1146 7.7218 11.1714 0.0000 44.5891 0.0000
# 6 0.0000 0.0000 0.0000 3.3609 0.0000 18.8615
#
#
#
# Elastic Compliance Matrix: (Units=1/GPa)
#
#
# Indices 1 2 3 4 5 6 
#
# 1 0.044691 -0.010788 -0.007282 0.000000 -0.003438 0.000000
# 2 -0.010788 0.020558 -0.001978 0.000000 -0.001343 0.000000
# 3 -0.007282 -0.001978 0.008650 0.000000 -0.000663 0.000000
# 4 0.000000 0.000000 0.000000 0.034872 0.000000 -0.006214
# 5 -0.003438 -0.001343 -0.000663 0.000000 0.023374 0.000000
# 6 0.000000 0.000000 0.000000 -0.006214 0.000000 0.054125
#
#
# Mechanical properties :
#
#
# Convention : Reuss Voigt Hill
#
# Bulk Modulus (GPa) = 29.58200 47.27139 38.42669
# Shear Modulus (GPa) = 21.04083 29.30461 25.17272
#
# Velocity S-wave (km/s) = 3.04211 3.59013 3.32742
# Velocity P-wave (km/s) = 5.03491 6.16253 5.62704
#
# Compressibility (1/GPa) = 0.03380435
#
# Stress axis : x y z
#
# Youngs Moduli (GPa) = 22.37605 48.64226 115.60270
#
# Poissons Ratio (x) = 0.52477 0.84177
# Poissons Ratio (y) = 0.24140 0.22861
# Poissons Ratio (z) = 0.16293 0.09619
#
# Static dielectric constant tensor:
#      x y z
#    x 1.829860 0.000000 -0.035030 
#    y 0.000000 1.926670 0.000000 
#    z -0.035030 0.000000 1.844550 
# 
# From -- ./inp_files/70176.got.cif
#   From: 2010.05.17/outbox.cif.g08.bks.cpg/sg14_36_cif.got.tgz:70176.got - 2010.06.03 17:49:19.
