data_PCOD9242601
_publ_section_title
;
Structure prediction by ZEFSAII (Michael W. Deem and Ramdas Pophale) SiO2 
 PCOD9242601
Probable space group: P 21/C
;
_chemical_formula_sum "Si O2"
_cell_formula_units_Z 24
_cell_length_a 11.192017
_cell_length_b 9.282526
_cell_length_c 12.531157
_cell_angle_alpha 90.000000
_cell_angle_beta 92.734754
_cell_angle_gamma 90.000000
_cell_volume 1300.381596
_symmetry_space_group_name_H-M "P 21/C"
_symmetry_group_IT_number 14
_symmetry_cell_setting 'monoclinic'
loop_
_space_group_symop_operation_xyz
x,y,z
-x,1/2+y,1/2-z
-x,-y,-z
x,1/2-y,1/2+z
loop_
_atom_site_type_symbol
_atom_site_label
_atom_site_fract_x
_atom_site_fract_y
_atom_site_fract_z
Si Si1 0.698924 0.224865 0.131975
Si Si2 0.141778 0.989519 0.995898
Si Si3 0.552707 0.521487 0.712424
Si Si4 0.462948 0.144997 0.556689
Si Si5 0.715549 0.765527 0.103558
Si Si6 0.277886 0.013306 0.227029
O O1 0.580269 0.254193 0.055074
O O2 0.731836 0.371420 0.196622
O O3 0.801185 0.148412 0.065007
O O4 0.645283 0.110610 0.214674
O O5 0.181545 0.126720 0.926766
O O6 0.198866 0.999596 0.117206
O O7 0.000000 0.000000 0.000000
O O8 0.554763 0.607176 0.821941
O O9 0.602947 0.633753 0.629938
O O10 0.415845 0.474413 0.693138
O O11 0.337242 0.188341 0.501968
O O12 0.500000 0.000000 0.500000
O O13 0.744851 0.652130 0.198173
#
# Coordination Sequence:
#
# PCOD9242601 Si02
#       6
#     4   4   4   4   4   4
#     4  10  22  37  61  89 119 152 189 235 296 350
#     4  11  26  43  58  80 116 161 209 245 273 325
#     4  10  20  34  58  93 125 147 177 233 301 362
#     4  11  20  32  61  93 122 141 177 230 300 363
#     4  11  21  38  59  89 119 155 188 234 295 350
#     4  11  21  37  62  85 119 150 192 239 296 347
#
# _framework density 18.456121
#
# number of rings (size 3 to 8) (size 9 to 14) (size 15 to 20)
#    0.000    1.333    3.333    5.000    2.333    4.000 
#    0.000    0.833    0.000    0.000    0.000    0.000 
#    0.000    0.000    0.000    0.000    0.000    0.000 
#
# Total GULP energy -133830.388545 kJ/mol
# GULP energy per Si atom -5576.266189 kJ/mol
# Density = 1.841411 g / cm^3
# Si number density = 18.456121 Si / 1000 Ang^3
#
#
#
# Elastic Constant Matrix: (Units=GPa)
#
#
# Indices 1 2 3 4 5 6 
#
# 1 121.5989 47.7741 67.8117 0.0000 -20.1176 0.0000
# 2 47.7741 104.3331 34.9736 0.0000 -8.6420 0.0000
# 3 67.8117 34.9736 79.8542 0.0000 0.6379 0.0000
# 4 0.0000 0.0000 0.0000 24.9539 0.0000 -0.5997
# 5 -20.1176 -8.6420 0.6379 0.0000 17.3277 0.0000
# 6 0.0000 0.0000 0.0000 -0.5997 0.0000 12.7933
#
#
#
# Elastic Compliance Matrix: (Units=1/GPa)
#
#
# Indices 1 2 3 4 5 6 
#
# 1 0.025826 -0.002275 -0.021172 0.000000 0.029630 0.000000
# 2 -0.002275 0.012046 -0.003372 0.000000 0.003491 0.000000
# 3 -0.021172 -0.003372 0.032198 0.000000 -0.027448 0.000000
# 4 0.000000 0.000000 0.000000 0.040119 0.000000 0.001881
# 5 0.029630 0.003491 -0.027448 0.000000 0.094863 0.000000
# 6 0.000000 0.000000 0.000000 0.001881 0.000000 0.078254
#
#
# Mechanical properties :
#
#
# Convention : Reuss Voigt Hill
#
# Bulk Modulus (GPa) = 60.85348 67.43388 64.14368
# Shear Modulus (GPa) = 14.60191 21.36345 17.98268
#
# Velocity S-wave (km/s) = 2.81582 3.40593 3.12484
# Velocity P-wave (km/s) = 6.60419 7.21692 6.91734
#
# Compressibility (1/GPa) = 0.01643291
#
# Stress axis : x y z
#
# Youngs Moduli (GPa) = 38.72015 83.01732 31.05769
#
# Poissons Ratio (x) = 0.18882 0.65756
# Poissons Ratio (y) = 0.08807 0.10473
# Poissons Ratio (z) = 0.81979 0.27993
#
# Static dielectric constant tensor:
#      x y z
#    x 1.615930 0.000000 0.002920 
#    y 0.000000 1.718130 0.000000 
#    z 0.002920 0.000000 1.658510 
# 
# From -- ./inp_files/28088.got.cif
#   From: 2010.05.17/outbox.cif.g08.bks.cpg/sg14_15_cif.got.tgz:28088.got - 2010.06.03 17:49:19.
