data_PCOD9242495
_publ_section_title
;
Structure prediction by ZEFSAII (Michael W. Deem and Ramdas Pophale) SiO2 
 PCOD9242495
Probable space group: P 21/C
;
_chemical_formula_sum "Si O2"
_cell_formula_units_Z 20
_cell_length_a 12.865369
_cell_length_b 7.915688
_cell_length_c 10.539177
_cell_angle_alpha 90.000000
_cell_angle_beta 131.486049
_cell_angle_gamma 90.000000
_cell_volume 804.020810
_symmetry_space_group_name_H-M "P 21/C"
_symmetry_group_IT_number 14
_symmetry_cell_setting 'monoclinic'
loop_
_space_group_symop_operation_xyz
x,y,z
-x,1/2+y,1/2-z
-x,-y,-z
x,1/2-y,1/2+z
loop_
_atom_site_type_symbol
_atom_site_label
_atom_site_fract_x
_atom_site_fract_y
_atom_site_fract_z
Si Si1 0.096582 0.357709 0.811591
Si Si2 0.188932 0.969431 0.892939
Si Si3 0.367429 0.123253 0.407965
Si Si4 0.253344 0.050950 0.668991
Si Si5 0.473011 0.063589 0.124234
O O1 0.136522 0.162331 0.850722
O O2 0.215109 0.447826 0.821969
O O3 0.936352 0.370267 0.646279
O O4 0.122681 0.426286 0.973790
O O5 0.213869 0.945108 0.762408
O O6 0.343127 0.961515 0.075584
O O7 0.319688 0.264015 0.262200
O O8 0.419898 0.248205 0.562135
O O9 0.500000 0.000000 0.500000
O O10 0.377293 0.955601 0.695554
O O11 0.500000 0.000000 0.000000
#
# Coordination Sequence:
#
# PCOD9242495 Si02
#       5
#     4   4   4   4   4
#     4  10  20  34  53  73 102 135 165 205 252 293
#     4   9  19  34  50  76 103 129 166 208 247 294
#     4   9  19  33  50  79 106 123 162 219 251 280
#     4   9  18  35  54  73  98 136 172 197 240 312
#     4   7  15  32  51  69  96 131 163 195 240 297
#
# _framework density 24.874977999999999
#
# number of rings (size 3 to 8) (size 9 to 14) (size 15 to 20)
#    0.000    4.000    0.000    0.600    0.000    8.000 
#    0.000    6.000    0.000    4.800    0.000    0.000 
#    0.000    0.000    0.000    0.000    0.000    0.000 
#
# Total GULP energy -111348.875689 kJ/mol
# GULP energy per Si atom -5567.443784 kJ/mol
# Density = 2.481836 g / cm^3
# Si number density = 24.874978 Si / 1000 Ang^3
#
#
#
# Elastic Constant Matrix: (Units=GPa)
#
#
# Indices 1 2 3 4 5 6 
#
# 1 123.0986 23.1055 28.1227 0.0000 49.8972 0.0000
# 2 23.1055 34.3846 0.7416 0.0000 10.7496 0.0000
# 3 28.1227 0.7416 47.3391 0.0000 29.6185 0.0000
# 4 0.0000 0.0000 0.0000 24.9407 0.0000 12.0095
# 5 49.8972 10.7496 29.6185 0.0000 52.4471 0.0000
# 6 0.0000 0.0000 0.0000 12.0095 0.0000 33.1168
#
#
#
# Elastic Compliance Matrix: (Units=1/GPa)
#
#
# Indices 1 2 3 4 5 6 
#
# 1 0.014219 -0.005855 -0.000993 0.000000 -0.011767 0.000000
# 2 -0.005855 0.034407 0.005979 0.000000 -0.004858 0.000000
# 3 -0.000993 0.005979 0.033705 0.000000 -0.019315 0.000000
# 4 0.000000 0.000000 0.000000 0.048578 0.000000 -0.017616
# 5 -0.011767 -0.004858 -0.019315 0.000000 0.042165 0.000000
# 6 0.000000 0.000000 0.000000 -0.017616 0.000000 0.036585
#
#
# Mechanical properties :
#
#
# Convention : Reuss Voigt Hill
#
# Bulk Modulus (GPa) = 12.40805 34.30688 23.35747
# Shear Modulus (GPa) = 20.98539 32.29109 26.63824
#
# Velocity S-wave (km/s) = 2.90769 3.60687 3.27599
# Velocity P-wave (km/s) = 4.03384 5.58280 4.87030
#
# Compressibility (1/GPa) = 0.08059285
#
# Stress axis : x y z
#
# Youngs Moduli (GPa) = 70.32852 29.06391 29.66900
#
# Poissons Ratio (x) = 0.17016 0.02947
# Poissons Ratio (y) = 0.41175 -0.17739
# Poissons Ratio (z) = 0.06985 -0.17377
#
# Static dielectric constant tensor:
#      x y z
#    x 2.117170 0.000000 -0.014310 
#    y 0.000000 2.023340 0.000000 
#    z -0.014310 0.000000 2.029260 
# 
# From -- ./inp_files/28240.got.cif
#   From: 2010.05.17/outbox.cif.g08.bks.cpg/sg14_15_cif.got.tgz:28240.got - 2010.06.03 17:49:19.
