data_PCOD9242283
_publ_section_title
;
Structure prediction by ZEFSAII (Michael W. Deem and Ramdas Pophale) SiO2 
 PCOD9242283
Probable space group: P 21/C
;
_chemical_formula_sum "Si O2"
_cell_formula_units_Z 24
_cell_length_a 7.851925
_cell_length_b 12.312418
_cell_length_c 13.979870
_cell_angle_alpha 90.000000
_cell_angle_beta 46.116157
_cell_angle_gamma 90.000000
_cell_volume 974.103804
_symmetry_space_group_name_H-M "P 21/C"
_symmetry_group_IT_number 14
_symmetry_cell_setting 'monoclinic'
loop_
_space_group_symop_operation_xyz
x,y,z
-x,1/2+y,1/2-z
-x,-y,-z
x,1/2-y,1/2+z
loop_
_atom_site_type_symbol
_atom_site_label
_atom_site_fract_x
_atom_site_fract_y
_atom_site_fract_z
Si Si1 0.026771 0.758963 0.184637
Si Si2 0.719948 0.570469 0.287262
Si Si3 0.133410 0.692405 0.436705
Si Si4 0.072155 0.101381 0.589761
Si Si5 0.557726 0.318923 0.860748
Si Si6 0.310325 0.083433 0.975859
O O1 0.211357 0.675557 0.162350
O O2 0.787324 0.696411 0.248200
O O3 0.965262 0.844376 0.290897
O O4 0.152781 0.807175 0.042783
O O5 0.743913 0.555251 0.393164
O O6 0.475123 0.507689 0.364958
O O7 0.919017 0.506262 0.150798
O O8 0.355390 0.675387 0.281615
O O9 0.035919 0.810796 0.441504
O O10 0.929126 0.609005 0.485859
O O11 0.350628 0.096490 0.462248
O O12 0.453119 0.197950 0.920062
#
# Coordination Sequence:
#
# PCOD9242283 Si02
#       6
#     4   4   4   4   4   4
#     4  11  22  39  68  95 123 171 215 257 328 373
#     4  11  20  40  71  91 123 175 217 254 323 385
#     4  10  21  40  64  94 125 161 214 264 318 376
#     4  10  22  41  63  91 130 162 214 269 312 377
#     4  10  19  42  61  90 130 168 201 269 320 369
#     4  10  20  40  68  86 127 172 211 260 317 379
#
# _framework density 24.638031000000002
#
# number of rings (size 3 to 8) (size 9 to 14) (size 15 to 20)
#    0.000    1.667    8.333    0.000    0.000    4.000 
#    0.000    0.833    7.333    0.000    0.000    0.000 
#    0.000    0.000    0.000    0.000    0.000    0.000 
#
# Total GULP energy -134374.973066 kJ/mol
# GULP energy per Si atom -5598.957211 kJ/mol
# Density = 2.458195 g / cm^3
# Si number density = 24.638031 Si / 1000 Ang^3
#
#
#
# Elastic Constant Matrix: (Units=GPa)
#
#
# Indices 1 2 3 4 5 6 
#
# 1 56.5879 6.8369 38.9688 0.0000 8.8691 0.0000
# 2 6.8369 65.8195 8.3316 0.0000 -1.3177 0.0000
# 3 38.9688 8.3316 167.7459 0.0000 3.8734 0.0000
# 4 0.0000 0.0000 0.0000 35.3962 0.0000 -8.9033
# 5 8.8691 -1.3177 3.8734 0.0000 44.4167 0.0000
# 6 0.0000 0.0000 0.0000 -8.9033 0.0000 31.4503
#
#
#
# Elastic Compliance Matrix: (Units=1/GPa)
#
#
# Indices 1 2 3 4 5 6 
#
# 1 0.021885 -0.001732 -0.004906 0.000000 -0.003994 0.000000
# 2 -0.001732 0.015438 -0.000384 0.000000 0.000837 0.000000
# 3 -0.004906 -0.000384 0.007112 0.000000 0.000348 0.000000
# 4 0.000000 0.000000 0.000000 0.030418 0.000000 0.008611
# 5 -0.003994 0.000837 0.000348 0.000000 0.023306 0.000000
# 6 0.000000 0.000000 0.000000 0.008611 0.000000 0.034234
#
#
# Mechanical properties :
#
#
# Convention : Reuss Voigt Hill
#
# Bulk Modulus (GPa) = 32.90343 44.26979 38.58661
# Shear Modulus (GPa) = 31.93512 37.98703 34.96108
#
# Velocity S-wave (km/s) = 3.60414 3.93084 3.77103
# Velocity P-wave (km/s) = 5.54108 6.21362 5.88696
#
# Compressibility (1/GPa) = 0.03039197
#
# Stress axis : x y z
#
# Youngs Moduli (GPa) = 45.69297 64.77384 140.60556
#
# Poissons Ratio (x) = 0.11220 0.68979
# Poissons Ratio (y) = 0.07915 0.05395
# Poissons Ratio (z) = 0.22416 0.02485
#
# Static dielectric constant tensor:
#      x y z
#    x 2.001850 0.000000 -0.042420 
#    y 0.000000 1.943470 0.000000 
#    z -0.042420 0.000000 1.917890 
# 
# From -- ./inp_files/41070.got.cif
#   From: 2010.05.17/outbox.cif.g08.bks.cpg/sg14_21_cif.got.tgz:41070.got - 2010.06.03 17:49:19.
