data_PCOD9242041
_publ_section_title
;
Structure prediction by ZEFSAII (Michael W. Deem and Ramdas Pophale) SiO2 
 PCOD9242041
Probable space group: P 21/C
;
_chemical_formula_sum "Si O2"
_cell_formula_units_Z 28
_cell_length_a 8.061753
_cell_length_b 12.529990
_cell_length_c 24.286058
_cell_angle_alpha 90.000000
_cell_angle_beta 149.265338
_cell_angle_gamma 90.000000
_cell_volume 1253.752134
_symmetry_space_group_name_H-M "P 21/C"
_symmetry_group_IT_number 14
_symmetry_cell_setting 'monoclinic'
loop_
_space_group_symop_operation_xyz
x,y,z
-x,1/2+y,1/2-z
-x,-y,-z
x,1/2-y,1/2+z
loop_
_atom_site_type_symbol
_atom_site_label
_atom_site_fract_x
_atom_site_fract_y
_atom_site_fract_z
Si Si1 0.719525 0.972055 0.477659
Si Si2 0.114855 0.228054 0.766581
Si Si3 0.339905 0.270311 0.548224
Si Si4 0.453463 0.665017 0.284062
Si Si5 0.628637 0.934896 0.717845
Si Si6 0.009943 0.527158 0.833693
Si Si7 0.976117 0.857278 0.145479
O O1 0.813772 0.846765 0.504890
O O2 0.352534 0.977444 0.399304
O O3 0.667315 0.012363 0.400669
O O4 0.923105 0.034658 0.581814
O O5 0.275545 0.334587 0.791600
O O6 0.208415 0.193411 0.854882
O O7 0.726250 0.248780 0.655506
O O8 0.174997 0.129213 0.742842
O O9 0.283036 0.315317 0.593011
O O10 0.228315 0.348535 0.468282
O O11 0.569405 0.610653 0.261468
O O12 0.186924 0.581624 0.231495
O O13 0.285164 0.778977 0.225000
O O14 0.897735 0.027152 0.800988
#
# Coordination Sequence:
#
# PCOD9242041 Si02
#       7
#     4   4   4   4   4   4   4
#     4  10  19  38  69  92 115 163 228 254 303 362
#     4  10  24  40  65  97 124 160 221 263 309 370
#     4  10  21  41  67  90 123 170 209 266 311 369
#     4  11  24  41  62  89 138 162 207 260 325 372
#     4  12  25  41  64  96 131 169 204 261 323 386
#     4  10  20  39  67  92 122 165 209 270 303 371
#     4  11  23  44  66  90 129 166 213 265 312 368
#
# _framework density 22.332961999999998
#
# number of rings (size 3 to 8) (size 9 to 14) (size 15 to 20)
#    0.000    1.429    5.714    1.714    6.000    1.714 
#    2.571    0.000    0.000    0.000    0.000    0.000 
#    0.000    0.000    0.000    0.000    0.000    0.000 
#
# Total GULP energy -156556.952030 kJ/mol
# GULP energy per Si atom -5591.319715 kJ/mol
# Density = 2.228213 g / cm^3
# Si number density = 22.332962 Si / 1000 Ang^3
#
#
#
# Elastic Constant Matrix: (Units=GPa)
#
#
# Indices 1 2 3 4 5 6 
#
# 1 65.3641 33.4601 27.3684 0.0000 -37.8442 0.0000
# 2 33.4601 90.5518 2.7323 0.0000 -21.0404 0.0000
# 3 27.3684 2.7323 101.6270 0.0000 -51.7726 0.0000
# 4 0.0000 0.0000 0.0000 32.6422 0.0000 -16.4661
# 5 -37.8442 -21.0404 -51.7726 0.0000 40.7379 0.0000
# 6 0.0000 0.0000 0.0000 -16.4661 0.0000 30.3975
#
#
#
# Elastic Compliance Matrix: (Units=1/GPa)
#
#
# Indices 1 2 3 4 5 6 
#
# 1 0.054890 -0.000023 0.031737 0.000000 0.091312 0.000000
# 2 -0.000023 0.015723 0.010522 0.000000 0.021471 0.000000
# 3 0.031737 0.010522 0.053317 0.000000 0.102676 0.000000
# 4 0.000000 0.000000 0.000000 0.042154 0.000000 0.022834
# 5 0.091312 0.021471 0.102676 0.000000 0.250951 0.000000
# 6 0.000000 0.000000 0.000000 0.022834 0.000000 0.045267
#
#
# Mechanical properties :
#
#
# Convention : Reuss Voigt Hill
#
# Bulk Modulus (GPa) = 4.79844 42.74051 23.76948
# Shear Modulus (GPa) = 11.17819 33.68765 22.43292
#
# Velocity S-wave (km/s) = 2.23967 3.88806 3.17278
# Velocity P-wave (km/s) = 2.97345 6.27180 4.90800
#
# Compressibility (1/GPa) = 0.20840116
#
# Stress axis : x y z
#
# Youngs Moduli (GPa) = 18.21821 63.59931 18.75561
#
# Poissons Ratio (x) = 0.00147 -0.59524
# Poissons Ratio (y) = 0.00042 -0.19734
# Poissons Ratio (z) = -0.57818 -0.66917
#
# Static dielectric constant tensor:
#      x y z
#    x 1.909550 0.000000 -0.000490 
#    y 0.000000 1.798730 0.000000 
#    z -0.000490 0.000000 1.820070 
# 
# From -- ./inp_files/65630.got.cif
#   From: 2010.05.17/outbox.cif.g08.bks.cpg/sg14_33_cif.got.tgz:65630.got - 2010.06.03 17:49:19.
