data_PCOD9242083
_publ_section_title
;
Structure prediction by ZEFSAII (Michael W. Deem and Ramdas Pophale) SiO2 
 PCOD9242083
Probable space group: P 21/C
;
_chemical_formula_sum "Si O2"
_cell_formula_units_Z 32
_cell_length_a 16.582155
_cell_length_b 10.908664
_cell_length_c 14.636036
_cell_angle_alpha 90.000000
_cell_angle_beta 151.213873
_cell_angle_gamma 90.000000
_cell_volume 1274.881174
_symmetry_space_group_name_H-M "P 21/C"
_symmetry_group_IT_number 14
_symmetry_cell_setting 'monoclinic'
loop_
_space_group_symop_operation_xyz
x,y,z
-x,1/2+y,1/2-z
-x,-y,-z
x,1/2-y,1/2+z
loop_
_atom_site_type_symbol
_atom_site_label
_atom_site_fract_x
_atom_site_fract_y
_atom_site_fract_z
Si Si1 0.751229 0.787723 0.283932
Si Si2 0.045874 0.167107 0.342005
Si Si3 0.380924 0.931824 0.244996
Si Si4 0.253844 0.347718 0.886971
Si Si5 0.736797 0.200928 0.492209
Si Si6 0.642676 0.220976 0.610367
Si Si7 0.415435 0.091938 0.120122
Si Si8 0.789506 0.040312 0.222125
O O1 0.825018 0.684970 0.288866
O O2 0.552189 0.761727 0.077279
O O3 0.815273 0.786986 0.449747
O O4 0.810073 0.918776 0.301623
O O5 0.929158 0.077735 0.286645
O O6 0.125732 0.102623 0.333807
O O7 0.935494 0.280465 0.193281
O O8 0.581221 0.928375 0.456356
O O9 0.324225 0.823665 0.120745
O O10 0.318334 0.890542 0.282383
O O11 0.347559 0.051674 0.152182
O O12 0.326535 0.217218 0.998999
O O13 0.685218 0.199413 0.547316
O O14 0.616297 0.102944 0.324950
O O15 0.752092 0.340309 0.745113
O O16 0.370925 0.991464 0.000172
#
# Coordination Sequence:
#
# PCOD9242083 Si02
#       8
#     4   4   4   4   4   4   4   4
#     4  10  20  36  60  89 120 157 198 242 303 360
#     4  11  21  38  57  86 131 156 180 254 310 354
#     4  10  19  39  63  85 115 160 204 253 290 345
#     4   9  22  38  59  88 121 160 197 241 303 356
#     4  10  22  38  58  89 117 158 202 241 300 355
#     4  10  20  37  64  87 119 154 197 259 296 341
#     4  10  19  40  62  83 116 155 209 247 280 359
#     4  10  21  38  60  95 117 154 207 250 298 353
#
# _framework density 25.100377000000002
#
# number of rings (size 3 to 8) (size 9 to 14) (size 15 to 20)
#    0.000    2.000    2.500    3.000    0.000    2.500 
#    4.500    0.000    0.000    4.500    0.000    0.000 
#    0.000    0.000    0.000    0.000    0.000    0.000 
#
# Total GULP energy -178822.853997 kJ/mol
# GULP energy per Si atom -5588.214187 kJ/mol
# Density = 2.504325 g / cm^3
# Si number density = 25.100377 Si / 1000 Ang^3
#
#
#
# Elastic Constant Matrix: (Units=GPa)
#
#
# Indices 1 2 3 4 5 6 
#
# 1 78.2804 -17.7064 -2.2456 0.0000 -11.1859 0.0000
# 2 -17.7064 54.3917 -5.6862 0.0000 -8.0000 0.0000
# 3 -2.2456 -5.6862 23.6677 0.0000 -15.8061 0.0000
# 4 0.0000 0.0000 0.0000 27.1569 0.0000 -6.5194
# 5 -11.1859 -8.0000 -15.8061 0.0000 32.9232 0.0000
# 6 0.0000 0.0000 0.0000 -6.5194 0.0000 25.1098
#
#
#
# Elastic Compliance Matrix: (Units=1/GPa)
#
#
# Indices 1 2 3 4 5 6 
#
# 1 0.017365 0.009252 0.013707 0.000000 0.014729 0.000000
# 2 0.009252 0.026296 0.019962 0.000000 0.019117 0.000000
# 3 0.013707 0.019962 0.080511 0.000000 0.048160 0.000000
# 4 0.000000 0.000000 0.000000 0.039271 0.000000 0.010196
# 5 0.014729 0.019117 0.048160 0.000000 0.063144 0.000000
# 6 0.000000 0.000000 0.000000 0.010196 0.000000 0.042472
#
#
# Mechanical properties :
#
#
# Convention : Reuss Voigt Hill
#
# Bulk Modulus (GPa) = 4.76158 11.67371 8.21764
# Shear Modulus (GPa) = 19.74554 29.16985 24.45769
#
# Velocity S-wave (km/s) = 2.80779 3.41270 3.12492
# Velocity P-wave (km/s) = 3.52317 4.49328 4.03747
#
# Compressibility (1/GPa) = 0.21001444
#
# Stress axis : x y z
#
# Youngs Moduli (GPa) = 57.58634 38.02903 12.42065
#
# Poissons Ratio (x) = -0.35185 -0.17025
# Poissons Ratio (y) = -0.53280 -0.24794
# Poissons Ratio (z) = -0.78932 -0.75914
#
# Static dielectric constant tensor:
#      x y z
#    x 1.991820 0.000000 0.015550 
#    y 0.000000 2.063100 0.000000 
#    z 0.015550 0.000000 1.994650 
# 
# From -- ./inp_files/48916.got.cif
#   From: 2010.05.17/outbox.cif.g08.bks.cpg/sg14_25_cif.got.tgz:48916.got - 2010.06.03 17:49:19.
