data_PCOD9242944
_publ_section_title
;
Structure prediction by ZEFSAII (Michael W. Deem and Ramdas Pophale) SiO2 
 PCOD9242944
Probable space group: P 21/C
;
_chemical_formula_sum "Si O2"
_cell_formula_units_Z 28
_cell_length_a 19.316443
_cell_length_b 9.592900
_cell_length_c 22.220100
_cell_angle_alpha 90.000000
_cell_angle_beta 20.744480
_cell_angle_gamma 90.000000
_cell_volume 1458.387042
_symmetry_space_group_name_H-M "P 21/C"
_symmetry_group_IT_number 14
_symmetry_cell_setting 'monoclinic'
loop_
_space_group_symop_operation_xyz
x,y,z
-x,1/2+y,1/2-z
-x,-y,-z
x,1/2-y,1/2+z
loop_
_atom_site_type_symbol
_atom_site_label
_atom_site_fract_x
_atom_site_fract_y
_atom_site_fract_z
Si Si1 0.076159 0.146922 0.836844
Si Si2 0.334006 0.416522 0.233340
Si Si3 0.410775 0.158062 0.479855
Si Si4 0.280708 0.976190 0.912445
Si Si5 0.806908 0.860399 0.600835
Si Si6 0.634019 0.721279 0.118582
Si Si7 0.808492 0.327968 0.139898
O O1 0.171576 0.060181 0.814185
O O2 0.258736 0.209861 0.652814
O O3 0.945594 0.060743 0.895732
O O4 0.928942 0.256057 0.987423
O O5 0.530252 0.496862 0.055068
O O6 0.287393 0.483828 0.336031
O O7 0.325024 0.252330 0.255492
O O8 0.325388 0.172347 0.482084
O O9 0.614233 0.243312 0.314004
O O10 0.423440 0.845769 0.806078
O O11 0.357420 0.111553 0.884720
O O12 0.774484 0.835193 0.556708
O O13 0.031208 0.832633 0.437387
O O14 0.757623 0.015832 0.661381
#
# Coordination Sequence:
#
# PCOD9242944 Si02
#       7
#     4   4   4   4   4   4   4
#     4  11  21  37  62  90 115 155 200 246 297 350
#     4   9  19  37  61  87 111 149 201 247 285 345
#     4  11  22  37  62  88 121 153 195 248 299 350
#     4  10  20  36  62  82 117 155 193 242 292 348
#     4   9  20  36  65  83 116 160 199 239 302 345
#     4  10  20  36  58  86 115 155 192 239 292 354
#     4  10  20  40  62  85 116 159 195 248 292 350
#
# _framework density 19.199292
#
# number of rings (size 3 to 8) (size 9 to 14) (size 15 to 20)
#    0.000    2.000    2.857    1.714    4.000    0.000 
#    2.571    6.429    3.143    0.000    0.000    0.000 
#    0.000    0.000    0.000    0.000    0.000    0.000 
#
# Total GULP energy -156057.926344 kJ/mol
# GULP energy per Si atom -5573.497369 kJ/mol
# Density = 1.915559 g / cm^3
# Si number density = 19.199292 Si / 1000 Ang^3
#
#
#
# Elastic Constant Matrix: (Units=GPa)
#
#
# Indices 1 2 3 4 5 6 
#
# 1 98.3451 30.5446 30.6435 0.0000 -19.7855 0.0000
# 2 30.5446 103.9224 45.8134 0.0000 -16.0213 0.0000
# 3 30.6435 45.8134 103.2551 0.0000 2.8575 0.0000
# 4 0.0000 0.0000 0.0000 13.6803 0.0000 -9.5040
# 5 -19.7855 -16.0213 2.8575 0.0000 18.1093 0.0000
# 6 0.0000 0.0000 0.0000 -9.5040 0.0000 23.1116
#
#
#
# Elastic Compliance Matrix: (Units=1/GPa)
#
#
# Indices 1 2 3 4 5 6 
#
# 1 0.015263 0.000646 -0.005317 0.000000 0.018086 0.000000
# 2 0.000646 0.014949 -0.007242 0.000000 0.015074 0.000000
# 3 -0.005317 -0.007242 0.014879 0.000000 -0.014564 0.000000
# 4 0.000000 0.000000 0.000000 0.102333 0.000000 0.042082
# 5 0.018086 0.015074 -0.014564 0.000000 0.090615 0.000000
# 6 0.000000 0.000000 0.000000 0.042082 0.000000 0.060573
#
#
# Mechanical properties :
#
#
# Convention : Reuss Voigt Hill
#
# Bulk Modulus (GPa) = 47.02350 57.72507 52.37429
# Shear Modulus (GPa) = 15.17334 24.21497 19.69415
#
# Velocity S-wave (km/s) = 2.81429 3.55525 3.20625
# Velocity P-wave (km/s) = 5.92501 6.85453 6.40665
#
# Compressibility (1/GPa) = 0.02126596
#
# Stress axis : x y z
#
# Youngs Moduli (GPa) = 65.51793 66.89410 67.20979
#
# Poissons Ratio (x) = -0.04323 0.35735
# Poissons Ratio (y) = -0.04234 0.48671
# Poissons Ratio (z) = 0.34835 0.48443
#
# Static dielectric constant tensor:
#      x y z
#    x 1.698260 0.000000 -0.017310 
#    y 0.000000 1.709650 0.000000 
#    z -0.017310 0.000000 1.673370 
# 
# From -- ./inp_files/74623.got.cif
#   From: 2010.05.17/outbox.cif.g08.bks.cpg/sg14_38_cif.got.tgz:74623.got - 2010.06.03 17:49:19.
