data_PCOD9242865
_publ_section_title
;
Structure prediction by ZEFSAII (Michael W. Deem and Ramdas Pophale) SiO2 
 PCOD9242865
Probable space group: P 21/C
;
_chemical_formula_sum "Si O2"
_cell_formula_units_Z 24
_cell_length_a 6.840404
_cell_length_b 13.765209
_cell_length_c 11.057211
_cell_angle_alpha 90.000000
_cell_angle_beta 95.338271
_cell_angle_gamma 90.000000
_cell_volume 1036.626795
_symmetry_space_group_name_H-M "P 21/C"
_symmetry_group_IT_number 14
_symmetry_cell_setting 'monoclinic'
loop_
_space_group_symop_operation_xyz
x,y,z
-x,1/2+y,1/2-z
-x,-y,-z
x,1/2-y,1/2+z
loop_
_atom_site_type_symbol
_atom_site_label
_atom_site_fract_x
_atom_site_fract_y
_atom_site_fract_z
Si Si1 0.632127 0.487982 0.333271
Si Si2 0.668517 0.825552 0.197296
Si Si3 0.103694 0.584640 0.160326
Si Si4 0.837005 0.621548 0.938938
Si Si5 0.218374 0.519532 0.410468
Si Si6 0.446385 0.384529 0.886380
O O1 0.531170 0.386926 0.288539
O O2 0.448734 0.543769 0.389228
O O3 0.793757 0.470892 0.446019
O O4 0.673593 0.551074 0.218002
O O5 0.784587 0.805800 0.328483
O O6 0.789015 0.905202 0.126268
O O7 0.609279 0.727975 0.130195
O O8 0.100967 0.584153 0.306294
O O9 0.326646 0.605225 0.132191
O O10 0.969217 0.647218 0.062424
O O11 0.068872 0.471890 0.121128
O O12 0.630355 0.588440 0.985820
#
# Coordination Sequence:
#
# PCOD9242865 Si02
#       6
#     4   4   4   4   4   4
#     4   8  16  31  51  79 105 139 187 212 272 322
#     4   9  19  31  53  81 106 144 178 227 269 316
#     4   9  19  36  58  78 107 146 172 232 279 313
#     4  10  20  36  55  82 112 133 190 225 273 325
#     4   7  14  32  52  71 106 139 177 215 271 320
#     4  11  20  32  59  80 106 150 182 222 273 325
#
# _framework density 23.152017000000001
#
# number of rings (size 3 to 8) (size 9 to 14) (size 15 to 20)
#    1.000    2.000    1.667    0.500    2.333    0.000 
#    0.000    4.167    3.667    0.000    0.000    0.000 
#    0.000    0.000    0.000    0.000    0.000    0.000 
#
# Total GULP energy -133616.430426 kJ/mol
# GULP energy per Si atom -5567.351268 kJ/mol
# Density = 2.309932 g / cm^3
# Si number density = 23.152017 Si / 1000 Ang^3
#
#
#
# Elastic Constant Matrix: (Units=GPa)
#
#
# Indices 1 2 3 4 5 6 
#
# 1 57.6047 5.2530 22.3788 0.0000 15.6464 0.0000
# 2 5.2530 57.8807 14.1859 0.0000 4.6040 0.0000
# 3 22.3788 14.1859 143.2717 0.0000 23.9016 0.0000
# 4 0.0000 0.0000 0.0000 10.3400 0.0000 -2.7950
# 5 15.6464 4.6040 23.9016 0.0000 40.7618 0.0000
# 6 0.0000 0.0000 0.0000 -2.7950 0.0000 10.0339
#
#
#
# Elastic Compliance Matrix: (Units=1/GPa)
#
#
# Indices 1 2 3 4 5 6 
#
# 1 0.019938 -0.000818 -0.001964 0.000000 -0.006409 0.000000
# 2 -0.000818 0.017783 -0.001497 0.000000 -0.000817 0.000000
# 3 -0.001964 -0.001497 0.008070 0.000000 -0.003809 0.000000
# 4 0.000000 0.000000 0.000000 0.104587 0.000000 0.029134
# 5 -0.006409 -0.000817 -0.003809 0.000000 0.029319 0.000000
# 6 0.000000 0.000000 0.000000 0.029134 0.000000 0.107778
#
#
# Mechanical properties :
#
#
# Convention : Reuss Voigt Hill
#
# Bulk Modulus (GPa) = 26.85776 38.04361 32.45069
# Shear Modulus (GPa) = 16.21036 26.68976 21.45006
#
# Velocity S-wave (km/s) = 2.64894 3.39898 3.04713
# Velocity P-wave (km/s) = 4.58058 5.64552 5.14070
#
# Compressibility (1/GPa) = 0.03723318
#
# Stress axis : x y z
#
# Youngs Moduli (GPa) = 50.15507 56.23361 123.91278
#
# Poissons Ratio (x) = 0.04602 0.24337
# Poissons Ratio (y) = 0.04104 0.18546
# Poissons Ratio (z) = 0.09851 0.08416
#
# Static dielectric constant tensor:
#      x y z
#    x 1.973490 0.000000 0.026650 
#    y 0.000000 1.836540 0.000000 
#    z 0.026650 0.000000 1.925650 
# 
# From -- ./inp_files/24634.got.cif
#   From: 2010.05.17/outbox.cif.g08.bks.cpg/sg14_13_cif.got.tgz:24634.got - 2010.06.03 17:49:19.
