data_PCOD9242213
_publ_section_title
;
Structure prediction by ZEFSAII (Michael W. Deem and Ramdas Pophale) SiO2 
 PCOD9242213
Probable space group: P 21/C
;
_chemical_formula_sum "Si O2"
_cell_formula_units_Z 24
_cell_length_a 11.985346
_cell_length_b 12.151395
_cell_length_c 7.887998
_cell_angle_alpha 90.000000
_cell_angle_beta 72.460677
_cell_angle_gamma 90.000000
_cell_volume 1095.390365
_symmetry_space_group_name_H-M "P 21/C"
_symmetry_group_IT_number 14
_symmetry_cell_setting 'monoclinic'
loop_
_space_group_symop_operation_xyz
x,y,z
-x,1/2+y,1/2-z
-x,-y,-z
x,1/2-y,1/2+z
loop_
_atom_site_type_symbol
_atom_site_label
_atom_site_fract_x
_atom_site_fract_y
_atom_site_fract_z
Si Si1 0.747352 0.386099 0.024770
Si Si2 0.534860 0.622035 0.436715
Si Si3 0.048897 0.907814 0.104406
Si Si4 0.998490 0.665037 0.009991
Si Si5 0.386893 0.798762 0.712562
Si Si6 0.223207 0.444626 0.713256
O O1 0.704745 0.273340 0.135638
O O2 0.718230 0.487730 0.158815
O O3 0.685307 0.380718 0.873513
O O4 0.887328 0.387781 0.953910
O O5 0.500000 0.500000 0.500000
O O6 0.459912 0.709123 0.575294
O O7 0.485407 0.639998 0.272626
O O8 0.673483 0.631495 0.402898
O O9 0.027768 0.794309 0.012102
O O10 0.995586 0.876976 0.316083
O O11 0.173445 0.961541 0.107856
O O12 0.000000 0.000000 0.000000
O O13 0.884550 0.625768 0.163818
#
# Coordination Sequence:
#
# PCOD9242213 Si02
#       6
#     4   4   4   4   4   4
#     4  10  19  40  65  99 127 176 225 277 341 403
#     4  11  24  47  65 101 138 179 237 278 340 405
#     4  11  24  43  68  99 140 184 222 280 352 406
#     4  11  24  41  68 104 138 173 235 282 344 416
#     4  10  23  40  72  98 132 183 231 283 330 407
#     4  11  24  44  68 101 141 180 227 289 341 409
#
# _framework density 21.909997000000001
#
# number of rings (size 3 to 8) (size 9 to 14) (size 15 to 20)
#    0.000    1.333    1.667    5.000    2.333    4.667 
#    0.000    0.000    0.000    0.000    0.000    0.000 
#    0.000    0.000    0.000    0.000    0.000    0.000 
#
# Total GULP energy -133991.720642 kJ/mol
# GULP energy per Si atom -5582.988360 kJ/mol
# Density = 2.186013 g / cm^3
# Si number density = 21.909997 Si / 1000 Ang^3
#
#
#
# Elastic Constant Matrix: (Units=GPa)
#
#
# Indices 1 2 3 4 5 6 
#
# 1 123.3096 43.0627 67.5195 0.0000 -9.1005 0.0000
# 2 43.0627 101.3555 29.2300 0.0000 17.9280 0.0000
# 3 67.5195 29.2300 66.2757 0.0000 6.3695 0.0000
# 4 0.0000 0.0000 0.0000 27.0773 0.0000 7.8517
# 5 -9.1005 17.9280 6.3695 0.0000 42.8131 0.0000
# 6 0.0000 0.0000 0.0000 7.8517 0.0000 48.5499
#
#
#
# Elastic Compliance Matrix: (Units=1/GPa)
#
#
# Indices 1 2 3 4 5 6 
#
# 1 0.022484 -0.005108 -0.021627 0.000000 0.010136 0.000000
# 2 -0.005108 0.013202 0.000018 0.000000 -0.006617 0.000000
# 3 -0.021627 0.000018 0.038101 0.000000 -0.010273 0.000000
# 4 0.000000 0.000000 0.000000 0.038749 0.000000 -0.006267
# 5 0.010136 -0.006617 -0.010273 0.000000 0.029811 0.000000
# 6 0.000000 0.000000 0.000000 -0.006267 0.000000 0.021611
#
#
# Mechanical properties :
#
#
# Convention : Reuss Voigt Hill
#
# Bulk Modulus (GPa) = 49.13702 63.39612 56.26657
# Shear Modulus (GPa) = 22.30397 33.76329 28.03363
#
# Velocity S-wave (km/s) = 3.19404 3.92982 3.58088
# Velocity P-wave (km/s) = 6.00650 7.04194 6.54473
#
# Compressibility (1/GPa) = 0.02035125
#
# Stress axis : x y z
#
# Youngs Moduli (GPa) = 44.47671 75.74619 26.24632
#
# Poissons Ratio (x) = 0.38695 0.56762
# Poissons Ratio (y) = 0.22721 -0.00047
# Poissons Ratio (z) = 0.96189 -0.00134
#
# Static dielectric constant tensor:
#      x y z
#    x 1.790680 0.000000 -0.018510 
#    y 0.000000 1.759460 0.000000 
#    z -0.018510 0.000000 1.877370 
# 
# From -- ./inp_files/12379.got.cif
#   From: 2010.05.17/outbox.cif.g08.bks.cpg/sg14_7_cif.got.tgz:12379.got - 2010.06.03 17:49:19.
