data_PCOD9242419
_publ_section_title
;
Structure prediction by ZEFSAII (Michael W. Deem and Ramdas Pophale) SiO2 
 PCOD9242419
Probable space group: P 21/C
;
_chemical_formula_sum "Si O2"
_cell_formula_units_Z 32
_cell_length_a 7.967086
_cell_length_b 17.018045
_cell_length_c 14.041340
_cell_angle_alpha 90.000000
_cell_angle_beta 117.001240
_cell_angle_gamma 90.000000
_cell_volume 1696.265477
_symmetry_space_group_name_H-M "P 21/C"
_symmetry_group_IT_number 14
_symmetry_cell_setting 'monoclinic'
loop_
_space_group_symop_operation_xyz
x,y,z
-x,1/2+y,1/2-z
-x,-y,-z
x,1/2-y,1/2+z
loop_
_atom_site_type_symbol
_atom_site_label
_atom_site_fract_x
_atom_site_fract_y
_atom_site_fract_z
Si Si1 0.822324 0.702182 0.199973
Si Si2 0.815281 0.698183 0.970413
Si Si3 0.582291 0.849985 0.919137
Si Si4 0.445523 0.421595 0.784748
Si Si5 0.510445 0.830791 0.108363
Si Si6 0.766446 0.200250 0.427503
Si Si7 0.775321 0.258216 0.214881
Si Si8 0.460900 0.897156 0.300393
O O1 0.812872 0.686940 0.084081
O O2 0.738140 0.625434 0.227337
O O3 0.681373 0.774117 0.184963
O O4 0.031027 0.729541 0.280578
O O5 0.023775 0.680389 0.984999
O O6 0.754758 0.789814 0.942413
O O7 0.654792 0.642965 0.885191
O O8 0.563127 0.914566 0.832442
O O9 0.400124 0.795195 0.858230
O O10 0.575731 0.873412 0.028407
O O11 0.624935 0.372462 0.871968
O O12 0.452780 0.511058 0.818270
O O13 0.345593 0.767031 0.043731
O O14 0.453009 0.882446 0.184061
O O15 0.798246 0.241035 0.333274
O O16 0.706308 0.348037 0.191299
#
# Coordination Sequence:
#
# PCOD9242419 Si02
#       8
#     4   4   4   4   4   4   4   4
#     4   9  17  33  55  73  96 135 180 219 252 301
#     4   9  17  32  55  77  98 133 179 217 253 305
#     4   9  18  32  52  75 100 139 182 211 244 299
#     4  10  20  33  50  78 113 137 161 211 269 311
#     4   9  18  32  52  75 100 138 182 215 243 294
#     4   8  16  32  53  76 100 132 176 216 249 298
#     4   8  16  33  53  72  97 134 180 216 247 300
#     4  10  20  33  50  78 112 136 164 214 267 309
#
# _framework density 18.864971000000001
#
# number of rings (size 3 to 8) (size 9 to 14) (size 15 to 20)
#    0.000    3.000    0.000    2.250    0.000    3.500 
#    0.000    3.750    0.000   15.750    0.000    0.000 
#    0.000    0.000    0.000    0.000    0.000    0.000 
#
# Total GULP energy -178269.877284 kJ/mol
# GULP energy per Si atom -5570.933665 kJ/mol
# Density = 1.882203 g / cm^3
# Si number density = 18.864971 Si / 1000 Ang^3
#
#
#
# Elastic Constant Matrix: (Units=GPa)
#
#
# Indices 1 2 3 4 5 6 
#
# 1 102.5502 46.5184 14.3283 0.0000 28.3209 0.0000
# 2 46.5184 65.3087 23.7474 0.0000 11.4603 0.0000
# 3 14.3283 23.7474 50.0593 0.0000 6.5600 0.0000
# 4 0.0000 0.0000 0.0000 12.9031 0.0000 -1.7498
# 5 28.3209 11.4603 6.5600 0.0000 26.9936 0.0000
# 6 0.0000 0.0000 0.0000 -1.7498 0.0000 15.2847
#
#
#
# Elastic Compliance Matrix: (Units=1/GPa)
#
#
# Indices 1 2 3 4 5 6 
#
# 1 0.018991 -0.011561 0.002083 0.000000 -0.015523 0.000000
# 2 -0.011561 0.026501 -0.009686 0.000000 0.003232 0.000000
# 3 0.002083 -0.009686 0.024503 0.000000 -0.004027 0.000000
# 4 0.000000 0.000000 0.000000 0.078723 0.000000 0.009012
# 5 -0.015523 0.003232 -0.004027 0.000000 0.052939 0.000000
# 6 0.000000 0.000000 0.000000 0.009012 0.000000 0.066457
#
#
# Mechanical properties :
#
#
# Convention : Reuss Voigt Hill
#
# Bulk Modulus (GPa) = 31.57859 43.01183 37.29521
# Shear Modulus (GPa) = 15.77291 19.92454 17.84872
#
# Velocity S-wave (km/s) = 2.89467 3.25340 3.07926
# Velocity P-wave (km/s) = 5.28656 6.07965 5.69692
#
# Compressibility (1/GPa) = 0.03166703
#
# Stress axis : x y z
#
# Youngs Moduli (GPa) = 52.65545 37.73397 40.81122
#
# Poissons Ratio (x) = 0.43622 -0.08499
# Poissons Ratio (y) = 0.60872 0.39531
# Poissons Ratio (z) = -0.10966 0.36551
#
# Static dielectric constant tensor:
#      x y z
#    x 1.694340 0.000000 -0.019280 
#    y 0.000000 1.615930 0.000000 
#    z -0.019280 0.000000 1.715870 
# 
# From -- ./inp_files/41254.got.cif
#   From: 2010.05.17/outbox.cif.g08.bks.cpg/sg14_21_cif.got.tgz:41254.got - 2010.06.03 17:49:19.
