data_PCOD9242082
_publ_section_title
;
Structure prediction by ZEFSAII (Michael W. Deem and Ramdas Pophale) SiO2 
 PCOD9242082
Probable space group: P 21/C
;
_chemical_formula_sum "Si O2"
_cell_formula_units_Z 24
_cell_length_a 9.151007
_cell_length_b 16.200593
_cell_length_c 16.508097
_cell_angle_alpha 90.000000
_cell_angle_beta 148.697512
_cell_angle_gamma 90.000000
_cell_volume 1271.538035
_symmetry_space_group_name_H-M "P 21/C"
_symmetry_group_IT_number 14
_symmetry_cell_setting 'monoclinic'
loop_
_space_group_symop_operation_xyz
x,y,z
-x,1/2+y,1/2-z
-x,-y,-z
x,1/2-y,1/2+z
loop_
_atom_site_type_symbol
_atom_site_label
_atom_site_fract_x
_atom_site_fract_y
_atom_site_fract_z
Si Si1 0.839416 0.438532 0.613507
Si Si2 0.101247 0.833648 0.235655
Si Si3 0.438019 0.991603 0.786253
Si Si4 0.025529 0.560624 0.839776
Si Si5 0.390635 0.004321 0.318198
Si Si6 0.555982 0.330437 0.609566
O O1 0.676161 0.471297 0.458145
O O2 0.680774 0.365100 0.583562
O O3 0.855141 0.509851 0.689891
O O4 0.162258 0.428130 0.739605
O O5 0.081617 0.852328 0.323274
O O6 0.248215 0.915746 0.268817
O O7 0.289416 0.755540 0.303120
O O8 0.781059 0.822830 0.054366
O O9 0.373970 0.899903 0.789915
O O10 0.540851 0.988629 0.743682
O O11 0.167197 0.050249 0.672725
O O12 0.320661 0.516911 0.996864
#
# Coordination Sequence:
#
# PCOD9242082 Si02
#       6
#     4   4   4   4   4   4
#     4  10  19  39  63  82 111 158 206 234 279 357
#     4  11  23  39  59  89 120 156 202 247 296 349
#     4  11  20  41  64  88 117 161 197 244 297 357
#     4  10  20  39  60  88 116 154 202 241 281 354
#     4  11  23  36  66  92 119 154 200 247 298 355
#     4  11  23  38  61  87 119 158 200 250 296 349
#
# _framework density 18.874779
#
# number of rings (size 3 to 8) (size 9 to 14) (size 15 to 20)
#    0.000    1.333    5.000    4.000    7.000    0.000 
#    0.000    3.333    0.000    0.000    0.000    0.000 
#    0.000    0.000    0.000    0.000    0.000    0.000 
#
# Total GULP energy -133863.931752 kJ/mol
# GULP energy per Si atom -5577.663823 kJ/mol
# Density = 1.883182 g / cm^3
# Si number density = 18.874779 Si / 1000 Ang^3
#
#
#
# Elastic Constant Matrix: (Units=GPa)
#
#
# Indices 1 2 3 4 5 6 
#
# 1 93.4059 18.7380 15.8413 0.0000 6.4247 0.0000
# 2 18.7380 78.7848 26.6262 0.0000 6.6950 0.0000
# 3 15.8413 26.6262 90.9776 0.0000 20.2307 0.0000
# 4 0.0000 0.0000 0.0000 18.2643 0.0000 9.2044
# 5 6.4247 6.6950 20.2307 0.0000 29.9537 0.0000
# 6 0.0000 0.0000 0.0000 9.2044 0.0000 21.7560
#
#
#
# Elastic Compliance Matrix: (Units=1/GPa)
#
#
# Indices 1 2 3 4 5 6 
#
# 1 0.011422 -0.002255 -0.001054 0.000000 -0.001234 0.000000
# 2 -0.002255 0.014536 -0.003820 0.000000 -0.000185 0.000000
# 3 -0.001054 -0.003820 0.014183 0.000000 -0.008499 0.000000
# 4 0.000000 0.000000 0.000000 0.069589 0.000000 -0.029441
# 5 -0.001234 -0.000185 -0.008499 0.000000 0.039431 0.000000
# 6 0.000000 0.000000 0.000000 -0.029441 0.000000 0.058420
#
#
# Mechanical properties :
#
#
# Convention : Reuss Voigt Hill
#
# Bulk Modulus (GPa) = 38.63818 42.84213 40.74016
# Shear Modulus (GPa) = 21.69482 27.45898 24.57690
#
# Velocity S-wave (km/s) = 3.39397 3.81832 3.61238
# Velocity P-wave (km/s) = 5.98949 6.49513 6.24743
#
# Compressibility (1/GPa) = 0.02588114
#
# Stress axis : x y z
#
# Youngs Moduli (GPa) = 87.54953 68.79427 70.50475
#
# Poissons Ratio (x) = 0.15516 0.07434
# Poissons Ratio (y) = 0.19746 0.26936
# Poissons Ratio (z) = 0.09232 0.26282
#
# Static dielectric constant tensor:
#      x y z
#    x 1.694980 0.000000 0.025660 
#    y 0.000000 1.669330 0.000000 
#    z 0.025660 0.000000 1.673850 
# 
# From -- ./inp_files/56122.got.cif
#   From: 2010.05.17/outbox.cif.g08.bks.cpg/sg14_29_cif.got.tgz:56122.got - 2010.06.03 17:49:19.
