data_PCOD9242094
_publ_section_title
;
Structure prediction by ZEFSAII (Michael W. Deem and Ramdas Pophale) SiO2 
 PCOD9242094
Probable space group: P 21/C
;
_chemical_formula_sum "Si O2"
_cell_formula_units_Z 28
_cell_length_a 10.583287
_cell_length_b 11.644219
_cell_length_c 10.284410
_cell_angle_alpha 90.000000
_cell_angle_beta 99.097442
_cell_angle_gamma 90.000000
_cell_volume 1251.447460
_symmetry_space_group_name_H-M "P 21/C"
_symmetry_group_IT_number 14
_symmetry_cell_setting 'monoclinic'
loop_
_space_group_symop_operation_xyz
x,y,z
-x,1/2+y,1/2-z
-x,-y,-z
x,1/2-y,1/2+z
loop_
_atom_site_type_symbol
_atom_site_label
_atom_site_fract_x
_atom_site_fract_y
_atom_site_fract_z
Si Si1 0.756684 0.326107 0.299990
Si Si2 0.549066 0.277882 0.597750
Si Si3 0.183978 0.358450 0.415164
Si Si4 0.977603 0.029495 0.710139
Si Si5 0.396801 0.292988 0.823879
Si Si6 0.977838 0.183355 0.452401
Si Si7 0.391737 0.023474 0.131423
O O1 0.686823 0.262738 0.168732
O O2 0.856973 0.423765 0.271103
O O3 0.839868 0.235386 0.394423
O O4 0.648267 0.391947 0.365018
O O5 0.452728 0.239829 0.699555
O O6 0.493979 0.221633 0.459165
O O7 0.523795 0.416874 0.601682
O O8 0.267894 0.271051 0.342527
O O9 0.282896 0.417860 0.526981
O O10 0.104820 0.446380 0.314000
O O11 0.078730 0.286204 0.476321
O O12 0.979309 0.110874 0.583583
O O13 0.978147 0.900506 0.657632
O O14 0.382460 0.424848 0.776951
#
# Coordination Sequence:
#
# PCOD9242094 Si02
#       7
#     4   4   4   4   4   4   4
#     4  11  23  42  65  92 129 173 209 271 320 385
#     4   9  22  40  63  96 125 172 213 264 322 385
#     4  10  19  39  63  91 125 171 209 273 319 381
#     4  10  23  38  61  94 127 169 215 268 324 380
#     4   9  19  40  63  92 129 166 213 268 315 388
#     4  10  23  40  62  93 128 167 219 267 323 385
#     4   9  21  38  62  92 122 164 216 256 319 383
#
# _framework density 22.374091
#
# number of rings (size 3 to 8) (size 9 to 14) (size 15 to 20)
#    0.857    1.429    0.000    1.714    2.000    6.286 
#    2.571    1.429    0.000    0.000    0.000    0.000 
#    0.000    0.000    0.000    0.000    0.000    0.000 
#
# Total GULP energy -156300.145812 kJ/mol
# GULP energy per Si atom -5582.148065 kJ/mol
# Density = 2.232317 g / cm^3
# Si number density = 22.374091 Si / 1000 Ang^3
#
#
#
# Elastic Constant Matrix: (Units=GPa)
#
#
# Indices 1 2 3 4 5 6 
#
# 1 72.9916 21.6496 31.6289 0.0000 16.0535 0.0000
# 2 21.6496 71.9417 23.2972 0.0000 15.2514 0.0000
# 3 31.6289 23.2972 101.9536 0.0000 14.6883 0.0000
# 4 0.0000 0.0000 0.0000 25.0653 0.0000 1.0041
# 5 16.0535 15.2514 14.6883 0.0000 35.7287 0.0000
# 6 0.0000 0.0000 0.0000 1.0041 0.0000 21.8209
#
#
#
# Elastic Compliance Matrix: (Units=1/GPa)
#
#
# Indices 1 2 3 4 5 6 
#
# 1 0.017382 -0.002884 -0.004024 0.000000 -0.004925 0.000000
# 2 -0.002884 0.016502 -0.002177 0.000000 -0.004853 0.000000
# 3 -0.004024 -0.002177 0.011862 0.000000 -0.002139 0.000000
# 4 0.000000 0.000000 0.000000 0.039969 0.000000 -0.001839
# 5 -0.004925 -0.004853 -0.002139 0.000000 0.033153 0.000000
# 6 0.000000 0.000000 0.000000 -0.001839 0.000000 0.045912
#
#
# Mechanical properties :
#
#
# Convention : Reuss Voigt Hill
#
# Bulk Modulus (GPa) = 36.26186 44.44872 40.35529
# Shear Modulus (GPa) = 26.02228 27.87707 26.94968
#
# Velocity S-wave (km/s) = 3.41406 3.53364 3.47436
# Velocity P-wave (km/s) = 5.63767 6.04633 5.84557
#
# Compressibility (1/GPa) = 0.02757718
#
# Stress axis : x y z
#
# Youngs Moduli (GPa) = 57.52939 60.59937 84.29984
#
# Poissons Ratio (x) = 0.17475 0.33922
# Poissons Ratio (y) = 0.16590 0.18352
# Poissons Ratio (z) = 0.23150 0.13192
#
# Static dielectric constant tensor:
#      x y z
#    x 1.851780 0.000000 -0.067780 
#    y 0.000000 1.881010 0.000000 
#    z -0.067780 0.000000 1.823740 
# 
# From -- ./inp_files/28686.got.cif
#   From: 2010.05.17/outbox.cif.g08.bks.cpg/sg14_15_cif.got.tgz:28686.got - 2010.06.03 17:49:19.
