data_PCOD9242886
_publ_section_title
;
Structure prediction by ZEFSAII (Michael W. Deem and Ramdas Pophale) SiO2 
 PCOD9242886
Probable space group: P 21/C
;
_chemical_formula_sum "Si O2"
_cell_formula_units_Z 26
_cell_length_a 6.874409
_cell_length_b 13.032759
_cell_length_c 14.658386
_cell_angle_alpha 90.000000
_cell_angle_beta 58.373210
_cell_angle_gamma 90.000000
_cell_volume 1118.235499
_symmetry_space_group_name_H-M "P 21/C"
_symmetry_group_IT_number 14
_symmetry_cell_setting 'monoclinic'
loop_
_space_group_symop_operation_xyz
x,y,z
-x,1/2+y,1/2-z
-x,-y,-z
x,1/2-y,1/2+z
loop_
_atom_site_type_symbol
_atom_site_label
_atom_site_fract_x
_atom_site_fract_y
_atom_site_fract_z
Si Si1 0.185185 0.808929 0.545267
Si Si2 0.154778 0.583344 0.562273
Si Si3 0.310451 0.315111 0.744666
Si Si4 0.000000 0.500000 0.000000
Si Si5 0.535961 0.887233 0.597303
Si Si6 0.493457 0.523098 0.628815
Si Si7 0.336610 0.415770 0.225393
O O1 0.157198 0.694360 0.513950
O O2 0.957588 0.825403 0.664233
O O3 0.165776 0.900016 0.478149
O O4 0.406546 0.821867 0.553863
O O5 0.343257 0.586616 0.596286
O O6 0.252403 0.494988 0.472853
O O7 0.916249 0.567856 0.670949
O O8 0.443589 0.331242 0.808590
O O9 0.383719 0.409752 0.664263
O O10 0.351560 0.202832 0.693720
O O11 0.206321 0.422787 0.984837
O O12 0.387573 0.991425 0.645413
O O13 0.498414 0.568262 0.728077
#
# Coordination Sequence:
#
# PCOD9242886 Si02
#       7
#     4   4   4   2   4   4   4
#     4  10  20  37  57  80 114 147 184 230 287 331
#     4  10  21  35  59  82 114 148 186 232 279 341
#     4   9  20  35  55  82 111 144 190 227 277 339
#     4  10  22  36  54  84 110 146 188 234 272 346
#     4  10  20  36  59  78 114 148 183 233 281 332
#     4  10  20  36  56  83 115 143 190 231 279 333
#     4  10  20  36  59  80 112 150 184 232 284 330
#
# _framework density 23.250917999999999
#
# number of rings (size 3 to 8) (size 9 to 14) (size 15 to 20)
#    0.000    2.154    0.000    2.769    2.154    0.000 
#    0.000    0.000    0.000    0.000    0.000    0.000 
#    0.000    0.000    0.000    0.000    0.000    0.000 
#
# Total GULP energy -144790.834041 kJ/mol
# GULP energy per Si atom -5568.878232 kJ/mol
# Density = 2.319800 g / cm^3
# Si number density = 23.250918 Si / 1000 Ang^3
#
#
#
# Elastic Constant Matrix: (Units=GPa)
#
#
# Indices 1 2 3 4 5 6 
#
# 1 76.0343 15.6730 13.8337 0.0000 -3.7568 0.0000
# 2 15.6730 83.2627 20.9959 0.0000 -8.3067 0.0000
# 3 13.8337 20.9959 51.6934 0.0000 -2.1268 0.0000
# 4 0.0000 0.0000 0.0000 25.9615 0.0000 4.3064
# 5 -3.7568 -8.3067 -2.1268 0.0000 21.7236 0.0000
# 6 0.0000 0.0000 0.0000 4.3064 0.0000 27.2568
#
#
#
# Elastic Compliance Matrix: (Units=1/GPa)
#
#
# Indices 1 2 3 4 5 6 
#
# 1 0.014134 -0.001754 -0.003009 0.000000 0.001479 0.000000
# 2 -0.001754 0.014073 -0.005058 0.000000 0.004583 0.000000
# 3 -0.003009 -0.005058 0.022193 0.000000 -0.000282 0.000000
# 4 0.000000 0.000000 0.000000 0.039555 0.000000 -0.006249
# 5 0.001479 0.004583 -0.000282 0.000000 0.048013 0.000000
# 6 0.000000 0.000000 0.000000 -0.006249 0.000000 0.037676
#
#
# Mechanical properties :
#
#
# Convention : Reuss Voigt Hill
#
# Bulk Modulus (GPa) = 32.51239 34.66617 33.58928
# Shear Modulus (GPa) = 24.32627 25.68756 25.00692
#
# Velocity S-wave (km/s) = 3.23809 3.32746 3.28308
# Velocity P-wave (km/s) = 5.29093 5.45019 5.37115
#
# Compressibility (1/GPa) = 0.03075750
#
# Stress axis : x y z
#
# Youngs Moduli (GPa) = 70.75087 71.05797 45.05954
#
# Poissons Ratio (x) = 0.12465 0.13559
# Poissons Ratio (y) = 0.12411 0.22791
# Poissons Ratio (z) = 0.21290 0.35941
#
# Static dielectric constant tensor:
#      x y z
#    x 1.813570 0.000000 0.003670 
#    y 0.000000 1.870300 0.000000 
#    z 0.003670 0.000000 1.934820 
# 
# From -- ./inp_files/47075.got.cif
#   From: 2010.05.17/outbox.cif.g08.bks.cpg/sg14_24_cif.got.tgz:47075.got - 2010.06.03 17:49:19.
