data_PCOD9242131
_publ_section_title
;
Structure prediction by ZEFSAII (Michael W. Deem and Ramdas Pophale) SiO2 
 PCOD9242131
Probable space group: P 21/C
;
_chemical_formula_sum "Si O2"
_cell_formula_units_Z 32
_cell_length_a 14.921846
_cell_length_b 8.354326
_cell_length_c 25.576378
_cell_angle_alpha 90.000000
_cell_angle_beta 153.826057
_cell_angle_gamma 90.000000
_cell_volume 1406.396761
_symmetry_space_group_name_H-M "P 21/C"
_symmetry_group_IT_number 14
_symmetry_cell_setting 'monoclinic'
loop_
_space_group_symop_operation_xyz
x,y,z
-x,1/2+y,1/2-z
-x,-y,-z
x,1/2-y,1/2+z
loop_
_atom_site_type_symbol
_atom_site_label
_atom_site_fract_x
_atom_site_fract_y
_atom_site_fract_z
Si Si1 0.855561 0.126193 0.318473
Si Si2 0.804169 0.304668 0.400204
Si Si3 0.721861 0.443293 0.136921
Si Si4 0.541908 0.364502 0.564874
Si Si5 0.434046 0.481458 0.197346
Si Si6 0.194062 0.207229 0.655548
Si Si7 0.190759 0.111473 0.408161
Si Si8 0.537845 0.548589 0.142542
O O1 0.847039 0.252365 0.362092
O O2 0.648106 0.099808 0.176242
O O3 0.029411 0.159202 0.366979
O O4 0.894321 0.951845 0.363775
O O5 0.664443 0.458984 0.337408
O O6 0.007054 0.315766 0.540186
O O7 0.670894 0.152204 0.350458
O O8 0.706212 0.254701 0.124131
O O9 0.881001 0.538836 0.185251
O O10 0.706076 0.483397 0.190114
O O11 0.500000 0.500000 0.000000
O O12 0.500000 0.500000 0.500000
O O13 0.341181 0.259512 0.473518
O O14 0.297335 0.358473 0.157110
O O15 0.470680 0.440045 0.156233
O O16 0.360502 0.295816 0.778542
O O17 0.324269 0.960019 0.500229
#
# Coordination Sequence:
#
# PCOD9242131 Si02
#       8
#     4   4   4   4   4   4   4   4
#     4  11  24  39  68  96 135 176 222 276 336 403
#     4  11  23  42  66  98 130 175 225 271 335 403
#     4   8  19  38  65  89 126 178 210 266 330 394
#     4  10  22  40  67  99 133 170 225 280 324 396
#     4  11  21  41  65  90 134 169 216 272 338 390
#     4  11  24  38  67 100 129 172 231 274 326 414
#     4  10  22  43  70  91 137 182 215 271 348 395
#     4  10  19  39  66  90 129 172 220 270 334 394
#
# _framework density 22.753181000000001
#
# number of rings (size 3 to 8) (size 9 to 14) (size 15 to 20)
#    0.000    2.000    1.250    4.500    5.250    1.500 
#    0.000    0.000    0.000    0.000    0.000    0.000 
#    0.000    0.000    0.000    0.000    0.000    0.000 
#
# Total GULP energy -178236.466607 kJ/mol
# GULP energy per Si atom -5569.889581 kJ/mol
# Density = 2.270139 g / cm^3
# Si number density = 22.753181 Si / 1000 Ang^3
#
#
#
# Elastic Constant Matrix: (Units=GPa)
#
#
# Indices 1 2 3 4 5 6 
#
# 1 161.2157 31.2262 23.4266 0.0000 0.9828 0.0000
# 2 31.2262 52.0941 23.4186 0.0000 2.6585 0.0000
# 3 23.4266 23.4186 50.6483 0.0000 0.4819 0.0000
# 4 0.0000 0.0000 0.0000 32.1665 0.0000 -3.1361
# 5 0.9828 2.6585 0.4819 0.0000 31.3909 0.0000
# 6 0.0000 0.0000 0.0000 -3.1361 0.0000 34.1845
#
#
#
# Elastic Compliance Matrix: (Units=1/GPa)
#
#
# Indices 1 2 3 4 5 6 
#
# 1 0.007128 -0.003529 -0.001666 0.000000 0.000101 0.000000
# 2 -0.003529 0.026091 -0.010413 0.000000 -0.001939 0.000000
# 3 -0.001666 -0.010413 0.025324 0.000000 0.000545 0.000000
# 4 0.000000 0.000000 0.000000 0.031369 0.000000 0.002878
# 5 0.000101 -0.001939 0.000545 0.000000 0.032009 0.000000
# 6 0.000000 0.000000 0.000000 0.002878 0.000000 0.029517
#
#
# Mechanical properties :
#
#
# Convention : Reuss Voigt Hill
#
# Bulk Modulus (GPa) = 36.59396 46.67787 41.63591
# Shear Modulus (GPa) = 26.07363 31.94082 29.00723
#
# Velocity S-wave (km/s) = 3.38884 3.75079 3.57440
# Velocity P-wave (km/s) = 5.60626 6.27035 5.94758
#
# Compressibility (1/GPa) = 0.02732692
#
# Stress axis : x y z
#
# Youngs Moduli (GPa) = 140.29459 38.32670 39.48751
#
# Poissons Ratio (x) = 0.13524 0.06580
# Poissons Ratio (y) = 0.49505 0.41120
# Poissons Ratio (z) = 0.23377 0.39911
#
# Static dielectric constant tensor:
#      x y z
#    x 1.898800 0.000000 -0.033890 
#    y 0.000000 1.914730 0.000000 
#    z -0.033890 0.000000 1.968630 
# 
# From -- ./inp_files/73870.got.cif
#   From: 2010.05.17/outbox.cif.g08.bks.cpg/sg14_37_cif.got.tgz:73870.got - 2010.06.03 17:49:19.
