data_PCOD9242377
_publ_section_title
;
Structure prediction by ZEFSAII (Michael W. Deem and Ramdas Pophale) SiO2 
 PCOD9242377
Probable space group: P 21/C
;
_chemical_formula_sum "Si O2"
_cell_formula_units_Z 32
_cell_length_a 11.603228
_cell_length_b 27.389031
_cell_length_c 5.020565
_cell_angle_alpha 90.000000
_cell_angle_beta 100.043037
_cell_angle_gamma 90.000000
_cell_volume 1571.093023
_symmetry_space_group_name_H-M "P 21/C"
_symmetry_group_IT_number 14
_symmetry_cell_setting 'monoclinic'
loop_
_space_group_symop_operation_xyz
x,y,z
-x,1/2+y,1/2-z
-x,-y,-z
x,1/2-y,1/2+z
loop_
_atom_site_type_symbol
_atom_site_label
_atom_site_fract_x
_atom_site_fract_y
_atom_site_fract_z
Si Si1 0.748483 0.220619 0.186379
Si Si2 0.907591 0.955257 0.008890
Si Si3 0.489865 0.455374 0.287538
Si Si4 0.212931 0.589814 0.065471
Si Si5 0.705278 0.505630 0.101977
Si Si6 0.657645 0.123884 0.893080
Si Si7 0.953463 0.888938 0.524831
Si Si8 0.030583 0.281833 0.812514
O O1 0.723673 0.233957 0.480471
O O2 0.888654 0.211030 0.234729
O O3 0.676443 0.176617 0.028250
O O4 0.777694 0.972684 0.872951
O O5 0.945416 0.915485 0.804718
O O6 0.901796 0.926935 0.287522
O O7 0.000000 0.000000 0.000000
O O8 0.500000 0.500000 0.500000
O O9 0.594983 0.471150 0.131750
O O10 0.532699 0.401981 0.391703
O O11 0.362601 0.455335 0.104663
O O12 0.255298 0.592528 0.385129
O O13 0.207750 0.532328 0.001752
O O14 0.297715 0.617893 0.891720
O O15 0.087651 0.613590 0.984990
O O16 0.915944 0.832947 0.562017
O O17 0.060436 0.261005 0.534065
#
# Coordination Sequence:
#
# PCOD9242377 Si02
#       8
#     4   4   4   4   4   4   4   4
#     4  10  20  32  51  80 112 145 181 232 291 347
#     4  12  26  37  58  85 125 161 193 233 282 348
#     4  10  21  37  61  79 114 153 191 241 280 335
#     4  11  21  33  57  79 123 150 192 225 275 346
#     4  10  23  38  53  86 116 153 200 232 276 336
#     4  11  21  34  55  84 110 154 184 234 285 342
#     4  12  24  38  56  87 117 165 190 232 299 341
#     4  10  21  35  56  80 113 150 196 241 285 345
#
# _framework density 20.367984
#
# number of rings (size 3 to 8) (size 9 to 14) (size 15 to 20)
#    0.000    1.250    3.750    2.625    7.000    0.000 
#    0.000    0.000    0.000    0.000    0.000    5.250 
#    0.000    0.000    0.000    0.000    0.000    0.000 
#
# Total GULP energy -178398.890363 kJ/mol
# GULP energy per Si atom -5574.965324 kJ/mol
# Density = 2.032163 g / cm^3
# Si number density = 20.367984 Si / 1000 Ang^3
#
#
#
# Elastic Constant Matrix: (Units=GPa)
#
#
# Indices 1 2 3 4 5 6 
#
# 1 25.1453 9.2272 15.2268 0.0000 7.5973 0.0000
# 2 9.2272 96.7207 17.4360 0.0000 7.5022 0.0000
# 3 15.2268 17.4360 71.0526 0.0000 9.3622 0.0000
# 4 0.0000 0.0000 0.0000 43.1653 0.0000 3.1970
# 5 7.5973 7.5022 9.3622 0.0000 28.4159 0.0000
# 6 0.0000 0.0000 0.0000 3.1970 0.0000 16.3332
#
#
#
# Elastic Compliance Matrix: (Units=1/GPa)
#
#
# Indices 1 2 3 4 5 6 
#
# 1 0.048736 -0.002356 -0.008605 0.000000 -0.009573 0.000000
# 2 -0.002356 0.011049 -0.001992 0.000000 -0.001631 0.000000
# 3 -0.008605 -0.001992 0.016762 0.000000 -0.002696 0.000000
# 4 0.000000 0.000000 0.000000 0.023508 0.000000 -0.004601
# 5 -0.009573 -0.001631 -0.002696 0.000000 0.039070 0.000000
# 6 0.000000 0.000000 0.000000 -0.004601 0.000000 0.062126
#
#
# Mechanical properties :
#
#
# Convention : Reuss Voigt Hill
#
# Bulk Modulus (GPa) = 19.74596 30.74430 25.24513
# Shear Modulus (GPa) = 20.48872 27.65145 24.07008
#
# Velocity S-wave (km/s) = 3.17508 3.68855 3.44140
# Velocity P-wave (km/s) = 4.81219 5.76782 5.31154
#
# Compressibility (1/GPa) = 0.05064327
#
# Stress axis : x y z
#
# Youngs Moduli (GPa) = 20.51857 90.50308 59.65821
#
# Poissons Ratio (x) = 0.21320 0.51335
# Poissons Ratio (y) = 0.04834 0.11882
# Poissons Ratio (z) = 0.17656 0.18026
#
# Static dielectric constant tensor:
#      x y z
#    x 1.769710 0.000000 -0.016120 
#    y 0.000000 1.830830 0.000000 
#    z -0.016120 0.000000 1.765950 
# 
# From -- ./inp_files/3299.got.cif
#   From: 2010.05.17/outbox.cif.g08.bks.cpg/sg14_2_cif.got.tgz:3299.got - 2010.06.03 17:49:19.
