data_PCOD9242067
_publ_section_title
;
Structure prediction by ZEFSAII (Michael W. Deem and Ramdas Pophale) SiO2 
 PCOD9242067
Probable space group: P 21/C
;
_chemical_formula_sum "Si O2"
_cell_formula_units_Z 32
_cell_length_a 15.451641
_cell_length_b 9.415829
_cell_length_c 10.813038
_cell_angle_alpha 90.000000
_cell_angle_beta 62.123642
_cell_angle_gamma 90.000000
_cell_volume 1390.634005
_symmetry_space_group_name_H-M "P 21/C"
_symmetry_group_IT_number 14
_symmetry_cell_setting 'monoclinic'
loop_
_space_group_symop_operation_xyz
x,y,z
-x,1/2+y,1/2-z
-x,-y,-z
x,1/2-y,1/2+z
loop_
_atom_site_type_symbol
_atom_site_label
_atom_site_fract_x
_atom_site_fract_y
_atom_site_fract_z
Si Si1 0.414908 0.159787 0.452316
Si Si2 0.208683 0.008794 0.898875
Si Si3 0.948258 0.072575 0.188150
Si Si4 0.830664 0.043110 0.619536
Si Si5 0.022670 0.146545 0.635242
Si Si6 0.370958 0.631543 0.115326
Si Si7 0.213760 0.758844 0.055121
Si Si8 0.691959 0.794939 0.737852
O O1 0.530113 0.188818 0.390653
O O2 0.359487 0.243605 0.600610
O O3 0.376707 0.186345 0.338544
O O4 0.397839 0.994924 0.500943
O O5 0.110300 0.961367 0.895090
O O6 0.301042 0.937621 0.764842
O O7 0.232816 0.172690 0.858896
O O8 0.202397 0.924279 0.031451
O O9 0.035563 0.184949 0.121326
O O10 0.873675 0.167744 0.322538
O O11 0.974442 0.924282 0.232694
O O12 0.748406 0.940828 0.728593
O O13 0.891386 0.935965 0.491054
O O14 0.918642 0.107215 0.642262
O O15 0.780584 0.170439 0.576991
O O16 0.306918 0.740682 0.079895
#
# Coordination Sequence:
#
# PCOD9242067 Si02
#       8
#     4   4   4   4   4   4   4   4
#     4  10  22  41  65  97 125 166 209 256 315 378
#     4  10  22  39  61  89 128 159 210 264 314 371
#     4  10  22  37  59  87 121 161 209 263 317 375
#     4  10  21  39  61  83 120 163 208 254 317 383
#     4  10  22  38  58  87 117 162 215 257 314 380
#     4   9  20  40  65  84 124 172 200 248 319 386
#     4  10  19  39  61  85 117 165 207 246 318 380
#     4  11  24  41  65  95 130 163 212 262 316 374
#
# _framework density 23.011087
#
# number of rings (size 3 to 8) (size 9 to 14) (size 15 to 20)
#    0.000    2.000    2.500    0.000    5.250    2.000 
#    0.000    1.875    0.000    0.000    0.000    0.000 
#    0.000    0.000    0.000    0.000    0.000    0.000 
#
# Total GULP energy -178775.983641 kJ/mol
# GULP energy per Si atom -5586.749489 kJ/mol
# Density = 2.295871 g / cm^3
# Si number density = 23.011087 Si / 1000 Ang^3
#
#
#
# Elastic Constant Matrix: (Units=GPa)
#
#
# Indices 1 2 3 4 5 6 
#
# 1 66.0813 10.7713 27.8699 0.0000 -2.3903 0.0000
# 2 10.7713 95.5409 12.5654 0.0000 7.7150 0.0000
# 3 27.8699 12.5654 53.7729 0.0000 7.5532 0.0000
# 4 0.0000 0.0000 0.0000 36.7783 0.0000 6.0830
# 5 -2.3903 7.7150 7.5532 0.0000 28.2343 0.0000
# 6 0.0000 0.0000 0.0000 6.0830 0.0000 29.6265
#
#
#
# Elastic Compliance Matrix: (Units=1/GPa)
#
#
# Indices 1 2 3 4 5 6 
#
# 1 0.020070 -0.001240 -0.010805 0.000000 0.004928 0.000000
# 2 -0.001240 0.011029 -0.001555 0.000000 -0.002703 0.000000
# 3 -0.010805 -0.001555 0.025590 0.000000 -0.007336 0.000000
# 4 0.000000 0.000000 0.000000 0.028146 0.000000 -0.005779
# 5 0.004928 -0.002703 -0.007336 0.000000 0.038536 0.000000
# 6 0.000000 0.000000 0.000000 -0.005779 0.000000 0.034940
#
#
# Mechanical properties :
#
#
# Convention : Reuss Voigt Hill
#
# Bulk Modulus (GPa) = 33.90878 35.31203 34.61041
# Shear Modulus (GPa) = 25.59628 29.87373 27.73500
#
# Velocity S-wave (km/s) = 3.33880 3.60701 3.47549
# Velocity P-wave (km/s) = 5.44346 5.72069 5.58380
#
# Compressibility (1/GPa) = 0.02949088
#
# Stress axis : x y z
#
# Youngs Moduli (GPa) = 49.82540 90.66799 39.07710
#
# Poissons Ratio (x) = 0.11240 0.42221
# Poissons Ratio (y) = 0.06177 0.06077
# Poissons Ratio (z) = 0.53835 0.14100
#
# Static dielectric constant tensor:
#      x y z
#    x 1.826470 0.000000 -0.044220 
#    y 0.000000 1.857020 0.000000 
#    z -0.044220 0.000000 1.946320 
# 
# From -- ./inp_files/31784.got.cif
#   From: 2010.05.17/outbox.cif.g08.bks.cpg/sg14_16_cif.got.tgz:31784.got - 2010.06.03 17:49:19.
