data_PCOD9242552
_publ_section_title
;
Structure prediction by ZEFSAII (Michael W. Deem and Ramdas Pophale) SiO2 
 PCOD9242552
Probable space group: P 21/C
;
_chemical_formula_sum "Si O2"
_cell_formula_units_Z 32
_cell_length_a 6.858038
_cell_length_b 14.149161
_cell_length_c 15.221481
_cell_angle_alpha 90.000000
_cell_angle_beta 93.794773
_cell_angle_gamma 90.000000
_cell_volume 1473.785414
_symmetry_space_group_name_H-M "P 21/C"
_symmetry_group_IT_number 14
_symmetry_cell_setting 'monoclinic'
loop_
_space_group_symop_operation_xyz
x,y,z
-x,1/2+y,1/2-z
-x,-y,-z
x,1/2-y,1/2+z
loop_
_atom_site_type_symbol
_atom_site_label
_atom_site_fract_x
_atom_site_fract_y
_atom_site_fract_z
Si Si1 0.187582 0.925605 0.575918
Si Si2 0.983862 0.432466 0.299143
Si Si3 0.330270 0.491575 0.606754
Si Si4 0.124407 0.581671 0.888582
Si Si5 0.461435 0.342996 0.471978
Si Si6 0.943484 0.768227 0.072931
Si Si7 0.833926 0.204109 0.091641
Si Si8 0.679011 0.433946 0.732291
O O1 0.263995 0.930225 0.477810
O O2 0.325141 0.912936 0.664294
O O3 0.038943 0.835704 0.575111
O O4 0.064780 0.020905 0.589665
O O5 0.890673 0.498177 0.370731
O O6 0.841494 0.446284 0.211006
O O7 0.994485 0.328666 0.340375
O O8 0.197431 0.469723 0.279721
O O9 0.356251 0.428975 0.520995
O O10 0.414835 0.597731 0.595399
O O11 0.468198 0.442880 0.682785
O O12 0.091720 0.693028 0.879406
O O13 0.291522 0.273215 0.436856
O O14 0.619235 0.293942 0.539656
O O15 0.026454 0.819437 0.987030
O O16 0.801417 0.140901 0.176874
#
# Coordination Sequence:
#
# PCOD9242552 Si02
#       8
#     4   4   4   4   4   4   4   4
#     4   9  20  39  59  79 109 155 200 237 275 324
#     4  11  20  34  59  86 113 151 187 226 289 345
#     4  10  20  34  55  88 119 143 179 228 290 348
#     4   9  20  39  58  77 109 154 199 234 270 327
#     4  10  20  34  55  88 119 143 178 231 289 350
#     4  11  20  34  59  86 115 149 186 230 286 342
#     4  10  20  36  58  84 116 147 183 232 292 338
#     4  10  20  36  58  84 117 145 181 237 288 339
#
# _framework density 21.712793999999999
#
# number of rings (size 3 to 8) (size 9 to 14) (size 15 to 20)
#    0.000    2.000    2.500    1.500    0.000    1.000 
#    0.000   12.500    5.500    0.000    0.000    0.000 
#    0.000    0.000    0.000    0.000    0.000    0.000 
#
# Total GULP energy -178222.608508 kJ/mol
# GULP energy per Si atom -5569.456516 kJ/mol
# Density = 2.166338 g / cm^3
# Si number density = 21.712794 Si / 1000 Ang^3
#
#
#
# Elastic Constant Matrix: (Units=GPa)
#
#
# Indices 1 2 3 4 5 6 
#
# 1 36.2645 -5.7588 -21.3520 0.0000 1.7333 0.0000
# 2 -5.7588 72.2007 3.3214 0.0000 4.2574 0.0000
# 3 -21.3520 3.3214 76.1038 0.0000 -1.1896 0.0000
# 4 0.0000 0.0000 0.0000 26.1250 0.0000 3.4992
# 5 1.7333 4.2574 -1.1896 0.0000 17.6643 0.0000
# 6 0.0000 0.0000 0.0000 3.4992 0.0000 6.8275
#
#
#
# Elastic Compliance Matrix: (Units=1/GPa)
#
#
# Indices 1 2 3 4 5 6 
#
# 1 0.033572 0.002444 0.009262 0.000000 -0.003260 0.000000
# 2 0.002444 0.014262 0.000006 0.000000 -0.003677 0.000000
# 3 0.009262 0.000006 0.015740 0.000000 0.000150 0.000000
# 4 0.000000 0.000000 0.000000 0.041099 0.000000 -0.021064
# 5 -0.003260 -0.003677 0.000150 0.000000 0.057828 0.000000
# 6 0.000000 0.000000 0.000000 -0.021064 0.000000 0.157263
#
#
# Mechanical properties :
#
#
# Convention : Reuss Voigt Hill
#
# Bulk Modulus (GPa) = 11.49470 15.22115 13.35792
# Shear Modulus (GPa) = 15.36853 24.01390 19.69121
#
# Velocity S-wave (km/s) = 2.66336 3.32923 3.01474
# Velocity P-wave (km/s) = 3.84232 4.66946 4.27594
#
# Compressibility (1/GPa) = 0.08699665
#
# Stress axis : x y z
#
# Youngs Moduli (GPa) = 29.78665 70.11766 63.53039
#
# Poissons Ratio (x) = -0.17136 -0.58839
# Poissons Ratio (y) = -0.07279 -0.00037
# Poissons Ratio (z) = -0.27587 -0.00040
#
# Static dielectric constant tensor:
#      x y z
#    x 1.778780 0.000000 0.018120 
#    y 0.000000 1.808910 0.000000 
#    z 0.018120 0.000000 1.866020 
# 
# From -- ./inp_files/40973.got.cif
#   From: 2010.05.17/outbox.cif.g08.bks.cpg/sg14_21_cif.got.tgz:40973.got - 2010.06.03 17:49:19.
