data_PCOD9242239
_publ_section_title
;
Structure prediction by ZEFSAII (Michael W. Deem and Ramdas Pophale) SiO2 
 PCOD9242239
Probable space group: P 21/C
;
_chemical_formula_sum "Si O2"
_cell_formula_units_Z 20
_cell_length_a 17.145152
_cell_length_b 6.895487
_cell_length_c 13.995250
_cell_angle_alpha 90.000000
_cell_angle_beta 145.952416
_cell_angle_gamma 90.000000
_cell_volume 926.366514
_symmetry_space_group_name_H-M "P 21/C"
_symmetry_group_IT_number 14
_symmetry_cell_setting 'monoclinic'
loop_
_space_group_symop_operation_xyz
x,y,z
-x,1/2+y,1/2-z
-x,-y,-z
x,1/2-y,1/2+z
loop_
_atom_site_type_symbol
_atom_site_label
_atom_site_fract_x
_atom_site_fract_y
_atom_site_fract_z
Si Si1 0.696755 0.788225 0.329324
Si Si2 0.058241 0.025608 0.953337
Si Si3 0.238815 0.547068 0.930156
Si Si4 0.567011 0.819637 0.512640
Si Si5 0.323333 0.637166 0.632656
O O1 0.852599 0.722085 0.459806
O O2 0.710309 0.954044 0.419519
O O3 0.825381 0.367414 0.461342
O O4 0.616374 0.819057 0.148376
O O5 0.926508 0.037423 0.750102
O O6 0.359655 0.093467 0.172732
O O7 0.000000 0.000000 0.000000
O O8 0.304927 0.416289 0.914251
O O9 0.295139 0.766889 0.001035
O O10 0.448431 0.762375 0.317435
O O11 0.500000 0.000000 0.500000
#
# Coordination Sequence:
#
# PCOD9242239 Si02
#       5
#     4   4   4   4   4
#     4   9  22  39  60  87 121 154 199 239 300 346
#     4  10  19  41  61  84 122 159 188 249 298 338
#     4  12  21  39  66  85 121 160 199 242 293 358
#     4  10  21  41  58  87 123 155 193 250 298 340
#     4   9  23  36  60  90 116 158 200 238 297 349
#
# _framework density 21.589727
#
# number of rings (size 3 to 8) (size 9 to 14) (size 15 to 20)
#    1.200    0.800    2.000    1.200    5.600    0.800 
#    0.000    7.000    0.000    0.000    0.000    0.000 
#    0.000    0.000    0.000    0.000    0.000    0.000 
#
# Total GULP energy -111371.617819 kJ/mol
# GULP energy per Si atom -5568.580891 kJ/mol
# Density = 2.154059 g / cm^3
# Si number density = 21.589727 Si / 1000 Ang^3
#
#
#
# Elastic Constant Matrix: (Units=GPa)
#
#
# Indices 1 2 3 4 5 6 
#
# 1 58.7038 -0.5411 13.9943 0.0000 5.0313 0.0000
# 2 -0.5411 25.8526 25.1499 0.0000 2.3476 0.0000
# 3 13.9943 25.1499 154.8532 0.0000 23.6695 0.0000
# 4 0.0000 0.0000 0.0000 35.9213 0.0000 -7.0976
# 5 5.0313 2.3476 23.6695 0.0000 26.5057 0.0000
# 6 0.0000 0.0000 0.0000 -7.0976 0.0000 15.7576
#
#
#
# Elastic Compliance Matrix: (Units=1/GPa)
#
#
# Indices 1 2 3 4 5 6 
#
# 1 0.017619 0.002134 -0.001620 0.000000 -0.002087 0.000000
# 2 0.002134 0.046405 -0.008152 0.000000 0.002765 0.000000
# 3 -0.001620 -0.008152 0.008999 0.000000 -0.007007 0.000000
# 4 0.000000 0.000000 0.000000 0.030558 0.000000 0.013764
# 5 -0.002087 0.002765 -0.007007 0.000000 0.044136 0.000000
# 6 0.000000 0.000000 0.000000 0.013764 0.000000 0.069661
#
#
# Mechanical properties :
#
#
# Convention : Reuss Voigt Hill
#
# Bulk Modulus (GPa) = 17.31672 35.17956 26.24814
# Shear Modulus (GPa) = 19.84885 29.02402 24.43643
#
# Velocity S-wave (km/s) = 3.03539 3.67051 3.36795
# Velocity P-wave (km/s) = 4.50811 5.85606 5.22573
#
# Compressibility (1/GPa) = 0.05774766
#
# Stress axis : x y z
#
# Youngs Moduli (GPa) = 56.75575 21.54939 111.12240
#
# Poissons Ratio (x) = -0.04599 0.18001
# Poissons Ratio (y) = -0.12112 0.90588
# Poissons Ratio (z) = 0.09194 0.17567
#
# Static dielectric constant tensor:
#      x y z
#    x 1.715970 0.000000 -0.075370 
#    y 0.000000 2.189350 0.000000 
#    z -0.075370 0.000000 1.733870 
# 
# From -- ./inp_files/33615.got.cif
#   From: 2010.05.17/outbox.cif.g08.bks.cpg/sg14_17_cif.got.tgz:33615.got - 2010.06.03 17:49:19.
