data_PCOD9242339
_publ_section_title
;
Structure prediction by ZEFSAII (Michael W. Deem and Ramdas Pophale) SiO2 
 PCOD9242339
Probable space group: P 21/C
;
_chemical_formula_sum "Si O2"
_cell_formula_units_Z 32
_cell_length_a 11.803199
_cell_length_b 30.225805
_cell_length_c 5.049498
_cell_angle_alpha 90.000000
_cell_angle_beta 103.633425
_cell_angle_gamma 90.000000
_cell_volume 1750.706232
_symmetry_space_group_name_H-M "P 21/C"
_symmetry_group_IT_number 14
_symmetry_cell_setting 'monoclinic'
loop_
_space_group_symop_operation_xyz
x,y,z
-x,1/2+y,1/2-z
-x,-y,-z
x,1/2-y,1/2+z
loop_
_atom_site_type_symbol
_atom_site_label
_atom_site_fract_x
_atom_site_fract_y
_atom_site_fract_z
Si Si1 0.249811 0.886718 0.241688
Si Si2 0.337965 0.280391 0.120712
Si Si3 0.637556 0.278965 0.687979
Si Si4 0.502958 0.349019 0.940537
Si Si5 0.530836 0.555747 0.212968
Si Si6 0.934800 0.780525 0.572338
Si Si7 0.147677 0.658933 0.178301
Si Si8 0.380634 0.966921 0.128891
O O1 0.380051 0.865777 0.343947
O O2 0.185495 0.876890 0.480567
O O3 0.273868 0.937115 0.168220
O O4 0.178618 0.861398 0.978335
O O5 0.358544 0.241266 0.917534
O O6 0.417389 0.321260 0.078615
O O7 0.201493 0.292490 0.023931
O O8 0.622687 0.261757 0.382952
O O9 0.551605 0.317351 0.736770
O O10 0.765805 0.299022 0.803850
O O11 0.442680 0.392417 0.783320
O O12 0.627383 0.520035 0.354413
O O13 0.425107 0.547889 0.364233
O O14 0.484977 0.544083 0.893856
O O15 0.957765 0.743149 0.364226
O O16 0.018658 0.822176 0.581784
#
# Coordination Sequence:
#
# PCOD9242339 Si02
#       8
#     4   4   4   4   4   4   4   4
#     4  10  20  30  49  73 100 121 147 195 242 290
#     4  10  22  36  51  68  94 131 165 201 233 268
#     4  11  20  28  41  62  92 121 143 181 229 273
#     4  10  20  33  47  72  98 125 159 190 233 286
#     4   9  18  28  48  65  95 129 155 189 222 280
#     4  10  20  36  52  67  91 125 168 205 230 267
#     4  11  20  32  48  70  92 123 159 193 236 281
#     4   9  16  31  44  69  96 125 154 182 235 283
#
# _framework density 18.278338000000002
#
# number of rings (size 3 to 8) (size 9 to 14) (size 15 to 20)
#    0.000    2.000    0.000    6.000    0.000    5.000 
#    0.000    0.000    0.000    0.000    0.000    1.750 
#    0.000    0.000    0.000    0.750    0.000    0.000 
#
# Total GULP energy -178690.994270 kJ/mol
# GULP energy per Si atom -5584.093571 kJ/mol
# Density = 1.823674 g / cm^3
# Si number density = 18.278338 Si / 1000 Ang^3
#
#
#
# Elastic Constant Matrix: (Units=GPa)
#
#
# Indices 1 2 3 4 5 6 
#
# 1 54.5269 10.9509 11.9896 0.0000 -1.9988 0.0000
# 2 10.9509 69.2524 7.9414 0.0000 -3.1883 0.0000
# 3 11.9896 7.9414 64.4995 0.0000 -8.9237 0.0000
# 4 0.0000 0.0000 0.0000 17.6352 0.0000 -5.0339
# 5 -1.9988 -3.1883 -8.9237 0.0000 14.5534 0.0000
# 6 0.0000 0.0000 0.0000 -5.0339 0.0000 15.3982
#
#
#
# Elastic Compliance Matrix: (Units=1/GPa)
#
#
# Indices 1 2 3 4 5 6 
#
# 1 0.019614 -0.002720 -0.003301 0.000000 0.000074 0.000000
# 2 -0.002720 0.015094 -0.001035 0.000000 0.002299 0.000000
# 3 -0.003301 -0.001035 0.017648 0.000000 0.010141 0.000000
# 4 0.000000 0.000000 0.000000 0.062541 0.000000 0.020445
# 5 0.000074 0.002299 0.010141 0.000000 0.075444 0.000000
# 6 0.000000 0.000000 0.000000 0.020445 0.000000 0.071626
#
#
# Mechanical properties :
#
#
# Convention : Reuss Voigt Hill
#
# Bulk Modulus (GPa) = 26.14661 27.78249 26.96455
# Shear Modulus (GPa) = 17.31135 20.01050 18.66093
#
# Velocity S-wave (km/s) = 3.08083 3.31231 3.19867
# Velocity P-wave (km/s) = 5.19530 5.46454 5.33162
#
# Compressibility (1/GPa) = 0.03824588
#
# Stress axis : x y z
#
# Youngs Moduli (GPa) = 50.98313 66.24932 56.66340
#
# Poissons Ratio (x) = 0.18018 0.18704
# Poissons Ratio (y) = 0.13866 0.05864
# Poissons Ratio (z) = 0.16829 0.06856
#
# Static dielectric constant tensor:
#      x y z
#    x 1.630680 0.000000 -0.001900 
#    y 0.000000 1.673980 0.000000 
#    z -0.001900 0.000000 1.643430 
# 
# From -- ./inp_files/3347.got.cif
#   From: 2010.05.17/outbox.cif.g08.bks.cpg/sg14_2_cif.got.tgz:3347.got - 2010.06.03 17:49:19.
