data_PCOD9242717
_publ_section_title
;
Structure prediction by ZEFSAII (Michael W. Deem and Ramdas Pophale) SiO2 
 PCOD9242717
Probable space group: P 21/C
;
_chemical_formula_sum "Si O2"
_cell_formula_units_Z 28
_cell_length_a 6.680484
_cell_length_b 7.773054
_cell_length_c 28.470358
_cell_angle_alpha 90.000000
_cell_angle_beta 119.115779
_cell_angle_gamma 90.000000
_cell_volume 1291.588543
_symmetry_space_group_name_H-M "P 21/C"
_symmetry_group_IT_number 14
_symmetry_cell_setting 'monoclinic'
loop_
_space_group_symop_operation_xyz
x,y,z
-x,1/2+y,1/2-z
-x,-y,-z
x,1/2-y,1/2+z
loop_
_atom_site_type_symbol
_atom_site_label
_atom_site_fract_x
_atom_site_fract_y
_atom_site_fract_z
Si Si1 0.722124 0.449618 0.197331
Si Si2 0.226518 0.546421 0.145891
Si Si3 0.019990 0.217899 0.811726
Si Si4 0.296998 0.464028 0.423989
Si Si5 0.258803 0.642904 0.904937
Si Si6 0.741710 0.969743 0.451283
Si Si7 0.233258 0.093901 0.020462
O O1 0.462706 0.453229 0.186971
O O2 0.811820 0.636695 0.190473
O O3 0.723512 0.338418 0.149641
O O4 0.897782 0.380766 0.255733
O O5 0.275158 0.586560 0.096907
O O6 0.171048 0.690616 0.177466
O O7 0.987416 0.442349 0.115109
O O8 0.156435 0.099970 0.863844
O O9 0.259432 0.669115 0.428247
O O10 0.565879 0.461256 0.445095
O O11 0.249958 0.362221 0.466730
O O12 0.482571 0.526799 0.944325
O O13 0.747692 0.762181 0.445438
O O14 0.000000 0.000000 0.500000
O O15 0.000000 0.000000 0.000000
#
# Coordination Sequence:
#
# PCOD9242717 Si02
#       7
#     4   4   4   4   4   4   4
#     4  10  23  41  60  87 116 152 195 242 299 348
#     4  10  22  39  59  86 116 152 195 239 294 349
#     4  11  23  39  61  85 116 151 194 245 290 351
#     4  10  21  37  58  86 117 155 195 236 291 345
#     4   9  20  39  58  82 119 154 194 244 289 347
#     4  10  20  35  57  86 119 156 196 238 289 344
#     4  10  21  36  57  86 119 154 193 238 288 345
#
# _framework density 21.678732
#
# number of rings (size 3 to 8) (size 9 to 14) (size 15 to 20)
#    0.000    2.000    0.000    2.571    0.000    8.571 
#    0.000    0.000    0.000    0.000    0.000    0.000 
#    0.000    0.000    0.000    0.000    0.000    0.000 
#
# Total GULP energy -156086.699858 kJ/mol
# GULP energy per Si atom -5574.524995 kJ/mol
# Density = 2.162939 g / cm^3
# Si number density = 21.678732 Si / 1000 Ang^3
#
#
#
# Elastic Constant Matrix: (Units=GPa)
#
#
# Indices 1 2 3 4 5 6 
#
# 1 114.7216 31.8901 31.8271 0.0000 21.5114 0.0000
# 2 31.8901 41.2429 17.3559 0.0000 -1.9632 0.0000
# 3 31.8271 17.3559 136.5288 0.0000 10.1661 0.0000
# 4 0.0000 0.0000 0.0000 36.0100 0.0000 6.1621
# 5 21.5114 -1.9632 10.1661 0.0000 37.9666 0.0000
# 6 0.0000 0.0000 0.0000 6.1621 0.0000 17.7750
#
#
#
# Elastic Compliance Matrix: (Units=1/GPa)
#
#
# Indices 1 2 3 4 5 6 
#
# 1 0.013339 -0.010161 -0.001241 0.000000 -0.007751 0.000000
# 2 -0.010161 0.033545 -0.002503 0.000000 0.008162 0.000000
# 3 -0.001241 -0.002503 0.008050 0.000000 -0.001582 0.000000
# 4 0.000000 0.000000 0.000000 0.029521 0.000000 -0.010234
# 5 -0.007751 0.008162 -0.001582 0.000000 0.031576 0.000000
# 6 0.000000 0.000000 0.000000 -0.010234 0.000000 0.059807
#
#
# Mechanical properties :
#
#
# Convention : Reuss Voigt Hill
#
# Bulk Modulus (GPa) = 36.86783 50.51550 43.69167
# Shear Modulus (GPa) = 23.50854 32.44499 27.97676
#
# Velocity S-wave (km/s) = 3.29660 3.87282 3.59627
# Velocity P-wave (km/s) = 5.61547 6.58413 6.11900
#
# Compressibility (1/GPa) = 0.02712392
#
# Stress axis : x y z
#
# Youngs Moduli (GPa) = 74.96959 29.81055 124.22778
#
# Poissons Ratio (x) = 0.30290 0.15413
# Poissons Ratio (y) = 0.76174 0.31100
# Poissons Ratio (z) = 0.09301 0.07463
#
# Static dielectric constant tensor:
#      x y z
#    x 1.842200 0.000000 0.006800 
#    y 0.000000 1.795720 0.000000 
#    z 0.006800 0.000000 1.796310 
# 
# From -- ./inp_files/78863.got.cif
#   From: 2010.05.17/outbox.cif.g08.bks.cpg/sg14_40_cif.got.tgz:78863.got - 2010.06.03 17:49:19.
