data_PCOD9242157
_publ_section_title
;
Structure prediction by ZEFSAII (Michael W. Deem and Ramdas Pophale) SiO2 
 PCOD9242157
Probable space group: P 21/C
;
_chemical_formula_sum "Si O2"
_cell_formula_units_Z 28
_cell_length_a 8.729063
_cell_length_b 10.989718
_cell_length_c 12.871893
_cell_angle_alpha 90.000000
_cell_angle_beta 72.562343
_cell_angle_gamma 90.000000
_cell_volume 1178.052950
_symmetry_space_group_name_H-M "P 21/C"
_symmetry_group_IT_number 14
_symmetry_cell_setting 'monoclinic'
loop_
_space_group_symop_operation_xyz
x,y,z
-x,1/2+y,1/2-z
-x,-y,-z
x,1/2-y,1/2+z
loop_
_atom_site_type_symbol
_atom_site_label
_atom_site_fract_x
_atom_site_fract_y
_atom_site_fract_z
Si Si1 0.341390 0.813785 0.484569
Si Si2 0.481106 0.643596 0.629999
Si Si3 0.804542 0.559967 0.488674
Si Si4 0.332231 0.300362 0.205329
Si Si5 0.114096 0.658965 0.384340
Si Si6 0.208164 0.027109 0.230852
Si Si7 0.136258 0.971726 0.667625
O O1 0.375406 0.727579 0.577431
O O2 0.516946 0.828043 0.399786
O O3 0.230507 0.752659 0.418012
O O4 0.250671 0.929165 0.551200
O O5 0.616667 0.585539 0.528556
O O6 0.592854 0.703789 0.694490
O O7 0.368051 0.549811 0.715540
O O8 0.837926 0.471337 0.576395
O O9 0.844932 0.488961 0.374784
O O10 0.928511 0.672492 0.458862
O O11 0.254706 0.167946 0.209086
O O12 0.206151 0.406644 0.206065
O O13 0.130507 0.635777 0.257864
O O14 0.048608 0.009876 0.329847
#
# Coordination Sequence:
#
# PCOD9242157 Si02
#       7
#     4   4   4   4   4   4   4
#     4  12  25  45  69 101 144 185 221 290 348 415
#     4  12  24  40  72 101 137 177 236 279 341 413
#     4  10  19  39  69  99 129 166 235 289 328 387
#     4  12  27  45  69 103 143 180 232 286 350 411
#     4  10  21  40  70 100 128 179 232 281 332 410
#     4  11  25  45  72 101 133 187 234 289 338 410
#     4  11  27  45  70  98 143 181 234 283 352 407
#
# _framework density 23.768034
#
# number of rings (size 3 to 8) (size 9 to 14) (size 15 to 20)
#    0.000    0.857    4.286    2.571    6.000    0.000 
#    0.000    0.714    0.000    0.000    0.000    0.000 
#    0.000    0.000    0.000    0.000    0.000    0.000 
#
# Total GULP energy -156419.706429 kJ/mol
# GULP energy per Si atom -5586.418087 kJ/mol
# Density = 2.371394 g / cm^3
# Si number density = 23.768034 Si / 1000 Ang^3
#
#
#
# Elastic Constant Matrix: (Units=GPa)
#
#
# Indices 1 2 3 4 5 6 
#
# 1 136.2234 45.9924 17.5398 0.0000 -28.7679 0.0000
# 2 45.9924 51.2813 19.8668 0.0000 -11.5294 0.0000
# 3 17.5398 19.8668 54.7656 0.0000 -18.9527 0.0000
# 4 0.0000 0.0000 0.0000 20.7079 0.0000 -6.3227
# 5 -28.7679 -11.5294 -18.9527 0.0000 45.7079 0.0000
# 6 0.0000 0.0000 0.0000 -6.3227 0.0000 33.5367
#
#
#
# Elastic Compliance Matrix: (Units=1/GPa)
#
#
# Indices 1 2 3 4 5 6 
#
# 1 0.011613 -0.009855 0.001780 0.000000 0.005562 0.000000
# 2 -0.009855 0.031340 -0.008901 0.000000 -0.001988 0.000000
# 3 0.001780 -0.008901 0.023968 0.000000 0.008814 0.000000
# 4 0.000000 0.000000 0.000000 0.051240 0.000000 0.009660
# 5 0.005562 -0.001988 0.008814 0.000000 0.028532 0.000000
# 6 0.000000 0.000000 0.000000 0.009660 0.000000 0.031639
#
#
# Mechanical properties :
#
#
# Convention : Reuss Voigt Hill
#
# Bulk Modulus (GPa) = 30.32941 45.45204 37.89073
# Shear Modulus (GPa) = 22.39395 30.58193 26.48794
#
# Velocity S-wave (km/s) = 3.07284 3.59093 3.34194
# Velocity P-wave (km/s) = 5.03766 6.02974 5.55589
#
# Compressibility (1/GPa) = 0.03297130
#
# Stress axis : x y z
#
# Youngs Moduli (GPa) = 86.10679 31.90798 41.72145
#
# Poissons Ratio (x) = 0.31445 -0.07428
# Poissons Ratio (y) = 0.84858 0.37135
# Poissons Ratio (z) = -0.15330 0.28400
#
# Static dielectric constant tensor:
#      x y z
#    x 1.960790 0.000000 -0.019480 
#    y 0.000000 1.917630 0.000000 
#    z -0.019480 0.000000 1.976050 
# 
# From -- ./inp_files/39998.got.cif
#   From: 2010.05.17/outbox.cif.g08.bks.cpg/sg14_20_cif.got.tgz:39998.got - 2010.06.03 17:49:19.
