data_PCOD9242074
_publ_section_title
;
Structure prediction by ZEFSAII (Michael W. Deem and Ramdas Pophale) SiO2 
 PCOD9242074
Probable space group: P 21/C
;
_chemical_formula_sum "Si O2"
_cell_formula_units_Z 28
_cell_length_a 20.145933
_cell_length_b 10.100570
_cell_length_c 22.169218
_cell_angle_alpha 90.000000
_cell_angle_beta 18.841052
_cell_angle_gamma 90.000000
_cell_volume 1456.836119
_symmetry_space_group_name_H-M "P 21/C"
_symmetry_group_IT_number 14
_symmetry_cell_setting 'monoclinic'
loop_
_space_group_symop_operation_xyz
x,y,z
-x,1/2+y,1/2-z
-x,-y,-z
x,1/2-y,1/2+z
loop_
_atom_site_type_symbol
_atom_site_label
_atom_site_fract_x
_atom_site_fract_y
_atom_site_fract_z
Si Si1 0.916002 0.159765 0.112497
Si Si2 0.605392 0.197099 0.200285
Si Si3 0.379513 0.450522 0.544807
Si Si4 0.031022 0.106588 0.880605
Si Si5 0.003289 0.453596 0.066489
Si Si6 0.474041 0.149672 0.443720
Si Si7 0.538527 0.506826 0.282073
O O1 0.683261 0.109614 0.298262
O O2 0.920351 0.303199 0.138519
O O3 0.022310 0.047577 0.061200
O O4 0.027327 0.168106 0.951454
O O5 0.506310 0.128200 0.345020
O O6 0.540012 0.352749 0.257708
O O7 0.537020 0.112220 0.201833
O O8 0.851076 0.179583 0.998819
O O9 0.500000 0.500000 0.500000
O O10 0.469263 0.307133 0.455339
O O11 0.411384 0.522573 0.453800
O O12 0.144684 0.454708 0.766779
O O13 0.253974 0.106701 0.658138
O O14 0.229788 0.461712 0.897489
O O15 0.000000 0.500000 0.000000
#
# Coordination Sequence:
#
# PCOD9242074 Si02
#       7
#     4   4   4   4   4   4   4
#     4  10  21  34  58  97 120 157 207 248 313 366
#     4  10  24  44  60  88 121 169 208 243 309 370
#     4  11  20  37  62  94 119 151 203 262 306 361
#     4  10  21  38  60  85 130 162 195 259 305 362
#     4  12  21  37  63  93 122 157 206 262 316 356
#     4  10  19  39  62  86 126 158 198 253 309 363
#     4  11  25  42  64  90 127 165 208 256 303 376
#
# _framework density 19.219732
#
# number of rings (size 3 to 8) (size 9 to 14) (size 15 to 20)
#    0.000    1.429    2.857    3.857    2.000    1.143 
#    2.571    0.000    0.000    0.000    0.000    0.000 
#    0.000    0.000    0.000    0.000    0.000    0.000 
#
# Total GULP energy -156210.885997 kJ/mol
# GULP energy per Si atom -5578.960214 kJ/mol
# Density = 1.917599 g / cm^3
# Si number density = 19.219732 Si / 1000 Ang^3
#
#
#
# Elastic Constant Matrix: (Units=GPa)
#
#
# Indices 1 2 3 4 5 6 
#
# 1 119.7414 42.9194 44.8311 0.0000 7.7933 0.0000
# 2 42.9194 53.1710 -1.8341 0.0000 -2.2976 0.0000
# 3 44.8311 -1.8341 120.7609 0.0000 15.4677 0.0000
# 4 0.0000 0.0000 0.0000 26.4431 0.0000 -2.8400
# 5 7.7933 -2.2976 15.4677 0.0000 22.6467 0.0000
# 6 0.0000 0.0000 0.0000 -2.8400 0.0000 33.8665
#
#
#
# Elastic Compliance Matrix: (Units=1/GPa)
#
#
# Indices 1 2 3 4 5 6 
#
# 1 0.015005 -0.012416 -0.005409 0.000000 -0.002729 0.000000
# 2 -0.012416 0.029164 0.004522 0.000000 0.004143 0.000000
# 3 -0.005409 0.004522 0.011025 0.000000 -0.005210 0.000000
# 4 0.000000 0.000000 0.000000 0.038161 0.000000 0.003200
# 5 -0.002729 0.004143 -0.005210 0.000000 0.049074 0.000000
# 6 0.000000 0.000000 0.000000 0.003200 0.000000 0.029796
#
#
# Mechanical properties :
#
#
# Convention : Reuss Voigt Hill
#
# Bulk Modulus (GPa) = 34.98189 51.72291 43.35240
# Shear Modulus (GPa) = 23.99677 30.44170 27.21923
#
# Velocity S-wave (km/s) = 3.53731 3.98411 3.76734
# Velocity P-wave (km/s) = 5.90965 6.93787 6.44430
#
# Compressibility (1/GPa) = 0.02858622
#
# Stress axis : x y z
#
# Youngs Moduli (GPa) = 66.64659 34.28832 90.70336
#
# Poissons Ratio (x) = 0.42573 0.49065
# Poissons Ratio (y) = 0.82749 -0.41012
# Poissons Ratio (z) = 0.36051 -0.15504
#
# Static dielectric constant tensor:
#      x y z
#    x 1.705920 0.000000 0.132850 
#    y 0.000000 1.712970 0.000000 
#    z 0.132850 0.000000 2.079410 
# 
# From -- ./inp_files/69259.got.cif
#   From: 2010.05.17/outbox.cif.g08.bks.cpg/sg14_35_cif.got.tgz:69259.got - 2010.06.03 17:49:19.
