data_PCOD9242253
_publ_section_title
;
Structure prediction by ZEFSAII (Michael W. Deem and Ramdas Pophale) SiO2 
 PCOD9242253
Probable space group: P 21/C
;
_chemical_formula_sum "Si O2"
_cell_formula_units_Z 20
_cell_length_a 7.725504
_cell_length_b 6.852382
_cell_length_c 16.596253
_cell_angle_alpha 90.000000
_cell_angle_beta 95.730617
_cell_angle_gamma 90.000000
_cell_volume 874.183374
_symmetry_space_group_name_H-M "P 21/C"
_symmetry_group_IT_number 14
_symmetry_cell_setting 'monoclinic'
loop_
_space_group_symop_operation_xyz
x,y,z
-x,1/2+y,1/2-z
-x,-y,-z
x,1/2-y,1/2+z
loop_
_atom_site_type_symbol
_atom_site_label
_atom_site_fract_x
_atom_site_fract_y
_atom_site_fract_z
Si Si1 0.233347 0.689936 0.885294
Si Si2 0.449244 0.230534 0.992048
Si Si3 0.732203 0.562255 0.272258
Si Si4 0.091176 0.341081 0.560555
Si Si5 0.368148 0.411669 0.323223
O O1 0.225408 0.565057 0.803807
O O2 0.397322 0.657615 0.953408
O O3 0.053076 0.681412 0.924228
O O4 0.259559 0.914204 0.857272
O O5 0.426614 0.243319 0.894869
O O6 0.149055 0.045702 0.144151
O O7 0.264424 0.246298 0.027980
O O8 0.500000 0.000000 0.000000
O O9 0.538097 0.506357 0.291532
O O10 0.734931 0.788356 0.246928
O O11 0.000000 0.500000 0.500000
#
# Coordination Sequence:
#
# PCOD9242253 Si02
#       5
#     4   4   4   4   4
#     4  11  24  42  63  94 129 163 213 263 311 379
#     4  10  19  41  65  91 124 172 208 251 320 376
#     4  12  24  40  66 100 123 167 216 263 318 369
#     4  12  22  40  67  90 128 173 208 255 323 379
#     4  11  21  41  68  90 128 165 209 264 312 375
#
# _framework density 22.878496999999999
#
# number of rings (size 3 to 8) (size 9 to 14) (size 15 to 20)
#    0.000    0.800   10.000    0.000    2.800    0.800 
#    0.000    1.000    0.000    0.000    0.000    0.000 
#    0.000    0.000    0.000    0.000    0.000    0.000 
#
# Total GULP energy -111871.267887 kJ/mol
# GULP energy per Si atom -5593.563394 kJ/mol
# Density = 2.282642 g / cm^3
# Si number density = 22.878497 Si / 1000 Ang^3
#
#
#
# Elastic Constant Matrix: (Units=GPa)
#
#
# Indices 1 2 3 4 5 6 
#
# 1 120.5152 9.9298 39.0623 0.0000 -23.2607 0.0000
# 2 9.9298 52.1942 13.0482 0.0000 10.4332 0.0000
# 3 39.0623 13.0482 99.5605 0.0000 2.7259 0.0000
# 4 0.0000 0.0000 0.0000 37.6231 0.0000 -1.4629
# 5 -23.2607 10.4332 2.7259 0.0000 63.1458 0.0000
# 6 0.0000 0.0000 0.0000 -1.4629 0.0000 14.5164
#
#
#
# Elastic Compliance Matrix: (Units=1/GPa)
#
#
# Indices 1 2 3 4 5 6 
#
# 1 0.010609 -0.001888 -0.004035 0.000000 0.004394 0.000000
# 2 -0.001888 0.020797 -0.001874 0.000000 -0.004051 0.000000
# 3 -0.004035 -0.001874 0.011919 0.000000 -0.001691 0.000000
# 4 0.000000 0.000000 0.000000 0.026684 0.000000 0.002689
# 5 0.004394 -0.004051 -0.001691 0.000000 0.018197 0.000000
# 6 0.000000 0.000000 0.000000 0.002689 0.000000 0.069159
#
#
# Mechanical properties :
#
#
# Convention : Reuss Voigt Hill
#
# Bulk Modulus (GPa) = 36.06117 44.03895 40.05006
# Shear Modulus (GPa) = 27.44184 37.07237 32.25710
#
# Velocity S-wave (km/s) = 3.46708 4.02979 3.75898
# Velocity P-wave (km/s) = 5.64126 6.39868 6.03187
#
# Compressibility (1/GPa) = 0.02773066
#
# Stress axis : x y z
#
# Youngs Moduli (GPa) = 94.25596 48.08492 83.89719
#
# Poissons Ratio (x) = 0.09078 0.33856
# Poissons Ratio (y) = 0.17795 0.15722
# Poissons Ratio (z) = 0.38037 0.09011
#
# Static dielectric constant tensor:
#      x y z
#    x 1.881910 0.000000 0.020680 
#    y 0.000000 1.827460 0.000000 
#    z 0.020680 0.000000 1.860940 
# 
# From -- ./inp_files/54222.got.cif
#   From: 2010.05.17/outbox.cif.g08.bks.cpg/sg14_28_cif.got.tgz:54222.got - 2010.06.03 17:49:19.
