data_PCOD9242255
_publ_section_title
;
Structure prediction by ZEFSAII (Michael W. Deem and Ramdas Pophale) SiO2 
 PCOD9242255
Probable space group: P 21/C
;
_chemical_formula_sum "Si O2"
_cell_formula_units_Z 32
_cell_length_a 25.203609
_cell_length_b 10.144294
_cell_length_c 14.847872
_cell_angle_alpha 90.000000
_cell_angle_beta 156.721513
_cell_angle_gamma 90.000000
_cell_volume 1500.259538
_symmetry_space_group_name_H-M "P 21/C"
_symmetry_group_IT_number 14
_symmetry_cell_setting 'monoclinic'
loop_
_space_group_symop_operation_xyz
x,y,z
-x,1/2+y,1/2-z
-x,-y,-z
x,1/2-y,1/2+z
loop_
_atom_site_type_symbol
_atom_site_label
_atom_site_fract_x
_atom_site_fract_y
_atom_site_fract_z
Si Si1 0.151008 0.080630 0.463730
Si Si2 0.776572 0.238354 0.200897
Si Si3 0.323210 0.243207 0.973402
Si Si4 0.552552 0.633982 0.496460
Si Si5 0.157332 0.482138 0.763615
Si Si6 0.990545 0.838233 0.300393
Si Si7 0.150493 0.014312 0.773210
Si Si8 0.524069 0.164334 0.928829
O O1 0.296814 0.100976 0.733835
O O2 0.065899 0.215426 0.344305
O O3 0.169633 0.057990 0.386656
O O4 0.075073 0.952124 0.383082
O O5 0.770408 0.382148 0.149074
O O6 0.912803 0.224429 0.472397
O O7 0.784717 0.128970 0.134944
O O8 0.657776 0.204199 0.084534
O O9 0.428648 0.232252 0.056812
O O10 0.222455 0.364931 0.807481
O O11 0.236318 0.110855 0.844131
O O12 0.404624 0.260241 0.192809
O O13 0.472853 0.685836 0.459011
O O14 0.498146 0.492740 0.378924
O O15 0.000000 0.500000 0.500000
O O16 0.869228 0.913969 0.162222
O O17 0.000000 0.000000 0.500000
#
# Coordination Sequence:
#
# PCOD9242255 Si02
#       8
#     4   4   4   4   4   4   4   4
#     4  12  24  43  68 100 140 183 233 286 356 416
#     4  11  23  41  67  96 137 177 230 286 344 421
#     4  12  24  44  73 101 137 188 233 286 357 414
#     4  11  24  45  72  96 137 194 230 288 344 426
#     4  12  25  43  67 106 142 177 230 299 355 409
#     4  11  23  40  62 100 133 177 229 288 349 416
#     4  10  19  41  65  94 129 176 228 279 344 422
#     4  11  24  44  68 101 136 181 244 275 340 427
#
# _framework density 21.329643999999998
#
# number of rings (size 3 to 8) (size 9 to 14) (size 15 to 20)
#    0.000    0.750    6.250    1.500    5.250    0.000 
#    0.000    0.625    0.000    0.000    0.000    0.000 
#    0.000    0.000    0.000    0.000    0.000    0.000 
#
# Total GULP energy -178962.702658 kJ/mol
# GULP energy per Si atom -5592.584458 kJ/mol
# Density = 2.128110 g / cm^3
# Si number density = 21.329644 Si / 1000 Ang^3
#
#
#
# Elastic Constant Matrix: (Units=GPa)
#
#
# Indices 1 2 3 4 5 6 
#
# 1 89.4055 7.8916 -8.1195 0.0000 5.6684 0.0000
# 2 7.8916 90.9468 4.1421 0.0000 -5.5470 0.0000
# 3 -8.1195 4.1421 41.0337 0.0000 2.8064 0.0000
# 4 0.0000 0.0000 0.0000 28.6964 0.0000 3.4273
# 5 5.6684 -5.5470 2.8064 0.0000 24.4732 0.0000
# 6 0.0000 0.0000 0.0000 3.4273 0.0000 45.4343
#
#
#
# Elastic Compliance Matrix: (Units=1/GPa)
#
#
# Indices 1 2 3 4 5 6 
#
# 1 0.011760 -0.001347 0.002691 0.000000 -0.003338 0.000000
# 2 -0.001347 0.011374 -0.001625 0.000000 0.003076 0.000000
# 3 0.002691 -0.001625 0.025333 0.000000 -0.003897 0.000000
# 4 0.000000 0.000000 0.000000 0.035164 0.000000 -0.002653
# 5 -0.003338 0.003076 -0.003897 0.000000 0.042778 0.000000
# 6 0.000000 0.000000 0.000000 -0.002653 0.000000 0.022210
#
#
# Mechanical properties :
#
#
# Convention : Reuss Voigt Hill
#
# Bulk Modulus (GPa) = 20.87408 25.46827 23.17117
# Shear Modulus (GPa) = 30.27572 34.21892 32.24732
#
# Velocity S-wave (km/s) = 3.77161 4.00970 3.89248
# Velocity P-wave (km/s) = 5.36417 5.77955 5.57573
#
# Compressibility (1/GPa) = 0.04790630
#
# Stress axis : x y z
#
# Youngs Moduli (GPa) = 85.03503 87.92052 39.47383
#
# Poissons Ratio (x) = 0.11839 -0.10623
# Poissons Ratio (y) = 0.11450 0.06414
# Poissons Ratio (z) = -0.22884 0.14287
#
# Static dielectric constant tensor:
#      x y z
#    x 1.798440 0.000000 0.001580 
#    y 0.000000 1.790520 0.000000 
#    z 0.001580 0.000000 1.791800 
# 
# From -- ./inp_files/51382.got.cif
#   From: 2010.05.17/outbox.cif.g08.bks.cpg/sg14_26_cif.got.tgz:51382.got - 2010.06.03 17:49:19.
