data_PCOD9242788
_publ_section_title
;
Structure prediction by ZEFSAII (Michael W. Deem and Ramdas Pophale) SiO2 
 PCOD9242788
Probable space group: P 21/C
;
_chemical_formula_sum "Si O2"
_cell_formula_units_Z 32
_cell_length_a 13.713758
_cell_length_b 13.834815
_cell_length_c 17.391039
_cell_angle_alpha 90.000000
_cell_angle_beta 149.430506
_cell_angle_gamma 90.000000
_cell_volume 1678.097753
_symmetry_space_group_name_H-M "P 21/C"
_symmetry_group_IT_number 14
_symmetry_cell_setting 'monoclinic'
loop_
_space_group_symop_operation_xyz
x,y,z
-x,1/2+y,1/2-z
-x,-y,-z
x,1/2-y,1/2+z
loop_
_atom_site_type_symbol
_atom_site_label
_atom_site_fract_x
_atom_site_fract_y
_atom_site_fract_z
Si Si1 0.037484 0.784073 0.389757
Si Si2 0.444983 0.615923 0.160717
Si Si3 0.750328 0.737648 0.068319
Si Si4 0.823269 0.554719 0.838749
Si Si5 0.644531 0.704392 0.832991
Si Si6 0.580468 0.119103 0.175475
Si Si7 0.247796 0.688156 0.659701
Si Si8 0.479156 0.553998 0.905244
O O1 0.936044 0.742723 0.246233
O O2 0.907892 0.869375 0.336320
O O3 0.240800 0.833060 0.508426
O O4 0.077023 0.704417 0.483588
O O5 0.605257 0.698671 0.257624
O O6 0.453384 0.592751 0.257458
O O7 0.467780 0.523284 0.124007
O O8 0.624866 0.644356 0.006147
O O9 0.782453 0.727525 0.998584
O O10 0.614119 0.832269 0.987176
O O11 0.715341 0.617906 0.829585
O O12 0.680099 0.473998 0.707304
O O13 0.000000 0.500000 0.000000
O O14 0.440265 0.682185 0.736359
O O15 0.728648 0.209345 0.280461
O O16 0.276717 0.602123 0.740071
O O17 0.500000 0.500000 0.000000
#
# Coordination Sequence:
#
# PCOD9242788 Si02
#       8
#     4   4   4   4   4   4   4   4
#     4  10  21  35  57  86 119 136 184 250 282 336
#     4   9  18  38  57  78 106 154 193 214 288 343
#     4   9  20  38  54  80 120 145 182 231 288 331
#     4  12  19  31  63  89 110 143 190 240 290 340
#     4   8  19  35  59  77 108 155 182 222 278 352
#     4   8  16  34  55  79 108 149 180 222 282 347
#     4   8  17  36  55  74 110 151 186 217 283 338
#     4  10  20  35  61  74 106 154 194 225 265 345
#
# _framework density 19.069210000000002
#
# number of rings (size 3 to 8) (size 9 to 14) (size 15 to 20)
#    0.000    3.500    2.500    1.500    1.750    0.500 
#    2.250    5.625    0.000    0.000    0.000    0.000 
#    0.000    0.000    0.000    0.000    0.000    0.000 
#
# Total GULP energy -178173.077230 kJ/mol
# GULP energy per Si atom -5567.908663 kJ/mol
# Density = 1.902581 g / cm^3
# Si number density = 19.069210 Si / 1000 Ang^3
#
#
#
# Elastic Constant Matrix: (Units=GPa)
#
#
# Indices 1 2 3 4 5 6 
#
# 1 30.7924 44.4108 21.5222 0.0000 -6.2288 0.0000
# 2 44.4108 117.8627 49.5281 0.0000 -7.7779 0.0000
# 3 21.5222 49.5281 109.0859 0.0000 -21.2469 0.0000
# 4 0.0000 0.0000 0.0000 23.9294 0.0000 -0.7180
# 5 -6.2288 -7.7779 -21.2469 0.0000 15.3874 0.0000
# 6 0.0000 0.0000 0.0000 -0.7180 0.0000 29.1227
#
#
#
# Elastic Compliance Matrix: (Units=1/GPa)
#
#
# Indices 1 2 3 4 5 6 
#
# 1 0.075143 -0.027648 0.001272 0.000000 0.018199 0.000000
# 2 -0.027648 0.020692 -0.005584 0.000000 -0.008444 0.000000
# 3 0.001272 -0.005584 0.015050 0.000000 0.018472 0.000000
# 4 0.000000 0.000000 0.000000 0.041821 0.000000 0.001031
# 5 0.018199 -0.008444 0.018472 0.000000 0.093594 0.000000
# 6 0.000000 0.000000 0.000000 0.001031 0.000000 0.034363
#
#
# Mechanical properties :
#
#
# Convention : Reuss Voigt Hill
#
# Bulk Modulus (GPa) = 21.29272 54.29590 37.79431
# Shear Modulus (GPa) = 13.87980 23.17324 18.52652
#
# Velocity S-wave (km/s) = 2.70082 3.48978 3.12034
# Velocity P-wave (km/s) = 4.57342 6.69126 5.73102
#
# Compressibility (1/GPa) = 0.04696440
#
# Stress axis : x y z
#
# Youngs Moduli (GPa) = 13.30796 48.32900 66.44734
#
# Poissons Ratio (x) = 1.33618 -0.08453
# Poissons Ratio (y) = 0.36793 0.37107
# Poissons Ratio (z) = -0.01693 0.26989
#
# Static dielectric constant tensor:
#      x y z
#    x 1.677140 0.000000 0.011400 
#    y 0.000000 1.702080 0.000000 
#    z 0.011400 0.000000 1.694440 
# 
# From -- ./inp_files/59617.got.cif
#   From: 2010.05.17/outbox.cif.g08.bks.cpg/sg14_30_cif.got.tgz:59617.got - 2010.06.03 17:49:19.
