data_PCOD9242984
_publ_section_title
;
Structure prediction by ZEFSAII (Michael W. Deem and Ramdas Pophale) SiO2 
 PCOD9242984
Probable space group: P 21/C
;
_chemical_formula_sum "Si O2"
_cell_formula_units_Z 28
_cell_length_a 19.459945
_cell_length_b 9.035808
_cell_length_c 16.602397
_cell_angle_alpha 90.000000
_cell_angle_beta 148.556890
_cell_angle_gamma 90.000000
_cell_volume 1522.860173
_symmetry_space_group_name_H-M "P 21/C"
_symmetry_group_IT_number 14
_symmetry_cell_setting 'monoclinic'
loop_
_space_group_symop_operation_xyz
x,y,z
-x,1/2+y,1/2-z
-x,-y,-z
x,1/2-y,1/2+z
loop_
_atom_site_type_symbol
_atom_site_label
_atom_site_fract_x
_atom_site_fract_y
_atom_site_fract_z
Si Si1 0.397393 0.469301 0.824745
Si Si2 0.181375 0.495375 0.126966
Si Si3 0.017211 0.750000 0.017211
Si Si4 0.397393 0.469301 0.470041
Si Si5 0.595930 0.652342 0.939502
Si Si6 0.595931 0.847658 0.252359
Si Si7 0.181376 0.495375 0.735784
O O1 0.454600 0.575097 0.813080
O O2 0.400227 0.301913 0.796211
O O3 0.257765 0.499725 0.726106
O O4 0.500000 0.500000 0.000000
O O5 0.106661 0.650638 0.047666
O O6 0.257765 0.499725 0.289424
O O7 0.289667 0.455099 0.168231
O O8 0.075553 0.363938 0.027547
O O9 0.106662 0.849362 0.165656
O O10 0.924447 0.863938 0.876441
O O11 0.500000 0.500000 0.500000
O O12 0.400228 0.301913 0.504244
O O13 0.454601 0.575097 0.596121
O O14 0.616409 0.683223 0.866410
O O15 0.710333 0.544901 0.088898
#
# Coordination Sequence:
#
# PCOD9242984 Si02
#       7
#     4   4   4   4   4   4   4
#     4  10  20  36  59  86 112 151 194 240 285 351
#     4  10  20  37  60  85 108 150 197 240 267 348
#     4  10  20  36  62  82 106 148 210 230 270 322
#     4  10  20  36  59  86 112 151 194 240 285 351
#     4  11  22  37  57  88 122 148 184 247 308 343
#     4  11  22  37  57  88 122 148 184 247 308 343
#     4  10  20  37  60  85 108 150 197 240 267 348
#
# _framework density 18.386455000000002
#
# number of rings (size 3 to 8) (size 9 to 14) (size 15 to 20)
#    0.000    1.714    2.857    3.429    8.000    0.000 
#    0.000    1.429    0.000    0.000    0.000    0.000 
#    0.000    0.000    0.000    0.000    0.000    0.000 
#
# Total GULP energy -156123.973388 kJ/mol
# GULP energy per Si atom -5575.856192 kJ/mol
# Density = 1.834461 g / cm^3
# Si number density = 18.386455 Si / 1000 Ang^3
#
#
#
# Elastic Constant Matrix: (Units=GPa)
#
#
# Indices 1 2 3 4 5 6 
#
# 1 76.7354 29.8501 39.9351 0.0000 -3.5450 0.0000
# 2 29.8501 78.8418 44.6496 0.0000 13.3465 0.0000
# 3 39.9351 44.6496 80.0248 0.0000 6.5121 0.0000
# 4 0.0000 0.0000 0.0000 33.2459 0.0000 8.1718
# 5 -3.5450 13.3465 6.5121 0.0000 25.5040 0.0000
# 6 0.0000 0.0000 0.0000 8.1718 0.0000 24.1842
#
#
#
# Elastic Compliance Matrix: (Units=1/GPa)
#
#
# Indices 1 2 3 4 5 6 
#
# 1 0.018911 -0.003850 -0.007830 0.000000 0.006643 0.000000
# 2 -0.003850 0.020723 -0.008900 0.000000 -0.009107 0.000000
# 3 -0.007830 -0.008900 0.021526 0.000000 -0.001927 0.000000
# 4 0.000000 0.000000 0.000000 0.032803 0.000000 -0.011084
# 5 0.006643 -0.009107 -0.001927 0.000000 0.045391 0.000000
# 6 0.000000 0.000000 0.000000 -0.011084 0.000000 0.045095
#
#
# Mechanical properties :
#
#
# Convention : Reuss Voigt Hill
#
# Bulk Modulus (GPa) = 49.99844 51.60796 50.80320
# Shear Modulus (GPa) = 21.52610 24.66462 23.09536
#
# Velocity S-wave (km/s) = 3.42535 3.66656 3.54801
# Velocity P-wave (km/s) = 6.54951 6.78633 6.66897
#
# Compressibility (1/GPa) = 0.02000062
#
# Stress axis : x y z
#
# Youngs Moduli (GPa) = 52.87877 48.25482 46.45573
#
# Poissons Ratio (x) = 0.18580 0.36373
# Poissons Ratio (y) = 0.20360 0.41345
# Poissons Ratio (z) = 0.41402 0.42946
#
# Static dielectric constant tensor:
#      x y z
#    x 1.655460 0.000000 0.010010 
#    y 0.000000 1.656110 0.000000 
#    z 0.010010 0.000000 1.666560 
# 
# From -- ./inp_files/61091.got.cif
#   From: 2010.05.17/outbox.cif.g08.bks.cpg/sg14_31_cif.got.tgz:61091.got - 2010.06.03 17:49:19.
