data_PCOD9242324
_publ_section_title
;
Structure prediction by ZEFSAII (Michael W. Deem and Ramdas Pophale) SiO2 
 PCOD9242324
Probable space group: P 21/C
;
_chemical_formula_sum "Si O2"
_cell_formula_units_Z 28
_cell_length_a 15.835422
_cell_length_b 8.537793
_cell_length_c 10.815360
_cell_angle_alpha 90.000000
_cell_angle_beta 46.850928
_cell_angle_gamma 90.000000
_cell_volume 1066.810451
_symmetry_space_group_name_H-M "P 21/C"
_symmetry_group_IT_number 14
_symmetry_cell_setting 'monoclinic'
loop_
_space_group_symop_operation_xyz
x,y,z
-x,1/2+y,1/2-z
-x,-y,-z
x,1/2-y,1/2+z
loop_
_atom_site_type_symbol
_atom_site_label
_atom_site_fract_x
_atom_site_fract_y
_atom_site_fract_z
Si Si1 0.334268 0.830026 0.582449
Si Si2 0.260949 0.940251 0.416991
Si Si3 0.107687 0.315244 0.933400
Si Si4 0.484331 0.739055 0.126502
Si Si5 0.023478 0.745934 0.174815
Si Si6 0.170880 0.997346 0.923943
Si Si7 0.639610 0.493421 0.570053
O O1 0.464199 0.827200 0.509027
O O2 0.240163 0.868105 0.779329
O O3 0.314130 0.655755 0.551945
O O4 0.312859 0.964442 0.502280
O O5 0.208607 0.070717 0.379466
O O6 0.372160 0.854547 0.248556
O O7 0.147770 0.836523 0.562972
O O8 0.034518 0.275080 0.133131
O O9 0.040061 0.352021 0.872967
O O10 0.157877 0.145898 0.851751
O O11 0.455921 0.599962 0.250945
O O12 0.587886 0.856574 0.052503
O O13 0.054493 0.918044 0.089584
O O14 0.254098 0.047132 0.952264
#
# Coordination Sequence:
#
# PCOD9242324 Si02
#       7
#     4   4   4   4   4   4   4
#     4  10  19  44  68  94 131 186 225 276 367 411
#     4  11  23  42  67  97 141 173 231 300 346 427
#     4  12  27  40  69 106 135 189 236 296 349 429
#     4  10  22  40  69  97 135 181 230 292 360 428
#     4  12  23  45  66  99 141 185 242 283 362 419
#     4  11  23  43  68  95 139 179 228 294 350 431
#     4  10  22  40  70  96 134 179 233 290 357 431
#
# _framework density 26.246461
#
# number of rings (size 3 to 8) (size 9 to 14) (size 15 to 20)
#    0.000    1.143    4.286    3.857    2.000    1.143 
#    0.000   11.429    0.000    0.000    0.000    0.000 
#    0.000    0.000    0.000    0.000    0.000    0.000 
#
# Total GULP energy -156423.695205 kJ/mol
# GULP energy per Si atom -5586.560543 kJ/mol
# Density = 2.618672 g / cm^3
# Si number density = 26.246461 Si / 1000 Ang^3
#
#
#
# Elastic Constant Matrix: (Units=GPa)
#
#
# Indices 1 2 3 4 5 6 
#
# 1 169.0020 38.5230 48.9781 0.0000 20.0426 0.0000
# 2 38.5230 77.9050 17.3538 0.0000 -10.7442 0.0000
# 3 48.9781 17.3538 76.6072 0.0000 6.3117 0.0000
# 4 0.0000 0.0000 0.0000 36.3586 0.0000 -4.1797
# 5 20.0426 -10.7442 6.3117 0.0000 27.7039 0.0000
# 6 0.0000 0.0000 0.0000 -4.1797 0.0000 54.1166
#
#
#
# Elastic Compliance Matrix: (Units=1/GPa)
#
#
# Indices 1 2 3 4 5 6 
#
# 1 0.009026 -0.004557 -0.004132 0.000000 -0.007356 0.000000
# 2 -0.004557 0.016895 -0.001758 0.000000 0.010250 0.000000
# 3 -0.004132 -0.001758 0.016208 0.000000 -0.001385 0.000000
# 4 0.000000 0.000000 0.000000 0.027750 0.000000 0.002143
# 5 -0.007356 0.010250 -0.001385 0.000000 0.045708 0.000000
# 6 0.000000 0.000000 0.000000 0.002143 0.000000 0.018644
#
#
# Mechanical properties :
#
#
# Convention : Reuss Voigt Hill
#
# Bulk Modulus (GPa) = 47.09510 59.24710 53.17110
# Shear Modulus (GPa) = 30.82551 38.21310 34.51930
#
# Velocity S-wave (km/s) = 3.43076 3.81981 3.63050
# Velocity P-wave (km/s) = 5.80309 6.48668 6.15438
#
# Compressibility (1/GPa) = 0.02123363
#
# Stress axis : x y z
#
# Youngs Moduli (GPa) = 110.79444 59.18995 61.69855
#
# Poissons Ratio (x) = 0.26973 0.25495
# Poissons Ratio (y) = 0.50490 0.10847
# Poissons Ratio (z) = 0.45782 0.10406
#
# Static dielectric constant tensor:
#      x y z
#    x 2.161270 0.000000 0.110120 
#    y 0.000000 2.066070 0.000000 
#    z 0.110120 0.000000 2.119910 
# 
# From -- ./inp_files/31727.got.cif
#   From: 2010.05.17/outbox.cif.g08.bks.cpg/sg14_16_cif.got.tgz:31727.got - 2010.06.03 17:49:19.
