data_PCOD9242439
_publ_section_title
;
Structure prediction by ZEFSAII (Michael W. Deem and Ramdas Pophale) SiO2 
 PCOD9242439
Probable space group: P 21/C
;
_chemical_formula_sum "Si O2"
_cell_formula_units_Z 24
_cell_length_a 7.395946
_cell_length_b 17.435931
_cell_length_c 7.532450
_cell_angle_alpha 90.000000
_cell_angle_beta 104.008217
_cell_angle_gamma 90.000000
_cell_volume 942.461711
_symmetry_space_group_name_H-M "P 21/C"
_symmetry_group_IT_number 14
_symmetry_cell_setting 'monoclinic'
loop_
_space_group_symop_operation_xyz
x,y,z
-x,1/2+y,1/2-z
-x,-y,-z
x,1/2-y,1/2+z
loop_
_atom_site_type_symbol
_atom_site_label
_atom_site_fract_x
_atom_site_fract_y
_atom_site_fract_z
Si Si1 0.255534 0.933068 0.477071
Si Si2 0.566109 0.886742 0.119788
Si Si3 0.384601 0.035370 0.206911
Si Si4 0.260143 0.804176 0.189649
Si Si5 0.002531 0.296906 0.668224
Si Si6 0.128075 0.363606 0.027665
O O1 0.418665 0.940383 0.658903
O O2 0.295314 0.858390 0.365338
O O3 0.052298 0.917152 0.503563
O O4 0.262897 0.005416 0.344054
O O5 0.449780 0.808616 0.121307
O O6 0.705235 0.896493 0.317141
O O7 0.416521 0.955444 0.106507
O O8 0.663535 0.901796 0.954546
O O9 0.173285 0.725815 0.244454
O O10 0.093444 0.835598 0.023781
O O11 0.085052 0.216646 0.620446
O O12 0.148116 0.339456 0.827839
#
# Coordination Sequence:
#
# PCOD9242439 Si02
#       6
#     4   4   4   4   4   4
#     4   9  18  35  54  73 101 137 169 204 252 300
#     4  10  20  33  53  79 103 132 171 213 254 300
#     4   9  19  36  53  74 105 137 172 205 249 313
#     4   9  18  34  54  72  98 137 168 201 254 308
#     4   9  19  36  53  72 102 134 169 209 253 307
#     4  10  20  34  53  78 103 130 169 215 256 292
#
# _framework density 25.465223999999999
#
# number of rings (size 3 to 8) (size 9 to 14) (size 15 to 20)
#    0.000    2.667    0.000    1.000    0.000    2.667 
#    0.000   15.000    0.000    0.000    0.000    0.000 
#    0.000    0.000    0.000    0.000    0.000    0.000 
#
# Total GULP energy -134082.542780 kJ/mol
# GULP energy per Si atom -5586.772616 kJ/mol
# Density = 2.540726 g / cm^3
# Si number density = 25.465224 Si / 1000 Ang^3
#
#
#
# Elastic Constant Matrix: (Units=GPa)
#
#
# Indices 1 2 3 4 5 6 
#
# 1 46.5928 1.9295 13.5115 0.0000 -7.2436 0.0000
# 2 1.9295 74.0316 24.8809 0.0000 2.7692 0.0000
# 3 13.5115 24.8809 147.2255 0.0000 -11.1233 0.0000
# 4 0.0000 0.0000 0.0000 48.2823 0.0000 -4.9453
# 5 -7.2436 2.7692 -11.1233 0.0000 34.2264 0.0000
# 6 0.0000 0.0000 0.0000 -4.9453 0.0000 41.0603
#
#
#
# Elastic Compliance Matrix: (Units=1/GPa)
#
#
# Indices 1 2 3 4 5 6 
#
# 1 0.022630 -0.000168 -0.001728 0.000000 0.004241 0.000000
# 2 -0.000168 0.014456 -0.002582 0.000000 -0.002044 0.000000
# 3 -0.001728 -0.002582 0.007561 0.000000 0.002300 0.000000
# 4 0.000000 0.000000 0.000000 0.020970 0.000000 0.002526
# 5 0.004241 -0.002044 0.002300 0.000000 0.031028 0.000000
# 6 0.000000 0.000000 0.000000 0.002526 0.000000 0.024659
#
#
# Mechanical properties :
#
#
# Convention : Reuss Voigt Hill
#
# Bulk Modulus (GPa) = 28.01778 38.72154 33.36966
# Shear Modulus (GPa) = 35.17230 39.88233 37.52731
#
# Velocity S-wave (km/s) = 3.72047 3.96175 3.84300
# Velocity P-wave (km/s) = 5.42974 6.01382 5.72923
#
# Compressibility (1/GPa) = 0.03569162
#
# Stress axis : x y z
#
# Youngs Moduli (GPa) = 44.18912 69.17344 132.25607
#
# Poissons Ratio (x) = 0.01160 0.22855
# Poissons Ratio (y) = 0.00741 0.34151
# Poissons Ratio (z) = 0.07636 0.17862
#
# Static dielectric constant tensor:
#      x y z
#    x 2.095990 0.000000 -0.057400 
#    y 0.000000 2.094700 0.000000 
#    z -0.057400 0.000000 1.972570 
# 
# From -- ./inp_files/9043.got.cif
#   From: 2010.05.17/outbox.cif.g08.bks.cpg/sg14_5_cif.got.tgz:9043.got - 2010.06.03 17:49:19.
