data_PCOD9242842
_publ_section_title
;
Structure prediction by ZEFSAII (Michael W. Deem and Ramdas Pophale) SiO2 
 PCOD9242842
Probable space group: P 21/C
;
_chemical_formula_sum "Si O2"
_cell_formula_units_Z 28
_cell_length_a 13.511251
_cell_length_b 14.494904
_cell_length_c 8.952115
_cell_angle_alpha 90.000000
_cell_angle_beta 137.017799
_cell_angle_gamma 90.000000
_cell_volume 1195.295173
_symmetry_space_group_name_H-M "P 21/C"
_symmetry_group_IT_number 14
_symmetry_cell_setting 'monoclinic'
loop_
_space_group_symop_operation_xyz
x,y,z
-x,1/2+y,1/2-z
-x,-y,-z
x,1/2-y,1/2+z
loop_
_atom_site_type_symbol
_atom_site_label
_atom_site_fract_x
_atom_site_fract_y
_atom_site_fract_z
Si Si1 0.941489 0.616291 0.190242
Si Si2 0.515856 0.784572 0.314843
Si Si3 0.057557 0.924614 0.422285
Si Si4 0.181650 0.308199 0.447476
Si Si5 0.173979 0.882178 0.215367
Si Si6 0.301257 0.071986 0.346977
Si Si7 0.320265 0.812686 0.827187
O O1 0.972421 0.534018 0.109960
O O2 0.914743 0.720392 0.107155
O O3 0.790952 0.590338 0.104802
O O4 0.061868 0.612889 0.453350
O O5 0.664711 0.730493 0.442177
O O6 0.555230 0.868187 0.469651
O O7 0.406933 0.713267 0.272998
O O8 0.439289 0.828587 0.086289
O O9 0.099338 0.903174 0.292024
O O10 0.199266 0.889938 0.666905
O O11 0.914309 0.861816 0.280112
O O12 0.218593 0.378501 0.620261
O O13 0.237789 0.780488 0.282971
O O14 0.292925 0.962649 0.320431
#
# Coordination Sequence:
#
# PCOD9242842 Si02
#       7
#     4   4   4   4   4   4   4
#     4  10  20  35  65 104 124 168 217 274 328 378
#     4  11  25  43  61  96 135 180 213 261 332 392
#     4  11  21  39  67  98 128 162 224 275 321 378
#     4  11  20  38  68  92 130 169 215 272 320 384
#     4  11  20  37  69 100 126 171 225 268 318 391
#     4  10  20  39  65  94 128 171 223 258 320 398
#     4  12  24  42  66  96 137 171 218 271 327 381
#
# _framework density 23.425177000000001
#
# number of rings (size 3 to 8) (size 9 to 14) (size 15 to 20)
#    0.000    1.143    7.143    0.857    0.000    0.571 
#    0.000    7.857    3.143    5.143    0.000    0.000 
#    0.000    0.000    0.000    0.000    0.000    0.000 
#
# Total GULP energy -156621.497732 kJ/mol
# GULP energy per Si atom -5593.624919 kJ/mol
# Density = 2.337186 g / cm^3
# Si number density = 23.425177 Si / 1000 Ang^3
#
#
#
# Elastic Constant Matrix: (Units=GPa)
#
#
# Indices 1 2 3 4 5 6 
#
# 1 51.8804 12.9007 34.0434 0.0000 11.6891 0.0000
# 2 12.9007 89.0264 45.2939 0.0000 11.5670 0.0000
# 3 34.0434 45.2939 120.7955 0.0000 18.8042 0.0000
# 4 0.0000 0.0000 0.0000 9.7175 0.0000 1.0961
# 5 11.6891 11.5670 18.8042 0.0000 28.0807 0.0000
# 6 0.0000 0.0000 0.0000 1.0961 0.0000 7.1508
#
#
#
# Elastic Compliance Matrix: (Units=1/GPa)
#
#
# Indices 1 2 3 4 5 6 
#
# 1 0.024601 0.000349 -0.006082 0.000000 -0.006312 0.000000
# 2 0.000349 0.014044 -0.004958 0.000000 -0.002610 0.000000
# 3 -0.006082 -0.004958 0.012436 0.000000 -0.003754 0.000000
# 4 0.000000 0.000000 0.000000 0.104718 0.000000 -0.016052
# 5 -0.006312 -0.002610 -0.003754 0.000000 0.041828 0.000000
# 6 0.000000 0.000000 0.000000 -0.016052 0.000000 0.142305
#
#
# Mechanical properties :
#
#
# Convention : Reuss Voigt Hill
#
# Bulk Modulus (GPa) = 33.67007 49.57539 41.62273
# Shear Modulus (GPa) = 13.46939 20.28742 16.87840
#
# Velocity S-wave (km/s) = 2.40051 2.94607 2.68717
# Velocity P-wave (km/s) = 4.69978 5.72553 5.23782
#
# Compressibility (1/GPa) = 0.02969997
#
# Stress axis : x y z
#
# Youngs Moduli (GPa) = 40.64864 71.20681 80.41289
#
# Poissons Ratio (x) = -0.02488 0.48904
# Poissons Ratio (y) = -0.01420 0.39868
# Poissons Ratio (z) = 0.24721 0.35304
#
# Static dielectric constant tensor:
#      x y z
#    x 1.960680 0.000000 -0.032710 
#    y 0.000000 1.899040 0.000000 
#    z -0.032710 0.000000 1.903300 
# 
# From -- ./inp_files/16448.got.cif
#   From: 2010.05.17/outbox.cif.g08.bks.cpg/sg14_9_cif.got.tgz:16448.got - 2010.06.03 17:49:19.
