data_PCOD9242121
_publ_section_title
;
Structure prediction by ZEFSAII (Michael W. Deem and Ramdas Pophale) SiO2 
 PCOD9242121
Probable space group: P 21/C
;
_chemical_formula_sum "Si O2"
_cell_formula_units_Z 32
_cell_length_a 11.713031
_cell_length_b 18.223380
_cell_length_c 8.470756
_cell_angle_alpha 90.000000
_cell_angle_beta 53.706964
_cell_angle_gamma 90.000000
_cell_volume 1457.322141
_symmetry_space_group_name_H-M "P 21/C"
_symmetry_group_IT_number 14
_symmetry_cell_setting 'monoclinic'
loop_
_space_group_symop_operation_xyz
x,y,z
-x,1/2+y,1/2-z
-x,-y,-z
x,1/2-y,1/2+z
loop_
_atom_site_type_symbol
_atom_site_label
_atom_site_fract_x
_atom_site_fract_y
_atom_site_fract_z
Si Si1 0.412952 0.047771 0.361428
Si Si2 0.301004 0.920013 0.030081
Si Si3 0.280638 0.337058 0.132777
Si Si4 0.999963 0.903740 0.145100
Si Si5 0.248207 0.084501 0.183424
Si Si6 0.658933 0.114986 0.637434
Si Si7 0.398194 0.293712 0.357189
Si Si8 0.961179 0.072497 0.257868
O O1 0.349012 0.081828 0.571918
O O2 0.299866 0.070733 0.318277
O O3 0.418838 0.960317 0.351239
O O4 0.561718 0.083409 0.191886
O O5 0.325367 0.888497 0.185278
O O6 0.158490 0.888242 0.072166
O O7 0.278834 0.007360 0.072084
O O8 0.118645 0.344690 0.213783
O O9 0.296974 0.304584 0.291443
O O10 0.374132 0.286516 0.943584
O O11 0.957193 0.983192 0.254368
O O12 0.999065 0.908360 0.955116
O O13 0.083189 0.097070 0.280648
O O14 0.342614 0.148670 0.032942
O O15 0.557534 0.183166 0.681295
O O16 0.812599 0.107669 0.431631
#
# Coordination Sequence:
#
# PCOD9242121 Si02
#       8
#     4   4   4   4   4   4   4   4
#     4  11  21  39  67 102 132 172 218 270 330 383
#     4  10  21  36  66 103 135 162 212 276 328 379
#     4  12  27  44  67  91 130 178 221 267 332 402
#     4  10  22  40  63  99 135 167 208 271 329 391
#     4  10  19  39  65  94 135 169 216 263 319 394
#     4  11  22  39  69 103 131 172 215 279 327 382
#     4  12  25  45  66  91 127 179 224 263 330 402
#     4  10  21  37  65 103 133 160 216 273 326 378
#
# _framework density 21.958081
#
# number of rings (size 3 to 8) (size 9 to 14) (size 15 to 20)
#    0.000    1.250    5.000    1.500    3.500    2.000 
#    0.000    1.250    0.000    0.000    0.000    0.000 
#    0.000    0.000    0.000    0.000    0.000    0.000 
#
# Total GULP energy -178885.978207 kJ/mol
# GULP energy per Si atom -5590.186819 kJ/mol
# Density = 2.190810 g / cm^3
# Si number density = 21.958081 Si / 1000 Ang^3
#
#
#
# Elastic Constant Matrix: (Units=GPa)
#
#
# Indices 1 2 3 4 5 6 
#
# 1 109.2043 30.7736 17.2740 0.0000 -33.7715 0.0000
# 2 30.7736 35.5439 12.8280 0.0000 -9.1851 0.0000
# 3 17.2740 12.8280 61.2719 0.0000 -37.1647 0.0000
# 4 0.0000 0.0000 0.0000 24.7767 0.0000 -1.3152
# 5 -33.7715 -9.1851 -37.1647 0.0000 38.6770 0.0000
# 6 0.0000 0.0000 0.0000 -1.3152 0.0000 17.8596
#
#
#
# Elastic Compliance Matrix: (Units=1/GPa)
#
#
# Indices 1 2 3 4 5 6 
#
# 1 0.019450 -0.014931 0.013887 0.000000 0.026781 0.000000
# 2 -0.014931 0.042009 -0.015443 0.000000 -0.017900 0.000000
# 3 0.013887 -0.015443 0.049787 0.000000 0.056298 0.000000
# 4 0.000000 0.000000 0.000000 0.040519 0.000000 0.002984
# 5 0.026781 -0.017900 0.056298 0.000000 0.099086 0.000000
# 6 0.000000 0.000000 0.000000 0.002984 0.000000 0.056212
#
#
# Mechanical properties :
#
#
# Convention : Reuss Voigt Hill
#
# Bulk Modulus (GPa) = 12.77607 36.41906 24.59756
# Shear Modulus (GPa) = 13.65643 25.93894 19.79769
#
# Velocity S-wave (km/s) = 2.49656 3.44072 3.00594
# Velocity P-wave (km/s) = 3.76051 5.69267 4.82431
#
# Compressibility (1/GPa) = 0.07827136
#
# Stress axis : x y z
#
# Youngs Moduli (GPa) = 51.41347 23.80435 20.08567
#
# Poissons Ratio (x) = 0.35542 -0.27893
# Poissons Ratio (y) = 0.76765 0.31019
# Poissons Ratio (z) = -0.71397 0.36761
#
# Static dielectric constant tensor:
#      x y z
#    x 1.817590 0.000000 -0.007650 
#    y 0.000000 1.790270 0.000000 
#    z -0.007650 0.000000 1.814070 
# 
# From -- ./inp_files/14298.got.cif
#   From: 2010.05.17/outbox.cif.g08.bks.cpg/sg14_8_cif.got.tgz:14298.got - 2010.06.03 17:49:19.
