data_PCOD9242290
_publ_section_title
;
Structure prediction by ZEFSAII (Michael W. Deem and Ramdas Pophale) SiO2 
 PCOD9242290
Probable space group: P 21/C
;
_chemical_formula_sum "Si O2"
_cell_formula_units_Z 32
_cell_length_a 12.238610
_cell_length_b 19.472133
_cell_length_c 9.984750
_cell_angle_alpha 90.000000
_cell_angle_beta 132.232595
_cell_angle_gamma 90.000000
_cell_volume 1761.823233
_symmetry_space_group_name_H-M "P 21/C"
_symmetry_group_IT_number 14
_symmetry_cell_setting 'monoclinic'
loop_
_space_group_symop_operation_xyz
x,y,z
-x,1/2+y,1/2-z
-x,-y,-z
x,1/2-y,1/2+z
loop_
_atom_site_type_symbol
_atom_site_label
_atom_site_fract_x
_atom_site_fract_y
_atom_site_fract_z
Si Si1 0.934195 0.800462 0.130016
Si Si2 0.541984 0.060327 0.432431
Si Si3 0.117691 0.356887 0.899556
Si Si4 0.265134 0.333717 0.297244
Si Si5 0.898530 0.468677 0.614915
Si Si6 0.308909 0.322721 0.797949
Si Si7 0.130492 0.917147 0.209134
Si Si8 0.403095 0.465100 0.533781
O O1 0.952636 0.718884 0.144715
O O2 0.882175 0.822457 0.234981
O O3 0.073586 0.840963 0.190791
O O4 0.799685 0.821222 0.919800
O O5 0.448874 0.129147 0.389045
O O6 0.715279 0.071139 0.591683
O O7 0.500000 0.000000 0.500000
O O8 0.492904 0.037445 0.245258
O O9 0.217952 0.353620 0.848432
O O10 0.995725 0.415324 0.780545
O O11 0.219377 0.362726 0.114708
O O12 0.337901 0.258052 0.348175
O O13 0.364807 0.388418 0.454559
O O14 0.857114 0.433508 0.438571
O O15 0.751773 0.496049 0.565656
O O16 0.004776 0.532314 0.664176
O O17 0.500000 0.500000 0.500000
#
# Coordination Sequence:
#
# PCOD9242290 Si02
#       8
#     4   4   4   4   4   4   4   4
#     4  10  19  42  64  93 125 162 213 262 313 373
#     4  12  24  41  64  97 124 169 219 259 310 383
#     4  10  22  35  70  96 121 166 213 260 311 389
#     4  10  22  40  64  90 128 170 205 254 319 383
#     4  11  22  42  65  93 123 167 214 259 315 376
#     4  10  20  41  68  89 124 171 220 248 305 388
#     4  11  22  38  69  93 122 163 214 266 303 373
#     4  12  27  44  61  93 138 167 208 270 328 378
#
# _framework density 18.163003
#
# number of rings (size 3 to 8) (size 9 to 14) (size 15 to 20)
#    0.000    1.250    5.000    0.750    3.500    1.500 
#    2.250    1.250    0.000    0.000    0.000    0.000 
#    0.000    0.000    0.000    0.000    0.000    0.000 
#
# Total GULP energy -178753.410522 kJ/mol
# GULP energy per Si atom -5586.044079 kJ/mol
# Density = 1.812166 g / cm^3
# Si number density = 18.163003 Si / 1000 Ang^3
#
#
#
# Elastic Constant Matrix: (Units=GPa)
#
#
# Indices 1 2 3 4 5 6 
#
# 1 105.7551 40.3473 35.0644 0.0000 -3.8536 0.0000
# 2 40.3473 64.9951 29.6595 0.0000 -2.6243 0.0000
# 3 35.0644 29.6595 82.9804 0.0000 -12.3967 0.0000
# 4 0.0000 0.0000 0.0000 25.5819 0.0000 -4.4102
# 5 -3.8536 -2.6243 -12.3967 0.0000 28.4061 0.0000
# 6 0.0000 0.0000 0.0000 -4.4102 0.0000 27.5476
#
#
#
# Elastic Compliance Matrix: (Units=1/GPa)
#
#
# Indices 1 2 3 4 5 6 
#
# 1 0.013037 -0.006659 -0.003163 0.000000 -0.000227 0.000000
# 2 -0.006659 0.021827 -0.005158 0.000000 -0.001138 0.000000
# 3 -0.003163 -0.005158 0.016149 0.000000 0.006142 0.000000
# 4 0.000000 0.000000 0.000000 0.040200 0.000000 0.006436
# 5 -0.000227 -0.001138 0.006142 0.000000 0.037748 0.000000
# 6 0.000000 0.000000 0.000000 0.006436 0.000000 0.037331
#
#
# Mechanical properties :
#
#
# Convention : Reuss Voigt Hill
#
# Bulk Modulus (GPa) = 47.49734 51.54142 49.51938
# Shear Modulus (GPa) = 24.59813 26.21775 25.40794
#
# Velocity S-wave (km/s) = 3.68407 3.80342 3.74422
# Velocity P-wave (km/s) = 6.65612 6.90846 6.78346
#
# Compressibility (1/GPa) = 0.02105381
#
# Stress axis : x y z
#
# Youngs Moduli (GPa) = 76.70739 45.81466 61.92495
#
# Poissons Ratio (x) = 0.30507 0.19585
# Poissons Ratio (y) = 0.51077 0.31940
# Poissons Ratio (z) = 0.24260 0.23631
#
# Static dielectric constant tensor:
#      x y z
#    x 1.710190 0.000000 -0.021450 
#    y 0.000000 1.642290 0.000000 
#    z -0.021450 0.000000 1.608140 
# 
# From -- ./inp_files/14332.got.cif
#   From: 2010.05.17/outbox.cif.g08.bks.cpg/sg14_8_cif.got.tgz:14332.got - 2010.06.03 17:49:19.
