data_PCOD9242585
_publ_section_title
;
Structure prediction by ZEFSAII (Michael W. Deem and Ramdas Pophale) SiO2 
 PCOD9242585
Probable space group: P 21/C
;
_chemical_formula_sum "Si O2"
_cell_formula_units_Z 20
_cell_length_a 11.392773
_cell_length_b 5.048346
_cell_length_c 26.054242
_cell_angle_alpha 90.000000
_cell_angle_beta 37.061474
_cell_angle_gamma 90.000000
_cell_volume 903.103845
_symmetry_space_group_name_H-M "P 21/C"
_symmetry_group_IT_number 14
_symmetry_cell_setting 'monoclinic'
loop_
_space_group_symop_operation_xyz
x,y,z
-x,1/2+y,1/2-z
-x,-y,-z
x,1/2-y,1/2+z
loop_
_atom_site_type_symbol
_atom_site_label
_atom_site_fract_x
_atom_site_fract_y
_atom_site_fract_z
Si Si1 0.083629 0.262147 0.086567
Si Si2 0.698840 0.883211 0.131932
Si Si3 0.680549 0.399586 0.748221
Si Si4 0.013835 0.956137 0.778438
Si Si5 0.123634 0.759899 0.503206
O O1 0.112034 0.999614 0.043487
O O2 0.849176 0.310450 0.172162
O O3 0.129166 0.179790 0.129275
O O4 0.173595 0.502958 0.024033
O O5 0.651657 0.920458 0.208344
O O6 0.903250 0.725609 0.057553
O O7 0.518992 0.739228 0.168723
O O8 0.736464 0.164889 0.091240
O O9 0.793607 0.533962 0.755906
O O10 0.939119 0.220251 0.777475
#
# Coordination Sequence:
#
# PCOD9242585 Si02
#       5
#     4   4   4   4   4
#     4   9  20  36  56  83 108 152 191 230 277 337
#     4  10  20  34  57  90 122 144 182 233 302 344
#     4   9  21  33  59  88 116 149 189 242 273 348
#     4  10  21  38  60  81 109 154 203 236 272 324
#     4  10  20  35  56  86 120 150 173 229 301 354
#
# _framework density 22.145845999999999
#
# number of rings (size 3 to 8) (size 9 to 14) (size 15 to 20)
#    1.200    1.200    0.000    2.400    0.000    8.800 
#    0.000    0.000    0.000    7.200    0.000    0.000 
#    0.000    0.000    0.000    0.000    0.000    0.000 
#
# Total GULP energy -111546.482993 kJ/mol
# GULP energy per Si atom -5577.324150 kJ/mol
# Density = 2.209544 g / cm^3
# Si number density = 22.145846 Si / 1000 Ang^3
#
#
#
# Elastic Constant Matrix: (Units=GPa)
#
#
# Indices 1 2 3 4 5 6 
#
# 1 64.6396 14.5782 20.8804 0.0000 20.1734 0.0000
# 2 14.5782 92.3559 19.6846 0.0000 5.5535 0.0000
# 3 20.8804 19.6846 68.8237 0.0000 5.6255 0.0000
# 4 0.0000 0.0000 0.0000 31.7110 0.0000 17.4177
# 5 20.1734 5.5535 5.6255 0.0000 23.4989 0.0000
# 6 0.0000 0.0000 0.0000 17.4177 0.0000 22.4999
#
#
#
# Elastic Compliance Matrix: (Units=1/GPa)
#
#
# Indices 1 2 3 4 5 6 
#
# 1 0.023170 -0.001466 -0.005113 0.000000 -0.018321 0.000000
# 2 -0.001466 0.011714 -0.002838 0.000000 -0.000830 0.000000
# 3 -0.005113 -0.002838 0.016808 0.000000 0.001036 0.000000
# 4 0.000000 0.000000 0.000000 0.054862 0.000000 -0.042470
# 5 -0.018321 -0.000830 0.001036 0.000000 0.058231 0.000000
# 6 0.000000 0.000000 0.000000 -0.042470 0.000000 0.077322
#
#
# Mechanical properties :
#
#
# Convention : Reuss Voigt Hill
#
# Bulk Modulus (GPa) = 30.43291 37.34506 33.88899
# Shear Modulus (GPa) = 18.38952 26.92036 22.65494
#
# Velocity S-wave (km/s) = 2.88476 3.49032 3.20189
# Velocity P-wave (km/s) = 4.98675 5.75699 5.38566
#
# Compressibility (1/GPa) = 0.03285916
#
# Stress axis : x y z
#
# Youngs Moduli (GPa) = 43.15854 85.36916 59.49555
#
# Poissons Ratio (x) = 0.12515 0.30419
# Poissons Ratio (y) = 0.06327 0.16883
# Poissons Ratio (z) = 0.22066 0.24225
#
# Static dielectric constant tensor:
#      x y z
#    x 1.826460 0.000000 0.037240 
#    y 0.000000 1.858140 0.000000 
#    z 0.037240 0.000000 1.872440 
# 
# From -- ./inp_files/59799.got.cif
#   From: 2010.05.17/outbox.cif.g08.bks.cpg/sg14_30_cif.got.tgz:59799.got - 2010.06.03 17:49:19.
