data_PCOD9242962
_publ_section_title
;
Structure prediction by ZEFSAII (Michael W. Deem and Ramdas Pophale) SiO2 
 PCOD9242962
Probable space group: P 21/C
;
_chemical_formula_sum "Si O2"
_cell_formula_units_Z 24
_cell_length_a 13.612508
_cell_length_b 10.437423
_cell_length_c 13.962830
_cell_angle_alpha 90.000000
_cell_angle_beta 34.762565
_cell_angle_gamma 90.000000
_cell_volume 1131.135231
_symmetry_space_group_name_H-M "P 21/C"
_symmetry_group_IT_number 14
_symmetry_cell_setting 'monoclinic'
loop_
_space_group_symop_operation_xyz
x,y,z
-x,1/2+y,1/2-z
-x,-y,-z
x,1/2-y,1/2+z
loop_
_atom_site_type_symbol
_atom_site_label
_atom_site_fract_x
_atom_site_fract_y
_atom_site_fract_z
Si Si1 0.103189 0.103596 0.857584
Si Si2 0.176907 0.793034 0.451769
Si Si3 0.251638 0.978167 0.561167
Si Si4 0.461750 0.200590 0.597894
Si Si5 0.545717 0.404518 0.695791
Si Si6 0.490482 0.897726 0.092207
O O1 0.293020 0.117637 0.748793
O O2 0.126440 0.057374 0.729376
O O3 0.002364 0.238059 0.941047
O O4 0.000000 0.000000 0.000000
O O5 0.161227 0.886497 0.555609
O O6 0.293135 0.668790 0.387391
O O7 0.294975 0.868352 0.281071
O O8 0.367779 0.885307 0.535028
O O9 0.391417 0.063311 0.391900
O O10 0.480144 0.305211 0.667044
O O11 0.439912 0.270089 0.513259
O O12 0.581713 0.538311 0.610984
O O13 0.500000 0.000000 0.000000
#
# Coordination Sequence:
#
# PCOD9242962 Si02
#       6
#     4   4   4   4   4   4
#     4  12  24  35  53  83 114 143 179 230 276 316
#     4  10  21  36  56  83 111 139 182 232 272 318
#     4  10  21  38  57  78 108 149 185 217 271 335
#     4  10  20  36  59  80 107 146 183 221 269 332
#     4   9  19  37  59  79 104 143 186 221 266 331
#     4   9  18  36  59  81 103 140 185 223 267 326
#
# _framework density 21.217623
#
# number of rings (size 3 to 8) (size 9 to 14) (size 15 to 20)
#    0.000    2.000    0.000    3.500    0.000    2.667 
#    0.000    7.500    0.000    0.000    0.000    0.000 
#    0.000    0.000    0.000    0.000    0.000    0.000 
#
# Total GULP energy -134049.163093 kJ/mol
# GULP energy per Si atom -5585.381796 kJ/mol
# Density = 2.116933 g / cm^3
# Si number density = 21.217623 Si / 1000 Ang^3
#
#
#
# Elastic Constant Matrix: (Units=GPa)
#
#
# Indices 1 2 3 4 5 6 
#
# 1 33.2766 10.1230 8.8962 0.0000 10.4476 0.0000
# 2 10.1230 56.1100 18.0677 0.0000 10.6864 0.0000
# 3 8.8962 18.0677 68.8297 0.0000 20.4656 0.0000
# 4 0.0000 0.0000 0.0000 50.8026 0.0000 9.9738
# 5 10.4476 10.6864 20.4656 0.0000 25.2585 0.0000
# 6 0.0000 0.0000 0.0000 9.9738 0.0000 32.4407
#
#
#
# Elastic Compliance Matrix: (Units=1/GPa)
#
#
# Indices 1 2 3 4 5 6 
#
# 1 0.035314 -0.003981 0.000426 0.000000 -0.013267 0.000000
# 2 -0.003981 0.020491 -0.003657 0.000000 -0.004059 0.000000
# 3 0.000426 -0.003657 0.019795 0.000000 -0.014667 0.000000
# 4 0.000000 0.000000 0.000000 0.020948 0.000000 -0.006441
# 5 -0.013267 -0.004059 -0.014667 0.000000 0.058680 0.000000
# 6 0.000000 0.000000 0.000000 -0.006441 0.000000 0.032806
#
#
# Mechanical properties :
#
#
# Convention : Reuss Voigt Hill
#
# Bulk Modulus (GPa) = 16.34688 25.82112 21.08400
# Shear Modulus (GPa) = 22.43646 29.77564 26.10605
#
# Velocity S-wave (km/s) = 3.25537 3.75019 3.51150
# Velocity P-wave (km/s) = 4.67450 5.56309 5.13804
#
# Compressibility (1/GPa) = 0.06117376
#
# Stress axis : x y z
#
# Youngs Moduli (GPa) = 28.31750 48.80133 50.51820
#
# Poissons Ratio (x) = 0.19430 -0.02150
# Poissons Ratio (y) = 0.11274 0.18476
# Poissons Ratio (z) = -0.01205 0.17848
#
# Static dielectric constant tensor:
#      x y z
#    x 1.783400 0.000000 0.038510 
#    y 0.000000 1.812910 0.000000 
#    z 0.038510 0.000000 1.729200 
# 
# From -- ./inp_files/44577.got.cif
#   From: 2010.05.17/outbox.cif.g08.bks.cpg/sg14_23_cif.got.tgz:44577.got - 2010.06.03 17:49:19.
