data_PCOD9242719
_publ_section_title
;
Structure prediction by ZEFSAII (Michael W. Deem and Ramdas Pophale) SiO2 
 PCOD9242719
Probable space group: P 21/C
;
_chemical_formula_sum "Si O2"
_cell_formula_units_Z 32
_cell_length_a 11.681247
_cell_length_b 8.586540
_cell_length_c 27.872216
_cell_angle_alpha 90.000000
_cell_angle_beta 149.041753
_cell_angle_gamma 90.000000
_cell_volume 1438.106634
_symmetry_space_group_name_H-M "P 21/C"
_symmetry_group_IT_number 14
_symmetry_cell_setting 'monoclinic'
loop_
_space_group_symop_operation_xyz
x,y,z
-x,1/2+y,1/2-z
-x,-y,-z
x,1/2-y,1/2+z
loop_
_atom_site_type_symbol
_atom_site_label
_atom_site_fract_x
_atom_site_fract_y
_atom_site_fract_z
Si Si1 0.641840 0.937613 0.280412
Si Si2 0.751084 0.195543 0.918986
Si Si3 0.624216 0.864436 0.517004
Si Si4 0.549688 0.230026 0.698864
Si Si5 0.305359 0.631007 0.425845
Si Si6 0.145393 0.367584 0.494991
Si Si7 0.970588 0.636072 0.659004
Si Si8 0.158889 0.629870 0.958267
O O1 0.486056 0.841911 0.188097
O O2 0.546369 0.898818 0.298862
O O3 0.892420 0.876947 0.365520
O O4 0.611269 0.116291 0.252857
O O5 0.837136 0.044390 0.979463
O O6 0.749329 0.331145 0.956558
O O7 0.929905 0.212968 0.940983
O O8 0.423086 0.748395 0.431302
O O9 0.804591 0.774665 0.615349
O O10 0.500000 0.000000 0.500000
O O11 0.761719 0.957928 0.527305
O O12 0.359946 0.283666 0.593906
O O13 0.772423 0.175323 0.752268
O O14 0.500000 0.500000 0.500000
O O15 0.091448 0.525723 0.337687
O O16 0.245340 0.739863 0.450620
O O17 0.114600 0.378290 0.427112
#
# Coordination Sequence:
#
# PCOD9242719 Si02
#       8
#     4   4   4   4   4   4   4   4
#     4  11  23  37  57  89 129 165 202 244 304 374
#     4  10  20  35  57  87 127 169 197 234 297 381
#     4   9  20  38  61  88 114 153 208 262 306 358
#     4  11  23  37  57  89 130 165 202 247 298 380
#     4   9  20  36  65  88 110 157 215 248 307 372
#     4  10  20  35  57  87 128 164 201 234 295 379
#     4  11  19  38  62  90 120 163 201 252 312 363
#     4  11  19  38  62  88 124 163 198 256 319 349
#
# _framework density 22.251480000000001
#
# number of rings (size 3 to 8) (size 9 to 14) (size 15 to 20)
#    0.000    1.750    5.000    0.000    1.750    0.000 
#    2.250    1.875    0.000   22.500    0.000    0.000 
#    0.000    0.000    0.000    0.000    0.000    0.000 
#
# Total GULP energy -178680.925581 kJ/mol
# GULP energy per Si atom -5583.778924 kJ/mol
# Density = 2.220083 g / cm^3
# Si number density = 22.251480 Si / 1000 Ang^3
#
#
#
# Elastic Constant Matrix: (Units=GPa)
#
#
# Indices 1 2 3 4 5 6 
#
# 1 63.7998 26.3367 35.2992 0.0000 34.0502 0.0000
# 2 26.3367 101.9726 31.3484 0.0000 23.2209 0.0000
# 3 35.2992 31.3484 96.4888 0.0000 25.1853 0.0000
# 4 0.0000 0.0000 0.0000 28.8280 0.0000 8.9484
# 5 34.0502 23.2209 25.1853 0.0000 41.2994 0.0000
# 6 0.0000 0.0000 0.0000 8.9484 0.0000 47.8509
#
#
#
# Elastic Compliance Matrix: (Units=1/GPa)
#
#
# Indices 1 2 3 4 5 6 
#
# 1 0.030373 -0.001465 -0.005131 0.000000 -0.021089 0.000000
# 2 -0.001465 0.011797 -0.002237 0.000000 -0.004061 0.000000
# 3 -0.005131 -0.002237 0.013719 0.000000 -0.002878 0.000000
# 4 0.000000 0.000000 0.000000 0.036826 0.000000 -0.006887
# 5 -0.021089 -0.004061 -0.002878 0.000000 0.045639 0.000000
# 6 0.000000 0.000000 0.000000 -0.006887 0.000000 0.022186
#
#
# Mechanical properties :
#
#
# Convention : Reuss Voigt Hill
#
# Bulk Modulus (GPa) = 26.16171 49.80332 37.98251
# Shear Modulus (GPa) = 26.18520 34.88080 30.53300
#
# Velocity S-wave (km/s) = 3.43415 3.96355 3.70831
# Velocity P-wave (km/s) = 5.24474 6.58612 5.95333
#
# Compressibility (1/GPa) = 0.03822380
#
# Stress axis : x y z
#
# Youngs Moduli (GPa) = 32.92410 84.76451 72.89162
#
# Poissons Ratio (x) = 0.12416 0.37401
# Poissons Ratio (y) = 0.04823 0.16305
# Poissons Ratio (z) = 0.16894 0.18961
#
# Static dielectric constant tensor:
#      x y z
#    x 1.865020 0.000000 0.008760 
#    y 0.000000 1.890460 0.000000 
#    z 0.008760 0.000000 1.782430 
# 
# From -- ./inp_files/80027.got.cif
#   From: 2010.05.17/outbox.cif.g08.bks.cpg/sg14_41_cif.got.tgz:80027.got - 2010.06.03 17:49:19.
