data_PCOD9242876
_publ_section_title
;
Structure prediction by ZEFSAII (Michael W. Deem and Ramdas Pophale) SiO2 
 PCOD9242876
Probable space group: P 21/C
;
_chemical_formula_sum "Si O2"
_cell_formula_units_Z 32
_cell_length_a 30.515828
_cell_length_b 11.522002
_cell_length_c 8.164476
_cell_angle_alpha 90.000000
_cell_angle_beta 35.244527
_cell_angle_gamma 90.000000
_cell_volume 1656.562388
_symmetry_space_group_name_H-M "P 21/C"
_symmetry_group_IT_number 14
_symmetry_cell_setting 'monoclinic'
loop_
_space_group_symop_operation_xyz
x,y,z
-x,1/2+y,1/2-z
-x,-y,-z
x,1/2-y,1/2+z
loop_
_atom_site_type_symbol
_atom_site_label
_atom_site_fract_x
_atom_site_fract_y
_atom_site_fract_z
Si Si1 0.369439 0.912374 0.140094
Si Si2 0.946169 0.531598 0.510569
Si Si3 0.527685 0.898954 0.038346
Si Si4 0.049829 0.255588 0.319132
Si Si5 0.877286 0.332324 0.289340
Si Si6 0.550015 0.291765 0.911558
Si Si7 0.191741 0.609865 0.150685
Si Si8 0.080672 0.069955 0.447384
O O1 0.411974 0.870938 0.844047
O O2 0.393333 0.810283 0.196570
O O3 0.279927 0.916503 0.387032
O O4 0.398241 0.038429 0.113192
O O5 0.950660 0.669431 0.508605
O O6 0.861911 0.483852 0.774880
O O7 0.000000 0.500000 0.500000
O O8 0.991673 0.467338 0.227581
O O9 0.520862 0.780240 0.952699
O O10 0.475507 0.867785 0.354862
O O11 0.500000 0.000000 0.000000
O O12 0.092915 0.139056 0.241272
O O13 0.961850 0.224369 0.549131
O O14 0.091133 0.342736 0.067467
O O15 0.823491 0.232560 0.387688
O O16 0.843244 0.375460 0.562808
O O17 0.879726 0.445750 0.166571
#
# Coordination Sequence:
#
# PCOD9242876 Si02
#       8
#     4   4   4   4   4   4   4   4
#     4  10  20  36  58  95 127 158 194 245 305 356
#     4  10  20  36  56  78 109 153 201 249 303 354
#     4   9  18  34  65  94 126 161 201 238 284 357
#     4  11  21  37  57  79 106 140 209 251 296 355
#     4  12  23  38  57  87 110 156 196 262 314 361
#     4   9  18  36  62  95 125 161 198 240 285 359
#     4  12  24  37  59  86 129 152 198 255 316 362
#     4  11  22  35  59  80 105 143 207 261 295 352
#
# _framework density 19.317112000000002
#
# number of rings (size 3 to 8) (size 9 to 14) (size 15 to 20)
#    0.000    1.500    3.750    3.000    3.500    0.000 
#    0.000    0.000    2.750    0.000    0.000    0.000 
#    0.000    0.000    0.000    0.000    0.000    0.000 
#
# Total GULP energy -178245.423188 kJ/mol
# GULP energy per Si atom -5570.169475 kJ/mol
# Density = 1.927315 g / cm^3
# Si number density = 19.317112 Si / 1000 Ang^3
#
#
#
# Elastic Constant Matrix: (Units=GPa)
#
#
# Indices 1 2 3 4 5 6 
#
# 1 83.1526 46.3204 50.4404 0.0000 -5.5550 0.0000
# 2 46.3204 93.6486 41.0493 0.0000 -8.1249 0.0000
# 3 50.4404 41.0493 65.8361 0.0000 -14.1933 0.0000
# 4 0.0000 0.0000 0.0000 25.2528 0.0000 5.2503
# 5 -5.5550 -8.1249 -14.1933 0.0000 37.3936 0.0000
# 6 0.0000 0.0000 0.0000 5.2503 0.0000 44.7913
#
#
#
# Elastic Compliance Matrix: (Units=1/GPa)
#
#
# Indices 1 2 3 4 5 6 
#
# 1 0.024702 -0.005358 -0.016385 0.000000 -0.003714 0.000000
# 2 -0.005358 0.015860 -0.005677 0.000000 0.000495 0.000000
# 3 -0.016385 -0.005677 0.033209 0.000000 0.008937 0.000000
# 4 0.000000 0.000000 0.000000 0.040589 0.000000 -0.004758
# 5 -0.003714 0.000495 0.008937 0.000000 0.029691 0.000000
# 6 0.000000 0.000000 0.000000 -0.004758 0.000000 0.022883
#
#
# Mechanical properties :
#
#
# Convention : Reuss Voigt Hill
#
# Bulk Modulus (GPa) = 52.82471 57.58418 55.20444
# Shear Modulus (GPa) = 21.92170 28.47603 25.19887
#
# Velocity S-wave (km/s) = 3.37238 3.84361 3.61568
# Velocity P-wave (km/s) = 6.52452 7.04077 6.78756
#
# Compressibility (1/GPa) = 0.01893054
#
# Stress axis : x y z
#
# Youngs Moduli (GPa) = 40.48247 63.05282 30.11216
#
# Poissons Ratio (x) = 0.33784 0.49340
# Poissons Ratio (y) = 0.21691 0.17094
# Poissons Ratio (z) = 0.66332 0.35794
#
# Static dielectric constant tensor:
#      x y z
#    x 1.805960 0.000000 0.063010 
#    y 0.000000 1.802380 0.000000 
#    z 0.063010 0.000000 1.655860 
# 
# From -- ./inp_files/19997.got.cif
#   From: 2010.05.17/outbox.cif.g08.bks.cpg/sg14_10_cif.got.tgz:19997.got - 2010.06.03 17:49:19.
