data_PCOD9242706
_publ_section_title
;
Structure prediction by ZEFSAII (Michael W. Deem and Ramdas Pophale) SiO2 
 PCOD9242706
Probable space group: P 21/C
;
_chemical_formula_sum "Si O2"
_cell_formula_units_Z 28
_cell_length_a 15.624587
_cell_length_b 10.295022
_cell_length_c 18.836574
_cell_angle_alpha 90.000000
_cell_angle_beta 28.582536
_cell_angle_gamma 90.000000
_cell_volume 1449.609083
_symmetry_space_group_name_H-M "P 21/C"
_symmetry_group_IT_number 14
_symmetry_cell_setting 'monoclinic'
loop_
_space_group_symop_operation_xyz
x,y,z
-x,1/2+y,1/2-z
-x,-y,-z
x,1/2-y,1/2+z
loop_
_atom_site_type_symbol
_atom_site_label
_atom_site_fract_x
_atom_site_fract_y
_atom_site_fract_z
Si Si1 0.509588 0.500475 0.669144
Si Si2 0.853144 0.425466 0.149267
Si Si3 0.761742 0.537021 0.751233
Si Si4 0.364662 0.646693 0.033790
Si Si5 0.874929 0.330244 0.557920
Si Si6 0.677756 0.449387 0.409883
Si Si7 0.405578 0.785251 0.348502
O O1 0.335023 0.542111 0.751698
O O2 0.671877 0.501985 0.494078
O O3 0.494109 0.349900 0.704481
O O4 0.521300 0.606341 0.722804
O O5 0.840844 0.475641 0.238639
O O6 0.899053 0.275191 0.102952
O O7 0.000000 0.500000 0.000000
O O8 0.576339 0.615542 0.886086
O O9 0.773344 0.446630 0.672463
O O10 0.940792 0.622428 0.612113
O O11 0.745033 0.449948 0.835053
O O12 0.329002 0.648329 0.975500
O O13 0.335098 0.793990 0.079250
O O14 0.751488 0.264244 0.588628
O O15 0.500000 0.500000 0.500000
#
# Coordination Sequence:
#
# PCOD9242706 Si02
#       7
#     4   4   4   4   4   4   4
#     4   9  20  36  59  78 116 157 189 236 292 356
#     4  10  20  35  57  84 113 144 193 247 286 342
#     4  10  21  37  62  90 113 160 200 247 292 357
#     4  10  20  37  63  83 120 151 202 241 292 357
#     4  10  21  37  59  84 123 150 197 247 298 343
#     4   9  18  34  55  83 109 147 194 236 284 342
#     4  10  20  38  56  90 120 157 194 247 297 359
#
# _framework density 19.315552
#
# number of rings (size 3 to 8) (size 9 to 14) (size 15 to 20)
#    0.000    2.286    1.429    0.857    6.000    0.000 
#    0.000    5.714    0.000    5.143    0.000    0.000 
#    0.000    0.000    0.000    0.000    0.000    0.000 
#
# Total GULP energy -155935.254771 kJ/mol
# GULP energy per Si atom -5569.116242 kJ/mol
# Density = 1.927159 g / cm^3
# Si number density = 19.315552 Si / 1000 Ang^3
#
#
#
# Elastic Constant Matrix: (Units=GPa)
#
#
# Indices 1 2 3 4 5 6 
#
# 1 40.6084 21.1467 33.6045 0.0000 26.0506 0.0000
# 2 21.1467 61.1755 55.1273 0.0000 17.3109 0.0000
# 3 33.6045 55.1273 168.3287 0.0000 29.9746 0.0000
# 4 0.0000 0.0000 0.0000 24.8116 0.0000 0.4035
# 5 26.0506 17.3109 29.9746 0.0000 28.8290 0.0000
# 6 0.0000 0.0000 0.0000 0.4035 0.0000 26.4423
#
#
#
# Elastic Compliance Matrix: (Units=1/GPa)
#
#
# Indices 1 2 3 4 5 6 
#
# 1 0.060919 -0.005593 -0.001381 0.000000 -0.050253 0.000000
# 2 -0.005593 0.025065 -0.006519 0.000000 -0.003219 0.000000
# 3 -0.001381 -0.006519 0.009121 0.000000 -0.004321 0.000000
# 4 0.000000 0.000000 0.000000 0.040314 0.000000 -0.000615
# 5 -0.050253 -0.003219 -0.004321 0.000000 0.086523 0.000000
# 6 0.000000 0.000000 0.000000 -0.000615 0.000000 0.037828
#
#
# Mechanical properties :
#
#
# Convention : Reuss Voigt Hill
#
# Bulk Modulus (GPa) = 14.68035 54.42995 34.55515
# Shear Modulus (GPa) = 16.15709 26.69886 21.42798
#
# Velocity S-wave (km/s) = 2.89534 3.72189 3.33432
# Velocity P-wave (km/s) = 4.33521 6.83451 5.72296
#
# Compressibility (1/GPa) = 0.06811825
#
# Stress axis : x y z
#
# Youngs Moduli (GPa) = 16.41525 39.89616 109.63867
#
# Poissons Ratio (x) = 0.22314 0.15143
# Poissons Ratio (y) = 0.09181 0.71474
# Poissons Ratio (z) = 0.02267 0.26008
#
# Static dielectric constant tensor:
#      x y z
#    x 1.695290 0.000000 0.035250 
#    y 0.000000 1.667630 0.000000 
#    z 0.035250 0.000000 1.703500 
# 
# From -- ./inp_files/60451.got.cif
#   From: 2010.05.17/outbox.cif.g08.bks.cpg/sg14_31_cif.got.tgz:60451.got - 2010.06.03 17:49:19.
