data_PCOD9242900
_publ_section_title
;
Structure prediction by ZEFSAII (Michael W. Deem and Ramdas Pophale) SiO2 
 PCOD9242900
Probable space group: P 21/C
;
_chemical_formula_sum "Si O2"
_cell_formula_units_Z 24
_cell_length_a 11.966697
_cell_length_b 12.044264
_cell_length_c 11.288183
_cell_angle_alpha 90.000000
_cell_angle_beta 45.635470
_cell_angle_gamma 90.000000
_cell_volume 1163.127573
_symmetry_space_group_name_H-M "P 21/C"
_symmetry_group_IT_number 14
_symmetry_cell_setting 'monoclinic'
loop_
_space_group_symop_operation_xyz
x,y,z
-x,1/2+y,1/2-z
-x,-y,-z
x,1/2-y,1/2+z
loop_
_atom_site_type_symbol
_atom_site_label
_atom_site_fract_x
_atom_site_fract_y
_atom_site_fract_z
Si Si1 0.149717 0.892397 0.159920
Si Si2 0.319903 0.111159 0.032674
Si Si3 0.666560 0.881716 0.246120
Si Si4 0.590264 0.256090 0.931883
Si Si5 0.830434 0.396595 0.631501
Si Si6 0.904073 0.755917 0.944949
O O1 0.998321 0.854724 0.346388
O O2 0.230159 0.004469 0.147407
O O3 0.278883 0.796107 0.080648
O O4 0.117890 0.903592 0.043567
O O5 0.468434 0.160432 0.987252
O O6 0.189491 0.205341 0.102489
O O7 0.374082 0.080755 0.858066
O O8 0.514938 0.850681 0.430673
O O9 0.768884 0.983278 0.218706
O O10 0.771955 0.770910 0.144034
O O11 0.685939 0.311077 0.753310
O O12 0.968331 0.347873 0.610306
#
# Coordination Sequence:
#
# PCOD9242900 Si02
#       6
#     4   4   4   4   4   4
#     4  10  21  37  56  75 113 145 178 221 275 323
#     4   9  21  35  56  79 109 145 177 223 273 317
#     4   9  20  35  56  83 105 140 182 225 268 316
#     4  11  20  35  57  82 111 140 181 218 276 329
#     4  10  20  36  57  80 109 143 179 227 268 321
#     4   9  21  34  56  80 103 145 183 220 274 309
#
# _framework density 20.634022999999999
#
# number of rings (size 3 to 8) (size 9 to 14) (size 15 to 20)
#    1.000    1.333    0.000    2.500    2.333    0.000 
#    0.000    0.833    3.667    0.000    0.000    0.000 
#    0.000    0.000    0.000    0.000    0.000    0.000 
#
# Total GULP energy -133648.300779 kJ/mol
# GULP energy per Si atom -5568.679199 kJ/mol
# Density = 2.058706 g / cm^3
# Si number density = 20.634023 Si / 1000 Ang^3
#
#
#
# Elastic Constant Matrix: (Units=GPa)
#
#
# Indices 1 2 3 4 5 6 
#
# 1 55.4232 -2.0490 11.8663 0.0000 -11.2475 0.0000
# 2 -2.0490 41.0051 15.5792 0.0000 -6.5142 0.0000
# 3 11.8663 15.5792 45.0758 0.0000 -12.4248 0.0000
# 4 0.0000 0.0000 0.0000 37.7017 0.0000 -9.5496
# 5 -11.2475 -6.5142 -12.4248 0.0000 20.5098 0.0000
# 6 0.0000 0.0000 0.0000 -9.5496 0.0000 29.3259
#
#
#
# Elastic Compliance Matrix: (Units=1/GPa)
#
#
# Indices 1 2 3 4 5 6 
#
# 1 0.021225 0.004317 -0.004194 0.000000 0.010471 0.000000
# 2 0.004317 0.029181 -0.009621 0.000000 0.005807 0.000000
# 3 -0.004194 -0.009621 0.030177 0.000000 0.012925 0.000000
# 4 0.000000 0.000000 0.000000 0.028908 0.000000 0.009414
# 5 0.010471 0.005807 0.012925 0.000000 0.064174 0.000000
# 6 0.000000 0.000000 0.000000 0.009414 0.000000 0.037165
#
#
# Mechanical properties :
#
#
# Convention : Reuss Voigt Hill
#
# Bulk Modulus (GPa) = 16.23693 21.36632 18.80163
# Shear Modulus (GPa) = 19.97161 25.24800 22.60981
#
# Velocity S-wave (km/s) = 3.11448 3.50181 3.31381
# Velocity P-wave (km/s) = 4.56283 5.16987 4.87581
#
# Compressibility (1/GPa) = 0.06158799
#
# Stress axis : x y z
#
# Youngs Moduli (GPa) = 47.11349 34.26884 33.13781
#
# Poissons Ratio (x) = -0.14795 0.13897
# Poissons Ratio (y) = -0.20340 0.31883
# Poissons Ratio (z) = 0.19758 0.32971
#
# Static dielectric constant tensor:
#      x y z
#    x 1.729670 0.000000 -0.005680 
#    y 0.000000 1.771990 0.000000 
#    z -0.005680 0.000000 1.720950 
# 
# From -- ./inp_files/28976.got.cif
#   From: 2010.05.17/outbox.cif.g08.bks.cpg/sg14_15_cif.got.tgz:28976.got - 2010.06.03 17:49:19.
