data_PCOD9242578
_publ_section_title
;
Structure prediction by ZEFSAII (Michael W. Deem and Ramdas Pophale) SiO2 
 PCOD9242578
Probable space group: P 21/C
;
_chemical_formula_sum "Si O2"
_cell_formula_units_Z 32
_cell_length_a 10.709269
_cell_length_b 8.034328
_cell_length_c 20.831548
_cell_angle_alpha 90.000000
_cell_angle_beta 66.616619
_cell_angle_gamma 90.000000
_cell_volume 1645.174621
_symmetry_space_group_name_H-M "P 21/C"
_symmetry_group_IT_number 14
_symmetry_cell_setting 'monoclinic'
loop_
_space_group_symop_operation_xyz
x,y,z
-x,1/2+y,1/2-z
-x,-y,-z
x,1/2-y,1/2+z
loop_
_atom_site_type_symbol
_atom_site_label
_atom_site_fract_x
_atom_site_fract_y
_atom_site_fract_z
Si Si1 0.243199 0.995480 0.397347
Si Si2 0.294301 0.508930 0.095271
Si Si3 0.434454 0.247122 0.791480
Si Si4 0.305557 0.535833 0.241980
Si Si5 0.651578 0.534388 0.572175
Si Si6 0.842514 0.782891 0.473940
Si Si7 0.875109 0.351856 0.611656
Si Si8 0.569319 0.196663 0.537966
O O1 0.327393 0.107997 0.330854
O O2 0.147999 0.112782 0.461265
O O3 0.167339 0.842414 0.380475
O O4 0.349861 0.911574 0.425039
O O5 0.272089 0.547701 0.174040
O O6 0.176700 0.413883 0.079972
O O7 0.422721 0.384980 0.064668
O O8 0.345262 0.667980 0.044510
O O9 0.583107 0.327335 0.757535
O O10 0.379778 0.139553 0.743188
O O11 0.427751 0.123419 0.853897
O O12 0.173060 0.562232 0.312820
O O13 0.706729 0.674008 0.513013
O O14 0.784762 0.446770 0.576791
O O15 0.567659 0.387641 0.557665
O O16 0.966350 0.658443 0.435991
#
# Coordination Sequence:
#
# PCOD9242578 Si02
#       8
#     4   4   4   4   4   4   4   4
#     4   9  17  35  59  85 103 141 189 234 276 313
#     4  10  21  36  55  76 115 148 174 226 280 341
#     4  10  20  34  57  83 109 134 185 236 283 324
#     4  11  22  36  54  81 114 149 178 230 284 335
#     4   9  20  35  59  87 104 135 190 240 274 312
#     4  10  20  36  56  83 112 148 184 224 275 332
#     4  10  20  36  57  80 114 148 185 226 268 328
#     4   9  18  36  58  81 109 137 179 234 287 318
#
# _framework density 19.450823
#
# number of rings (size 3 to 8) (size 9 to 14) (size 15 to 20)
#    0.000    2.250    1.250    1.500    5.250    0.500 
#    0.000    2.500    0.000    0.000    0.000    0.000 
#    0.000    0.000    0.000    0.000    0.000    0.000 
#
# Total GULP energy -178613.919891 kJ/mol
# GULP energy per Si atom -5581.684997 kJ/mol
# Density = 1.940655 g / cm^3
# Si number density = 19.450823 Si / 1000 Ang^3
#
#
#
# Elastic Constant Matrix: (Units=GPa)
#
#
# Indices 1 2 3 4 5 6 
#
# 1 13.9422 -17.7395 3.1747 0.0000 -4.3833 0.0000
# 2 -17.7395 59.0918 -0.3254 0.0000 4.0163 0.0000
# 3 3.1747 -0.3254 52.1459 0.0000 -2.1606 0.0000
# 4 0.0000 0.0000 0.0000 21.3783 0.0000 -2.6928
# 5 -4.3833 4.0163 -2.1606 0.0000 21.2395 0.0000
# 6 0.0000 0.0000 0.0000 -2.6928 0.0000 23.4993
#
#
#
# Elastic Compliance Matrix: (Units=1/GPa)
#
#
# Indices 1 2 3 4 5 6 
#
# 1 0.125169 0.036296 -0.006636 0.000000 0.018293 0.000000
# 2 0.036296 0.027668 -0.001952 0.000000 0.002060 0.000000
# 3 -0.006636 -0.001952 0.019610 0.000000 0.000994 0.000000
# 4 0.000000 0.000000 0.000000 0.047462 0.000000 0.005439
# 5 0.018293 0.002060 0.000994 0.000000 0.050569 0.000000
# 6 0.000000 0.000000 0.000000 0.005439 0.000000 0.043178
#
#
# Mechanical properties :
#
#
# Convention : Reuss Voigt Hill
#
# Bulk Modulus (GPa) = 4.38859 10.59995 7.49427
# Shear Modulus (GPa) = 14.96142 22.56142 18.76142
#
# Velocity S-wave (km/s) = 2.77644 3.40946 3.10910
# Velocity P-wave (km/s) = 3.54109 4.57828 4.09267
#
# Compressibility (1/GPa) = 0.22786356
#
# Stress axis : x y z
#
# Youngs Moduli (GPa) = 7.98922 36.14251 50.99441
#
# Poissons Ratio (x) = -1.31183 0.33840
# Poissons Ratio (y) = -0.28998 0.09953
# Poissons Ratio (z) = 0.05302 0.07054
#
# Static dielectric constant tensor:
#      x y z
#    x 1.687240 0.000000 0.001430 
#    y 0.000000 1.696410 0.000000 
#    z 0.001430 0.000000 1.689610 
# 
# From -- ./inp_files/66849.got.cif
#   From: 2010.05.17/outbox.cif.g08.bks.cpg/sg14_34_cif.got.tgz:66849.got - 2010.06.03 17:49:19.
