data_PCOD9242195
_publ_section_title
;
Structure prediction by ZEFSAII (Michael W. Deem and Ramdas Pophale) SiO2 
 PCOD9242195
Probable space group: P 21/C
;
_chemical_formula_sum "Si O2"
_cell_formula_units_Z 32
_cell_length_a 10.244216
_cell_length_b 17.543201
_cell_length_c 14.097259
_cell_angle_alpha 90.000000
_cell_angle_beta 34.469154
_cell_angle_gamma 90.000000
_cell_volume 1433.870343
_symmetry_space_group_name_H-M "P 21/C"
_symmetry_group_IT_number 14
_symmetry_cell_setting 'monoclinic'
loop_
_space_group_symop_operation_xyz
x,y,z
-x,1/2+y,1/2-z
-x,-y,-z
x,1/2-y,1/2+z
loop_
_atom_site_type_symbol
_atom_site_label
_atom_site_fract_x
_atom_site_fract_y
_atom_site_fract_z
Si Si1 0.107625 0.064676 0.694376
Si Si2 0.656219 0.635605 0.782979
Si Si3 0.076089 0.142319 0.072786
Si Si4 0.991528 0.184825 0.609393
Si Si5 0.136411 0.595739 0.111208
Si Si6 0.557965 0.411721 0.349276
Si Si7 0.265241 0.188815 0.259740
Si Si8 0.612270 0.433483 0.540669
O O1 0.305535 0.079257 0.651628
O O2 0.065093 0.141366 0.659876
O O3 0.127549 0.995983 0.607047
O O4 0.879853 0.053379 0.895417
O O5 0.834032 0.620615 0.587912
O O6 0.712161 0.722722 0.780262
O O7 0.381822 0.627443 0.927176
O O8 0.961828 0.225615 0.141203
O O9 0.905330 0.100359 0.249017
O O10 0.325807 0.136036 0.974234
O O11 0.773468 0.140274 0.696825
O O12 0.184926 0.182233 0.415143
O O13 0.922225 0.640596 0.189918
O O14 0.589829 0.432374 0.440144
O O15 0.523894 0.496914 0.328166
O O16 0.513207 0.149137 0.118065
#
# Coordination Sequence:
#
# PCOD9242195 Si02
#       8
#     4   4   4   4   4   4   4   4
#     4  11  24  46  64  98 135 176 222 269 334 399
#     4  11  28  43  64 101 139 174 223 268 330 412
#     4  11  23  43  65  99 133 178 219 270 337 392
#     4  10  24  38  66  98 132 169 223 283 328 389
#     4  12  24  45  72  93 133 183 217 274 334 389
#     4  10  19  40  63  94 126 165 221 273 320 388
#     4  11  23  42  67 104 125 172 225 275 339 384
#     4  10  20  38  69  92 127 167 214 277 324 382
#
# _framework density 22.317219000000001
#
# number of rings (size 3 to 8) (size 9 to 14) (size 15 to 20)
#    0.000    1.250    2.500    3.375    5.250    3.500 
#    4.500    0.000    0.000    0.000    0.000    0.000 
#    0.000    0.000    0.000    0.000    0.000    0.000 
#
# Total GULP energy -178223.089573 kJ/mol
# GULP energy per Si atom -5569.471549 kJ/mol
# Density = 2.226642 g / cm^3
# Si number density = 22.317219 Si / 1000 Ang^3
#
#
#
# Elastic Constant Matrix: (Units=GPa)
#
#
# Indices 1 2 3 4 5 6 
#
# 1 52.4592 6.9668 2.5094 0.0000 -10.8233 0.0000
# 2 6.9668 47.0860 6.6973 0.0000 2.8837 0.0000
# 3 2.5094 6.6973 96.7420 0.0000 7.3663 0.0000
# 4 0.0000 0.0000 0.0000 40.7578 0.0000 1.2346
# 5 -10.8233 2.8837 7.3663 0.0000 17.1184 0.0000
# 6 0.0000 0.0000 0.0000 1.2346 0.0000 11.7605
#
#
#
# Elastic Compliance Matrix: (Units=1/GPa)
#
#
# Indices 1 2 3 4 5 6 
#
# 1 0.022961 -0.004153 -0.001516 0.000000 0.015869 0.000000
# 2 -0.004153 0.022358 -0.000986 0.000000 -0.005968 0.000000
# 3 -0.001516 -0.000986 0.010861 0.000000 -0.005466 0.000000
# 4 0.000000 0.000000 0.000000 0.024613 0.000000 -0.002584
# 5 0.015869 -0.005968 -0.005466 0.000000 0.071808 0.000000
# 6 0.000000 0.000000 0.000000 -0.002584 0.000000 0.085302
#
#
# Mechanical properties :
#
#
# Convention : Reuss Voigt Hill
#
# Bulk Modulus (GPa) = 23.32725 25.40379 24.36552
# Shear Modulus (GPa) = 18.83220 25.93491 22.38355
#
# Velocity S-wave (km/s) = 2.90805 3.41266 3.17041
# Velocity P-wave (km/s) = 4.66379 5.19000 4.93391
#
# Compressibility (1/GPa) = 0.04286833
#
# Stress axis : x y z
#
# Youngs Moduli (GPa) = 43.55265 44.72670 92.07625
#
# Poissons Ratio (x) = 0.18577 0.13962
# Poissons Ratio (y) = 0.18089 0.09075
# Poissons Ratio (z) = 0.06604 0.04408
#
# Static dielectric constant tensor:
#      x y z
#    x 1.868720 0.000000 0.013420 
#    y 0.000000 2.149770 0.000000 
#    z 0.013420 0.000000 1.878950 
# 
# From -- ./inp_files/45375.got.cif
#   From: 2010.05.17/outbox.cif.g08.bks.cpg/sg14_23_cif.got.tgz:45375.got - 2010.06.03 17:49:19.
