data_PCOD9242524
_publ_section_title
;
Structure prediction by ZEFSAII (Michael W. Deem and Ramdas Pophale) SiO2 
 PCOD9242524
Probable space group: P 21/C
;
_chemical_formula_sum "Si O2"
_cell_formula_units_Z 32
_cell_length_a 14.081860
_cell_length_b 9.140712
_cell_length_c 10.077454
_cell_angle_alpha 90.000000
_cell_angle_beta 88.927572
_cell_angle_gamma 90.000000
_cell_volume 1296.924792
_symmetry_space_group_name_H-M "P 21/C"
_symmetry_group_IT_number 14
_symmetry_cell_setting 'monoclinic'
loop_
_space_group_symop_operation_xyz
x,y,z
-x,1/2+y,1/2-z
-x,-y,-z
x,1/2-y,1/2+z
loop_
_atom_site_type_symbol
_atom_site_label
_atom_site_fract_x
_atom_site_fract_y
_atom_site_fract_z
Si Si1 0.631510 0.065688 0.024431
Si Si2 0.147007 0.262808 0.538975
Si Si3 0.967854 0.993301 0.821584
Si Si4 0.824696 0.473504 0.608740
Si Si5 0.231012 0.543170 0.090390
Si Si6 0.463792 0.307156 0.365448
Si Si7 0.954969 0.181738 0.420919
Si Si8 0.569599 0.047356 0.321057
O O1 0.596133 0.113810 0.173091
O O2 0.743685 0.088779 0.014535
O O3 0.609187 0.890837 0.035706
O O4 0.566020 0.132104 0.913438
O O5 0.123934 0.394773 0.641706
O O6 0.180514 0.350329 0.407523
O O7 0.213109 0.128824 0.570353
O O8 0.042010 0.201187 0.517706
O O9 0.005850 0.942687 0.678926
O O10 0.948681 0.165540 0.838138
O O11 0.062805 0.950157 0.906996
O O12 0.794341 0.426559 0.755040
O O13 0.147131 0.632085 0.018968
O O14 0.343022 0.571727 0.081029
O O15 0.476167 0.134258 0.367382
O O16 0.443539 0.378890 0.221901
#
# Coordination Sequence:
#
# PCOD9242524 Si02
#       8
#     4   4   4   4   4   4   4   4
#     4   8  18  36  57  77 110 144 172 221 287 323
#     4  11  20  33  55  81 105 145 187 218 267 320
#     4  10  20  34  54  79 107 153 185 219 267 320
#     4   9  18  34  53  76 108 141 176 217 266 323
#     4  10  21  36  54  79 111 141 176 233 271 318
#     4   9  18  36  59  78 104 142 180 218 286 334
#     4  10  20  35  52  73 115 143 180 225 268 315
#     4   9  19  36  58  80 105 140 182 222 277 333
#
# _framework density 24.673750999999999
#
# number of rings (size 3 to 8) (size 9 to 14) (size 15 to 20)
#    0.750    1.750    0.000    4.125    0.000    3.000 
#    0.000    3.125    0.000    0.000    0.000    0.000 
#    0.000    0.000    0.000    0.000    0.000    0.000 
#
# Total GULP energy -178323.312601 kJ/mol
# GULP energy per Si atom -5572.603519 kJ/mol
# Density = 2.461759 g / cm^3
# Si number density = 24.673751 Si / 1000 Ang^3
#
#
#
# Elastic Constant Matrix: (Units=GPa)
#
#
# Indices 1 2 3 4 5 6 
#
# 1 68.9157 18.4888 1.9866 0.0000 11.7419 0.0000
# 2 18.4888 92.9428 -6.4989 0.0000 -4.5071 0.0000
# 3 1.9866 -6.4989 14.8414 0.0000 6.4773 0.0000
# 4 0.0000 0.0000 0.0000 28.1612 0.0000 0.0285
# 5 11.7419 -4.5071 6.4773 0.0000 29.1840 0.0000
# 6 0.0000 0.0000 0.0000 0.0285 0.0000 38.2169
#
#
#
# Elastic Compliance Matrix: (Units=1/GPa)
#
#
# Indices 1 2 3 4 5 6 
#
# 1 0.016751 -0.003732 -0.000757 0.000000 -0.007148 0.000000
# 2 -0.003732 0.011944 0.004727 0.000000 0.002297 0.000000
# 3 -0.000757 0.004727 0.076510 0.000000 -0.015947 0.000000
# 4 0.000000 0.000000 0.000000 0.035510 0.000000 -0.000026
# 5 -0.007148 0.002297 -0.015947 0.000000 0.041035 0.000000
# 6 0.000000 0.000000 0.000000 -0.000026 0.000000 0.026166
#
#
# Mechanical properties :
#
#
# Convention : Reuss Voigt Hill
#
# Bulk Modulus (GPa) = 9.46235 22.73921 16.10078
# Shear Modulus (GPa) = 20.60438 29.96066 25.28252
#
# Velocity S-wave (km/s) = 2.89290 3.48842 3.20452
# Velocity P-wave (km/s) = 3.87321 5.04593 4.49795
#
# Compressibility (1/GPa) = 0.10568200
#
# Stress axis : x y z
#
# Youngs Moduli (GPa) = 59.69654 83.72694 13.07019
#
# Poissons Ratio (x) = 0.31246 0.00989
# Poissons Ratio (y) = 0.22278 -0.06178
# Poissons Ratio (z) = 0.04517 -0.39578
#
# Static dielectric constant tensor:
#      x y z
#    x 1.967950 0.000000 0.004120 
#    y 0.000000 2.040120 0.000000 
#    z 0.004120 0.000000 2.035170 
# 
# From -- ./inp_files/46288.got.cif
#   From: 2010.05.17/outbox.cif.g08.bks.cpg/sg14_24_cif.got.tgz:46288.got - 2010.06.03 17:49:19.
