data_PCOD9242229
_publ_section_title
;
Structure prediction by ZEFSAII (Michael W. Deem and Ramdas Pophale) SiO2 
 PCOD9242229
Probable space group: P 21/C
;
_chemical_formula_sum "Si O2"
_cell_formula_units_Z 32
_cell_length_a 11.148104
_cell_length_b 15.769889
_cell_length_c 9.620220
_cell_angle_alpha 90.000000
_cell_angle_beta 72.761458
_cell_angle_gamma 90.000000
_cell_volume 1615.303192
_symmetry_space_group_name_H-M "P 21/C"
_symmetry_group_IT_number 14
_symmetry_cell_setting 'monoclinic'
loop_
_space_group_symop_operation_xyz
x,y,z
-x,1/2+y,1/2-z
-x,-y,-z
x,1/2-y,1/2+z
loop_
_atom_site_type_symbol
_atom_site_label
_atom_site_fract_x
_atom_site_fract_y
_atom_site_fract_z
Si Si1 0.600271 0.328447 0.411874
Si Si2 0.801458 0.089322 0.637335
Si Si3 0.141861 0.265906 0.391667
Si Si4 0.740284 0.343396 0.859732
Si Si5 0.970979 0.233443 0.697548
Si Si6 0.271488 0.408945 0.757523
Si Si7 0.559550 0.065043 0.204664
Si Si8 0.653190 0.616524 0.586659
O O1 0.683763 0.373117 0.265184
O O2 0.664239 0.240685 0.431440
O O3 0.591972 0.388816 0.548055
O O4 0.459621 0.317506 0.403381
O O5 0.780607 0.105153 0.481703
O O6 0.915203 0.147876 0.650936
O O7 0.809528 0.990600 0.671116
O O8 0.207958 0.177989 0.327490
O O9 0.242304 0.341133 0.353640
O O10 0.088372 0.260944 0.565054
O O11 0.022738 0.280710 0.333845
O O12 0.862623 0.304973 0.740043
O O13 0.648559 0.395564 0.791316
O O14 0.410822 0.420434 0.775848
O O15 0.291759 0.407503 0.583829
O O16 0.591158 0.966537 0.173863
#
# Coordination Sequence:
#
# PCOD9242229 Si02
#       8
#     4   4   4   4   4   4   4   4
#     4  10  19  40  68  94 130 177 208 265 340 389
#     4  11  22  42  69  94 133 174 212 282 325 384
#     4  12  25  45  67  93 135 177 228 270 322 398
#     4  11  24  39  67  99 132 168 226 273 324 392
#     4  11  25  46  63  96 131 178 226 268 323 392
#     4  11  23  44  69  99 134 171 218 276 340 389
#     4  11  22  42  68 103 131 167 221 272 335 404
#     4  11  22  43  67  98 136 171 219 271 333 398
#
# _framework density 19.810523
#
# number of rings (size 3 to 8) (size 9 to 14) (size 15 to 20)
#    0.000    1.000    5.000    3.000    1.750    3.000 
#    4.500    1.250    0.000    0.000    0.000    0.000 
#    0.000    0.000    0.000    0.000    0.000    0.000 
#
# Total GULP energy -178876.022155 kJ/mol
# GULP energy per Si atom -5589.875692 kJ/mol
# Density = 1.976543 g / cm^3
# Si number density = 19.810523 Si / 1000 Ang^3
#
#
#
# Elastic Constant Matrix: (Units=GPa)
#
#
# Indices 1 2 3 4 5 6 
#
# 1 76.6928 41.0822 0.3279 0.0000 8.3097 0.0000
# 2 41.0822 73.4862 10.1075 0.0000 5.7110 0.0000
# 3 0.3279 10.1075 31.3448 0.0000 2.7314 0.0000
# 4 0.0000 0.0000 0.0000 10.1375 0.0000 -8.1209
# 5 8.3097 5.7110 2.7314 0.0000 26.7505 0.0000
# 6 0.0000 0.0000 0.0000 -8.1209 0.0000 22.2346
#
#
#
# Elastic Compliance Matrix: (Units=1/GPa)
#
#
# Indices 1 2 3 4 5 6 
#
# 1 0.019365 -0.011021 0.003703 0.000000 -0.004041 0.000000
# 2 -0.011021 0.020693 -0.006529 0.000000 -0.000328 0.000000
# 3 0.003703 -0.006529 0.034253 0.000000 -0.003254 0.000000
# 4 0.000000 0.000000 0.000000 0.139440 0.000000 0.050928
# 5 -0.004041 -0.000328 -0.003254 0.000000 0.039040 0.000000
# 6 0.000000 0.000000 0.000000 0.050928 0.000000 0.063576
#
#
# Mechanical properties :
#
#
# Convention : Reuss Voigt Hill
#
# Bulk Modulus (GPa) = 21.45104 31.61767 26.53436
# Shear Modulus (GPa) = 13.90438 20.49162 17.19800
#
# Velocity S-wave (km/s) = 2.65215 3.21967 2.94959
# Velocity P-wave (km/s) = 4.49780 5.46044 5.00233
#
# Compressibility (1/GPa) = 0.04661778
#
# Stress axis : x y z
#
# Youngs Moduli (GPa) = 51.64030 48.32612 29.19427
#
# Poissons Ratio (x) = 0.53261 -0.10812
# Poissons Ratio (y) = 0.56913 0.19060
# Poissons Ratio (z) = -0.19125 0.31551
#
# Static dielectric constant tensor:
#      x y z
#    x 1.692510 0.000000 -0.016840 
#    y 0.000000 1.670940 0.000000 
#    z -0.016840 0.000000 1.678040 
# 
# From -- ./inp_files/13309.got.cif
#   From: 2010.05.17/outbox.cif.g08.bks.cpg/sg14_7_cif.got.tgz:13309.got - 2010.06.03 17:49:19.
