data_PCOD9242663
_publ_section_title
;
Structure prediction by ZEFSAII (Michael W. Deem and Ramdas Pophale) SiO2 
 PCOD9242663
Probable space group: P 21/C
;
_chemical_formula_sum "Si O2"
_cell_formula_units_Z 28
_cell_length_a 19.164550
_cell_length_b 9.773099
_cell_length_c 8.256268
_cell_angle_alpha 90.000000
_cell_angle_beta 60.039470
_cell_angle_gamma 90.000000
_cell_volume 1339.731999
_symmetry_space_group_name_H-M "P 21/C"
_symmetry_group_IT_number 14
_symmetry_cell_setting 'monoclinic'
loop_
_space_group_symop_operation_xyz
x,y,z
-x,1/2+y,1/2-z
-x,-y,-z
x,1/2-y,1/2+z
loop_
_atom_site_type_symbol
_atom_site_label
_atom_site_fract_x
_atom_site_fract_y
_atom_site_fract_z
Si Si1 0.381727 0.317796 0.880039
Si Si2 0.333555 0.052958 0.755319
Si Si3 0.843871 0.950676 0.931790
Si Si4 0.990100 0.112611 0.871875
Si Si5 0.407885 0.951466 0.127890
Si Si6 0.427846 0.824775 0.772478
Si Si7 0.087675 0.313920 0.956544
O O1 0.368484 0.163818 0.840662
O O2 0.363948 0.416510 0.748327
O O3 0.475540 0.332477 0.822651
O O4 0.329315 0.369998 0.089362
O O5 0.394777 0.926318 0.673802
O O6 0.246468 0.011171 0.918996
O O7 0.857994 0.898602 0.731675
O O8 0.902963 0.077453 0.900997
O O9 0.868259 0.819117 0.016707
O O10 0.013371 0.254506 0.933505
O O11 0.052120 0.102894 0.649585
O O12 0.000000 0.000000 0.000000
O O13 0.405565 0.829984 0.260208
O O14 0.387027 0.883068 0.981992
O O15 0.500000 0.000000 0.000000
#
# Coordination Sequence:
#
# PCOD9242663 Si02
#       7
#     4   4   4   4   4   4   4
#     4  11  21  37  57  82 112 154 200 238 292 357
#     4  12  23  36  59  88 119 152 193 254 299 339
#     4  10  20  35  55  88 117 145 188 238 291 340
#     4   9  18  34  58  85 112 150 191 226 278 347
#     4  10  21  37  59  81 105 142 194 245 287 344
#     4  11  21  38  57  81 111 152 198 241 292 352
#     4   9  18  35  60  83 115 153 188 228 277 355
#
# _framework density 20.899704
#
# number of rings (size 3 to 8) (size 9 to 14) (size 15 to 20)
#    0.000    1.714    0.000    6.857    0.000    0.000 
#    0.000    2.857    0.000    3.429    0.000    0.000 
#    0.000    0.000    0.000    0.000    0.000    0.000 
#
# Total GULP energy -156330.028498 kJ/mol
# GULP energy per Si atom -5583.215303 kJ/mol
# Density = 2.085214 g / cm^3
# Si number density = 20.899704 Si / 1000 Ang^3
#
#
#
# Elastic Constant Matrix: (Units=GPa)
#
#
# Indices 1 2 3 4 5 6 
#
# 1 31.3151 1.9189 16.6514 0.0000 -1.2862 0.0000
# 2 1.9189 46.6455 -12.8811 0.0000 4.9487 0.0000
# 3 16.6514 -12.8811 81.2670 0.0000 14.4565 0.0000
# 4 0.0000 0.0000 0.0000 32.0709 0.0000 7.0223
# 5 -1.2862 4.9487 14.4565 0.0000 30.7822 0.0000
# 6 0.0000 0.0000 0.0000 7.0223 0.0000 24.4908
#
#
#
# Elastic Compliance Matrix: (Units=1/GPa)
#
#
# Indices 1 2 3 4 5 6 
#
# 1 0.037712 -0.004983 -0.009755 0.000000 0.006958 0.000000
# 2 -0.004983 0.024053 0.006065 0.000000 -0.006924 0.000000
# 3 -0.009755 0.006065 0.016925 0.000000 -0.009331 0.000000
# 4 0.000000 0.000000 0.000000 0.033270 0.000000 -0.009540
# 5 0.006958 -0.006924 -0.009331 0.000000 0.038272 0.000000
# 6 0.000000 0.000000 0.000000 -0.009540 0.000000 0.043567
#
#
# Mechanical properties :
#
#
# Convention : Reuss Voigt Hill
#
# Bulk Modulus (GPa) = 16.30162 18.95625 17.62893
# Shear Modulus (GPa) = 21.58969 27.70468 24.64718
#
# Velocity S-wave (km/s) = 3.21754 3.64483 3.43783
# Velocity P-wave (km/s) = 4.64976 5.17715 4.92052
#
# Compressibility (1/GPa) = 0.06134362
#
# Stress axis : x y z
#
# Youngs Moduli (GPa) = 26.51710 41.57539 59.08379
#
# Poissons Ratio (x) = 0.20718 0.57634
# Poissons Ratio (y) = 0.13214 -0.35835
# Poissons Ratio (z) = 0.25866 -0.25216
#
# Static dielectric constant tensor:
#      x y z
#    x 1.795240 0.000000 0.057160 
#    y 0.000000 2.209210 0.000000 
#    z 0.057160 0.000000 1.754680 
# 
# From -- ./inp_files/18696.got.cif
#   From: 2010.05.17/outbox.cif.g08.bks.cpg/sg14_10_cif.got.tgz:18696.got - 2010.06.03 17:49:19.
