data_PCOD9242831
_publ_section_title
;
Structure prediction by ZEFSAII (Michael W. Deem and Ramdas Pophale) SiO2 
 PCOD9242831
Probable space group: P 21/C
;
_chemical_formula_sum "Si O2"
_cell_formula_units_Z 28
_cell_length_a 18.875085
_cell_length_b 5.203037
_cell_length_c 14.724113
_cell_angle_alpha 90.000000
_cell_angle_beta 51.694956
_cell_angle_gamma 90.000000
_cell_volume 1134.725182
_symmetry_space_group_name_H-M "P 21/C"
_symmetry_group_IT_number 14
_symmetry_cell_setting 'monoclinic'
loop_
_space_group_symop_operation_xyz
x,y,z
-x,1/2+y,1/2-z
-x,-y,-z
x,1/2-y,1/2+z
loop_
_atom_site_type_symbol
_atom_site_label
_atom_site_fract_x
_atom_site_fract_y
_atom_site_fract_z
Si Si1 0.118779 0.298049 0.822659
Si Si2 0.351372 0.760099 0.522891
Si Si3 0.522817 0.755919 0.291116
Si Si4 0.777397 0.189517 0.204754
Si Si5 0.966547 0.209506 0.828477
Si Si6 0.203801 0.091015 0.066278
Si Si7 0.705737 0.528471 0.112485
O O1 0.163054 0.064816 0.840931
O O2 0.011843 0.276530 0.889162
O O3 0.156483 0.571604 0.823913
O O4 0.157911 0.274949 0.688891
O O5 0.459263 0.741488 0.430624
O O6 0.300747 0.827670 0.655912
O O7 0.299952 0.508313 0.525889
O O8 0.329927 0.957561 0.458859
O O9 0.514706 0.030870 0.246954
O O10 0.626293 0.681992 0.226585
O O11 0.729385 0.278948 0.151093
O O12 0.009864 0.943286 0.757294
O O13 0.860874 0.147090 0.907907
O O14 0.212478 0.284248 0.976337
#
# Coordination Sequence:
#
# PCOD9242831 Si02
#       7
#     4   4   4   4   4   4   4
#     4  10  21  41  57  91 123 157 203 255 302 361
#     4  10  21  41  63  86 126 162 207 249 313 360
#     4  10  21  37  62  88 122 158 204 254 304 361
#     4  11  24  38  64  89 125 163 205 252 302 368
#     4  10  20  35  63  92 119 159 210 251 302 369
#     4  10  20  37  65  88 118 166 207 246 311 364
#     4  11  23  39  62  92 124 161 209 252 307 365
#
# _framework density 24.675577000000001
#
# number of rings (size 3 to 8) (size 9 to 14) (size 15 to 20)
#    0.000    1.714    2.857    2.571    4.000    0.571 
#    0.000    1.429    0.000    6.857    0.000    0.000 
#    0.000    0.000    0.000    0.000    0.000    0.000 
#
# Total GULP energy -156632.272895 kJ/mol
# GULP energy per Si atom -5594.009746 kJ/mol
# Density = 2.461941 g / cm^3
# Si number density = 24.675577 Si / 1000 Ang^3
#
#
#
# Elastic Constant Matrix: (Units=GPa)
#
#
# Indices 1 2 3 4 5 6 
#
# 1 35.1256 10.1750 28.8264 0.0000 -0.5915 0.0000
# 2 10.1750 92.5205 8.2546 0.0000 6.3704 0.0000
# 3 28.8264 8.2546 79.1943 0.0000 2.8940 0.0000
# 4 0.0000 0.0000 0.0000 32.7653 0.0000 2.3834
# 5 -0.5915 6.3704 2.8940 0.0000 14.8140 0.0000
# 6 0.0000 0.0000 0.0000 2.3834 0.0000 33.9964
#
#
#
# Elastic Compliance Matrix: (Units=1/GPa)
#
#
# Indices 1 2 3 4 5 6 
#
# 1 0.042091 -0.003706 -0.015163 0.000000 0.006236 0.000000
# 2 -0.003706 0.011543 0.000335 0.000000 -0.005177 0.000000
# 3 -0.015163 0.000335 0.018269 0.000000 -0.004318 0.000000
# 4 0.000000 0.000000 0.000000 0.030676 0.000000 -0.002151
# 5 0.006236 -0.005177 -0.004318 0.000000 0.070823 0.000000
# 6 0.000000 0.000000 0.000000 -0.002151 0.000000 0.029566
#
#
# Mechanical properties :
#
#
# Convention : Reuss Voigt Hill
#
# Bulk Modulus (GPa) = 28.70574 33.48359 31.09467
# Shear Modulus (GPa) = 19.86916 26.95412 23.41164
#
# Velocity S-wave (km/s) = 2.84071 3.30864 3.08357
# Velocity P-wave (km/s) = 4.73477 5.30991 5.03056
#
# Compressibility (1/GPa) = 0.03483623
#
# Stress axis : x y z
#
# Youngs Moduli (GPa) = 23.75796 86.63630 54.73695
#
# Poissons Ratio (x) = 0.32104 0.82996
# Poissons Ratio (y) = 0.08804 -0.01833
# Poissons Ratio (z) = 0.36023 -0.02901
#
# Static dielectric constant tensor:
#      x y z
#    x 2.033780 0.000000 -0.047900 
#    y 0.000000 1.948720 0.000000 
#    z -0.047900 0.000000 2.000660 
# 
# From -- ./inp_files/48082.got.cif
#   From: 2010.05.17/outbox.cif.g08.bks.cpg/sg14_25_cif.got.tgz:48082.got - 2010.06.03 17:49:19.
