data_PCOD9242991
_publ_section_title
;
Structure prediction by ZEFSAII (Michael W. Deem and Ramdas Pophale) SiO2 
 PCOD9242991
Probable space group: P 21/C
;
_chemical_formula_sum "Si O2"
_cell_formula_units_Z 24
_cell_length_a 6.919407
_cell_length_b 15.992118
_cell_length_c 11.569109
_cell_angle_alpha 90.000000
_cell_angle_beta 136.370998
_cell_angle_gamma 90.000000
_cell_volume 883.313900
_symmetry_space_group_name_H-M "P 21/C"
_symmetry_group_IT_number 14
_symmetry_cell_setting 'monoclinic'
loop_
_space_group_symop_operation_xyz
x,y,z
-x,1/2+y,1/2-z
-x,-y,-z
x,1/2-y,1/2+z
loop_
_atom_site_type_symbol
_atom_site_label
_atom_site_fract_x
_atom_site_fract_y
_atom_site_fract_z
Si Si1 0.031817 0.589956 0.157139
Si Si2 0.686964 0.720992 0.242467
Si Si3 0.890364 0.921327 0.186950
Si Si4 0.610275 0.550247 0.322353
Si Si5 0.776979 0.240123 0.634375
Si Si6 0.540387 0.620557 0.770183
O O1 0.993959 0.512083 0.227397
O O2 0.273545 0.559834 0.173606
O O3 0.148695 0.675081 0.265568
O O4 0.752546 0.605224 0.965755
O O5 0.706441 0.624898 0.283745
O O6 0.506626 0.779129 0.251226
O O7 0.005073 0.752227 0.379081
O O8 0.531092 0.732128 0.051995
O O9 0.689989 0.895716 0.208985
O O10 0.117122 0.847545 0.267165
O O11 0.702970 0.930978 0.992691
O O12 0.684342 0.454533 0.325655
#
# Coordination Sequence:
#
# PCOD9242991 Si02
#       6
#     4   4   4   4   4   4
#     4  11  20  37  62  88 117 159 204 246 292 354
#     4  11  23  41  61  89 123 157 197 248 300 355
#     4  10  20  36  59  87 118 158 200 242 295 361
#     4  11  20  37  62  88 117 159 204 246 292 354
#     4  11  23  41  61  89 123 157 197 248 300 355
#     4  10  20  36  59  87 118 158 200 242 295 361
#
# _framework density 27.170407000000001
#
# number of rings (size 3 to 8) (size 9 to 14) (size 15 to 20)
#    0.000    1.333    0.000   11.000    0.000    0.000 
#    0.000    8.333    0.000    0.000    0.000    0.000 
#    0.000    0.000    0.000    0.000    0.000    0.000 
#
# Total GULP energy -134468.679694 kJ/mol
# GULP energy per Si atom -5602.861654 kJ/mol
# Density = 2.710857 g / cm^3
# Si number density = 27.170407 Si / 1000 Ang^3
#
#
#
# Elastic Constant Matrix: (Units=GPa)
#
#
# Indices 1 2 3 4 5 6 
#
# 1 43.7557 39.3545 -4.3203 0.0000 6.5855 0.0000
# 2 39.3545 215.8737 38.5610 0.0000 -23.3253 0.0000
# 3 -4.3203 38.5610 146.8697 0.0000 -1.3820 0.0000
# 4 0.0000 0.0000 0.0000 57.2675 0.0000 -16.2767
# 5 6.5855 -23.3253 -1.3820 0.0000 26.3157 0.0000
# 6 0.0000 0.0000 0.0000 -16.2767 0.0000 64.1847
#
#
#
# Elastic Compliance Matrix: (Units=1/GPa)
#
#
# Indices 1 2 3 4 5 6 
#
# 1 0.032782 -0.008156 0.002962 0.000000 -0.015277 0.000000
# 2 -0.008156 0.007414 -0.002107 0.000000 0.008502 0.000000
# 3 0.002962 -0.002107 0.007428 0.000000 -0.002218 0.000000
# 4 0.000000 0.000000 0.000000 0.018818 0.000000 0.004772
# 5 -0.015277 0.008502 -0.002218 0.000000 0.049243 0.000000
# 6 0.000000 0.000000 0.000000 0.004772 0.000000 0.016790
#
#
# Mechanical properties :
#
#
# Convention : Reuss Voigt Hill
#
# Bulk Modulus (GPa) = 30.28230 61.52107 45.90168
# Shear Modulus (GPa) = 31.62888 51.74718 41.68803
#
# Velocity S-wave (km/s) = 3.41558 4.36884 3.92129
# Velocity P-wave (km/s) = 5.16957 6.93836 6.11822
#
# Compressibility (1/GPa) = 0.03302259
#
# Stress axis : x y z
#
# Youngs Moduli (GPa) = 30.50499 134.87776 134.62433
#
# Poissons Ratio (x) = 1.10006 -0.39874
# Poissons Ratio (y) = 0.24880 0.28359
# Poissons Ratio (z) = -0.09035 0.28412
#
# Static dielectric constant tensor:
#      x y z
#    x 2.257810 0.000000 -0.030840 
#    y 0.000000 2.238980 0.000000 
#    z -0.030840 0.000000 1.958430 
# 
# From -- ./inp_files/45147.got.cif
#   From: 2010.05.17/outbox.cif.g08.bks.cpg/sg14_23_cif.got.tgz:45147.got - 2010.06.03 17:49:19.
