data_PCOD9242948
_publ_section_title
;
Structure prediction by ZEFSAII (Michael W. Deem and Ramdas Pophale) SiO2 
 PCOD9242948
Probable space group: P 21/C
;
_chemical_formula_sum "Si O2"
_cell_formula_units_Z 28
_cell_length_a 8.224336
_cell_length_b 27.990661
_cell_length_c 5.319701
_cell_angle_alpha 90.000000
_cell_angle_beta 113.319655
_cell_angle_gamma 90.000000
_cell_volume 1124.581248
_symmetry_space_group_name_H-M "P 21/C"
_symmetry_group_IT_number 14
_symmetry_cell_setting 'monoclinic'
loop_
_space_group_symop_operation_xyz
x,y,z
-x,1/2+y,1/2-z
-x,-y,-z
x,1/2-y,1/2+z
loop_
_atom_site_type_symbol
_atom_site_label
_atom_site_fract_x
_atom_site_fract_y
_atom_site_fract_z
Si Si1 0.090711 0.776716 0.978011
Si Si2 0.342975 0.276204 0.808281
Si Si3 0.136356 0.968449 0.816913
Si Si4 0.056025 0.881519 0.068734
Si Si5 0.154793 0.431861 0.184625
Si Si6 0.337070 0.117094 0.401056
Si Si7 0.533426 0.031943 0.273903
O O1 0.147593 0.742506 0.241499
O O2 0.145495 0.830895 0.077132
O O3 0.873750 0.776087 0.836229
O O4 0.398557 0.259202 0.566132
O O5 0.404615 0.329266 0.919613
O O6 0.263907 0.956072 0.663210
O O7 0.937854 0.960872 0.597332
O O8 0.163519 0.024656 0.893534
O O9 0.164069 0.927818 0.042155
O O10 0.977302 0.891396 0.296366
O O11 0.869999 0.879334 0.802235
O O12 0.326115 0.406897 0.170782
O O13 0.434736 0.081219 0.273841
O O14 0.500000 0.000000 0.500000
O O15 0.500000 0.000000 0.000000
#
# Coordination Sequence:
#
# PCOD9242948 Si02
#       7
#     4   4   4   4   4   4   4
#     4   9  19  32  53  85 118 144 187 245 295 345
#     4   9  19  32  55  84 117 147 192 242 297 343
#     4  10  22  37  57  84 122 157 198 238 292 354
#     4  10  21  34  61  86 117 158 196 242 301 351
#     4  10  20  36  58  86 121 153 198 240 295 353
#     4  10  22  36  59  90 118 156 197 249 294 352
#     4  12  26  42  61  86 122 160 200 242 295 355
#
# _framework density 24.898157000000001
#
# number of rings (size 3 to 8) (size 9 to 14) (size 15 to 20)
#    0.000    2.000    1.429    1.286   14.000    0.000 
#    0.000    0.000    0.000    1.714    0.000    0.000 
#    0.000    0.000    0.000    0.000    0.000    0.000 
#
# Total GULP energy -156299.414473 kJ/mol
# GULP energy per Si atom -5582.121945 kJ/mol
# Density = 2.484149 g / cm^3
# Si number density = 24.898157 Si / 1000 Ang^3
#
#
#
# Elastic Constant Matrix: (Units=GPa)
#
#
# Indices 1 2 3 4 5 6 
#
# 1 54.2651 29.0942 26.6661 0.0000 -21.8156 0.0000
# 2 29.0942 192.8076 58.6741 0.0000 -19.7134 0.0000
# 3 26.6661 58.6741 121.9119 0.0000 -38.9755 0.0000
# 4 0.0000 0.0000 0.0000 28.1746 0.0000 -8.3113
# 5 -21.8156 -19.7134 -38.9755 0.0000 25.0762 0.0000
# 6 0.0000 0.0000 0.0000 -8.3113 0.0000 12.3007
#
#
#
# Elastic Compliance Matrix: (Units=1/GPa)
#
#
# Indices 1 2 3 4 5 6 
#
# 1 0.030288 -0.002809 0.004860 0.000000 0.031695 0.000000
# 2 -0.002809 0.006340 -0.003229 0.000000 -0.002479 0.000000
# 3 0.004860 -0.003229 0.018354 0.000000 0.030217 0.000000
# 4 0.000000 0.000000 0.000000 0.044329 0.000000 0.029952
# 5 0.031695 -0.002479 0.030217 0.000000 0.112470 0.000000
# 6 0.000000 0.000000 0.000000 0.029952 0.000000 0.101534
#
#
# Mechanical properties :
#
#
# Convention : Reuss Voigt Hill
#
# Bulk Modulus (GPa) = 19.00216 66.42814 42.71515
# Shear Modulus (GPa) = 15.00548 30.08031 22.54290
#
# Velocity S-wave (km/s) = 2.45761 3.47959 3.01226
# Velocity P-wave (km/s) = 3.96253 6.54838 5.41216
#
# Compressibility (1/GPa) = 0.05262559
#
# Stress axis : x y z
#
# Youngs Moduli (GPa) = 33.01647 157.73837 54.48320
#
# Poissons Ratio (x) = 0.44303 -0.26478
# Poissons Ratio (y) = 0.09273 0.17594
# Poissons Ratio (z) = -0.16046 0.50939
#
# Static dielectric constant tensor:
#      x y z
#    x 2.122720 0.000000 0.133700 
#    y 0.000000 1.983900 0.000000 
#    z 0.133700 0.000000 2.102670 
# 
# From -- ./inp_files/1876.got.cif
#   From: 2010.05.17/outbox.cif.g08.bks.cpg/sg14_1_cif.got.tgz:1876.got - 2010.06.03 17:49:19.
