data_PCOD9242916
_publ_section_title
;
Structure prediction by ZEFSAII (Michael W. Deem and Ramdas Pophale) SiO2 
 PCOD9242916
Probable space group: P 21/C
;
_chemical_formula_sum "Si O2"
_cell_formula_units_Z 24
_cell_length_a 19.075677
_cell_length_b 7.544518
_cell_length_c 14.794603
_cell_angle_alpha 90.000000
_cell_angle_beta 155.744770
_cell_angle_gamma 90.000000
_cell_volume 874.676394
_symmetry_space_group_name_H-M "P 21/C"
_symmetry_group_IT_number 14
_symmetry_cell_setting 'monoclinic'
loop_
_space_group_symop_operation_xyz
x,y,z
-x,1/2+y,1/2-z
-x,-y,-z
x,1/2-y,1/2+z
loop_
_atom_site_type_symbol
_atom_site_label
_atom_site_fract_x
_atom_site_fract_y
_atom_site_fract_z
Si Si1 0.962457 0.959601 0.287805
Si Si2 0.629651 0.459352 0.458753
Si Si3 0.662061 0.078046 0.502263
Si Si4 0.406161 0.204525 0.357458
Si Si5 0.305692 0.903540 0.751664
Si Si6 0.970066 0.628835 0.588202
O O1 0.975518 0.947980 0.196180
O O2 0.116500 0.842434 0.507941
O O3 0.771617 0.903355 0.090587
O O4 0.001919 0.155803 0.374924
O O5 0.679508 0.270399 0.476470
O O6 0.443510 0.479747 0.198482
O O7 0.675614 0.437403 0.618668
O O8 0.524171 0.106687 0.421781
O O9 0.860828 0.042168 0.758544
O O10 0.545903 0.263376 0.597203
O O11 0.343158 0.402808 0.254217
O O12 0.229707 0.110418 0.174855
#
# Coordination Sequence:
#
# PCOD9242916 Si02
#       6
#     4   4   4   4   4   4
#     4  10  20  36  57  88 113 148 187 239 276 337
#     4  10  20  36  57  88 113 148 187 239 276 337
#     4  10  21  33  56  83 116 147 191 227 281 334
#     4   9  18  36  52  80 112 146 174 240 270 331
#     4   9  19  32  61  82 115 143 194 229 289 318
#     4  10  21  33  56  83 116 147 191 227 281 334
#
# _framework density 27.438718999999999
#
# number of rings (size 3 to 8) (size 9 to 14) (size 15 to 20)
#    0.000    2.333    1.667    0.500   11.667    1.333 
#    0.000    2.500    0.000   10.000    0.000   21.000 
#    0.000    0.000    0.000    0.000    0.000    0.000 
#
# Total GULP energy -133729.019103 kJ/mol
# GULP energy per Si atom -5572.042463 kJ/mol
# Density = 2.737627 g / cm^3
# Si number density = 27.438719 Si / 1000 Ang^3
#
#
#
# Elastic Constant Matrix: (Units=GPa)
#
#
# Indices 1 2 3 4 5 6 
#
# 1 125.3846 17.8569 70.3371 0.0000 26.1719 0.0000
# 2 17.8569 27.7419 49.2597 0.0000 1.8068 0.0000
# 3 70.3371 49.2597 239.4605 0.0000 70.1861 0.0000
# 4 0.0000 0.0000 0.0000 20.7274 0.0000 6.3422
# 5 26.1719 1.8068 70.1861 0.0000 41.3285 0.0000
# 6 0.0000 0.0000 0.0000 6.3422 0.0000 21.3816
#
#
#
# Elastic Compliance Matrix: (Units=1/GPa)
#
#
# Indices 1 2 3 4 5 6 
#
# 1 0.010140 -0.006917 0.000474 0.000000 -0.006924 0.000000
# 2 -0.006917 0.105504 -0.039032 0.000000 0.066054 0.000000
# 3 0.000474 -0.039032 0.023204 0.000000 -0.038000 0.000000
# 4 0.000000 0.000000 0.000000 0.053061 0.000000 -0.015739
# 5 -0.006924 0.066054 -0.038000 0.000000 0.090226 0.000000
# 6 0.000000 0.000000 0.000000 -0.015739 0.000000 0.051438
#
#
# Mechanical properties :
#
#
# Convention : Reuss Voigt Hill
#
# Bulk Modulus (GPa) = 20.87822 74.16606 47.52214
# Shear Modulus (GPa) = 11.35098 33.69640 22.52369
#
# Velocity S-wave (km/s) = 2.03613 3.50817 2.86820
# Velocity P-wave (km/s) = 3.62675 6.59531 5.32219
#
# Compressibility (1/GPa) = 0.04789681
#
# Stress axis : x y z
#
# Youngs Moduli (GPa) = 98.61958 9.47829 43.09596
#
# Poissons Ratio (x) = 0.06557 -0.02042
# Poissons Ratio (y) = 0.68220 1.68213
# Poissons Ratio (z) = -0.04674 0.36996
#
# Static dielectric constant tensor:
#      x y z
#    x 2.232650 0.000000 0.142680 
#    y 0.000000 2.242380 0.000000 
#    z 0.142680 0.000000 2.357570 
# 
# From -- ./inp_files/40578.got.cif
#   From: 2010.05.17/outbox.cif.g08.bks.cpg/sg14_21_cif.got.tgz:40578.got - 2010.06.03 17:49:19.
