data_PCOD9242913
_publ_section_title
;
Structure prediction by ZEFSAII (Michael W. Deem and Ramdas Pophale) SiO2 
 PCOD9242913
Probable space group: P 21/C
;
_chemical_formula_sum "Si O2"
_cell_formula_units_Z 32
_cell_length_a 9.162822
_cell_length_b 19.545176
_cell_length_c 8.437227
_cell_angle_alpha 90.000000
_cell_angle_beta 101.517651
_cell_angle_gamma 90.000000
_cell_volume 1480.587349
_symmetry_space_group_name_H-M "P 21/C"
_symmetry_group_IT_number 14
_symmetry_cell_setting 'monoclinic'
loop_
_space_group_symop_operation_xyz
x,y,z
-x,1/2+y,1/2-z
-x,-y,-z
x,1/2-y,1/2+z
loop_
_atom_site_type_symbol
_atom_site_label
_atom_site_fract_x
_atom_site_fract_y
_atom_site_fract_z
Si Si1 0.458881 0.237280 0.282796
Si Si2 0.859238 0.400997 0.948306
Si Si3 0.537906 0.951146 0.360634
Si Si4 0.641158 0.173953 0.601681
Si Si5 0.346192 0.349659 0.487837
Si Si6 0.167123 0.471106 0.546695
Si Si7 0.366015 0.939480 0.871801
Si Si8 0.827651 0.554817 0.083792
O O1 0.527232 0.188780 0.432314
O O2 0.601542 0.265405 0.213716
O O3 0.374182 0.300453 0.346044
O O4 0.347197 0.198186 0.143022
O O5 0.745644 0.402755 0.775530
O O6 0.026180 0.400626 0.919047
O O7 0.800092 0.343577 0.057637
O O8 0.848134 0.476163 0.028425
O O9 0.411545 0.894972 0.323441
O O10 0.692261 0.917176 0.449971
O O11 0.500000 0.000000 0.500000
O O12 0.566603 0.997818 0.215786
O O13 0.209273 0.402515 0.456840
O O14 0.498620 0.392564 0.545589
O O15 0.269859 0.529346 0.492456
O O16 0.202886 0.451803 0.735959
O O17 0.000000 0.500000 0.500000
#
# Coordination Sequence:
#
# PCOD9242913 Si02
#       8
#     4   4   4   4   4   4   4   4
#     4  10  23  39  63  89 120 172 220 260 300 370
#     4  10  20  36  57  85 126 159 201 243 312 397
#     4  11  19  35  63  89 121 160 205 259 329 384
#     4  11  20  38  61  87 117 160 216 260 303 376
#     4  11  23  41  64  92 126 164 214 267 310 386
#     4  12  24  37  61  96 133 159 199 276 343 373
#     4  11  21  37  58  97 126 152 204 268 326 373
#     4  10  21  35  56  90 127 162 188 244 333 390
#
# _framework density 21.613045
#
# number of rings (size 3 to 8) (size 9 to 14) (size 15 to 20)
#    0.000    1.250    5.000    2.625    1.750    0.000 
#    0.000    0.000    0.000   16.500    0.000    0.000 
#    0.000    0.000    0.000    0.000    0.000    0.000 
#
# Total GULP energy -178869.309465 kJ/mol
# GULP energy per Si atom -5589.665921 kJ/mol
# Density = 2.156385 g / cm^3
# Si number density = 21.613045 Si / 1000 Ang^3
#
#
#
# Elastic Constant Matrix: (Units=GPa)
#
#
# Indices 1 2 3 4 5 6 
#
# 1 110.4245 42.0562 24.9398 0.0000 -14.6171 0.0000
# 2 42.0562 79.8747 33.3978 0.0000 -6.4203 0.0000
# 3 24.9398 33.3978 76.8934 0.0000 -19.1062 0.0000
# 4 0.0000 0.0000 0.0000 49.0842 0.0000 -14.6459
# 5 -14.6171 -6.4203 -19.1062 0.0000 28.1370 0.0000
# 6 0.0000 0.0000 0.0000 -14.6459 0.0000 35.4904
#
#
#
# Elastic Compliance Matrix: (Units=1/GPa)
#
#
# Indices 1 2 3 4 5 6 
#
# 1 0.011947 -0.005844 -0.000152 0.000000 0.004770 0.000000
# 2 -0.005844 0.018192 -0.006892 0.000000 -0.003565 0.000000
# 3 -0.000152 -0.006892 0.018811 0.000000 0.011122 0.000000
# 4 0.000000 0.000000 0.000000 0.023234 0.000000 0.009588
# 5 0.004770 -0.003565 0.011122 0.000000 0.044758 0.000000
# 6 0.000000 0.000000 0.000000 0.009588 0.000000 0.032133
#
#
# Mechanical properties :
#
#
# Convention : Reuss Voigt Hill
#
# Bulk Modulus (GPa) = 43.14802 51.99781 47.57291
# Shear Modulus (GPa) = 27.38611 33.66224 30.52418
#
# Velocity S-wave (km/s) = 3.56351 3.95079 3.76214
# Velocity P-wave (km/s) = 6.07772 6.70242 6.39770
#
# Compressibility (1/GPa) = 0.02317604
#
# Stress axis : x y z
#
# Youngs Moduli (GPa) = 83.70088 54.97042 53.16011
#
# Poissons Ratio (x) = 0.32124 0.00806
# Poissons Ratio (y) = 0.48913 0.36636
# Poissons Ratio (z) = 0.01268 0.37884
#
# Static dielectric constant tensor:
#      x y z
#    x 1.805790 0.000000 -0.015310 
#    y 0.000000 1.803960 0.000000 
#    z -0.015310 0.000000 1.818050 
# 
# From -- ./inp_files/10240.got.cif
#   From: 2010.05.17/outbox.cif.g08.bks.cpg/sg14_6_cif.got.tgz:10240.got - 2010.06.03 17:49:19.
