data_PCOD9242947
_publ_section_title
;
Structure prediction by ZEFSAII (Michael W. Deem and Ramdas Pophale) SiO2 
 PCOD9242947
Probable space group: P 21/C
;
_chemical_formula_sum "Si O2"
_cell_formula_units_Z 32
_cell_length_a 11.519483
_cell_length_b 9.621902
_cell_length_c 29.667198
_cell_angle_alpha 90.000000
_cell_angle_beta 29.650428
_cell_angle_gamma 90.000000
_cell_volume 1626.741167
_symmetry_space_group_name_H-M "P 21/C"
_symmetry_group_IT_number 14
_symmetry_cell_setting 'monoclinic'
loop_
_space_group_symop_operation_xyz
x,y,z
-x,1/2+y,1/2-z
-x,-y,-z
x,1/2-y,1/2+z
loop_
_atom_site_type_symbol
_atom_site_label
_atom_site_fract_x
_atom_site_fract_y
_atom_site_fract_z
Si Si1 0.140597 0.915087 0.109492
Si Si2 0.431886 0.347105 0.364260
Si Si3 0.079084 0.754724 0.464315
Si Si4 0.089946 0.357771 0.073284
Si Si5 0.529372 0.085439 0.213434
Si Si6 0.001575 0.336544 0.907062
Si Si7 0.768857 0.371892 0.724879
Si Si8 0.516571 0.864457 0.055004
O O1 0.284573 0.858018 0.103420
O O2 0.076358 0.794025 0.096402
O O3 0.913780 0.006633 0.199676
O O4 0.309794 0.024248 0.026609
O O5 0.513749 0.437033 0.294448
O O6 0.537519 0.192228 0.325217
O O7 0.523694 0.409401 0.379966
O O8 0.149843 0.345271 0.459038
O O9 0.320457 0.675926 0.372531
O O10 0.027002 0.847253 0.437414
O O11 0.077764 0.822123 0.514073
O O12 0.094869 0.520156 0.081535
O O13 0.935523 0.261030 0.158601
O O14 0.340100 0.280013 0.989553
O O15 0.284350 0.153466 0.309776
O O16 0.691983 0.070759 0.202201
#
# Coordination Sequence:
#
# PCOD9242947 Si02
#       8
#     4   4   4   4   4   4   4   4
#     4  10  22  40  63  85 114 160 214 252 302 362
#     4  11  19  38  61  85 120 166 203 248 304 363
#     4  10  21  36  57  93 126 162 197 243 310 376
#     4   9  20  37  58  88 119 156 195 249 304 364
#     4  11  22  35  60  92 128 156 203 247 308 374
#     4  12  21  37  61  93 128 157 199 255 309 362
#     4  10  20  36  58  86 120 159 197 243 307 361
#     4   9  21  43  63  81 114 163 212 256 299 359
#
# _framework density 19.671232
#
# number of rings (size 3 to 8) (size 9 to 14) (size 15 to 20)
#    0.000    1.750    2.500    3.000    0.000    0.500 
#    6.750    0.000    0.000    0.000    0.000    0.000 
#    0.000    0.000    0.000    0.000    0.000    0.000 
#
# Total GULP energy -178598.640178 kJ/mol
# GULP energy per Si atom -5581.207506 kJ/mol
# Density = 1.962646 g / cm^3
# Si number density = 19.671232 Si / 1000 Ang^3
#
#
#
# Elastic Constant Matrix: (Units=GPa)
#
#
# Indices 1 2 3 4 5 6 
#
# 1 64.0319 33.9455 6.6490 0.0000 -13.1415 0.0000
# 2 33.9455 93.3428 22.2070 0.0000 -16.0331 0.0000
# 3 6.6490 22.2070 64.3052 0.0000 -10.9332 0.0000
# 4 0.0000 0.0000 0.0000 21.6147 0.0000 -1.4223
# 5 -13.1415 -16.0331 -10.9332 0.0000 23.3864 0.0000
# 6 0.0000 0.0000 0.0000 -1.4223 0.0000 16.4130
#
#
#
# Elastic Compliance Matrix: (Units=1/GPa)
#
#
# Indices 1 2 3 4 5 6 
#
# 1 0.020483 -0.006458 0.001430 0.000000 0.007751 0.000000
# 2 -0.006458 0.014743 -0.003609 0.000000 0.004792 0.000000
# 3 0.001430 -0.003609 0.017778 0.000000 0.006641 0.000000
# 4 0.000000 0.000000 0.000000 0.046530 0.000000 0.004032
# 5 0.007751 0.004792 0.006641 0.000000 0.053505 0.000000
# 6 0.000000 0.000000 0.000000 0.004032 0.000000 0.061277
#
#
# Mechanical properties :
#
#
# Convention : Reuss Voigt Hill
#
# Bulk Modulus (GPa) = 27.98668 38.58698 33.28683
# Shear Modulus (GPa) = 20.53382 22.87470 21.70426
#
# Velocity S-wave (km/s) = 3.23437 3.41376 3.32528
# Velocity P-wave (km/s) = 5.31096 5.93269 5.63042
#
# Compressibility (1/GPa) = 0.03573129
#
# Stress axis : x y z
#
# Youngs Moduli (GPa) = 48.82087 67.82735 56.24816
#
# Poissons Ratio (x) = 0.43801 -0.08044
# Poissons Ratio (y) = 0.31527 0.20300
# Poissons Ratio (z) = -0.06982 0.24479
#
# Static dielectric constant tensor:
#      x y z
#    x 1.669000 0.000000 0.007490 
#    y 0.000000 1.717340 0.000000 
#    z 0.007490 0.000000 1.726400 
# 
# From -- ./inp_files/80006.got.cif
#   From: 2010.05.17/outbox.cif.g08.bks.cpg/sg14_41_cif.got.tgz:80006.got - 2010.06.03 17:49:19.
