data_PCOD9242305
_publ_section_title
;
Structure prediction by ZEFSAII (Michael W. Deem and Ramdas Pophale) SiO2 
 PCOD9242305
Probable space group: P 21/C
;
_chemical_formula_sum "Si O2"
_cell_formula_units_Z 32
_cell_length_a 18.189227
_cell_length_b 8.417229
_cell_length_c 28.555333
_cell_angle_alpha 90.000000
_cell_angle_beta 159.996271
_cell_angle_gamma 90.000000
_cell_volume 1495.546600
_symmetry_space_group_name_H-M "P 21/C"
_symmetry_group_IT_number 14
_symmetry_cell_setting 'monoclinic'
loop_
_space_group_symop_operation_xyz
x,y,z
-x,1/2+y,1/2-z
-x,-y,-z
x,1/2-y,1/2+z
loop_
_atom_site_type_symbol
_atom_site_label
_atom_site_fract_x
_atom_site_fract_y
_atom_site_fract_z
Si Si1 0.557727 0.185122 0.522873
Si Si2 0.713201 0.176195 0.030131
Si Si3 0.870324 0.875895 0.772543
Si Si4 0.532364 0.376712 0.835121
Si Si5 0.284956 0.630813 0.749807
Si Si6 0.006248 0.880536 0.425538
Si Si7 0.625091 0.417635 0.648898
Si Si8 0.081708 0.319088 0.535845
O O1 0.712814 0.190247 0.570396
O O2 0.318499 0.231147 0.361899
O O3 0.639040 0.316034 0.608980
O O4 0.500000 0.000000 0.500000
O O5 0.599397 0.249292 0.915518
O O6 0.567946 0.039925 0.965106
O O7 0.943225 0.109205 0.153512
O O8 0.971162 0.783717 0.876549
O O9 0.778723 0.033649 0.741765
O O10 0.414461 0.515482 0.793291
O O11 0.339578 0.317777 0.686169
O O12 0.747197 0.427666 0.936673
O O13 0.434154 0.777695 0.850608
O O14 0.065369 0.702118 0.597267
O O15 0.968879 0.818924 0.456205
O O16 0.835895 0.996421 0.297545
O O17 0.000000 0.500000 0.500000
#
# Coordination Sequence:
#
# PCOD9242305 Si02
#       8
#     4   4   4   4   4   4   4   4
#     4  12  23  45  68  91 130 176 221 273 344 402
#     4  11  23  41  67  95 129 174 219 283 332 403
#     4  11  22  43  66  93 133 173 227 268 343 408
#     4  10  20  43  68  91 132 172 224 272 344 402
#     4  11  22  43  64  96 135 182 212 284 339 405
#     4  11  22  41  67  99 128 174 223 283 333 408
#     4  12  24  42  65  95 141 170 225 285 340 399
#     4  10  19  42  69  90 130 176 221 267 345 399
#
# _framework density 21.396858000000002
#
# number of rings (size 3 to 8) (size 9 to 14) (size 15 to 20)
#    0.000    1.000    7.500    0.375    0.000    2.500 
#   11.250    0.000    0.000    0.000    0.000    0.000 
#    0.000    0.000    0.000    0.000    0.000    0.000 
#
# Total GULP energy -178154.790396 kJ/mol
# GULP energy per Si atom -5567.337200 kJ/mol
# Density = 2.134816 g / cm^3
# Si number density = 21.396858 Si / 1000 Ang^3
#
#
#
# Elastic Constant Matrix: (Units=GPa)
#
#
# Indices 1 2 3 4 5 6 
#
# 1 57.8607 42.2442 51.3853 0.0000 7.4391 0.0000
# 2 42.2442 84.1020 30.1201 0.0000 3.8507 0.0000
# 3 51.3853 30.1201 103.4343 0.0000 12.3753 0.0000
# 4 0.0000 0.0000 0.0000 25.5231 0.0000 -24.9627
# 5 7.4391 3.8507 12.3753 0.0000 40.7816 0.0000
# 6 0.0000 0.0000 0.0000 -24.9627 0.0000 8.4117
#
#
#
# Elastic Compliance Matrix: (Units=1/GPa)
#
#
# Indices 1 2 3 4 5 6 
#
# 1 0.044610 -0.016151 -0.017296 0.000000 -0.001364 0.000000
# 2 -0.016151 0.019122 0.002406 0.000000 0.000410 0.000000
# 3 -0.017296 0.002406 0.017858 0.000000 -0.002491 0.000000
# 4 0.000000 0.000000 0.000000 -0.020595 0.000000 -0.061117
# 5 -0.001364 0.000410 -0.002491 0.000000 0.025487 0.000000
# 6 0.000000 0.000000 0.000000 -0.061117 0.000000 -0.062489
#
#
# Mechanical properties :
#
#
# Convention : Reuss Voigt Hill
#
# Bulk Modulus (GPa) = 51.25737 54.76622 53.01180
# Shear Modulus (GPa) = 54.00916 23.05311 38.53114
#
# Velocity S-wave (km/s) = 5.02956 3.28595 4.24817
# Velocity P-wave (km/s) = 7.59843 6.32832 6.99227
#
# Compressibility (1/GPa) = 0.01950939
#
# Stress axis : x y z
#
# Youngs Moduli (GPa) = 22.41654 52.29486 55.99841
#
# Poissons Ratio (x) = 0.84460 0.96852
# Poissons Ratio (y) = 0.36205 -0.13474
# Poissons Ratio (z) = 0.38771 -0.12582
#
# Static dielectric constant tensor:
#      x y z
#    x 1.828990 0.000000 -0.059340 
#    y 0.000000 1.847820 0.000000 
#    z -0.059340 0.000000 1.840610 
# 
# From -- ./inp_files/80426.got.cif
#   From: 2010.05.17/outbox.cif.g08.bks.cpg/sg14_41_cif.got.tgz:80426.got - 2010.06.03 17:49:19.
