data_PCOD9242538
_publ_section_title
;
Structure prediction by ZEFSAII (Michael W. Deem and Ramdas Pophale) SiO2 
 PCOD9242538
Probable space group: P 21/C
;
_chemical_formula_sum "Si O2"
_cell_formula_units_Z 20
_cell_length_a 10.882236
_cell_length_b 8.040885
_cell_length_c 10.217618
_cell_angle_alpha 90.000000
_cell_angle_beta 131.446663
_cell_angle_gamma 90.000000
_cell_volume 670.170248
_symmetry_space_group_name_H-M "P 21/C"
_symmetry_group_IT_number 14
_symmetry_cell_setting 'monoclinic'
loop_
_space_group_symop_operation_xyz
x,y,z
-x,1/2+y,1/2-z
-x,-y,-z
x,1/2-y,1/2+z
loop_
_atom_site_type_symbol
_atom_site_label
_atom_site_fract_x
_atom_site_fract_y
_atom_site_fract_z
Si Si1 0.796648 0.460138 0.616485
Si Si2 0.468409 0.178066 0.172658
Si Si3 0.780779 0.415257 0.075185
Si Si4 0.500000 0.500000 0.000000
Si Si5 0.845255 0.663578 0.910613
Si Si6 0.000000 0.000000 0.000000
O O1 0.612474 0.507931 0.437821
O O2 0.828349 0.265912 0.651361
O O3 0.801241 0.557977 0.753560
O O4 0.918532 0.520676 0.589126
O O5 0.606805 0.121039 0.374618
O O6 0.512272 0.316629 0.094123
O O7 0.320996 0.254793 0.152691
O O8 0.883001 0.532010 0.053146
O O9 0.705484 0.512494 0.146373
O O10 0.981634 0.796695 0.968909
#
# Coordination Sequence:
#
# PCOD9242538 Si02
#       6
#     4   4   4   2   4   2
#     4  11  23  42  69  97 135 184 233 292 354 412
#     4  10  21  38  64 103 142 178 223 279 349 424
#     4  11  22  37  65 104 140 175 223 286 354 423
#     4  10  20  34  54  90 140 176 210 260 332 416
#     4  10  23  43  67  98 139 187 238 287 346 416
#     4  10  26  48  68  94 132 184 248 296 338 406
#
# _framework density 29.843162
#
# number of rings (size 3 to 8) (size 9 to 14) (size 15 to 20)
#    0.000    1.600    0.000    4.800    0.000    6.400 
#    0.000    8.000    0.000    0.000    0.000    0.000 
#    0.000    0.000    0.000    0.000    0.000    0.000 
#
# Total GULP energy -111440.509306 kJ/mol
# GULP energy per Si atom -5572.025465 kJ/mol
# Density = 2.977524 g / cm^3
# Si number density = 29.843162 Si / 1000 Ang^3
#
#
#
# Elastic Constant Matrix: (Units=GPa)
#
#
# Indices 1 2 3 4 5 6 
#
# 1 133.0643 28.6447 13.4528 0.0000 -26.1102 0.0000
# 2 28.6447 219.5692 50.0017 0.0000 -8.5205 0.0000
# 3 13.4528 50.0017 107.0896 0.0000 -23.6653 0.0000
# 4 0.0000 0.0000 0.0000 65.0590 0.0000 10.5686
# 5 -26.1102 -8.5205 -23.6653 0.0000 43.7265 0.0000
# 6 0.0000 0.0000 0.0000 10.5686 0.0000 75.6661
#
#
#
# Elastic Compliance Matrix: (Units=1/GPa)
#
#
# Indices 1 2 3 4 5 6 
#
# 1 0.008729 -0.001063 0.000575 0.000000 0.005316 0.000000
# 2 -0.001063 0.005230 -0.002526 0.000000 -0.000983 0.000000
# 3 0.000575 -0.002526 0.011827 0.000000 0.006252 0.000000
# 4 0.000000 0.000000 0.000000 0.015728 0.000000 -0.002197
# 5 0.005316 -0.000983 0.006252 0.000000 0.029236 0.000000
# 6 0.000000 0.000000 0.000000 -0.002197 0.000000 0.013523
#
#
# Mechanical properties :
#
#
# Convention : Reuss Voigt Hill
#
# Bulk Modulus (GPa) = 50.61404 71.54681 61.08043
# Shear Modulus (GPa) = 51.60692 61.39859 56.50275
#
# Velocity S-wave (km/s) = 4.16296 4.54075 4.35595
# Velocity P-wave (km/s) = 6.33276 7.17757 6.76836
#
# Compressibility (1/GPa) = 0.01975736
#
# Stress axis : x y z
#
# Youngs Moduli (GPa) = 114.55889 191.20059 84.55541
#
# Poissons Ratio (x) = 0.20332 -0.04860
# Poissons Ratio (y) = 0.12182 0.21355
# Poissons Ratio (z) = -0.06584 0.48290
#
# Static dielectric constant tensor:
#      x y z
#    x 2.762030 0.000000 0.442930 
#    y 0.000000 0.805500 0.000000 
#    z 0.442930 0.000000 2.728760 
# 
# From -- ./inp_files/28264.got.cif
#   From: 2010.05.17/outbox.cif.g08.bks.cpg/sg14_15_cif.got.tgz:28264.got - 2010.06.03 17:49:19.
