data_PCOD9242413
_publ_section_title
;
Structure prediction by ZEFSAII (Michael W. Deem and Ramdas Pophale) SiO2 
 PCOD9242413
Probable space group: P 21/C
;
_chemical_formula_sum "Si O2"
_cell_formula_units_Z 32
_cell_length_a 7.970846
_cell_length_b 12.639243
_cell_length_c 16.092125
_cell_angle_alpha 90.000000
_cell_angle_beta 125.433542
_cell_angle_gamma 90.000000
_cell_volume 1320.942120
_symmetry_space_group_name_H-M "P 21/C"
_symmetry_group_IT_number 14
_symmetry_cell_setting 'monoclinic'
loop_
_space_group_symop_operation_xyz
x,y,z
-x,1/2+y,1/2-z
-x,-y,-z
x,1/2-y,1/2+z
loop_
_atom_site_type_symbol
_atom_site_label
_atom_site_fract_x
_atom_site_fract_y
_atom_site_fract_z
Si Si1 0.796525 0.136377 0.127179
Si Si2 0.557136 0.645510 0.598944
Si Si3 0.632407 0.333172 0.151963
Si Si4 0.868788 0.530286 0.183499
Si Si5 0.367396 0.446754 0.209125
Si Si6 0.881893 0.749792 0.899947
Si Si7 0.525606 0.847598 0.691959
Si Si8 0.193969 0.215656 0.443053
O O1 0.734729 0.218158 0.182526
O O2 0.935714 0.042158 0.200874
O O3 0.942381 0.202528 0.106517
O O4 0.595811 0.108638 0.016771
O O5 0.594092 0.561292 0.681842
O O6 0.457482 0.745287 0.620898
O O7 0.761023 0.697770 0.615627
O O8 0.786492 0.412944 0.149684
O O9 0.558001 0.388456 0.215498
O O10 0.423023 0.318221 0.039721
O O11 0.680077 0.590642 0.174729
O O12 0.905889 0.606818 0.116433
O O13 0.171213 0.373426 0.132498
O O14 0.364279 0.565557 0.175173
O O15 0.671205 0.808614 0.809399
O O16 0.913572 0.763573 0.006928
#
# Coordination Sequence:
#
# PCOD9242413 Si02
#       8
#     4   4   4   4   4   4   4   4
#     4  10  20  33  48  76 108 129 157 206 257 294
#     4   9  18  33  52  74 100 129 164 206 246 293
#     4   9  18  33  53  74  95 128 171 206 241 293
#     4   9  17  32  52  72  98 133 168 201 243 298
#     4   9  17  34  56  72  91 131 174 204 237 294
#     4   9  18  32  49  73 101 128 164 205 247 292
#     4   8  16  33  54  70  92 132 173 199 236 299
#     4   9  17  32  54  71  94 134 173 203 236 289
#
# _framework density 24.225135999999999
#
# number of rings (size 3 to 8) (size 9 to 14) (size 15 to 20)
#    0.000    3.000    0.000    1.125    0.000    4.000 
#    0.000   15.000    0.000    0.000    0.000    0.000 
#    0.000    0.000    0.000    0.000    0.000    0.000 
#
# Total GULP energy -178842.514212 kJ/mol
# GULP energy per Si atom -5588.828569 kJ/mol
# Density = 2.417000 g / cm^3
# Si number density = 24.225136 Si / 1000 Ang^3
#
#
#
# Elastic Constant Matrix: (Units=GPa)
#
#
# Indices 1 2 3 4 5 6 
#
# 1 99.9435 33.6489 13.4562 0.0000 -14.4555 0.0000
# 2 33.6489 75.7251 4.8197 0.0000 6.6605 0.0000
# 3 13.4562 4.8197 48.6516 0.0000 -13.0912 0.0000
# 4 0.0000 0.0000 0.0000 4.2177 0.0000 0.0516
# 5 -14.4555 6.6605 -13.0912 0.0000 18.3674 0.0000
# 6 0.0000 0.0000 0.0000 0.0516 0.0000 28.7190
#
#
#
# Elastic Compliance Matrix: (Units=1/GPa)
#
#
# Indices 1 2 3 4 5 6 
#
# 1 0.014741 -0.007917 0.000744 0.000000 0.015003 0.000000
# 2 -0.007917 0.018340 -0.003827 0.000000 -0.015610 0.000000
# 3 0.000744 -0.003827 0.026303 0.000000 0.020721 0.000000
# 4 0.000000 0.000000 0.000000 0.237102 0.000000 -0.000426
# 5 0.015003 -0.015610 0.020721 0.000000 0.086681 0.000000
# 6 0.000000 0.000000 0.000000 -0.000426 0.000000 0.034821
#
#
# Mechanical properties :
#
#
# Convention : Reuss Voigt Hill
#
# Bulk Modulus (GPa) = 26.74957 36.46331 31.60644
# Shear Modulus (GPa) = 11.05093 21.75383 16.40238
#
# Velocity S-wave (km/s) = 2.13814 2.99989 2.60490
# Velocity P-wave (km/s) = 4.14266 5.20420 4.70347
#
# Compressibility (1/GPa) = 0.03738378
#
# Stress axis : x y z
#
# Youngs Moduli (GPa) = 67.83802 54.52470 38.01808
#
# Poissons Ratio (x) = 0.43168 -0.02829
# Poissons Ratio (y) = 0.53709 0.14551
# Poissons Ratio (z) = -0.05049 0.20869
#
# Static dielectric constant tensor:
#      x y z
#    x 1.961980 0.000000 -0.039880 
#    y 0.000000 1.967660 0.000000 
#    z -0.039880 0.000000 1.915090 
# 
# From -- ./inp_files/41245.got.cif
#   From: 2010.05.17/outbox.cif.g08.bks.cpg/sg14_21_cif.got.tgz:41245.got - 2010.06.03 17:49:19.
