data_PCOD9242204
_publ_section_title
;
Structure prediction by ZEFSAII (Michael W. Deem and Ramdas Pophale) SiO2 
 PCOD9242204
Probable space group: P 21/C
;
_chemical_formula_sum "Si O2"
_cell_formula_units_Z 32
_cell_length_a 14.591709
_cell_length_b 19.540417
_cell_length_c 9.544328
_cell_angle_alpha 90.000000
_cell_angle_beta 39.246684
_cell_angle_gamma 90.000000
_cell_volume 1721.694413
_symmetry_space_group_name_H-M "P 21/C"
_symmetry_group_IT_number 14
_symmetry_cell_setting 'monoclinic'
loop_
_space_group_symop_operation_xyz
x,y,z
-x,1/2+y,1/2-z
-x,-y,-z
x,1/2-y,1/2+z
loop_
_atom_site_type_symbol
_atom_site_label
_atom_site_fract_x
_atom_site_fract_y
_atom_site_fract_z
Si Si1 0.706309 0.540344 0.018625
Si Si2 0.726145 0.933517 0.001445
Si Si3 0.089654 0.439780 0.969485
Si Si4 0.137266 0.674450 0.663427
Si Si5 0.596378 0.418694 0.660764
Si Si6 0.075430 0.430343 0.464586
Si Si7 0.151109 0.687747 0.315325
Si Si8 0.420027 0.904649 0.483454
O O1 0.809270 0.529147 0.028682
O O2 0.559421 0.580666 0.227144
O O3 0.799237 0.582993 0.796930
O O4 0.654148 0.470076 0.005445
O O5 0.844969 0.939171 0.982743
O O6 0.581024 0.896879 0.230083
O O7 0.674496 0.010559 0.029575
O O8 0.804880 0.905714 0.770854
O O9 0.000000 0.500000 0.000000
O O10 0.980455 0.383939 0.162383
O O11 0.295546 0.641963 0.502956
O O12 0.131763 0.692055 0.505512
O O13 0.119000 0.741372 0.778161
O O14 0.572831 0.419966 0.858025
O O15 0.000000 0.500000 0.500000
O O16 0.958536 0.370828 0.606717
O O17 0.312789 0.659371 0.093252
#
# Coordination Sequence:
#
# PCOD9242204 Si02
#       8
#     4   4   4   4   4   4   4   4
#     4  11  20  37  66  95 124 160 206 260 317 362
#     4  11  21  37  64  97 126 155 206 263 312 364
#     4  12  25  40  60  98 135 162 205 269 317 362
#     4  11  25  45  61  89 129 168 209 256 314 381
#     4  10  19  40  64  94 126 157 207 265 308 375
#     4  12  19  37  67  96 118 163 211 258 310 370
#     4  11  25  42  64  90 125 169 211 255 315 382
#     4  10  20  38  65  95 121 159 214 257 309 378
#
# _framework density 18.586341999999998
#
# number of rings (size 3 to 8) (size 9 to 14) (size 15 to 20)
#    0.000    1.000    6.250    2.250    1.750    2.000 
#    2.250    2.500    0.000    0.000    0.000    0.000 
#    0.000    0.000    0.000    0.000    0.000    0.000 
#
# Total GULP energy -178756.732386 kJ/mol
# GULP energy per Si atom -5586.147887 kJ/mol
# Density = 1.854404 g / cm^3
# Si number density = 18.586342 Si / 1000 Ang^3
#
#
#
# Elastic Constant Matrix: (Units=GPa)
#
#
# Indices 1 2 3 4 5 6 
#
# 1 110.9053 42.6280 36.2896 0.0000 -18.9687 0.0000
# 2 42.6280 91.0779 35.7868 0.0000 -10.0380 0.0000
# 3 36.2896 35.7868 108.7096 0.0000 -6.4348 0.0000
# 4 0.0000 0.0000 0.0000 21.6333 0.0000 -0.0327
# 5 -18.9687 -10.0380 -6.4348 0.0000 21.9168 0.0000
# 6 0.0000 0.0000 0.0000 -0.0327 0.0000 17.0669
#
#
#
# Elastic Compliance Matrix: (Units=1/GPa)
#
#
# Indices 1 2 3 4 5 6 
#
# 1 0.012854 -0.004122 -0.002429 0.000000 0.008524 0.000000
# 2 -0.004122 0.014414 -0.003246 0.000000 0.002081 0.000000
# 3 -0.002429 -0.003246 0.011058 0.000000 -0.000342 0.000000
# 4 0.000000 0.000000 0.000000 0.046225 0.000000 0.000089
# 5 0.008524 0.002081 -0.000342 0.000000 0.053857 0.000000
# 6 0.000000 0.000000 0.000000 0.000089 0.000000 0.058593
#
#
# Mechanical properties :
#
#
# Convention : Reuss Voigt Hill
#
# Bulk Modulus (GPa) = 53.38717 60.01131 56.69924
# Shear Modulus (GPa) = 22.43776 25.18928 23.81352
#
# Velocity S-wave (km/s) = 3.47827 3.68538 3.58332
# Velocity P-wave (km/s) = 6.70205 7.10403 6.90596
#
# Compressibility (1/GPa) = 0.01873109
#
# Stress axis : x y z
#
# Youngs Moduli (GPa) = 77.79761 69.37894 90.43241
#
# Poissons Ratio (x) = 0.28599 0.21969
# Poissons Ratio (y) = 0.32069 0.29351
# Poissons Ratio (z) = 0.18900 0.22518
#
# Static dielectric constant tensor:
#      x y z
#    x 1.647050 0.000000 -0.006850 
#    y 0.000000 1.608720 0.000000 
#    z -0.006850 0.000000 1.687790 
# 
# From -- ./inp_files/16844.got.cif
#   From: 2010.05.17/outbox.cif.g08.bks.cpg/sg14_9_cif.got.tgz:16844.got - 2010.06.03 17:49:19.
