data_PCOD9242087
_publ_section_title
;
Structure prediction by ZEFSAII (Michael W. Deem and Ramdas Pophale) SiO2 
 PCOD9242087
Probable space group: P 21/C
;
_chemical_formula_sum "Si O2"
_cell_formula_units_Z 24
_cell_length_a 9.245229
_cell_length_b 13.054631
_cell_length_c 22.456704
_cell_angle_alpha 90.000000
_cell_angle_beta 156.786704
_cell_angle_gamma 90.000000
_cell_volume 1068.305687
_symmetry_space_group_name_H-M "P 21/C"
_symmetry_group_IT_number 14
_symmetry_cell_setting 'monoclinic'
loop_
_space_group_symop_operation_xyz
x,y,z
-x,1/2+y,1/2-z
-x,-y,-z
x,1/2-y,1/2+z
loop_
_atom_site_type_symbol
_atom_site_label
_atom_site_fract_x
_atom_site_fract_y
_atom_site_fract_z
Si Si1 0.303692 0.423872 0.694041
Si Si2 0.720594 0.874096 0.345195
Si Si3 0.184813 0.269233 0.229428
Si Si4 0.501983 0.444638 0.424353
Si Si5 0.373386 0.651620 0.403520
Si Si6 0.093115 0.295595 0.497386
O O1 0.627093 0.506603 0.815065
O O2 0.329678 0.333678 0.752666
O O3 0.237992 0.373262 0.604180
O O4 0.921940 0.478345 0.570267
O O5 0.974236 0.836254 0.386025
O O6 0.864905 0.816133 0.457481
O O7 0.318692 0.825594 0.176839
O O8 0.449381 0.351463 0.359445
O O9 0.921016 0.229734 0.181818
O O10 0.250490 0.545338 0.324544
O O11 0.450048 0.394916 0.469475
O O12 0.652366 0.702462 0.464069
#
# Coordination Sequence:
#
# PCOD9242087 Si02
#       6
#     4   4   4   4   4   4
#     4  10  20  40  67  89 118 173 221 257 317 386
#     4  11  22  40  65  92 128 167 216 265 314 377
#     4  10  22  36  61  95 126 158 211 273 312 369
#     4  10  19  39  63  87 123 164 221 255 313 388
#     4  10  22  33  60  91 121 167 204 260 317 382
#     4  11  22  37  64  96 123 165 216 266 309 384
#
# _framework density 22.465478999999998
#
# number of rings (size 3 to 8) (size 9 to 14) (size 15 to 20)
#    0.000    1.667    3.333    1.500    2.333    0.000 
#    0.000    3.333    7.333    5.000    0.000    0.000 
#    0.000    0.000    0.000    0.000    0.000    0.000 
#
# Total GULP energy -133910.995937 kJ/mol
# GULP energy per Si atom -5579.624831 kJ/mol
# Density = 2.241435 g / cm^3
# Si number density = 22.465479 Si / 1000 Ang^3
#
#
#
# Elastic Constant Matrix: (Units=GPa)
#
#
# Indices 1 2 3 4 5 6 
#
# 1 142.6419 39.2334 25.1234 0.0000 20.5017 0.0000
# 2 39.2334 82.0698 10.3011 0.0000 10.5248 0.0000
# 3 25.1234 10.3011 40.7098 0.0000 2.2390 0.0000
# 4 0.0000 0.0000 0.0000 41.0008 0.0000 0.8683
# 5 20.5017 10.5248 2.2390 0.0000 25.2680 0.0000
# 6 0.0000 0.0000 0.0000 0.8683 0.0000 42.2037
#
#
#
# Elastic Compliance Matrix: (Units=1/GPa)
#
#
# Indices 1 2 3 4 5 6 
#
# 1 0.009604 -0.003218 -0.004781 0.000000 -0.006029 0.000000
# 2 -0.003218 0.014320 -0.001460 0.000000 -0.003224 0.000000
# 3 -0.004781 -0.001460 0.027773 0.000000 0.002027 0.000000
# 4 0.000000 0.000000 0.000000 0.024400 0.000000 -0.000502
# 5 -0.006029 -0.003224 0.002027 0.000000 0.045631 0.000000
# 6 0.000000 0.000000 0.000000 -0.000502 0.000000 0.023705
#
#
# Mechanical properties :
#
#
# Convention : Reuss Voigt Hill
#
# Bulk Modulus (GPa) = 30.50832 46.08192 38.29512
# Shear Modulus (GPa) = 28.52613 34.41206 31.46909
#
# Velocity S-wave (km/s) = 3.56726 3.91804 3.74675
# Velocity P-wave (km/s) = 5.52962 6.40506 5.98337
#
# Compressibility (1/GPa) = 0.03277794
#
# Stress axis : x y z
#
# Youngs Moduli (GPa) = 104.12019 69.83294 36.00648
#
# Poissons Ratio (x) = 0.22473 0.17216
# Poissons Ratio (y) = 0.33507 0.05258
# Poissons Ratio (z) = 0.49783 0.10197
#
# Static dielectric constant tensor:
#      x y z
#    x 1.865610 0.000000 -0.023620 
#    y 0.000000 1.913040 0.000000 
#    z -0.023620 0.000000 1.883120 
# 
# From -- ./inp_files/32142.got.cif
#   From: 2010.05.17/outbox.cif.g08.bks.cpg/sg14_17_cif.got.tgz:32142.got - 2010.06.03 17:49:19.
