data_PCOD9242897
_publ_section_title
;
Structure prediction by ZEFSAII (Michael W. Deem and Ramdas Pophale) SiO2 
 PCOD9242897
Probable space group: P 21/C
;
_chemical_formula_sum "Si O2"
_cell_formula_units_Z 28
_cell_length_a 9.751494
_cell_length_b 16.913401
_cell_length_c 18.353893
_cell_angle_alpha 90.000000
_cell_angle_beta 27.978857
_cell_angle_gamma 90.000000
_cell_volume 1420.162525
_symmetry_space_group_name_H-M "P 21/C"
_symmetry_group_IT_number 14
_symmetry_cell_setting 'monoclinic'
loop_
_space_group_symop_operation_xyz
x,y,z
-x,1/2+y,1/2-z
-x,-y,-z
x,1/2-y,1/2+z
loop_
_atom_site_type_symbol
_atom_site_label
_atom_site_fract_x
_atom_site_fract_y
_atom_site_fract_z
Si Si1 0.048381 0.865148 0.811303
Si Si2 0.709221 0.219750 0.021164
Si Si3 0.615655 0.378382 0.986732
Si Si4 0.633371 0.140702 0.901291
Si Si5 0.178604 0.781829 0.334385
Si Si6 0.266666 0.259928 0.843093
Si Si7 0.936190 0.516938 0.773453
O O1 0.269098 0.839509 0.642782
O O2 0.131785 0.812179 0.840694
O O3 0.711637 0.848596 0.949611
O O4 0.070663 0.960355 0.794713
O O5 0.446292 0.193114 0.197140
O O6 0.659220 0.313479 0.027914
O O7 0.703758 0.178156 0.946379
O O8 0.015519 0.212079 0.918641
O O9 0.813619 0.457936 0.893761
O O10 0.289460 0.411208 0.131334
O O11 0.801171 0.177247 0.753161
O O12 0.753080 0.051690 0.851692
O O13 0.484040 0.790290 0.233070
O O14 0.911116 0.807036 0.511333
#
# Coordination Sequence:
#
# PCOD9242897 Si02
#       7
#     4   4   4   4   4   4   4
#     4  10  20  36  56  92 116 149 190 250 284 350
#     4  11  21  38  61  89 115 153 200 244 291 343
#     4   9  19  36  58  88 118 148 191 247 290 341
#     4  12  21  34  68  90 114 151 205 249 286 346
#     4  11  22  38  60  87 118 155 196 244 296 344
#     4  10  24  37  54  88 125 152 187 249 299 347
#     4   9  21  34  57  96 121 145 189 260 294 335
#
# _framework density 19.716054
#
# number of rings (size 3 to 8) (size 9 to 14) (size 15 to 20)
#    0.857    0.857    2.857    2.143    4.000    0.000 
#    0.000    0.000    0.000   18.857    0.000    0.000 
#    0.000    0.000    0.000    0.000    0.000    0.000 
#
# Total GULP energy -155874.337224 kJ/mol
# GULP energy per Si atom -5566.940615 kJ/mol
# Density = 1.967118 g / cm^3
# Si number density = 19.716054 Si / 1000 Ang^3
#
#
#
# Elastic Constant Matrix: (Units=GPa)
#
#
# Indices 1 2 3 4 5 6 
#
# 1 91.8164 19.2935 58.3010 0.0000 7.8341 0.0000
# 2 19.2935 44.8938 32.5127 0.0000 -0.1743 0.0000
# 3 58.3010 32.5127 122.7643 0.0000 9.0186 0.0000
# 4 0.0000 0.0000 0.0000 8.9660 0.0000 1.8965
# 5 7.8341 -0.1743 9.0186 0.0000 34.2804 0.0000
# 6 0.0000 0.0000 0.0000 1.8965 0.0000 2.1318
#
#
#
# Elastic Compliance Matrix: (Units=1/GPa)
#
#
# Indices 1 2 3 4 5 6 
#
# 1 0.015802 -0.001806 -0.006893 0.000000 -0.001807 0.000000
# 2 -0.001806 0.027916 -0.006706 0.000000 0.002319 0.000000
# 3 -0.006893 -0.006706 0.013340 0.000000 -0.001968 0.000000
# 4 0.000000 0.000000 0.000000 0.137386 0.000000 -0.122224
# 5 -0.001807 0.002319 -0.001968 0.000000 0.030114 0.000000
# 6 0.000000 0.000000 0.000000 -0.122224 0.000000 0.577817
#
#
# Mechanical properties :
#
#
# Convention : Reuss Voigt Hill
#
# Bulk Modulus (GPa) = 38.09832 53.29876 45.69854
# Shear Modulus (GPa) = 5.93870 19.03347 12.48608
#
# Velocity S-wave (km/s) = 1.73743 3.11043 2.51927
# Velocity P-wave (km/s) = 4.83635 6.32389 5.62947
#
# Compressibility (1/GPa) = 0.02624787
#
# Stress axis : x y z
#
# Youngs Moduli (GPa) = 63.28274 35.82112 74.96230
#
# Poissons Ratio (x) = 0.06469 0.51675
# Poissons Ratio (y) = 0.11427 0.50271
# Poissons Ratio (z) = 0.43624 0.24022
#
# Static dielectric constant tensor:
#      x y z
#    x 1.679830 0.000000 0.013870 
#    y 0.000000 1.698120 0.000000 
#    z 0.013870 0.000000 1.743240 
# 
# From -- ./inp_files/56199.got.cif
#   From: 2010.05.17/outbox.cif.g08.bks.cpg/sg14_29_cif.got.tgz:56199.got - 2010.06.03 17:49:19.
