data_PCOD9242583
_publ_section_title
;
Structure prediction by ZEFSAII (Michael W. Deem and Ramdas Pophale) SiO2 
 PCOD9242583
Probable space group: P 21/C
;
_chemical_formula_sum "Si O2"
_cell_formula_units_Z 24
_cell_length_a 31.364096
_cell_length_b 8.033639
_cell_length_c 15.713595
_cell_angle_alpha 90.000000
_cell_angle_beta 19.138521
_cell_angle_gamma 90.000000
_cell_volume 1298.075576
_symmetry_space_group_name_H-M "P 21/C"
_symmetry_group_IT_number 14
_symmetry_cell_setting 'monoclinic'
loop_
_space_group_symop_operation_xyz
x,y,z
-x,1/2+y,1/2-z
-x,-y,-z
x,1/2-y,1/2+z
loop_
_atom_site_type_symbol
_atom_site_label
_atom_site_fract_x
_atom_site_fract_y
_atom_site_fract_z
Si Si1 0.426157 0.318197 0.962583
Si Si2 0.697127 0.793888 0.982573
Si Si3 0.293261 0.844483 0.999692
Si Si4 0.628937 0.990336 0.817853
Si Si5 0.417885 0.838854 0.573095
Si Si6 0.151288 0.988214 0.733236
O O1 0.582155 0.310198 0.675786
O O2 0.372445 0.263699 0.972962
O O3 0.389981 0.501483 0.066826
O O4 0.377266 0.176290 0.117990
O O5 0.797838 0.647863 0.811155
O O6 0.575177 0.817509 0.278051
O O7 0.760297 0.976847 0.869292
O O8 0.353184 0.853528 0.789335
O O9 0.194975 0.689981 0.189174
O O10 0.626839 0.159365 0.876677
O O11 0.760010 0.997179 0.517667
O O12 0.500000 0.000000 0.000000
O O13 0.000000 0.000000 0.000000
#
# Coordination Sequence:
#
# PCOD9242583 Si02
#       6
#     4   4   4   4   4   4
#     4  11  21  32  59  92 121 144 192 258 300 335
#     4  11  22  33  58  91 122 148 197 250 301 338
#     4  10  21  37  59  89 118 157 195 241 298 348
#     4  11  19  36  61  86 112 153 202 238 291 348
#     4  10  20  34  57  88 121 147 192 244 295 349
#     4  11  23  40  62  84 120 160 202 236 287 364
#
# _framework density 18.488907000000001
#
# number of rings (size 3 to 8) (size 9 to 14) (size 15 to 20)
#    0.000    1.333    5.000    3.000    9.333    0.667 
#    0.000    0.000   11.000    0.000    0.000    0.000 
#    0.000    0.000    0.000    0.000    0.000    0.000 
#
# Total GULP energy -133766.618171 kJ/mol
# GULP energy per Si atom -5573.609090 kJ/mol
# Density = 1.844683 g / cm^3
# Si number density = 18.488907 Si / 1000 Ang^3
#
#
#
# Elastic Constant Matrix: (Units=GPa)
#
#
# Indices 1 2 3 4 5 6 
#
# 1 78.9895 68.8489 39.4928 0.0000 -8.1073 0.0000
# 2 68.8489 212.1171 55.6976 0.0000 -16.2975 0.0000
# 3 39.4928 55.6976 89.7731 0.0000 -17.5764 0.0000
# 4 0.0000 0.0000 0.0000 17.0376 0.0000 -3.2676
# 5 -8.1073 -16.2975 -17.5764 0.0000 14.0013 0.0000
# 6 0.0000 0.0000 0.0000 -3.2676 0.0000 14.6327
#
#
#
# Elastic Compliance Matrix: (Units=1/GPa)
#
#
# Indices 1 2 3 4 5 6 
#
# 1 0.019822 -0.005007 -0.005976 0.000000 -0.001853 0.000000
# 2 -0.005007 0.006985 -0.001468 0.000000 0.003389 0.000000
# 3 -0.005976 -0.001468 0.018120 0.000000 0.017578 0.000000
# 4 0.000000 0.000000 0.000000 0.061320 0.000000 0.013693
# 5 -0.001853 0.003389 0.017578 0.000000 0.096361 0.000000
# 6 0.000000 0.000000 0.000000 0.013693 0.000000 0.071398
#
#
# Mechanical properties :
#
#
# Convention : Reuss Voigt Hill
#
# Bulk Modulus (GPa) = 49.93527 78.77315 64.35421
# Shear Modulus (GPa) = 16.36213 23.59034 19.97623
#
# Velocity S-wave (km/s) = 2.97807 3.57588 3.29058
# Velocity P-wave (km/s) = 6.23635 7.72964 7.02280
#
# Compressibility (1/GPa) = 0.02002592
#
# Stress axis : x y z
#
# Youngs Moduli (GPa) = 50.44937 143.15799 55.18616
#
# Poissons Ratio (x) = 0.71677 0.32981
# Poissons Ratio (y) = 0.25259 0.08100
# Poissons Ratio (z) = 0.30150 0.21011
#
# Static dielectric constant tensor:
#      x y z
#    x 1.659170 0.000000 0.055220 
#    y 0.000000 1.734960 0.000000 
#    z 0.055220 0.000000 1.602560 
# 
# From -- ./inp_files/52234.got.cif
#   From: 2010.05.17/outbox.cif.g08.bks.cpg/sg14_27_cif.got.tgz:52234.got - 2010.06.03 17:49:19.
