data_PCOD9242020
_publ_section_title
;
Structure prediction by ZEFSAII (Michael W. Deem and Ramdas Pophale) SiO2 
 PCOD9242020
Probable space group: P 21/C
;
_chemical_formula_sum "Si O2"
_cell_formula_units_Z 24
_cell_length_a 8.604639
_cell_length_b 11.445994
_cell_length_c 24.141643
_cell_angle_alpha 90.000000
_cell_angle_beta 32.125529
_cell_angle_gamma 90.000000
_cell_volume 1264.391898
_symmetry_space_group_name_H-M "P 21/C"
_symmetry_group_IT_number 14
_symmetry_cell_setting 'monoclinic'
loop_
_space_group_symop_operation_xyz
x,y,z
-x,1/2+y,1/2-z
-x,-y,-z
x,1/2-y,1/2+z
loop_
_atom_site_type_symbol
_atom_site_label
_atom_site_fract_x
_atom_site_fract_y
_atom_site_fract_z
Si Si1 0.259915 0.921467 0.759437
Si Si2 0.203477 0.742056 0.868343
Si Si3 0.238989 0.630013 0.138200
Si Si4 0.122762 0.457244 0.076186
Si Si5 0.072249 0.336494 0.936297
Si Si6 0.854351 0.693735 0.691311
O O1 0.124973 0.846980 0.850845
O O2 0.179493 0.885754 0.721050
O O3 0.603822 0.890352 0.660331
O O4 0.187484 0.056945 0.788311
O O5 0.531703 0.751254 0.792411
O O6 0.158559 0.624465 0.845696
O O7 0.007308 0.714937 0.980601
O O8 0.117928 0.524943 0.135816
O O9 0.081612 0.746682 0.164405
O O10 0.585372 0.620009 0.019830
O O11 0.125212 0.557016 0.027535
O O12 0.047534 0.232934 0.899404
#
# Coordination Sequence:
#
# PCOD9242020 Si02
#       6
#     4   4   4   4   4   4
#     4  11  22  38  61  91 125 158 197 255 304 354
#     4  11  21  37  65  87 117 166 205 238 303 359
#     4  10  22  37  60  92 123 148 202 261 297 348
#     4  10  19  38  66  88 113 161 206 249 293 350
#     4  10  20  40  64  92 116 156 214 247 285 372
#     4  10  23  39  59  90 124 155 201 253 304 353
#
# _framework density 18.981456000000001
#
# number of rings (size 3 to 8) (size 9 to 14) (size 15 to 20)
#    0.000    1.667    3.333    1.500    2.333    0.667 
#    0.000    0.833    0.000    0.000    0.000    0.000 
#    0.000    0.000    0.000    0.000    0.000    0.000 
#
# Total GULP energy -133838.660877 kJ/mol
# GULP energy per Si atom -5576.610870 kJ/mol
# Density = 1.893825 g / cm^3
# Si number density = 18.981456 Si / 1000 Ang^3
#
#
#
# Elastic Constant Matrix: (Units=GPa)
#
#
# Indices 1 2 3 4 5 6 
#
# 1 131.6311 77.0387 36.7517 0.0000 17.0884 0.0000
# 2 77.0387 119.9471 53.0527 0.0000 25.6625 0.0000
# 3 36.7517 53.0527 47.4488 0.0000 -0.5177 0.0000
# 4 0.0000 0.0000 0.0000 23.4550 0.0000 -4.5085
# 5 17.0884 25.6625 -0.5177 0.0000 17.2183 0.0000
# 6 0.0000 0.0000 0.0000 -4.5085 0.0000 25.4657
#
#
#
# Elastic Compliance Matrix: (Units=1/GPa)
#
#
# Indices 1 2 3 4 5 6 
#
# 1 0.012313 -0.005543 -0.003384 0.000000 -0.004061 0.000000
# 2 -0.005543 0.050986 -0.053501 0.000000 -0.072098 0.000000
# 3 -0.003384 -0.053501 0.084451 0.000000 0.085637 0.000000
# 4 0.000000 0.000000 0.000000 0.044137 0.000000 0.007814
# 5 -0.004061 -0.072098 0.085637 0.000000 0.172140 0.000000
# 6 0.000000 0.000000 0.000000 0.007814 0.000000 0.040652
#
#
# Mechanical properties :
#
#
# Convention : Reuss Voigt Hill
#
# Bulk Modulus (GPa) = 43.67991 70.30148 56.99069
# Shear Modulus (GPa) = 9.30812 22.04006 15.67409
#
# Velocity S-wave (km/s) = 2.21685 3.41124 2.87672
# Velocity P-wave (km/s) = 5.44191 7.25484 6.41277
#
# Compressibility (1/GPa) = 0.02289382
#
# Stress axis : x y z
#
# Youngs Moduli (GPa) = 81.21547 19.61331 11.84121
#
# Poissons Ratio (x) = 0.10871 0.04007
# Poissons Ratio (y) = 0.45014 0.63352
# Poissons Ratio (z) = 0.27485 1.04933
#
# Static dielectric constant tensor:
#      x y z
#    x 1.699850 0.000000 -0.009240 
#    y 0.000000 1.654980 0.000000 
#    z -0.009240 0.000000 1.673220 
# 
# From -- ./inp_files/39064.got.cif
#   From: 2010.05.17/outbox.cif.g08.bks.cpg/sg14_20_cif.got.tgz:39064.got - 2010.06.03 17:49:19.
