data_PCOD9242833
_publ_section_title
;
Structure prediction by ZEFSAII (Michael W. Deem and Ramdas Pophale) SiO2 
 PCOD9242833
Probable space group: P 21/C
;
_chemical_formula_sum "Si O2"
_cell_formula_units_Z 32
_cell_length_a 15.317540
_cell_length_b 21.840977
_cell_length_c 8.937982
_cell_angle_alpha 90.000000
_cell_angle_beta 32.753194
_cell_angle_gamma 90.000000
_cell_volume 1617.763259
_symmetry_space_group_name_H-M "P 21/C"
_symmetry_group_IT_number 14
_symmetry_cell_setting 'monoclinic'
loop_
_space_group_symop_operation_xyz
x,y,z
-x,1/2+y,1/2-z
-x,-y,-z
x,1/2-y,1/2+z
loop_
_atom_site_type_symbol
_atom_site_label
_atom_site_fract_x
_atom_site_fract_y
_atom_site_fract_z
Si Si1 0.507522 0.931584 0.427206
Si Si2 0.937027 0.776473 0.246005
Si Si3 0.836442 0.283935 0.317504
Si Si4 0.655130 0.631314 0.201360
Si Si5 0.500517 0.722957 0.661481
Si Si6 0.648824 0.097769 0.058418
Si Si7 0.325244 0.183519 0.783686
Si Si8 0.613937 0.973210 0.964920
O O1 0.664917 0.889723 0.233787
O O2 0.500000 0.000000 0.500000
O O3 0.374004 0.900539 0.727836
O O4 0.508164 0.939853 0.247320
O O5 0.803209 0.829482 0.423856
O O6 0.842334 0.717699 0.450338
O O7 0.074821 0.800043 0.157520
O O8 0.028429 0.750372 0.972290
O O9 0.686604 0.238607 0.559997
O O10 0.763064 0.345697 0.351170
O O11 0.551285 0.675635 0.459823
O O12 0.528254 0.606699 0.262098
O O13 0.714449 0.577598 0.228716
O O14 0.567782 0.701303 0.723929
O O15 0.589996 0.784793 0.479625
O O16 0.699933 0.030709 0.922824
O O17 0.500000 0.000000 0.000000
#
# Coordination Sequence:
#
# PCOD9242833 Si02
#       8
#     4   4   4   4   4   4   4   4
#     4  10  20  35  63  93 115 150 211 264 295 352
#     4  11  25  35  57  85 128 156 196 244 311 360
#     4  12  23  38  52  90 123 162 194 247 308 367
#     4  10  20  39  61  88 114 159 205 251 302 363
#     4  11  21  35  61  83 116 158 202 250 304 361
#     4  10  21  37  63  88 118 156 208 252 302 362
#     4  11  21  38  60  87 116 156 206 248 303 365
#     4   9  19  37  63  94 116 152 208 268 300 350
#
# _framework density 19.780397000000001
#
# number of rings (size 3 to 8) (size 9 to 14) (size 15 to 20)
#    0.000    1.500    2.500    4.500    1.750    0.000 
#    0.000    0.625    0.000    0.000    0.000    9.625 
#    0.000    0.000    0.000    0.000    0.000    0.000 
#
# Total GULP energy -178323.257333 kJ/mol
# GULP energy per Si atom -5572.601792 kJ/mol
# Density = 1.973538 g / cm^3
# Si number density = 19.780397 Si / 1000 Ang^3
#
#
#
# Elastic Constant Matrix: (Units=GPa)
#
#
# Indices 1 2 3 4 5 6 
#
# 1 79.2068 25.8066 15.6013 0.0000 8.1714 0.0000
# 2 25.8066 83.9213 31.2267 0.0000 -4.4122 0.0000
# 3 15.6013 31.2267 75.8947 0.0000 7.2091 0.0000
# 4 0.0000 0.0000 0.0000 24.7418 0.0000 7.0618
# 5 8.1714 -4.4122 7.2091 0.0000 29.1981 0.0000
# 6 0.0000 0.0000 0.0000 7.0618 0.0000 35.4437
#
#
#
# Elastic Compliance Matrix: (Units=1/GPa)
#
#
# Indices 1 2 3 4 5 6 
#
# 1 0.014710 -0.004491 -0.000738 0.000000 -0.004613 0.000000
# 2 -0.004491 0.015830 -0.006079 0.000000 0.005150 0.000000
# 3 -0.000738 -0.006079 0.016278 0.000000 -0.004731 0.000000
# 4 0.000000 0.000000 0.000000 0.042854 0.000000 -0.008538
# 5 -0.004613 0.005150 -0.004731 0.000000 0.037486 0.000000
# 6 0.000000 0.000000 0.000000 -0.008538 0.000000 0.029915
#
#
# Mechanical properties :
#
#
# Convention : Reuss Voigt Hill
#
# Bulk Modulus (GPa) = 41.31930 42.69911 42.00920
# Shear Modulus (GPa) = 26.63013 28.96926 27.79969
#
# Velocity S-wave (km/s) = 3.67316 3.83109 3.75296
# Velocity P-wave (km/s) = 6.23890 6.41896 6.32957
#
# Compressibility (1/GPa) = 0.02420177
#
# Stress axis : x y z
#
# Youngs Moduli (GPa) = 67.98202 63.17182 61.43107
#
# Poissons Ratio (x) = 0.28373 0.04531
# Poissons Ratio (y) = 0.30534 0.37344
# Poissons Ratio (z) = 0.05014 0.38402
#
# Static dielectric constant tensor:
#      x y z
#    x 1.738670 0.000000 0.046240 
#    y 0.000000 1.838970 0.000000 
#    z 0.046240 0.000000 1.692060 
# 
# From -- ./inp_files/17025.got.cif
#   From: 2010.05.17/outbox.cif.g08.bks.cpg/sg14_9_cif.got.tgz:17025.got - 2010.06.03 17:49:19.
