data_PCOD9242475
_publ_section_title
;
Structure prediction by ZEFSAII (Michael W. Deem and Ramdas Pophale) SiO2 
 PCOD9242475
Probable space group: P 21/C
;
_chemical_formula_sum "Si O2"
_cell_formula_units_Z 24
_cell_length_a 7.916710
_cell_length_b 11.728022
_cell_length_c 18.917354
_cell_angle_alpha 90.000000
_cell_angle_beta 36.740389
_cell_angle_gamma 90.000000
_cell_volume 1050.676899
_symmetry_space_group_name_H-M "P 21/C"
_symmetry_group_IT_number 14
_symmetry_cell_setting 'monoclinic'
loop_
_space_group_symop_operation_xyz
x,y,z
-x,1/2+y,1/2-z
-x,-y,-z
x,1/2-y,1/2+z
loop_
_atom_site_type_symbol
_atom_site_label
_atom_site_fract_x
_atom_site_fract_y
_atom_site_fract_z
Si Si1 0.840231 0.041925 0.980915
Si Si2 0.356347 0.610163 0.675781
Si Si3 0.559563 0.554440 0.767350
Si Si4 0.347909 0.168817 0.409360
Si Si5 0.187178 0.708553 0.994569
Si Si6 0.171981 0.006060 0.591300
O O1 0.696823 0.166274 0.030268
O O2 0.593572 0.952200 0.049713
O O3 0.103912 0.057179 0.840731
O O4 0.000000 0.000000 0.000000
O O5 0.447109 0.583923 0.727004
O O6 0.409633 0.744580 0.647100
O O7 0.045474 0.555162 0.778227
O O8 0.471788 0.426384 0.816281
O O9 0.404775 0.638267 0.873525
O O10 0.181865 0.099088 0.525106
O O11 0.102052 0.234323 0.450541
O O12 0.103903 0.620369 0.084763
O O13 0.500000 0.000000 0.500000
#
# Coordination Sequence:
#
# PCOD9242475 Si02
#       6
#     4   4   4   4   4   4
#     4  10  22  31  57 100 120 148 193 266 318 349
#     4  11  22  35  64  87 126 154 201 254 310 368
#     4  10  20  33  58  93 122 146 196 258 303 361
#     4  11  21  38  65  91 114 162 204 257 311 353
#     4  11  20  38  64  89 121 160 203 253 313 359
#     4  11  25  45  61  86 127 173 208 247 310 382
#
# _framework density 22.842414999999999
#
# number of rings (size 3 to 8) (size 9 to 14) (size 15 to 20)
#    0.000    1.333    6.667    1.000    9.333    0.000 
#    3.000    0.000    0.000    5.000    0.000    0.000 
#    0.000    0.000    0.000    0.000    0.000    0.000 
#
# Total GULP energy -133994.950347 kJ/mol
# GULP energy per Si atom -5583.122931 kJ/mol
# Density = 2.279042 g / cm^3
# Si number density = 22.842415 Si / 1000 Ang^3
#
#
#
# Elastic Constant Matrix: (Units=GPa)
#
#
# Indices 1 2 3 4 5 6 
#
# 1 31.1607 -0.1429 5.6305 0.0000 -4.4445 0.0000
# 2 -0.1429 133.3712 16.7554 0.0000 2.5884 0.0000
# 3 5.6305 16.7554 115.4924 0.0000 -17.2817 0.0000
# 4 0.0000 0.0000 0.0000 20.6373 0.0000 -8.2046
# 5 -4.4445 2.5884 -17.2817 0.0000 23.4335 0.0000
# 6 0.0000 0.0000 0.0000 -8.2046 0.0000 1.4037
#
#
#
# Elastic Compliance Matrix: (Units=1/GPa)
#
#
# Indices 1 2 3 4 5 6 
#
# 1 0.033043 0.000020 -0.000760 0.000000 0.005704 0.000000
# 2 0.000020 0.007710 -0.001401 0.000000 -0.001881 0.000000
# 3 -0.000760 -0.001401 0.010005 0.000000 0.007389 0.000000
# 4 0.000000 0.000000 0.000000 -0.036606 0.000000 -0.213959
# 5 0.005704 -0.001881 0.007389 0.000000 0.049413 0.000000
# 6 0.000000 0.000000 0.000000 -0.213959 0.000000 -0.538177
#
#
# Mechanical properties :
#
#
# Convention : Reuss Voigt Hill
#
# Bulk Modulus (GPa) = 21.51676 36.05669 28.78672
# Shear Modulus (GPa) = -10.99290 26.28033 7.64371
#
# Velocity S-wave (km/s) = -2.19612 3.39559 1.83127
# Velocity P-wave (km/s) = 1.73479 5.58504 4.13534
#
# Compressibility (1/GPa) = 0.04647541
#
# Stress axis : x y z
#
# Youngs Moduli (GPa) = 30.26378 129.69470 99.95495
#
# Poissons Ratio (x) = -0.00262 0.07600
# Poissons Ratio (y) = -0.00061 0.14004
# Poissons Ratio (z) = 0.02301 0.18171
#
# Static dielectric constant tensor:
#      x y z
#    x 1.970610 0.000000 -0.009740 
#    y 0.000000 1.883880 0.000000 
#    z -0.009740 0.000000 1.877030 
# 
# From -- ./inp_files/24240.got.cif
#   From: 2010.05.17/outbox.cif.g08.bks.cpg/sg14_13_cif.got.tgz:24240.got - 2010.06.03 17:49:19.
