data_PCOD9242724
_publ_section_title
;
Structure prediction by ZEFSAII (Michael W. Deem and Ramdas Pophale) SiO2 
 PCOD9242724
Probable space group: P 21/C
;
_chemical_formula_sum "Si O2"
_cell_formula_units_Z 32
_cell_length_a 8.270858
_cell_length_b 20.325744
_cell_length_c 10.027528
_cell_angle_alpha 90.000000
_cell_angle_beta 55.918795
_cell_angle_gamma 90.000000
_cell_volume 1396.205364
_symmetry_space_group_name_H-M "P 21/C"
_symmetry_group_IT_number 14
_symmetry_cell_setting 'monoclinic'
loop_
_space_group_symop_operation_xyz
x,y,z
-x,1/2+y,1/2-z
-x,-y,-z
x,1/2-y,1/2+z
loop_
_atom_site_type_symbol
_atom_site_label
_atom_site_fract_x
_atom_site_fract_y
_atom_site_fract_z
Si Si1 0.231117 0.047599 0.752979
Si Si2 0.991076 0.920729 0.867286
Si Si3 0.686788 0.359507 0.624924
Si Si4 0.687779 0.676911 0.477702
Si Si5 0.330236 0.270535 0.788368
Si Si6 0.279057 0.894257 0.174200
Si Si7 0.408240 0.013145 0.271680
Si Si8 0.132751 0.108459 0.530634
O O1 0.453301 0.028183 0.690036
O O2 0.217910 0.100599 0.641996
O O3 0.127974 0.062135 0.942335
O O4 0.100382 0.985020 0.763802
O O5 0.163633 0.870328 0.825307
O O6 0.826955 0.881876 0.863463
O O7 0.557867 0.294000 0.695516
O O8 0.799001 0.372787 0.434867
O O9 0.539345 0.422050 0.686241
O O10 0.733445 0.706967 0.600285
O O11 0.702968 0.730519 0.354095
O O12 0.469664 0.650597 0.595867
O O13 0.216993 0.329691 0.913148
O O14 0.355725 0.967800 0.169946
O O15 0.099581 0.885363 0.355963
O O16 0.212537 0.042362 0.424423
#
# Coordination Sequence:
#
# PCOD9242724 Si02
#       8
#     4   4   4   4   4   4   4   4
#     4  10  20  36  63  96 130 174 214 257 325 383
#     4  10  20  38  65  94 125 170 216 262 320 388
#     4   9  20  39  60  89 123 166 213 260 312 384
#     4  11  25  45  67  90 125 167 222 268 325 395
#     4  10  26  45  64  92 124 169 216 271 329 382
#     4  11  21  35  60  91 124 167 209 259 322 375
#     4  10  20  35  57  93 130 170 206 258 315 376
#     4  11  23  39  60  95 136 166 212 266 322 384
#
# _framework density 22.919264999999999
#
# number of rings (size 3 to 8) (size 9 to 14) (size 15 to 20)
#    0.000    1.750    2.500    1.125    1.750    5.000 
#    0.000    3.750    0.000    0.000    0.000    0.000 
#    0.000    0.000    0.000    0.000    0.000    0.000 
#
# Total GULP energy -178584.932355 kJ/mol
# GULP energy per Si atom -5580.779136 kJ/mol
# Density = 2.286710 g / cm^3
# Si number density = 22.919265 Si / 1000 Ang^3
#
#
#
# Elastic Constant Matrix: (Units=GPa)
#
#
# Indices 1 2 3 4 5 6 
#
# 1 55.1976 9.0006 17.6814 0.0000 -14.7688 0.0000
# 2 9.0006 43.3538 18.0890 0.0000 0.7697 0.0000
# 3 17.6814 18.0890 95.1034 0.0000 -11.1233 0.0000
# 4 0.0000 0.0000 0.0000 31.8065 0.0000 5.4262
# 5 -14.7688 0.7697 -11.1233 0.0000 33.3813 0.0000
# 6 0.0000 0.0000 0.0000 5.4262 0.0000 13.1442
#
#
#
# Elastic Compliance Matrix: (Units=1/GPa)
#
#
# Indices 1 2 3 4 5 6 
#
# 1 0.021871 -0.003739 -0.002303 0.000000 0.008995 0.000000
# 2 -0.003739 0.025858 -0.004668 0.000000 -0.003806 0.000000
# 3 -0.002303 -0.004668 0.012200 0.000000 0.003154 0.000000
# 4 0.000000 0.000000 0.000000 0.033822 0.000000 -0.013962
# 5 0.008995 -0.003806 0.003154 0.000000 0.035075 0.000000
# 6 0.000000 0.000000 0.000000 -0.013962 0.000000 0.081843
#
#
# Mechanical properties :
#
#
# Convention : Reuss Voigt Hill
#
# Bulk Modulus (GPa) = 25.96896 31.46632 28.71764
# Shear Modulus (GPa) = 20.41436 25.59199 23.00318
#
# Velocity S-wave (km/s) = 2.98771 3.34520 3.17150
# Velocity P-wave (km/s) = 4.82256 5.35533 5.09591
#
# Compressibility (1/GPa) = 0.03850751
#
# Stress axis : x y z
#
# Youngs Moduli (GPa) = 45.72278 38.67318 81.96844
#
# Poissons Ratio (x) = 0.14462 0.18876
# Poissons Ratio (y) = 0.17098 0.38264
# Poissons Ratio (z) = 0.10529 0.18053
#
# Static dielectric constant tensor:
#      x y z
#    x 1.928150 0.000000 0.022940 
#    y 0.000000 1.880240 0.000000 
#    z 0.022940 0.000000 1.849460 
# 
# From -- ./inp_files/26771.got.cif
#   From: 2010.05.17/outbox.cif.g08.bks.cpg/sg14_14_cif.got.tgz:26771.got - 2010.06.03 17:49:19.
