data_PCOD9242500
_publ_section_title
;
Structure prediction by ZEFSAII (Michael W. Deem and Ramdas Pophale) SiO2 
 PCOD9242500
Probable space group: P 21/C
;
_chemical_formula_sum "Si O2"
_cell_formula_units_Z 28
_cell_length_a 7.102986
_cell_length_b 27.136156
_cell_length_c 8.118909
_cell_angle_alpha 90.000000
_cell_angle_beta 55.856100
_cell_angle_gamma 90.000000
_cell_volume 1295.160117
_symmetry_space_group_name_H-M "P 21/C"
_symmetry_group_IT_number 14
_symmetry_cell_setting 'monoclinic'
loop_
_space_group_symop_operation_xyz
x,y,z
-x,1/2+y,1/2-z
-x,-y,-z
x,1/2-y,1/2+z
loop_
_atom_site_type_symbol
_atom_site_label
_atom_site_fract_x
_atom_site_fract_y
_atom_site_fract_z
Si Si1 0.402512 0.317446 0.389459
Si Si2 0.583063 0.931540 0.046318
Si Si3 0.975201 0.047611 0.393243
Si Si4 0.908457 0.301892 0.237307
Si Si5 0.083525 0.590648 0.747035
Si Si6 0.786564 0.988095 0.221108
Si Si7 0.163835 0.233916 0.311991
O O1 0.379462 0.376578 0.398258
O O2 0.666452 0.304319 0.270405
O O3 0.295326 0.283783 0.299771
O O4 0.290558 0.298735 0.615621
O O5 0.789814 0.942578 0.819580
O O6 0.333582 0.931558 0.086206
O O7 0.592462 0.970929 0.191288
O O8 0.923470 0.090463 0.549268
O O9 0.783065 0.033374 0.351621
O O10 0.000000 0.000000 0.500000
O O11 0.930422 0.354482 0.314115
O O12 0.934397 0.255496 0.343563
O O13 0.105063 0.295311 0.005453
O O14 0.877131 0.558572 0.780439
O O15 0.000000 0.000000 0.000000
#
# Coordination Sequence:
#
# PCOD9242500 Si02
#       7
#     4   4   4   4   4   4   4
#     4  10  20  34  53  77 103 135 172 207 252 305
#     4  10  20  35  54  75 103 136 169 210 256 300
#     4   9  19  34  52  75 101 130 170 210 249 303
#     4  10  20  34  53  77 103 135 172 207 252 305
#     4  10  20  35  54  75 103 136 169 210 256 300
#     4   9  19  34  52  75 101 130 170 210 249 303
#     4  10  20  34  54  76 106 136 166 212 254 294
#
# _framework density 21.618946999999999
#
# number of rings (size 3 to 8) (size 9 to 14) (size 15 to 20)
#    0.000    2.286    0.000    2.571    0.000    5.714 
#    0.000    4.286    0.000   24.000    0.000    0.000 
#    0.000    0.000    0.000    0.000    0.000    0.000 
#
# Total GULP energy -156182.904336 kJ/mol
# GULP energy per Si atom -5577.960869 kJ/mol
# Density = 2.156974 g / cm^3
# Si number density = 21.618947 Si / 1000 Ang^3
#
#
#
# Elastic Constant Matrix: (Units=GPa)
#
#
# Indices 1 2 3 4 5 6 
#
# 1 31.5166 11.8452 -3.0971 0.0000 -2.7592 0.0000
# 2 11.8452 47.1466 -0.3035 0.0000 -2.9215 0.0000
# 3 -3.0971 -0.3035 64.8982 0.0000 -1.2851 0.0000
# 4 0.0000 0.0000 0.0000 25.5401 0.0000 0.8288
# 5 -2.7592 -2.9215 -1.2851 0.0000 26.1958 0.0000
# 6 0.0000 0.0000 0.0000 0.8288 0.0000 25.3194
#
#
#
# Elastic Compliance Matrix: (Units=1/GPa)
#
#
# Indices 1 2 3 4 5 6 
#
# 1 0.035420 -0.008712 0.001706 0.000000 0.002843 0.000000
# 2 -0.008712 0.023502 -0.000272 0.000000 0.001690 0.000000
# 3 0.001706 -0.000272 0.015507 0.000000 0.000910 0.000000
# 4 0.000000 0.000000 0.000000 0.039196 0.000000 -0.001283
# 5 0.002843 0.001690 0.000910 0.000000 0.038707 0.000000
# 6 0.000000 0.000000 0.000000 -0.001283 0.000000 0.039537
#
#
# Mechanical properties :
#
#
# Convention : Reuss Voigt Hill
#
# Bulk Modulus (GPa) = 16.70216 17.82784 17.26500
# Shear Modulus (GPa) = 22.08645 24.41883 23.25264
#
# Velocity S-wave (km/s) = 3.19975 3.36447 3.28314
# Velocity P-wave (km/s) = 4.62533 4.83292 4.73027
#
# Compressibility (1/GPa) = 0.05987249
#
# Stress axis : x y z
#
# Youngs Moduli (GPa) = 28.23260 42.54921 64.48737
#
# Poissons Ratio (x) = 0.37068 -0.11001
# Poissons Ratio (y) = 0.24596 0.01756
# Poissons Ratio (z) = -0.04816 0.01159
#
# Static dielectric constant tensor:
#      x y z
#    x 1.816270 0.000000 0.015850 
#    y 0.000000 1.835560 0.000000 
#    z 0.015850 0.000000 1.788030 
# 
# From -- ./inp_files/6901.got.cif
#   From: 2010.05.17/outbox.cif.g08.bks.cpg/sg14_4_cif.got.tgz:6901.got - 2010.06.03 17:49:19.
