data_PCOD9242629
_publ_section_title
;
Structure prediction by ZEFSAII (Michael W. Deem and Ramdas Pophale) SiO2 
 PCOD9242629
Probable space group: P 21/C
;
_chemical_formula_sum "Si O2"
_cell_formula_units_Z 22
_cell_length_a 16.259740
_cell_length_b 4.922182
_cell_length_c 17.881991
_cell_angle_alpha 90.000000
_cell_angle_beta 35.059192
_cell_angle_gamma 90.000000
_cell_volume 822.088358
_symmetry_space_group_name_H-M "P 21/C"
_symmetry_group_IT_number 14
_symmetry_cell_setting 'monoclinic'
loop_
_space_group_symop_operation_xyz
x,y,z
-x,1/2+y,1/2-z
-x,-y,-z
x,1/2-y,1/2+z
loop_
_atom_site_type_symbol
_atom_site_label
_atom_site_fract_x
_atom_site_fract_y
_atom_site_fract_z
Si Si1 0.445828 0.744486 0.644604
Si Si2 0.312263 0.928376 0.591858
Si Si3 0.761479 0.654083 0.229302
Si Si4 0.099730 0.962134 0.163161
Si Si5 0.816999 0.463915 0.564457
Si Si6 0.000000 0.500000 0.000000
O O1 0.409154 0.780104 0.583122
O O2 0.392037 0.432752 0.689551
O O3 0.336448 0.885138 0.784718
O O4 0.597871 0.889249 0.534440
O O5 0.219726 0.702181 0.620063
O O6 0.243872 0.149274 0.698478
O O7 0.868881 0.406279 0.160311
O O8 0.857935 0.775409 0.087073
O O9 0.971752 0.738909 0.254072
O O10 0.172353 0.034353 0.029557
O O11 0.922705 0.214827 0.496208
#
# Coordination Sequence:
#
# PCOD9242629 Si02
#       6
#     4   4   4   4   4   2
#     4   9  21  42  75 100 134 183 253 305 368 430
#     4  10  22  44  68 105 138 189 243 310 366 445
#     4  10  20  36  69 103 133 181 245 300 360 434
#     4  12  30  46  69 105 155 198 242 305 382 447
#     4  10  23  40  64 101 137 187 241 294 365 435
#     4  10  20  34  64  92 136 176 236 292 344 436
#
# _framework density 26.761112000000001
#
# number of rings (size 3 to 8) (size 9 to 14) (size 15 to 20)
#    0.000    1.818    0.000    2.182   15.273    0.000 
#    0.000    1.818    4.000    0.000    0.000    0.000 
#    0.000    0.000    0.000    0.000    0.000    0.000 
#
# Total GULP energy -122586.036929 kJ/mol
# GULP energy per Si atom -5572.092588 kJ/mol
# Density = 2.670020 g / cm^3
# Si number density = 26.761112 Si / 1000 Ang^3
#
#
#
# Elastic Constant Matrix: (Units=GPa)
#
#
# Indices 1 2 3 4 5 6 
#
# 1 55.1324 7.7376 24.9274 0.0000 19.9056 0.0000
# 2 7.7376 111.5038 44.0012 0.0000 5.9122 0.0000
# 3 24.9274 44.0012 199.6177 0.0000 33.9560 0.0000
# 4 0.0000 0.0000 0.0000 51.1011 0.0000 -4.9219
# 5 19.9056 5.9122 33.9560 0.0000 28.8917 0.0000
# 6 0.0000 0.0000 0.0000 -4.9219 0.0000 37.8885
#
#
#
# Elastic Compliance Matrix: (Units=1/GPa)
#
#
# Indices 1 2 3 4 5 6 
#
# 1 0.024216 -0.000788 -0.000050 0.000000 -0.016464 0.000000
# 2 -0.000788 0.009859 -0.002280 0.000000 0.001205 0.000000
# 3 -0.000050 -0.002280 0.006791 0.000000 -0.007480 0.000000
# 4 0.000000 0.000000 0.000000 0.019817 0.000000 0.002574
# 5 -0.016464 0.001205 -0.007480 0.000000 0.054501 0.000000
# 6 0.000000 0.000000 0.000000 0.002574 0.000000 0.026728
#
#
# Mechanical properties :
#
#
# Convention : Reuss Voigt Hill
#
# Bulk Modulus (GPa) = 28.87599 57.73180 43.30389
# Shear Modulus (GPa) = 31.31102 42.88211 37.09657
#
# Velocity S-wave (km/s) = 3.42427 4.00735 3.72723
# Velocity P-wave (km/s) = 5.14275 6.55985 5.89404
#
# Compressibility (1/GPa) = 0.03463085
#
# Stress axis : x y z
#
# Youngs Moduli (GPa) = 41.29562 101.43327 147.25979
#
# Poissons Ratio (x) = 0.07991 0.00730
# Poissons Ratio (y) = 0.03253 0.33570
# Poissons Ratio (z) = 0.00205 0.23123
#
# Static dielectric constant tensor:
#      x y z
#    x 2.296780 0.000000 -0.156330 
#    y 0.000000 2.392360 0.000000 
#    z -0.156330 0.000000 2.289930 
# 
# From -- ./inp_files/59858.got.cif
#   From: 2010.05.17/outbox.cif.g08.bks.cpg/sg14_30_cif.got.tgz:59858.got - 2010.06.03 17:49:19.
