data_PCOD9242594
_publ_section_title
;
Structure prediction by ZEFSAII (Michael W. Deem and Ramdas Pophale) SiO2 
 PCOD9242594
Probable space group: P 21/C
;
_chemical_formula_sum "Si O2"
_cell_formula_units_Z 30
_cell_length_a 20.966974
_cell_length_b 4.828875
_cell_length_c 10.728971
_cell_angle_alpha 90.000000
_cell_angle_beta 72.218523
_cell_angle_gamma 90.000000
_cell_volume 1034.381672
_symmetry_space_group_name_H-M "P 21/C"
_symmetry_group_IT_number 14
_symmetry_cell_setting 'monoclinic'
loop_
_space_group_symop_operation_xyz
x,y,z
-x,1/2+y,1/2-z
-x,-y,-z
x,1/2-y,1/2+z
loop_
_atom_site_type_symbol
_atom_site_label
_atom_site_fract_x
_atom_site_fract_y
_atom_site_fract_z
Si Si1 0.948185 0.824308 0.414074
Si Si2 0.654667 0.050758 0.932649
Si Si3 0.181907 0.335294 0.430291
Si Si4 0.788425 0.178127 0.432536
Si Si5 0.916051 0.323508 0.254342
Si Si6 0.679021 0.946794 0.264630
Si Si7 0.500000 0.500000 0.500000
Si Si8 0.461020 0.077406 0.731214
O O1 0.892792 0.771638 0.554727
O O2 0.925004 0.615103 0.317546
O O3 0.027615 0.784371 0.386592
O O4 0.939461 0.112426 0.349171
O O5 0.714296 0.190965 0.975651
O O6 0.670171 0.227989 0.796213
O O7 0.664056 0.728597 0.898308
O O8 0.576635 0.097955 0.003184
O O9 0.177206 0.647496 0.478716
O O10 0.246935 0.340717 0.306275
O O11 0.205197 0.137119 0.531237
O O12 0.837209 0.250261 0.286752
O O13 0.618832 0.894671 0.202132
O O14 0.469267 0.242152 0.598908
O O15 0.506937 0.265714 0.799211
#
# Coordination Sequence:
#
# PCOD9242594 Si02
#       8
#     4   4   4   4   4   4   2   4
#     4   8  14  26  46  76 110 145 176 239 284 329
#     4  11  24  41  60  83 117 156 188 243 307 353
#     4  10  20  34  58  86 114 146 197 238 291 348
#     4  10  20  34  58  87 108 153 196 241 287 348
#     4   8  14  26  46  76 111 138 189 232 281 335
#     4  11  24  41  58  86 119 149 192 240 303 363
#     4  10  26  44  64  90 124 158 204 254 308 372
#     4  11  25  42  66  91 118 159 201 252 307 363
#
# _framework density 29.002834
#
# number of rings (size 3 to 8) (size 9 to 14) (size 15 to 20)
#    0.000    2.133    0.000    3.200    3.733    4.800 
#    0.000    0.000    0.000    1.600    0.000    0.000 
#    0.000    0.000    0.000    0.000    0.000    0.000 
#
# Total GULP energy -167336.247841 kJ/mol
# GULP energy per Si atom -5577.874928 kJ/mol
# Density = 2.893682 g / cm^3
# Si number density = 29.002834 Si / 1000 Ang^3
#
#
#
# Elastic Constant Matrix: (Units=GPa)
#
#
# Indices 1 2 3 4 5 6 
#
# 1 169.7908 32.8342 57.7208 0.0000 -45.0606 0.0000
# 2 32.8342 125.1837 -2.6602 0.0000 -4.5333 0.0000
# 3 57.7208 -2.6602 90.3352 0.0000 -62.0414 0.0000
# 4 0.0000 0.0000 0.0000 24.6083 0.0000 -7.6222
# 5 -45.0606 -4.5333 -62.0414 0.0000 76.4259 0.0000
# 6 0.0000 0.0000 0.0000 -7.6222 0.0000 37.7908
#
#
#
# Elastic Compliance Matrix: (Units=1/GPa)
#
#
# Indices 1 2 3 4 5 6 
#
# 1 0.008132 -0.002199 -0.004650 0.000000 0.000889 0.000000
# 2 -0.002199 0.008665 0.002538 0.000000 0.001277 0.000000
# 3 -0.004650 0.002538 0.027880 0.000000 0.020042 0.000000
# 4 0.000000 0.000000 0.000000 0.043344 0.000000 0.008742
# 5 0.000889 0.001277 0.020042 0.000000 0.029954 0.000000
# 6 0.000000 0.000000 0.000000 0.008742 0.000000 0.028225
#
#
# Mechanical properties :
#
#
# Convention : Reuss Voigt Hill
#
# Bulk Modulus (GPa) = 27.73603 62.34436 45.04019
# Shear Modulus (GPa) = 29.96857 47.59268 38.78062
#
# Velocity S-wave (km/s) = 3.21798 4.05528 3.66065
# Velocity P-wave (km/s) = 4.83644 6.59315 5.78191
#
# Compressibility (1/GPa) = 0.03605419
#
# Stress axis : x y z
#
# Youngs Moduli (GPa) = 122.97611 115.40233 35.86786
#
# Poissons Ratio (x) = 0.25382 0.16678
# Poissons Ratio (y) = 0.27048 -0.09103
# Poissons Ratio (z) = 0.57182 -0.29287
#
# Static dielectric constant tensor:
#      x y z
#    x 2.250850 0.000000 0.047250 
#    y 0.000000 2.077240 0.000000 
#    z 0.047250 0.000000 2.647360 
# 
# From -- ./inp_files/50995.got.cif
#   From: 2010.05.17/outbox.cif.g08.bks.cpg/sg14_26_cif.got.tgz:50995.got - 2010.06.03 17:49:19.
