data_PCOD9242480
_publ_section_title
;
Structure prediction by ZEFSAII (Michael W. Deem and Ramdas Pophale) SiO2 
 PCOD9242480
Probable space group: P 21/C
;
_chemical_formula_sum "Si O2"
_cell_formula_units_Z 28
_cell_length_a 12.932693
_cell_length_b 5.441305
_cell_length_c 23.027428
_cell_angle_alpha 90.000000
_cell_angle_beta 42.643750
_cell_angle_gamma 90.000000
_cell_volume 1097.758793
_symmetry_space_group_name_H-M "P 21/C"
_symmetry_group_IT_number 14
_symmetry_cell_setting 'monoclinic'
loop_
_space_group_symop_operation_xyz
x,y,z
-x,1/2+y,1/2-z
-x,-y,-z
x,1/2-y,1/2+z
loop_
_atom_site_type_symbol
_atom_site_label
_atom_site_fract_x
_atom_site_fract_y
_atom_site_fract_z
Si Si1 0.220241 0.108920 0.650625
Si Si2 0.369529 0.057852 0.788082
Si Si3 0.070334 0.426722 0.802445
Si Si4 0.652554 0.111413 0.875063
Si Si5 0.720449 0.444667 0.162367
Si Si6 0.843301 0.056938 0.488251
Si Si7 0.332315 0.056782 0.944048
O O1 0.083937 0.015042 0.666428
O O2 0.303509 0.372279 0.603337
O O3 0.131570 0.175502 0.747837
O O4 0.339951 0.885619 0.602910
O O5 0.285429 0.814055 0.803367
O O6 0.549188 0.054306 0.701668
O O7 0.349702 0.060907 0.866407
O O8 0.298768 0.306892 0.793603
O O9 0.203604 0.607489 0.727923
O O10 0.012040 0.436155 0.892226
O O11 0.496493 0.059540 0.906228
O O12 0.834291 0.442252 0.061689
O O13 0.758901 0.806451 0.504336
O O14 0.758538 0.307303 0.503633
#
# Coordination Sequence:
#
# PCOD9242480 Si02
#       7
#     4   4   4   4   4   4   4
#     4  10  20  35  57  68  91 135 178 199 232 308
#     4   8  14  26  47  64 100 130 158 188 236 302
#     4  10  21  36  57  71  95 132 178 203 242 290
#     4  10  20  35  54  71 100 132 172 194 246 312
#     4   8  14  27  43  72  93 128 161 195 237 282
#     4  10  21  31  53  77 105 123 165 218 247 277
#     4  10  20  34  48  80 106 129 157 207 259 288
#
# _framework density 25.506512000000001
#
# number of rings (size 3 to 8) (size 9 to 14) (size 15 to 20)
#    0.857    1.714    1.429    0.857    2.000    0.000 
#    0.000    4.286    0.000    0.857    0.000    1.000 
#    0.000    0.000    0.000    0.000    0.000    0.000 
#
# Total GULP energy -156475.635673 kJ/mol
# GULP energy per Si atom -5588.415560 kJ/mol
# Density = 2.544846 g / cm^3
# Si number density = 25.506512 Si / 1000 Ang^3
#
#
#
# Elastic Constant Matrix: (Units=GPa)
#
#
# Indices 1 2 3 4 5 6 
#
# 1 77.2564 22.8043 -4.6343 0.0000 -5.7258 0.0000
# 2 22.8043 231.1737 7.4146 0.0000 -1.5536 0.0000
# 3 -4.6343 7.4146 77.5017 0.0000 9.5213 0.0000
# 4 0.0000 0.0000 0.0000 14.5596 0.0000 -2.4676
# 5 -5.7258 -1.5536 9.5213 0.0000 26.2460 0.0000
# 6 0.0000 0.0000 0.0000 -2.4676 0.0000 15.1393
#
#
#
# Elastic Compliance Matrix: (Units=1/GPa)
#
#
# Indices 1 2 3 4 5 6 
#
# 1 0.013574 -0.001341 0.000613 0.000000 0.002659 0.000000
# 2 -0.001341 0.004476 -0.000529 0.000000 0.000164 0.000000
# 3 0.000613 -0.000529 0.013583 0.000000 -0.004825 0.000000
# 4 0.000000 0.000000 0.000000 0.070634 0.000000 0.011513
# 5 0.002659 0.000164 -0.004825 0.000000 0.040441 0.000000
# 6 0.000000 0.000000 0.000000 0.011513 0.000000 0.067930
#
#
# Mechanical properties :
#
#
# Convention : Reuss Voigt Hill
#
# Bulk Modulus (GPa) = 34.34032 48.56679 41.45356
# Shear Modulus (GPa) = 22.43593 35.21214 28.82403
#
# Velocity S-wave (km/s) = 2.96905 3.71956 3.36529
# Velocity P-wave (km/s) = 5.02456 6.12610 5.60247
#
# Compressibility (1/GPa) = 0.02912028
#
# Stress axis : x y z
#
# Youngs Moduli (GPa) = 73.67270 223.41025 73.62173
#
# Poissons Ratio (x) = 0.29954 -0.04514
# Poissons Ratio (y) = 0.09878 0.03891
# Poissons Ratio (z) = -0.04518 0.11809
#
# Static dielectric constant tensor:
#      x y z
#    x 2.076680 0.000000 0.042830 
#    y 0.000000 2.059260 0.000000 
#    z 0.042830 0.000000 1.974140 
# 
# From -- ./inp_files/77413.got.cif
#   From: 2010.05.17/outbox.cif.g08.bks.cpg/sg14_39_cif.got.tgz:77413.got - 2010.06.03 17:49:19.
