data_PCOD9242872
_publ_section_title
;
Structure prediction by ZEFSAII (Michael W. Deem and Ramdas Pophale) SiO2 
 PCOD9242872
Probable space group: P 21/C
;
_chemical_formula_sum "Si O2"
_cell_formula_units_Z 24
_cell_length_a 14.741334
_cell_length_b 8.020135
_cell_length_c 13.602518
_cell_angle_alpha 90.000000
_cell_angle_beta 31.798595
_cell_angle_gamma 90.000000
_cell_volume 847.412338
_symmetry_space_group_name_H-M "P 21/C"
_symmetry_group_IT_number 14
_symmetry_cell_setting 'monoclinic'
loop_
_space_group_symop_operation_xyz
x,y,z
-x,1/2+y,1/2-z
-x,-y,-z
x,1/2-y,1/2+z
loop_
_atom_site_type_symbol
_atom_site_label
_atom_site_fract_x
_atom_site_fract_y
_atom_site_fract_z
Si Si1 0.255863 0.368565 0.804847
Si Si2 0.854064 0.951526 0.972045
Si Si3 0.658360 0.672748 0.945674
Si Si4 0.266381 0.836525 0.752213
Si Si5 0.799939 0.047262 0.468222
Si Si6 0.651166 0.356598 0.504544
O O1 0.252248 0.325453 0.693419
O O2 0.459145 0.379264 0.642917
O O3 0.177386 0.522920 0.936615
O O4 0.179953 0.206029 0.928570
O O5 0.022974 0.927395 0.751864
O O6 0.862321 0.106020 0.042826
O O7 0.709487 0.001010 0.025825
O O8 0.702106 0.505508 0.841750
O O9 0.723272 0.623284 0.992639
O O10 0.453789 0.695294 0.127596
O O11 0.238619 0.694455 0.694873
O O12 0.671660 0.191445 0.552942
#
# Coordination Sequence:
#
# PCOD9242872 Si02
#       6
#     4   4   4   4   4   4
#     4  10  20  36  56  76 103 140 178 211 249 307
#     4  11  21  33  53  81 109 134 167 216 265 304
#     4   8  16  32  53  74  98 135 177 209 246 305
#     4   8  16  32  53  74  98 135 177 209 246 305
#     4  11  21  33  53  81 109 134 167 216 265 304
#     4  10  20  36  56  76 103 140 178 211 249 307
#
# _framework density 28.321511000000001
#
# number of rings (size 3 to 8) (size 9 to 14) (size 15 to 20)
#    0.000    2.333    0.000    6.000    0.000    7.333 
#    0.000    1.667    0.000   10.000    0.000    0.000 
#    0.000    0.000    0.000    0.000    0.000    0.000 
#
# Total GULP energy -134535.968610 kJ/mol
# GULP energy per Si atom -5605.665359 kJ/mol
# Density = 2.825705 g / cm^3
# Si number density = 28.321511 Si / 1000 Ang^3
#
#
#
# Elastic Constant Matrix: (Units=GPa)
#
#
# Indices 1 2 3 4 5 6 
#
# 1 61.4538 8.0876 35.9720 0.0000 25.5099 0.0000
# 2 8.0876 102.8930 13.8850 0.0000 10.9813 0.0000
# 3 35.9720 13.8850 115.9922 0.0000 26.7595 0.0000
# 4 0.0000 0.0000 0.0000 35.6170 0.0000 22.2432
# 5 25.5099 10.9813 26.7595 0.0000 63.0799 0.0000
# 6 0.0000 0.0000 0.0000 22.2432 0.0000 43.4941
#
#
#
# Elastic Compliance Matrix: (Units=1/GPa)
#
#
# Indices 1 2 3 4 5 6 
#
# 1 0.022187 -0.000317 -0.005305 0.000000 -0.006667 0.000000
# 2 -0.000317 0.009988 -0.000805 0.000000 -0.001269 0.000000
# 3 -0.005305 -0.000805 0.010902 0.000000 -0.002340 0.000000
# 4 0.000000 0.000000 0.000000 0.041251 0.000000 -0.021096
# 5 -0.006667 -0.001269 -0.002340 0.000000 0.019763 0.000000
# 6 0.000000 0.000000 0.000000 -0.021096 0.000000 0.033780
#
#
# Mechanical properties :
#
#
# Convention : Reuss Voigt Hill
#
# Bulk Modulus (GPa) = 33.08485 44.02536 38.55510
# Shear Modulus (GPa) = 31.09495 43.26449 37.17972
#
# Velocity S-wave (km/s) = 3.31709 3.91272 3.62715
# Velocity P-wave (km/s) = 5.13596 5.99926 5.58431
#
# Compressibility (1/GPa) = 0.03022532
#
# Stress axis : x y z
#
# Youngs Moduli (GPa) = 45.07220 100.12249 91.72254
#
# Poissons Ratio (x) = 0.03169 0.48655
# Poissons Ratio (y) = 0.01427 0.07380
# Poissons Ratio (z) = 0.23909 0.08056
#
# Static dielectric constant tensor:
#      x y z
#    x 2.159400 0.000000 0.028570 
#    y 0.000000 2.318850 0.000000 
#    z 0.028570 0.000000 2.157870 
# 
# From -- ./inp_files/8424.got.cif
#   From: 2010.05.17/outbox.cif.g08.bks.cpg/sg14_5_cif.got.tgz:8424.got - 2010.06.03 17:49:19.
