data_PCOD9242059
_publ_section_title
;
Structure prediction by ZEFSAII (Michael W. Deem and Ramdas Pophale) SiO2 
 PCOD9242059
Probable space group: P 21/C
;
_chemical_formula_sum "Si O2"
_cell_formula_units_Z 28
_cell_length_a 15.517970
_cell_length_b 9.454658
_cell_length_c 12.403991
_cell_angle_alpha 90.000000
_cell_angle_beta 139.786925
_cell_angle_gamma 90.000000
_cell_volume 1174.971147
_symmetry_space_group_name_H-M "P 21/C"
_symmetry_group_IT_number 14
_symmetry_cell_setting 'monoclinic'
loop_
_space_group_symop_operation_xyz
x,y,z
-x,1/2+y,1/2-z
-x,-y,-z
x,1/2-y,1/2+z
loop_
_atom_site_type_symbol
_atom_site_label
_atom_site_fract_x
_atom_site_fract_y
_atom_site_fract_z
Si Si1 0.994857 0.998723 0.783681
Si Si2 0.344253 0.347067 0.374147
Si Si3 0.558034 0.393747 0.413823
Si Si4 0.214769 0.415547 0.737930
Si Si5 0.727164 0.138185 0.877558
Si Si6 0.054481 0.281452 0.925850
Si Si7 0.791806 0.126869 0.291422
O O1 0.906676 0.968420 0.805381
O O2 0.920271 0.925394 0.613557
O O3 0.012272 0.166445 0.793978
O O4 0.141375 0.926704 0.936650
O O5 0.425354 0.332583 0.339948
O O6 0.434714 0.441337 0.541572
O O7 0.307642 0.196307 0.388158
O O8 0.222932 0.457404 0.234750
O O9 0.598937 0.377824 0.330228
O O10 0.680853 0.325077 0.597830
O O11 0.282084 0.544012 0.739714
O O12 0.159953 0.309360 0.593183
O O13 0.752674 0.298373 0.864999
O O14 0.933556 0.316401 0.890280
#
# Coordination Sequence:
#
# PCOD9242059 Si02
#       7
#     4   4   4   4   4   4   4
#     4  11  22  37  58  88 126 150 189 237 303 353
#     4   9  22  41  59  83 118 156 199 245 280 349
#     4   9  21  42  63  79 118 162 199 235 301 336
#     4  11  23  37  57  92 120 145 195 248 291 349
#     4  11  20  38  63  84 120 157 187 245 301 346
#     4  11  22  37  58  90 117 157 186 237 302 352
#     4  10  19  39  60  85 115 155 197 236 288 352
#
# _framework density 23.830373000000002
#
# number of rings (size 3 to 8) (size 9 to 14) (size 15 to 20)
#    0.857    0.857    4.286    0.857    6.000    2.857 
#    0.000    0.714    0.000    0.000    0.000    0.000 
#    0.000    0.000    0.000    0.000    0.000    0.000 
#
# Total GULP energy -156329.960112 kJ/mol
# GULP energy per Si atom -5583.212861 kJ/mol
# Density = 2.377613 g / cm^3
# Si number density = 23.830373 Si / 1000 Ang^3
#
#
#
# Elastic Constant Matrix: (Units=GPa)
#
#
# Indices 1 2 3 4 5 6 
#
# 1 102.6023 9.9738 -0.7728 0.0000 7.0365 0.0000
# 2 9.9738 87.4239 -3.9306 0.0000 10.4766 0.0000
# 3 -0.7728 -3.9306 26.5031 0.0000 5.3917 0.0000
# 4 0.0000 0.0000 0.0000 15.3685 0.0000 -4.3125
# 5 7.0365 10.4766 5.3917 0.0000 21.7037 0.0000
# 6 0.0000 0.0000 0.0000 -4.3125 0.0000 22.8710
#
#
#
# Elastic Compliance Matrix: (Units=1/GPa)
#
#
# Indices 1 2 3 4 5 6 
#
# 1 0.010037 -0.000737 0.000814 0.000000 -0.003101 0.000000
# 2 -0.000737 0.012450 0.003159 0.000000 -0.006556 0.000000
# 3 0.000814 0.003159 0.040641 0.000000 -0.011885 0.000000
# 4 0.000000 0.000000 0.000000 0.068703 0.000000 0.012954
# 5 -0.003101 -0.006556 -0.011885 0.000000 0.053197 0.000000
# 6 0.000000 0.000000 0.000000 0.012954 0.000000 0.046166
#
#
# Mechanical properties :
#
#
# Convention : Reuss Voigt Hill
#
# Bulk Modulus (GPa) = 14.36778 25.22999 19.79888
# Shear Modulus (GPa) = 20.16753 26.07258 23.12005
#
# Velocity S-wave (km/s) = 2.91227 3.31129 3.11817
# Velocity P-wave (km/s) = 4.16542 5.02293 4.61414
#
# Compressibility (1/GPa) = 0.06960019
#
# Stress axis : x y z
#
# Youngs Moduli (GPa) = 99.63362 80.32004 24.60542
#
# Poissons Ratio (x) = 0.05919 -0.02003
# Poissons Ratio (y) = 0.07342 -0.07772
# Poissons Ratio (z) = -0.08112 -0.25370
#
# Static dielectric constant tensor:
#      x y z
#    x 1.864430 0.000000 -0.028310 
#    y 0.000000 1.954110 0.000000 
#    z -0.028310 0.000000 2.071020 
# 
# From -- ./inp_files/33834.got.cif
#   From: 2010.05.17/outbox.cif.g08.bks.cpg/sg14_17_cif.got.tgz:33834.got - 2010.06.03 17:49:19.
