data_PCOD9242855
_publ_section_title
;
Structure prediction by ZEFSAII (Michael W. Deem and Ramdas Pophale) SiO2 
 PCOD9242855
Probable space group: P 21/C
;
_chemical_formula_sum "Si O2"
_cell_formula_units_Z 30
_cell_length_a 15.002705
_cell_length_b 4.975424
_cell_length_c 24.877896
_cell_angle_alpha 90.000000
_cell_angle_beta 45.513832
_cell_angle_gamma 90.000000
_cell_volume 1324.824571
_symmetry_space_group_name_H-M "P 21/C"
_symmetry_group_IT_number 14
_symmetry_cell_setting 'monoclinic'
loop_
_space_group_symop_operation_xyz
x,y,z
-x,1/2+y,1/2-z
-x,-y,-z
x,1/2-y,1/2+z
loop_
_atom_site_type_symbol
_atom_site_label
_atom_site_fract_x
_atom_site_fract_y
_atom_site_fract_z
Si Si1 0.108802 0.301884 0.146205
Si Si2 0.664732 0.447850 0.195056
Si Si3 0.274505 0.435758 0.271550
Si Si4 0.500000 0.000000 0.500000
Si Si5 0.290466 0.678439 0.120380
Si Si6 0.859786 0.949564 0.750638
Si Si7 0.538846 0.296003 0.651729
Si Si8 0.642841 0.948290 0.000540
O O1 0.170835 0.583810 0.138178
O O2 0.212538 0.144472 0.067470
O O3 0.974500 0.375631 0.179671
O O4 0.098238 0.148256 0.207616
O O5 0.738749 0.230961 0.199443
O O6 0.639362 0.355921 0.145833
O O7 0.730792 0.731837 0.175326
O O8 0.528027 0.482555 0.281179
O O9 0.182637 0.302626 0.266692
O O10 0.417972 0.390705 0.191765
O O11 0.625047 0.918079 0.408956
O O12 0.440404 0.189739 0.475827
O O13 0.255593 0.854214 0.185401
O O14 0.379558 0.820738 0.037022
O O15 0.602491 0.421219 0.573008
#
# Coordination Sequence:
#
# PCOD9242855 Si02
#       8
#     4   4   4   2   4   4   4   4
#     4  10  22  37  57  84 118 166 207 255 295 378
#     4  10  21  39  59  95 118 153 207 255 317 376
#     4  10  22  35  62  93 118 158 206 259 308 366
#     4  10  20  36  52  88 130 150 196 242 304 400
#     4  10  21  36  51  89 115 164 194 251 300 380
#     4  11  21  37  61  80 123 162 217 251 305 364
#     4  10  20  39  61  90 125 160 196 266 319 383
#     4  10  22  36  58  85 123 160 201 248 326 371
#
# _framework density 22.644507000000001
#
# number of rings (size 3 to 8) (size 9 to 14) (size 15 to 20)
#    0.800    1.067    2.667    1.200    1.867    6.400 
#    0.000    0.000    0.000    1.600    0.000    0.000 
#    0.000    0.000    0.000    0.000    0.000    0.000 
#
# Total GULP energy -167144.999646 kJ/mol
# GULP energy per Si atom -5571.499988 kJ/mol
# Density = 2.259297 g / cm^3
# Si number density = 22.644507 Si / 1000 Ang^3
#
#
#
# Elastic Constant Matrix: (Units=GPa)
#
#
# Indices 1 2 3 4 5 6 
#
# 1 58.2310 -4.6021 19.7616 0.0000 -1.7607 0.0000
# 2 -4.6021 62.2565 0.2822 0.0000 2.2353 0.0000
# 3 19.7616 0.2822 66.9476 0.0000 -7.0995 0.0000
# 4 0.0000 0.0000 0.0000 28.7255 0.0000 -2.8106
# 5 -1.7607 2.2353 -7.0995 0.0000 32.9081 0.0000
# 6 0.0000 0.0000 0.0000 -2.8106 0.0000 31.3589
#
#
#
# Elastic Compliance Matrix: (Units=1/GPa)
#
#
# Indices 1 2 3 4 5 6 
#
# 1 0.019217 0.001457 -0.005711 0.000000 -0.000303 0.000000
# 2 0.001457 0.016215 -0.000621 0.000000 -0.001157 0.000000
# 3 -0.005711 -0.000621 0.016986 0.000000 0.003401 0.000000
# 4 0.000000 0.000000 0.000000 0.035120 0.000000 0.003148
# 5 -0.000303 -0.001157 0.003401 0.000000 0.031184 0.000000
# 6 0.000000 0.000000 0.000000 0.003148 0.000000 0.032171
#
#
# Mechanical properties :
#
#
# Convention : Reuss Voigt Hill
#
# Bulk Modulus (GPa) = 23.43654 24.25760 23.84707
# Shear Modulus (GPa) = 28.59348 30.06472 29.32910
#
# Velocity S-wave (km/s) = 3.55732 3.64769 3.60279
# Velocity P-wave (km/s) = 5.21967 5.33634 5.27832
#
# Compressibility (1/GPa) = 0.04266841
#
# Stress axis : x y z
#
# Youngs Moduli (GPa) = 52.03715 61.67248 58.87182
#
# Poissons Ratio (x) = -0.08988 0.33620
# Poissons Ratio (y) = -0.07583 0.03658
# Poissons Ratio (z) = 0.29717 0.03832
#
# Static dielectric constant tensor:
#      x y z
#    x 1.679760 0.000000 0.163250 
#    y 0.000000 1.170070 0.000000 
#    z 0.163250 0.000000 1.714710 
# 
# From -- ./inp_files/77362.got.cif
#   From: 2010.05.17/outbox.cif.g08.bks.cpg/sg14_39_cif.got.tgz:77362.got - 2010.06.03 17:49:19.
