data_PCOD9242684
_publ_section_title
;
Structure prediction by ZEFSAII (Michael W. Deem and Ramdas Pophale) SiO2 
 PCOD9242684
Probable space group: P 21/C
;
_chemical_formula_sum "Si O2"
_cell_formula_units_Z 28
_cell_length_a 10.079671
_cell_length_b 11.119550
_cell_length_c 9.569296
_cell_angle_alpha 90.000000
_cell_angle_beta 72.509372
_cell_angle_gamma 90.000000
_cell_volume 1022.952460
_symmetry_space_group_name_H-M "P 21/C"
_symmetry_group_IT_number 14
_symmetry_cell_setting 'monoclinic'
loop_
_space_group_symop_operation_xyz
x,y,z
-x,1/2+y,1/2-z
-x,-y,-z
x,1/2-y,1/2+z
loop_
_atom_site_type_symbol
_atom_site_label
_atom_site_fract_x
_atom_site_fract_y
_atom_site_fract_z
Si Si1 0.124516 0.086693 0.912780
Si Si2 0.581341 0.397725 0.388549
Si Si3 0.283122 0.728628 0.952010
Si Si4 0.992729 0.178957 0.361909
Si Si5 0.726937 0.108458 0.288417
Si Si6 0.315199 0.265136 0.549083
Si Si7 0.722450 0.911654 0.664863
O O1 0.064129 0.190153 0.830102
O O2 0.189183 0.156094 0.024777
O O3 0.251978 0.015053 0.799428
O O4 0.000000 0.000000 0.000000
O O5 0.500000 0.500000 0.500000
O O6 0.704599 0.342805 0.444465
O O7 0.455602 0.304754 0.427327
O O8 0.645532 0.466544 0.235545
O O9 0.342504 0.626433 0.037965
O O10 0.122900 0.693696 0.979996
O O11 0.334884 0.790216 0.795317
O O12 0.112822 0.084984 0.356943
O O13 0.888149 0.141582 0.273051
O O14 0.327691 0.307941 0.706298
O O15 0.291883 0.133787 0.489449
#
# Coordination Sequence:
#
# PCOD9242684 Si02
#       7
#     4   4   4   4   4   4   4
#     4  11  18  35  60  83 113 157 200 234 286 360
#     4  10  22  40  63  87 116 162 209 234 285 365
#     4  10  22  35  57  92 113 154 200 240 294 348
#     4   9  22  31  59  90 115 148 205 239 299 338
#     4  10  20  35  56  84 120 150 194 250 290 342
#     4  10  23  38  62  89 113 160 204 238 296 355
#     4  10  21  39  61  86 122 154 196 252 294 345
#
# _framework density 27.371751
#
# number of rings (size 3 to 8) (size 9 to 14) (size 15 to 20)
#    0.857    1.143    1.429    2.571    4.000    3.429 
#    0.000    4.286    0.000    0.000    0.000    0.000 
#    0.000    0.000    0.000    0.000    0.000    0.000 
#
# Total GULP energy -156271.087783 kJ/mol
# GULP energy per Si atom -5581.110278 kJ/mol
# Density = 2.730945 g / cm^3
# Si number density = 27.371751 Si / 1000 Ang^3
#
#
#
# Elastic Constant Matrix: (Units=GPa)
#
#
# Indices 1 2 3 4 5 6 
#
# 1 87.4291 11.7100 0.1850 0.0000 -15.4162 0.0000
# 2 11.7100 77.2304 4.7366 0.0000 6.7001 0.0000
# 3 0.1850 4.7366 142.8925 0.0000 6.6614 0.0000
# 4 0.0000 0.0000 0.0000 44.7918 0.0000 -5.4512
# 5 -15.4162 6.7001 6.6614 0.0000 36.6816 0.0000
# 6 0.0000 0.0000 0.0000 -5.4512 0.0000 26.6901
#
#
#
# Elastic Compliance Matrix: (Units=1/GPa)
#
#
# Indices 1 2 3 4 5 6 
#
# 1 0.012798 -0.002436 -0.000209 0.000000 0.005862 0.000000
# 2 -0.002436 0.013636 -0.000287 0.000000 -0.003462 0.000000
# 3 -0.000209 -0.000287 0.007070 0.000000 -0.001319 0.000000
# 4 0.000000 0.000000 0.000000 0.022895 0.000000 0.004676
# 5 0.005862 -0.003462 -0.001319 0.000000 0.030597 0.000000
# 6 0.000000 0.000000 0.000000 0.004676 0.000000 0.038422
#
#
# Mechanical properties :
#
#
# Convention : Reuss Voigt Hill
#
# Bulk Modulus (GPa) = 36.18214 37.86835 37.02525
# Shear Modulus (GPa) = 35.58839 41.02740 38.30790
#
# Velocity S-wave (km/s) = 3.60972 3.87576 3.74510
# Velocity P-wave (km/s) = 5.53362 5.82181 5.67955
#
# Compressibility (1/GPa) = 0.02763794
#
# Stress axis : x y z
#
# Youngs Moduli (GPa) = 78.13627 73.33718 141.45144
#
# Poissons Ratio (x) = 0.17866 0.02957
# Poissons Ratio (y) = 0.19036 0.04066
# Poissons Ratio (z) = 0.01634 0.02108
#
# Static dielectric constant tensor:
#      x y z
#    x 2.105060 0.000000 -0.035510 
#    y 0.000000 2.255890 0.000000 
#    z -0.035510 0.000000 2.217860 
# 
# From -- ./inp_files/28600.got.cif
#   From: 2010.05.17/outbox.cif.g08.bks.cpg/sg14_15_cif.got.tgz:28600.got - 2010.06.03 17:49:19.
