data_PCOD9242697
_publ_section_title
;
Structure prediction by ZEFSAII (Michael W. Deem and Ramdas Pophale) SiO2 
 PCOD9242697
Probable space group: P 21/C
;
_chemical_formula_sum "Si O2"
_cell_formula_units_Z 28
_cell_length_a 6.083323
_cell_length_b 14.262066
_cell_length_c 14.612630
_cell_angle_alpha 90.000000
_cell_angle_beta 113.602971
_cell_angle_gamma 90.000000
_cell_volume 1161.740912
_symmetry_space_group_name_H-M "P 21/C"
_symmetry_group_IT_number 14
_symmetry_cell_setting 'monoclinic'
loop_
_space_group_symop_operation_xyz
x,y,z
-x,1/2+y,1/2-z
-x,-y,-z
x,1/2-y,1/2+z
loop_
_atom_site_type_symbol
_atom_site_label
_atom_site_fract_x
_atom_site_fract_y
_atom_site_fract_z
Si Si1 0.958559 0.466967 0.181248
Si Si2 0.236651 0.876436 0.640308
Si Si3 0.165323 0.255319 0.884161
Si Si4 0.383491 0.824205 0.465487
Si Si5 0.747562 0.880523 0.780060
Si Si6 0.370583 0.437649 0.371639
Si Si7 0.799890 0.385293 0.539339
O O1 0.037221 0.543737 0.119544
O O2 0.220490 0.429807 0.253785
O O3 0.768070 0.387502 0.127407
O O4 0.839326 0.528361 0.241160
O O5 0.334562 0.873085 0.555044
O O6 0.463399 0.886729 0.745353
O O7 0.106889 0.778337 0.639192
O O8 0.210287 0.296679 0.788290
O O9 0.246354 0.148649 0.905076
O O10 0.330818 0.311215 0.985270
O O11 0.282607 0.719159 0.449377
O O12 0.914361 0.878765 0.897554
O O13 0.654667 0.415997 0.423710
O O14 0.303755 0.536111 0.407935
#
# Coordination Sequence:
#
# PCOD9242697 Si02
#       7
#     4   4   4   4   4   4   4
#     4  10  20  35  57  82 111 145 181 226 274 324
#     4  10  21  36  55  83 113 143 180 225 274 327
#     4   9  19  36  57  81 111 144 181 224 271 323
#     4  10  20  35  57  83 112 145 181 225 274 324
#     4   9  19  36  56  82 113 144 180 224 270 323
#     4   9  18  36  60  80 106 147 186 225 274 321
#     4   9  18  36  57  79 109 143 183 226 269 320
#
# _framework density 24.101761
#
# number of rings (size 3 to 8) (size 9 to 14) (size 15 to 20)
#    0.000    2.571    0.000    1.286    0.000    6.286 
#    0.000   24.286    0.000    0.000    0.000    0.000 
#    0.000    0.000    0.000    0.000    0.000    0.000 
#
# Total GULP energy -156178.245949 kJ/mol
# GULP energy per Si atom -5577.794498 kJ/mol
# Density = 2.404690 g / cm^3
# Si number density = 24.101761 Si / 1000 Ang^3
#
#
#
# Elastic Constant Matrix: (Units=GPa)
#
#
# Indices 1 2 3 4 5 6 
#
# 1 46.4158 7.0022 30.1083 0.0000 32.3144 0.0000
# 2 7.0022 105.0645 53.7166 0.0000 29.2673 0.0000
# 3 30.1083 53.7166 107.7105 0.0000 44.1838 0.0000
# 4 0.0000 0.0000 0.0000 19.7166 0.0000 -0.3284
# 5 32.3144 29.2673 44.1838 0.0000 40.8851 0.0000
# 6 0.0000 0.0000 0.0000 -0.3284 0.0000 7.1818
#
#
#
# Elastic Compliance Matrix: (Units=1/GPa)
#
#
# Indices 1 2 3 4 5 6 
#
# 1 0.056256 0.010630 0.000600 0.000000 -0.052721 0.000000
# 2 0.010630 0.015171 -0.004735 0.000000 -0.014144 0.000000
# 3 0.000600 -0.004735 0.018470 0.000000 -0.017045 0.000000
# 4 0.000000 0.000000 0.000000 0.050757 0.000000 0.002321
# 5 -0.052721 -0.014144 -0.017045 0.000000 0.094673 0.000000
# 6 0.000000 0.000000 0.000000 0.002321 0.000000 0.139346
#
#
# Mechanical properties :
#
#
# Convention : Reuss Voigt Hill
#
# Bulk Modulus (GPa) = 9.71948 48.98278 29.35113
# Shear Modulus (GPa) = 12.62699 24.78094 18.70396
#
# Velocity S-wave (km/s) = 2.29138 3.21000 2.78877
# Velocity P-wave (km/s) = 3.32295 5.84006 4.75122
#
# Compressibility (1/GPa) = 0.10288621
#
# Stress axis : x y z
#
# Youngs Moduli (GPa) = 17.77603 65.91737 54.14277
#
# Poissons Ratio (x) = -0.70071 -0.03249
# Poissons Ratio (y) = -0.18896 0.25636
# Poissons Ratio (z) = -0.01067 0.31212
#
# Static dielectric constant tensor:
#      x y z
#    x 1.922970 0.000000 0.020760 
#    y 0.000000 1.946960 0.000000 
#    z 0.020760 0.000000 2.040520 
# 
# From -- ./inp_files/53373.got.cif
#   From: 2010.05.17/outbox.cif.g08.bks.cpg/sg14_27_cif.got.tgz:53373.got - 2010.06.03 17:49:19.
