data_PCOD9242985
_publ_section_title
;
Structure prediction by ZEFSAII (Michael W. Deem and Ramdas Pophale) SiO2 
 PCOD9242985
Probable space group: P 21/C
;
_chemical_formula_sum "Si O2"
_cell_formula_units_Z 20
_cell_length_a 12.318587
_cell_length_b 10.026394
_cell_length_c 5.647007
_cell_angle_alpha 90.000000
_cell_angle_beta 84.980274
_cell_angle_gamma 90.000000
_cell_volume 694.792476
_symmetry_space_group_name_H-M "P 21/C"
_symmetry_group_IT_number 14
_symmetry_cell_setting 'monoclinic'
loop_
_space_group_symop_operation_xyz
x,y,z
-x,1/2+y,1/2-z
-x,-y,-z
x,1/2-y,1/2+z
loop_
_atom_site_type_symbol
_atom_site_label
_atom_site_fract_x
_atom_site_fract_y
_atom_site_fract_z
Si Si1 0.602462 0.209378 0.300060
Si Si2 0.801827 0.494312 0.469327
Si Si3 0.869814 0.008279 0.462588
Si Si4 0.575783 0.572723 0.674954
Si Si5 0.957194 0.762403 0.910864
O O1 0.653461 0.278834 0.523968
O O2 0.488262 0.290044 0.264942
O O3 0.591206 0.051239 0.356580
O O4 0.831164 0.430618 0.720031
O O5 0.694062 0.582153 0.535844
O O6 0.903056 0.595083 0.423206
O O7 0.803908 0.438219 0.200818
O O8 0.859164 0.846852 0.434089
O O9 0.000000 0.000000 0.500000
O O10 0.500000 0.500000 0.500000
O O11 0.017474 0.742743 0.650392
#
# Coordination Sequence:
#
# PCOD9242985 Si02
#       5
#     4   4   4   4   4
#     4  10  22  39  61  90 127 169 213 260 313 370
#     4  10  21  36  60  89 117 158 205 251 306 376
#     4  10  20  36  59  86 115 149 198 259 314 366
#     4  10  23  41  66  96 133 173 217 264 317 379
#     4   8  16  30  51  79 109 139 188 244 294 355
#
# _framework density 28.785575000000001
#
# number of rings (size 3 to 8) (size 9 to 14) (size 15 to 20)
#    0.000    2.400    0.000    1.200    0.000   16.000 
#    0.000    0.000    0.000   43.200    0.000    0.000 
#    0.000    0.000    0.000    0.000    0.000    0.000 
#
# Total GULP energy -111517.547002 kJ/mol
# GULP energy per Si atom -5575.877350 kJ/mol
# Density = 2.872006 g / cm^3
# Si number density = 28.785575 Si / 1000 Ang^3
#
#
#
# Elastic Constant Matrix: (Units=GPa)
#
#
# Indices 1 2 3 4 5 6 
#
# 1 110.3456 16.9968 56.1709 0.0000 4.6484 0.0000
# 2 16.9968 81.5523 28.0901 0.0000 -9.4659 0.0000
# 3 56.1709 28.0901 321.5933 0.0000 2.3983 0.0000
# 4 0.0000 0.0000 0.0000 52.0365 0.0000 4.3771
# 5 4.6484 -9.4659 2.3983 0.0000 47.9628 0.0000
# 6 0.0000 0.0000 0.0000 4.3771 0.0000 41.0254
#
#
#
# Elastic Compliance Matrix: (Units=1/GPa)
#
#
# Indices 1 2 3 4 5 6 
#
# 1 0.010205 -0.001712 -0.001624 0.000000 -0.001246 0.000000
# 2 -0.001712 0.013250 -0.000879 0.000000 0.002825 0.000000
# 3 -0.001624 -0.000879 0.003471 0.000000 -0.000190 0.000000
# 4 0.000000 0.000000 0.000000 0.019391 0.000000 -0.002069
# 5 -0.001246 0.002825 -0.000190 0.000000 0.021537 0.000000
# 6 0.000000 0.000000 0.000000 -0.002069 0.000000 0.024596
#
#
# Mechanical properties :
#
#
# Convention : Reuss Voigt Hill
#
# Bulk Modulus (GPa) = 54.06643 79.55631 66.81137
# Shear Modulus (GPa) = 46.70876 55.68716 51.19796
#
# Velocity S-wave (km/s) = 4.03258 4.40312 4.22192
# Velocity P-wave (km/s) = 6.36439 7.31762 6.85759
#
# Compressibility (1/GPa) = 0.01849576
#
# Stress axis : x y z
#
# Youngs Moduli (GPa) = 97.98957 75.47340 288.07420
#
# Poissons Ratio (x) = 0.12923 0.46773
# Poissons Ratio (y) = 0.16779 0.25331
# Poissons Ratio (z) = 0.15910 0.06636
#
# Static dielectric constant tensor:
#      x y z
#    x 2.230860 0.000000 -0.009470 
#    y 0.000000 2.568730 0.000000 
#    z -0.009470 0.000000 2.437290 
# 
# From -- ./inp_files/3458.got.cif
#   From: 2010.05.17/outbox.cif.g08.bks.cpg/sg14_2_cif.got.tgz:3458.got - 2010.06.03 17:49:19.
