data_PCOD9242023
_publ_section_title
;
Structure prediction by ZEFSAII (Michael W. Deem and Ramdas Pophale) SiO2 
 PCOD9242023
Probable space group: P 21/C
;
_chemical_formula_sum "Si O2"
_cell_formula_units_Z 30
_cell_length_a 8.969248
_cell_length_b 18.502909
_cell_length_c 8.217417
_cell_angle_alpha 90.000000
_cell_angle_beta 115.887849
_cell_angle_gamma 90.000000
_cell_volume 1226.888641
_symmetry_space_group_name_H-M "P 21/C"
_symmetry_group_IT_number 14
_symmetry_cell_setting 'monoclinic'
loop_
_space_group_symop_operation_xyz
x,y,z
-x,1/2+y,1/2-z
-x,-y,-z
x,1/2-y,1/2+z
loop_
_atom_site_type_symbol
_atom_site_label
_atom_site_fract_x
_atom_site_fract_y
_atom_site_fract_z
Si Si1 0.864633 0.938482 0.550497
Si Si2 0.446967 0.359718 0.981723
Si Si3 0.675405 0.434747 0.870891
Si Si4 0.793418 0.610334 0.656469
Si Si5 0.500000 0.500000 0.500000
Si Si6 0.674100 0.734384 0.778917
Si Si7 0.843517 0.341513 0.693624
Si Si8 0.973042 0.298916 0.436486
O O1 0.700853 0.916973 0.573282
O O2 0.851597 0.899682 0.369814
O O3 0.012713 0.901733 0.717480
O O4 0.842231 0.022258 0.496908
O O5 0.611470 0.399912 0.006076
O O6 0.415170 0.306799 0.815764
O O7 0.422933 0.310696 0.130211
O O8 0.553242 0.490558 0.720838
O O9 0.701987 0.377327 0.735985
O O10 0.676371 0.544357 0.552615
O O11 0.682195 0.682607 0.623912
O O12 0.946800 0.633484 0.619165
O O13 0.864333 0.759476 0.906060
O O14 0.836252 0.326146 0.499434
O O15 0.895154 0.264250 0.791062
#
# Coordination Sequence:
#
# PCOD9242023 Si02
#       8
#     4   4   4   4   2   4   4   4
#     4  10  20  42  67  92 124 173 220 263 324 405
#     4  11  21  37  66  95 123 169 218 263 331 388
#     4  11  26  41  63  95 137 167 217 279 330 386
#     4  10  19  38  66  94 123 173 221 262 320 390
#     4  10  24  42  64  88 138 174 212 270 320 390
#     4  11  18  34  64  92 118 165 216 265 310 394
#     4  12  23  40  67  96 128 173 216 276 331 392
#     4  12  19  38  67  94 128 170 218 268 328 393
#
# _framework density 24.452097999999999
#
# number of rings (size 3 to 8) (size 9 to 14) (size 15 to 20)
#    0.000    1.067    6.667    1.600    0.000    1.067 
#    0.000    2.667   14.667    0.000    0.000    0.000 
#    0.000    0.000    0.000    0.000    0.000    0.000 
#
# Total GULP energy -167061.497098 kJ/mol
# GULP energy per Si atom -5568.716570 kJ/mol
# Density = 2.439644 g / cm^3
# Si number density = 24.452098 Si / 1000 Ang^3
#
#
#
# Elastic Constant Matrix: (Units=GPa)
#
#
# Indices 1 2 3 4 5 6 
#
# 1 59.9274 19.2275 16.3433 0.0000 -37.2053 0.0000
# 2 19.2275 56.1253 5.2871 0.0000 -16.8295 0.0000
# 3 16.3433 5.2871 43.2650 0.0000 -24.6188 0.0000
# 4 0.0000 0.0000 0.0000 18.3469 0.0000 -10.8052
# 5 -37.2053 -16.8295 -24.6188 0.0000 42.5704 0.0000
# 6 0.0000 0.0000 0.0000 -10.8052 0.0000 -26.1182
#
#
#
# Elastic Compliance Matrix: (Units=1/GPa)
#
#
# Indices 1 2 3 4 5 6 
#
# 1 0.038161 -0.002915 0.006354 0.000000 0.035874 0.000000
# 2 -0.002915 0.020718 0.002653 0.000000 0.007178 0.000000
# 3 0.006354 0.002653 0.035988 0.000000 0.027415 0.000000
# 4 0.000000 0.000000 0.000000 0.043827 0.000000 -0.018131
# 5 0.035874 0.007178 0.027415 0.000000 0.073535 0.000000
# 6 0.000000 0.000000 0.000000 -0.018131 0.000000 -0.030787
#
#
# Mechanical properties :
#
#
# Convention : Reuss Voigt Hill
#
# Bulk Modulus (GPa) = 9.34115 26.78150 18.06132
# Shear Modulus (GPa) = 24.39708 14.85715 19.62712
#
# Velocity S-wave (km/s) = 3.16214 2.46763 2.83623
# Velocity P-wave (km/s) = 4.14255 4.36983 4.25770
#
# Compressibility (1/GPa) = 0.10705326
#
# Stress axis : x y z
#
# Youngs Moduli (GPa) = 26.20448 48.26685 27.78674
#
# Poissons Ratio (x) = 0.14069 -0.17656
# Poissons Ratio (y) = 0.07638 -0.07373
# Poissons Ratio (z) = -0.16651 -0.12807
#
# Static dielectric constant tensor:
#      x y z
#    x 1.974950 0.000000 0.005190 
#    y 0.000000 2.029630 0.000000 
#    z 0.005190 0.000000 1.886670 
# 
# From -- ./inp_files/10267.got.cif
#   From: 2010.05.17/outbox.cif.g08.bks.cpg/sg14_6_cif.got.tgz:10267.got - 2010.06.03 17:49:19.
