data_PCOD9242478
_publ_section_title
;
Structure prediction by ZEFSAII (Michael W. Deem and Ramdas Pophale) SiO2 
 PCOD9242478
Probable space group: P 21/C
;
_chemical_formula_sum "Si O2"
_cell_formula_units_Z 24
_cell_length_a 8.651947
_cell_length_b 7.978710
_cell_length_c 20.111780
_cell_angle_alpha 90.000000
_cell_angle_beta 42.102852
_cell_angle_gamma 90.000000
_cell_volume 930.833947
_symmetry_space_group_name_H-M "P 21/C"
_symmetry_group_IT_number 14
_symmetry_cell_setting 'monoclinic'
loop_
_space_group_symop_operation_xyz
x,y,z
-x,1/2+y,1/2-z
-x,-y,-z
x,1/2-y,1/2+z
loop_
_atom_site_type_symbol
_atom_site_label
_atom_site_fract_x
_atom_site_fract_y
_atom_site_fract_z
Si Si1 0.143302 0.346946 0.622774
Si Si2 0.814685 0.012988 0.118276
Si Si3 0.710792 0.323893 0.080762
Si Si4 0.949686 0.527963 0.209049
Si Si5 0.756201 0.646264 0.132612
Si Si6 0.590026 0.310102 0.969911
O O1 0.176008 0.443200 0.681484
O O2 0.387799 0.310007 0.508383
O O3 0.963801 0.451871 0.636356
O O4 0.044063 0.160278 0.668701
O O5 0.672985 0.179164 0.146403
O O6 0.680802 0.838516 0.159878
O O7 0.000000 0.000000 0.000000
O O8 0.622873 0.507052 0.131829
O O9 0.621413 0.268503 0.037731
O O10 0.987098 0.341359 0.982650
O O11 0.807171 0.573225 0.189074
O O12 0.162116 0.662801 0.142027
O O13 0.500000 0.500000 0.000000
#
# Coordination Sequence:
#
# PCOD9242478 Si02
#       6
#     4   4   4   4   4   4
#     4  11  21  39  64  93 130 165 221 267 325 388
#     4  10  20  33  60  93 120 168 211 255 314 391
#     4   9  17  35  59  86 122 158 209 256 314 383
#     4  10  20  38  63  93 126 171 209 270 327 380
#     4   9  17  32  60  87 117 163 206 249 318 376
#     4   9  21  37  66  91 123 168 214 264 329 379
#
# _framework density 25.783329999999999
#
# number of rings (size 3 to 8) (size 9 to 14) (size 15 to 20)
#    0.000    2.333    1.667    1.000    7.000    0.000 
#    0.000   13.333   11.000    2.000    0.000    0.000 
#    0.000    0.000    0.000    0.000    0.000    0.000 
#
# Total GULP energy -134290.686989 kJ/mol
# GULP energy per Si atom -5595.445291 kJ/mol
# Density = 2.572465 g / cm^3
# Si number density = 25.783330 Si / 1000 Ang^3
#
#
#
# Elastic Constant Matrix: (Units=GPa)
#
#
# Indices 1 2 3 4 5 6 
#
# 1 -28.5049 53.1282 9.4934 0.0000 -12.7608 0.0000
# 2 53.1282 153.9306 34.7441 0.0000 15.7388 0.0000
# 3 9.4934 34.7441 86.0657 0.0000 -9.7225 0.0000
# 4 0.0000 0.0000 0.0000 37.7707 0.0000 7.4205
# 5 -12.7608 15.7388 -9.7225 0.0000 29.7527 0.0000
# 6 0.0000 0.0000 0.0000 7.4205 0.0000 33.3143
#
#
#
# Elastic Compliance Matrix: (Units=1/GPa)
#
#
# Indices 1 2 3 4 5 6 
#
# 1 -0.016581 0.007518 -0.002553 0.000000 -0.011923 0.000000
# 2 0.007518 0.004502 -0.002649 0.000000 -0.000023 0.000000
# 3 -0.002553 -0.002649 0.013503 0.000000 0.004719 0.000000
# 4 0.000000 0.000000 0.000000 0.027687 0.000000 -0.006167
# 5 -0.011923 -0.000023 0.004719 0.000000 0.030051 0.000000
# 6 0.000000 0.000000 0.000000 -0.006167 0.000000 0.031391
#
#
# Mechanical properties :
#
#
# Convention : Reuss Voigt Hill
#
# Bulk Modulus (GPa) = 165.13046 45.13587 105.13317
# Shear Modulus (GPa) = 56.85802 27.77592 42.31697
#
# Velocity S-wave (km/s) = 4.70108 3.28576 4.05563
# Velocity P-wave (km/s) = 9.67736 5.65144 7.92433
#
# Compressibility (1/GPa) = 0.00605582
#
# Stress axis : x y z
#
# Youngs Moduli (GPa) = -60.30830 222.13410 74.05668
#
# Poissons Ratio (x) = -1.67008 0.18906
# Poissons Ratio (y) = 0.45342 0.19619
# Poissons Ratio (z) = -0.15397 0.58847
#
# Static dielectric constant tensor:
#      x y z
#    x 2.031880 0.000000 -0.059600 
#    y 0.000000 2.071120 0.000000 
#    z -0.059600 0.000000 2.052230 
# 
# From -- ./inp_files/71879.got.cif
#   From: 2010.05.17/outbox.cif.g08.bks.cpg/sg14_36_cif.got.tgz:71879.got - 2010.06.03 17:49:19.
