data_PCOD9242927
_publ_section_title
;
Structure prediction by ZEFSAII (Michael W. Deem and Ramdas Pophale) SiO2 
 PCOD9242927
Probable space group: P 21/C
;
_chemical_formula_sum "Si O2"
_cell_formula_units_Z 32
_cell_length_a 21.310617
_cell_length_b 9.306768
_cell_length_c 8.849377
_cell_angle_alpha 90.000000
_cell_angle_beta 77.947252
_cell_angle_gamma 90.000000
_cell_volume 1716.432882
_symmetry_space_group_name_H-M "P 21/C"
_symmetry_group_IT_number 14
_symmetry_cell_setting 'monoclinic'
loop_
_space_group_symop_operation_xyz
x,y,z
-x,1/2+y,1/2-z
-x,-y,-z
x,1/2-y,1/2+z
loop_
_atom_site_type_symbol
_atom_site_label
_atom_site_fract_x
_atom_site_fract_y
_atom_site_fract_z
Si Si1 0.188077 0.579736 0.966266
Si Si2 0.445807 0.142442 0.172717
Si Si3 0.942005 0.904859 0.462585
Si Si4 0.440886 0.058236 0.824237
Si Si5 0.183272 0.607112 0.328238
Si Si6 0.295464 0.073088 0.916079
Si Si7 0.700076 0.611529 0.227320
Si Si8 0.941859 0.587130 0.601899
O O1 0.125977 0.480415 0.969424
O O2 0.192920 0.605364 0.143189
O O3 0.176460 0.730702 0.889318
O O4 0.251804 0.498893 0.876425
O O5 0.450161 0.309761 0.207135
O O6 0.376000 0.086751 0.262904
O O7 0.505012 0.061271 0.219828
O O8 0.448127 0.117148 0.992046
O O9 0.940251 0.745291 0.531271
O O10 0.949956 0.898342 0.277900
O O11 0.000000 0.000000 0.500000
O O12 0.366833 0.012868 0.848170
O O13 0.243218 0.535926 0.381736
O O14 0.122053 0.506587 0.393563
O O15 0.287488 0.226647 0.837139
O O16 0.289577 0.100469 0.098009
O O17 0.000000 0.500000 0.500000
#
# Coordination Sequence:
#
# PCOD9242927 Si02
#       8
#     4   4   4   4   4   4   4   4
#     4  11  24  40  59  85 116 150 188 232 281 333
#     4   9  19  35  54  79 110 144 184 229 278 332
#     4  11  24  41  63  89 118 152 189 231 279 331
#     4   9  19  35  54  79 110 144 184 229 278 332
#     4  11  24  40  59  85 116 150 188 232 281 333
#     4  10  20  36  58  82 111 148 189 233 281 335
#     4  10  20  36  58  82 111 148 189 233 281 335
#     4  11  24  41  63  89 118 152 189 231 279 331
#
# _framework density 18.643315999999999
#
# number of rings (size 3 to 8) (size 9 to 14) (size 15 to 20)
#    0.000    1.750    0.000    3.750    0.000   10.500 
#    0.000    2.500    0.000    0.000    0.000    0.000 
#    0.000    0.000    0.000    0.000    0.000    0.000 
#
# Total GULP energy -178796.566627 kJ/mol
# GULP energy per Si atom -5587.392707 kJ/mol
# Density = 1.860088 g / cm^3
# Si number density = 18.643316 Si / 1000 Ang^3
#
#
#
# Elastic Constant Matrix: (Units=GPa)
#
#
# Indices 1 2 3 4 5 6 
#
# 1 73.3852 40.3475 43.5691 0.0000 11.5972 0.0000
# 2 40.3475 106.5237 46.1330 0.0000 0.0993 0.0000
# 3 43.5691 46.1330 55.2388 0.0000 -8.4769 0.0000
# 4 0.0000 0.0000 0.0000 35.7429 0.0000 2.3365
# 5 11.5972 0.0993 -8.4769 0.0000 23.0766 0.0000
# 6 0.0000 0.0000 0.0000 2.3365 0.0000 39.3719
#
#
#
# Elastic Compliance Matrix: (Units=1/GPa)
#
#
# Indices 1 2 3 4 5 6 
#
# 1 0.042365 0.001334 -0.040055 0.000000 -0.036010 0.000000
# 2 0.001334 0.015279 -0.014758 0.000000 -0.006157 0.000000
# 3 -0.040055 -0.014758 0.069010 0.000000 0.045543 0.000000
# 4 0.000000 0.000000 0.000000 0.028087 0.000000 -0.001667
# 5 -0.036010 -0.006157 0.045543 0.000000 0.078187 0.000000
# 6 0.000000 0.000000 0.000000 -0.001667 0.000000 0.025498
#
#
# Mechanical properties :
#
#
# Convention : Reuss Voigt Hill
#
# Bulk Modulus (GPa) = 50.76921 55.02745 52.89833
# Shear Modulus (GPa) = 13.44273 26.64482 20.04378
#
# Velocity S-wave (km/s) = 2.68815 3.78456 3.28246
# Velocity P-wave (km/s) = 6.07666 6.97691 6.54229
#
# Compressibility (1/GPa) = 0.01969698
#
# Stress axis : x y z
#
# Youngs Moduli (GPa) = 23.60452 65.44845 14.49060
#
# Poissons Ratio (x) = -0.08732 0.58042
# Poissons Ratio (y) = -0.03149 0.21385
# Poissons Ratio (z) = 0.94548 0.96587
#
# Static dielectric constant tensor:
#      x y z
#    x 1.638810 0.000000 -0.006000 
#    y 0.000000 1.595540 0.000000 
#    z -0.006000 0.000000 1.630340 
# 
# From -- ./inp_files/18601.got.cif
#   From: 2010.05.17/outbox.cif.g08.bks.cpg/sg14_10_cif.got.tgz:18601.got - 2010.06.03 17:49:19.
