data_PCOD9242807
_publ_section_title
;
Structure prediction by ZEFSAII (Michael W. Deem and Ramdas Pophale) SiO2 
 PCOD9242807
Probable space group: P 21/C
;
_chemical_formula_sum "Si O2"
_cell_formula_units_Z 32
_cell_length_a 19.952195
_cell_length_b 5.251700
_cell_length_c 15.083682
_cell_angle_alpha 90.000000
_cell_angle_beta 71.062747
_cell_angle_gamma 90.000000
_cell_volume 1494.966631
_symmetry_space_group_name_H-M "P 21/C"
_symmetry_group_IT_number 14
_symmetry_cell_setting 'monoclinic'
loop_
_space_group_symop_operation_xyz
x,y,z
-x,1/2+y,1/2-z
-x,-y,-z
x,1/2-y,1/2+z
loop_
_atom_site_type_symbol
_atom_site_label
_atom_site_fract_x
_atom_site_fract_y
_atom_site_fract_z
Si Si1 0.452217 0.903017 0.154412
Si Si2 0.958317 0.738310 0.244712
Si Si3 0.070655 0.363110 0.936571
Si Si4 0.588405 0.633267 0.153998
Si Si5 0.270933 0.327937 0.413316
Si Si6 0.146932 0.052814 0.064277
Si Si7 0.805563 0.185204 0.586812
Si Si8 0.556776 0.302676 0.016530
O O1 0.505324 0.699258 0.176935
O O2 0.405924 0.020370 0.251077
O O3 0.509113 0.100040 0.089204
O O4 0.409484 0.810365 0.086881
O O5 0.943638 0.788076 0.147451
O O6 0.893184 0.625163 0.329963
O O7 0.014348 0.503939 0.226164
O O8 0.128540 0.579139 0.887062
O O9 0.104451 0.192502 0.001024
O O10 0.000000 0.500000 0.000000
O O11 0.645226 0.856553 0.120118
O O12 0.605154 0.443966 0.066049
O O13 0.228325 0.352493 0.524078
O O14 0.234341 0.553363 0.372433
O O15 0.249887 0.045470 0.391826
O O16 0.157724 0.762720 0.024407
O O17 0.500000 0.500000 0.000000
#
# Coordination Sequence:
#
# PCOD9242807 Si02
#       8
#     4   4   4   4   4   4   4   4
#     4  10  20  35  61  95 126 155 212 276 316 391
#     4  12  26  36  64  99 121 161 213 261 320 385
#     4  11  21  40  67  93 128 166 202 272 333 369
#     4  11  20  36  67  93 119 179 210 263 334 376
#     4   9  22  38  68  83 128 170 214 252 321 385
#     4   9  22  43  61  90 129 162 212 261 314 385
#     4   9  21  41  61  86 122 169 202 263 307 387
#     4   9  20  36  55  90 131 152 198 273 332 367
#
# _framework density 21.405158
#
# number of rings (size 3 to 8) (size 9 to 14) (size 15 to 20)
#    0.750    1.250    2.500    0.750    5.250    1.000 
#    0.000    0.000   24.750    0.000    0.000    0.000 
#    0.000    0.000    0.000    0.000    0.000    0.000 
#
# Total GULP energy -178163.567078 kJ/mol
# GULP energy per Si atom -5567.611471 kJ/mol
# Density = 2.135644 g / cm^3
# Si number density = 21.405158 Si / 1000 Ang^3
#
#
#
# Elastic Constant Matrix: (Units=GPa)
#
#
# Indices 1 2 3 4 5 6 
#
# 1 51.5802 3.6444 16.7117 0.0000 -8.8372 0.0000
# 2 3.6444 78.8379 -3.3969 0.0000 8.3352 0.0000
# 3 16.7117 -3.3969 99.0573 0.0000 11.3854 0.0000
# 4 0.0000 0.0000 0.0000 20.4206 0.0000 -0.2555
# 5 -8.8372 8.3352 11.3854 0.0000 24.6327 0.0000
# 6 0.0000 0.0000 0.0000 -0.2555 0.0000 19.9831
#
#
#
# Elastic Compliance Matrix: (Units=1/GPa)
#
#
# Indices 1 2 3 4 5 6 
#
# 1 0.023311 -0.002546 -0.005365 0.000000 0.011704 0.000000
# 2 -0.002546 0.013531 0.001610 0.000000 -0.006236 0.000000
# 3 -0.005365 0.001610 0.011976 0.000000 -0.008005 0.000000
# 4 0.000000 0.000000 0.000000 0.048978 0.000000 0.000626
# 5 0.011704 -0.006236 -0.008005 0.000000 0.050606 0.000000
# 6 0.000000 0.000000 0.000000 0.000626 0.000000 0.050050
#
#
# Mechanical properties :
#
#
# Convention : Reuss Voigt Hill
#
# Bulk Modulus (GPa) = 27.61300 29.26596 28.43948
# Shear Modulus (GPa) = 22.40895 27.17503 24.79199
#
# Velocity S-wave (km/s) = 3.23909 3.56695 3.40696
# Velocity P-wave (km/s) = 5.18817 5.53771 5.36578
#
# Compressibility (1/GPa) = 0.03621482
#
# Stress axis : x y z
#
# Youngs Moduli (GPa) = 42.89855 73.90614 83.50289
#
# Poissons Ratio (x) = 0.18818 0.44802
# Poissons Ratio (y) = 0.10923 -0.13447
# Poissons Ratio (z) = 0.23016 -0.11901
#
# Static dielectric constant tensor:
#      x y z
#    x 1.805420 0.000000 -0.023960 
#    y 0.000000 1.893840 0.000000 
#    z -0.023960 0.000000 1.740670 
# 
# From -- ./inp_files/49693.got.cif
#   From: 2010.05.17/outbox.cif.g08.bks.cpg/sg14_25_cif.got.tgz:49693.got - 2010.06.03 17:49:19.
