data_PCOD9242558
_publ_section_title
;
Structure prediction by ZEFSAII (Michael W. Deem and Ramdas Pophale) SiO2 
 PCOD9242558
Probable space group: P 21/C
;
_chemical_formula_sum "Si O2"
_cell_formula_units_Z 28
_cell_length_a 15.132335
_cell_length_b 7.466678
_cell_length_c 20.658039
_cell_angle_alpha 90.000000
_cell_angle_beta 26.724899
_cell_angle_gamma 90.000000
_cell_volume 1049.668809
_symmetry_space_group_name_H-M "P 21/C"
_symmetry_group_IT_number 14
_symmetry_cell_setting 'monoclinic'
loop_
_space_group_symop_operation_xyz
x,y,z
-x,1/2+y,1/2-z
-x,-y,-z
x,1/2-y,1/2+z
loop_
_atom_site_type_symbol
_atom_site_label
_atom_site_fract_x
_atom_site_fract_y
_atom_site_fract_z
Si Si1 0.149392 0.813213 0.323157
Si Si2 0.547662 0.711716 0.213647
Si Si3 0.170161 0.100278 0.056110
Si Si4 0.326439 0.886204 0.456205
Si Si5 0.351964 0.474832 0.164139
Si Si6 0.134920 0.108775 0.679910
Si Si7 0.864249 0.696494 0.122021
O O1 0.337579 0.686919 0.188673
O O2 0.993063 0.717564 0.377098
O O3 0.068059 0.799809 0.449667
O O4 0.159571 0.029528 0.312742
O O5 0.566791 0.554412 0.149731
O O6 0.704816 0.676875 0.168436
O O7 0.346446 0.751560 0.383414
O O8 0.635192 0.878940 0.114251
O O9 0.191340 0.209227 0.108745
O O10 0.069176 0.917902 0.147970
O O11 0.477365 0.852343 0.416377
O O12 0.144026 0.966895 0.614080
O O13 0.303762 0.438362 0.121206
O O14 0.167281 0.384964 0.322941
#
# Coordination Sequence:
#
# PCOD9242558 Si02
#       7
#     4   4   4   4   4   4   4
#     4   9  18  33  54  81 110 142 185 232 275 326
#     4   9  20  36  54  80 109 141 186 227 273 331
#     4   9  20  36  54  80 109 141 186 227 273 331
#     4  10  21  37  57  81 113 147 181 228 281 331
#     4  10  20  34  56  80 113 148 183 224 283 338
#     4  10  21  37  57  81 113 147 181 228 281 331
#     4   9  18  33  54  81 110 142 185 232 275 326
#
# _framework density 26.675079
#
# number of rings (size 3 to 8) (size 9 to 14) (size 15 to 20)
#    0.000    2.571    0.000    0.857    4.000    2.286 
#    0.000    0.000    0.000    4.286    0.000    0.000 
#    0.000    0.000    0.000    0.000    0.000    0.000 
#
# Total GULP energy -156151.511097 kJ/mol
# GULP energy per Si atom -5576.839682 kJ/mol
# Density = 2.661437 g / cm^3
# Si number density = 26.675079 Si / 1000 Ang^3
#
#
#
# Elastic Constant Matrix: (Units=GPa)
#
#
# Indices 1 2 3 4 5 6 
#
# 1 103.4552 -2.3074 -6.6000 0.0000 23.1842 0.0000
# 2 -2.3074 61.6386 -28.3282 0.0000 5.2067 0.0000
# 3 -6.6000 -28.3282 123.5511 0.0000 14.9644 0.0000
# 4 0.0000 0.0000 0.0000 40.4234 0.0000 13.0506
# 5 23.1842 5.2067 14.9644 0.0000 20.4327 0.0000
# 6 0.0000 0.0000 0.0000 13.0506 0.0000 24.3276
#
#
#
# Elastic Compliance Matrix: (Units=1/GPa)
#
#
# Indices 1 2 3 4 5 6 
#
# 1 0.014740 0.004308 0.004317 0.000000 -0.020984 0.000000
# 2 0.004308 0.020815 0.006844 0.000000 -0.015205 0.000000
# 3 0.004317 0.006844 0.011740 0.000000 -0.015240 0.000000
# 4 0.000000 0.000000 0.000000 0.029920 0.000000 -0.016051
# 5 -0.020984 -0.015205 -0.015240 0.000000 0.087787 0.000000
# 6 0.000000 0.000000 0.000000 -0.016051 0.000000 0.049716
#
#
# Mechanical properties :
#
#
# Convention : Reuss Voigt Hill
#
# Bulk Modulus (GPa) = 12.78225 23.79706 18.28966
# Shear Modulus (GPa) = 23.82576 38.76211 31.29393
#
# Velocity S-wave (km/s) = 2.99186 3.81612 3.42885
# Velocity P-wave (km/s) = 4.09111 5.32517 4.74840
#
# Compressibility (1/GPa) = 0.07823347
#
# Stress axis : x y z
#
# Youngs Moduli (GPa) = 67.84220 48.04264 85.18207
#
# Poissons Ratio (x) = -0.20698 -0.36772
# Poissons Ratio (y) = -0.29229 -0.58301
# Poissons Ratio (z) = -0.29286 -0.32882
#
# Static dielectric constant tensor:
#      x y z
#    x 2.066980 0.000000 -0.072380 
#    y 0.000000 2.255070 0.000000 
#    z -0.072380 0.000000 2.216860 
# 
# From -- ./inp_files/41137.got.cif
#   From: 2010.05.17/outbox.cif.g08.bks.cpg/sg14_21_cif.got.tgz:41137.got - 2010.06.03 17:49:19.
