data_PCOD9242380
_publ_section_title
;
Structure prediction by ZEFSAII (Michael W. Deem and Ramdas Pophale) SiO2 
 PCOD9242380
Probable space group: P 21/C
;
_chemical_formula_sum "Si O2"
_cell_formula_units_Z 28
_cell_length_a 22.217655
_cell_length_b 14.401801
_cell_length_c 24.837352
_cell_angle_alpha 90.000000
_cell_angle_beta 10.301630
_cell_angle_gamma 90.000000
_cell_volume 1421.219613
_symmetry_space_group_name_H-M "P 21/C"
_symmetry_group_IT_number 14
_symmetry_cell_setting 'monoclinic'
loop_
_space_group_symop_operation_xyz
x,y,z
-x,1/2+y,1/2-z
-x,-y,-z
x,1/2-y,1/2+z
loop_
_atom_site_type_symbol
_atom_site_label
_atom_site_fract_x
_atom_site_fract_y
_atom_site_fract_z
Si Si1 0.826783 0.560149 0.450184
Si Si2 0.664948 0.939869 0.558081
Si Si3 0.600311 0.829145 0.045676
Si Si4 0.224370 0.829161 0.129636
Si Si5 0.602685 0.000005 0.848210
Si Si6 0.184088 0.778583 0.986854
Si Si7 0.341580 0.221434 0.829368
O O1 0.483464 0.500006 0.761020
O O2 0.793898 0.624536 0.426173
O O3 0.808663 0.622503 0.520189
O O4 0.159318 0.500012 0.143784
O O5 0.335521 0.877516 0.835621
O O6 0.973441 0.875479 0.306481
O O7 0.813755 0.743351 0.833999
O O8 0.539954 0.909672 0.056441
O O9 0.259887 0.790902 0.371283
O O10 0.972854 0.790919 0.395971
O O11 0.427210 0.743367 0.925028
O O12 0.461563 0.909690 0.942035
O O13 0.000000 0.000000 0.500000
O O14 0.500000 0.000000 0.000000
O O15 0.424822 0.750009 0.825175
#
# Coordination Sequence:
#
# PCOD9242380 Si02
#       7
#     4   4   4   4   4   4   4
#     4  11  20  32  55  82 114 145 184 219 277 351
#     4  11  20  32  55  82 114 145 184 219 277 351
#     4  11  21  36  52  71 115 147 185 229 276 313
#     4  11  21  36  52  71 115 147 185 229 276 313
#     4  12  26  38  56  78 106 152 208 234 262 316
#     4  10  20  32  52  78 106 147 182 215 278 349
#     4  10  20  32  52  78 106 147 182 215 278 349
#
# _framework density 19.701388000000001
#
# number of rings (size 3 to 8) (size 9 to 14) (size 15 to 20)
#    0.000    1.143    1.429    9.429    2.000    0.000 
#    0.000    0.000    0.000    0.000    0.000    0.000 
#    0.000   80.000    0.000    0.000    0.000    0.000 
#
# Total GULP energy -156140.860547 kJ/mol
# GULP energy per Si atom -5576.459305 kJ/mol
# Density = 1.965655 g / cm^3
# Si number density = 19.701388 Si / 1000 Ang^3
#
#
#
# Elastic Constant Matrix: (Units=GPa)
#
#
# Indices 1 2 3 4 5 6 
#
# 1 50.6488 18.7914 28.5260 0.0000 16.4560 0.0000
# 2 18.7914 63.5982 29.8752 0.0000 8.0364 0.0000
# 3 28.5260 29.8752 114.5661 0.0000 29.9009 0.0000
# 4 0.0000 0.0000 0.0000 44.7318 0.0000 16.5311
# 5 16.4560 8.0364 29.9009 0.0000 32.1609 0.0000
# 6 0.0000 0.0000 0.0000 16.5311 0.0000 21.9415
#
#
#
# Elastic Compliance Matrix: (Units=1/GPa)
#
#
# Indices 1 2 3 4 5 6 
#
# 1 0.026358 -0.005320 -0.002644 0.000000 -0.009699 0.000000
# 2 -0.005320 0.018993 -0.004093 0.000000 0.001782 0.000000
# 3 -0.002644 -0.004093 0.012985 0.000000 -0.009697 0.000000
# 4 0.000000 0.000000 0.000000 0.030982 0.000000 -0.023342
# 5 -0.009699 0.001782 -0.009697 0.000000 0.044627 0.000000
# 6 0.000000 0.000000 0.000000 -0.023342 0.000000 0.063162
#
#
# Mechanical properties :
#
#
# Convention : Reuss Voigt Hill
#
# Bulk Modulus (GPa) = 29.22162 42.57758 35.89960
# Shear Modulus (GPa) = 21.49334 29.87487 25.68411
#
# Velocity S-wave (km/s) = 3.30654 3.89830 3.61455
# Velocity P-wave (km/s) = 5.42606 6.47462 5.97339
#
# Compressibility (1/GPa) = 0.03422124
#
# Stress axis : x y z
#
# Youngs Moduli (GPa) = 37.93880 52.65000 77.01098
#
# Poissons Ratio (x) = 0.28012 0.20363
# Poissons Ratio (y) = 0.20185 0.31522
# Poissons Ratio (z) = 0.10032 0.21551
#
# Static dielectric constant tensor:
#      x y z
#    x 1.653390 0.000000 0.026700 
#    y 0.000000 1.822240 0.000000 
#    z 0.026700 0.000000 1.690190 
# 
# From -- ./inp_files/78176.got.cif
#   From: 2010.05.17/outbox.cif.g08.bks.cpg/sg14_40_cif.got.tgz:78176.got - 2010.06.03 17:49:19.
