data_PCOD9242280
_publ_section_title
;
Structure prediction by ZEFSAII (Michael W. Deem and Ramdas Pophale) SiO2 
 PCOD9242280
Probable space group: P 21/C
;
_chemical_formula_sum "Si O2"
_cell_formula_units_Z 28
_cell_length_a 7.755488
_cell_length_b 8.002730
_cell_length_c 24.374529
_cell_angle_alpha 90.000000
_cell_angle_beta 136.812006
_cell_angle_gamma 90.000000
_cell_volume 1035.356552
_symmetry_space_group_name_H-M "P 21/C"
_symmetry_group_IT_number 14
_symmetry_cell_setting 'monoclinic'
loop_
_space_group_symop_operation_xyz
x,y,z
-x,1/2+y,1/2-z
-x,-y,-z
x,1/2-y,1/2+z
loop_
_atom_site_type_symbol
_atom_site_label
_atom_site_fract_x
_atom_site_fract_y
_atom_site_fract_z
Si Si1 0.583475 0.461106 0.408778
Si Si2 0.099119 0.265056 0.288687
Si Si3 0.079935 0.735707 0.935669
Si Si4 0.262161 0.952274 0.373661
Si Si5 0.793361 0.256226 0.351587
Si Si6 0.304548 0.073958 0.230768
Si Si7 0.778515 0.835517 0.468473
O O1 0.290916 0.414468 0.348047
O O2 0.744911 0.372831 0.494194
O O3 0.672458 0.374114 0.372560
O O4 0.644495 0.656071 0.424650
O O5 0.234659 0.153691 0.272474
O O6 0.863022 0.334684 0.201378
O O7 0.104800 0.124357 0.336813
O O8 0.233272 0.636936 0.925262
O O9 0.851471 0.820684 0.849730
O O10 0.951589 0.634244 0.955442
O O11 0.555799 0.966685 0.426895
O O12 0.602473 0.105166 0.294176
O O13 0.784343 0.384481 0.298615
O O14 0.051539 0.201365 0.439188
#
# Coordination Sequence:
#
# PCOD9242280 Si02
#       7
#     4   4   4   4   4   4   4
#     4  10  19  41  71  94 135 179 225 289 341 412
#     4  10  24  43  64  98 144 182 227 291 353 405
#     4  10  21  42  68  97 134 176 227 280 350 404
#     4  11  25  45  65  99 139 177 234 289 339 425
#     4  10  20  38  62  99 132 177 223 282 344 410
#     4  10  20  38  64  96 137 171 232 278 339 419
#     4  11  21  42  72  98 131 182 231 283 347 414
#
# _framework density 27.043823
#
# number of rings (size 3 to 8) (size 9 to 14) (size 15 to 20)
#    0.000    1.714    2.857    1.714    2.000    1.143 
#    5.143    2.143    0.000    0.000    0.000    0.000 
#    0.000    0.000    0.000    0.000    0.000    0.000 
#
# Total GULP energy -157183.057583 kJ/mol
# GULP energy per Si atom -5613.680628 kJ/mol
# Density = 2.698227 g / cm^3
# Si number density = 27.043823 Si / 1000 Ang^3
#
#
#
# Elastic Constant Matrix: (Units=GPa)
#
#
# Indices 1 2 3 4 5 6 
#
# 1 87.4772 3.8738 45.3758 0.0000 -1.7984 0.0000
# 2 3.8738 94.4228 34.0082 0.0000 3.8600 0.0000
# 3 45.3758 34.0082 153.6228 0.0000 14.2336 0.0000
# 4 0.0000 0.0000 0.0000 65.0926 0.0000 -1.1933
# 5 -1.7984 3.8600 14.2336 0.0000 61.1295 0.0000
# 6 0.0000 0.0000 0.0000 -1.1933 0.0000 35.5593
#
#
#
# Elastic Compliance Matrix: (Units=1/GPa)
#
#
# Indices 1 2 3 4 5 6 
#
# 1 0.013690 0.000961 -0.004383 0.000000 0.001363 0.000000
# 2 0.000961 0.011577 -0.002843 0.000000 -0.000041 0.000000
# 3 -0.004383 -0.002843 0.008615 0.000000 -0.001955 0.000000
# 4 0.000000 0.000000 0.000000 0.015372 0.000000 0.000516
# 5 0.001363 -0.000041 -0.001955 0.000000 0.016857 0.000000
# 6 0.000000 0.000000 0.000000 0.000516 0.000000 0.028139
#
#
# Mechanical properties :
#
#
# Convention : Reuss Voigt Hill
#
# Bulk Modulus (GPa) = 46.83256 55.78205 51.30730
# Shear Modulus (GPa) = 43.89945 49.17394 46.53670
#
# Velocity S-wave (km/s) = 4.03335 4.26879 4.15274
# Velocity P-wave (km/s) = 6.24864 6.70582 6.48126
#
# Compressibility (1/GPa) = 0.02135267
#
# Stress axis : x y z
#
# Youngs Moduli (GPa) = 73.04372 86.37933 116.08304
#
# Poissons Ratio (x) = -0.08303 0.50877
# Poissons Ratio (y) = -0.07021 0.33002
# Poissons Ratio (z) = 0.32014 0.24557
#
# Static dielectric constant tensor:
#      x y z
#    x 2.200980 0.000000 -0.040690 
#    y 0.000000 2.132030 0.000000 
#    z -0.040690 0.000000 2.006320 
# 
# From -- ./inp_files/76392.got.cif
#   From: 2010.05.17/outbox.cif.g08.bks.cpg/sg14_39_cif.got.tgz:76392.got - 2010.06.03 17:49:19.
