data_PCOD9242501
_publ_section_title
;
Structure prediction by ZEFSAII (Michael W. Deem and Ramdas Pophale) SiO2 
 PCOD9242501
Probable space group: P 21/C
;
_chemical_formula_sum "Si O2"
_cell_formula_units_Z 24
_cell_length_a 19.304678
_cell_length_b 9.688252
_cell_length_c 13.266382
_cell_angle_alpha 90.000000
_cell_angle_beta 160.041221
_cell_angle_gamma 90.000000
_cell_volume 846.940227
_symmetry_space_group_name_H-M "P 21/C"
_symmetry_group_IT_number 14
_symmetry_cell_setting 'monoclinic'
loop_
_space_group_symop_operation_xyz
x,y,z
-x,1/2+y,1/2-z
-x,-y,-z
x,1/2-y,1/2+z
loop_
_atom_site_type_symbol
_atom_site_label
_atom_site_fract_x
_atom_site_fract_y
_atom_site_fract_z
Si Si1 0.299726 0.144921 0.818194
Si Si2 0.293997 0.547286 0.471164
Si Si3 0.204211 0.347443 0.526214
Si Si4 0.246989 0.103586 0.393010
Si Si5 0.249657 0.713108 0.068682
Si Si6 0.192006 0.908900 0.151098
O O1 0.212055 0.006937 0.750911
O O2 0.542530 0.135260 0.168948
O O3 0.261831 0.198990 0.653247
O O4 0.219107 0.273360 0.774331
O O5 0.286087 0.409494 0.532722
O O6 0.206762 0.667820 0.425029
O O7 0.519343 0.605749 0.758598
O O8 0.276674 0.462231 0.704884
O O9 0.960754 0.362542 0.201187
O O10 0.048683 0.116864 0.190075
O O11 0.221740 0.952459 0.306262
O O12 0.296965 0.782637 0.241838
#
# Coordination Sequence:
#
# PCOD9242501 Si02
#       6
#     4   4   4   4   4   4
#     4  10  20  34  53  77 106 140 177 218 264 313
#     4  10  20  34  54  78 108 141 177 218 263 312
#     4  10  20  34  53  77 106 140 177 218 264 313
#     4   9  17  31  53  78 102 133 176 222 266 313
#     4  10  20  34  54  78 108 141 177 218 263 312
#     4   9  17  31  53  78 102 133 176 222 266 313
#
# _framework density 28.337299999999999
#
# number of rings (size 3 to 8) (size 9 to 14) (size 15 to 20)
#    0.000    2.333    0.000    3.000    0.000    4.667 
#    0.000    1.667    0.000   21.000    0.000    0.000 
#    0.000    0.000    0.000    0.000    0.000    0.000 
#
# Total GULP energy -134080.005861 kJ/mol
# GULP energy per Si atom -5586.666911 kJ/mol
# Density = 2.827280 g / cm^3
# Si number density = 28.337300 Si / 1000 Ang^3
#
#
#
# Elastic Constant Matrix: (Units=GPa)
#
#
# Indices 1 2 3 4 5 6 
#
# 1 107.1532 46.6165 32.5307 0.0000 18.1809 0.0000
# 2 46.6165 59.2336 14.0119 0.0000 -0.0576 0.0000
# 3 32.5307 14.0119 109.3551 0.0000 30.7123 0.0000
# 4 0.0000 0.0000 0.0000 32.0168 0.0000 -0.5214
# 5 18.1809 -0.0576 30.7123 0.0000 47.4464 0.0000
# 6 0.0000 0.0000 0.0000 -0.5214 0.0000 60.9652
#
#
#
# Elastic Compliance Matrix: (Units=1/GPa)
#
#
# Indices 1 2 3 4 5 6 
#
# 1 0.016033 -0.012195 -0.001805 0.000000 -0.004990 0.000000
# 2 -0.012195 0.026812 -0.001380 0.000000 0.005599 0.000000
# 3 -0.001805 -0.001380 0.011812 0.000000 -0.006956 0.000000
# 4 0.000000 0.000000 0.000000 0.031238 0.000000 0.000267
# 5 -0.004990 0.005599 -0.006956 0.000000 0.027498 0.000000
# 6 0.000000 0.000000 0.000000 0.000267 0.000000 0.016405
#
#
# Mechanical properties :
#
#
# Convention : Reuss Voigt Hill
#
# Bulk Modulus (GPa) = 41.85009 51.34002 46.59505
# Shear Modulus (GPa) = 29.66932 40.25785 34.96359
#
# Velocity S-wave (km/s) = 3.23926 3.77326 3.51641
# Velocity P-wave (km/s) = 5.36572 6.09427 5.74157
#
# Compressibility (1/GPa) = 0.02389481
#
# Stress axis : x y z
#
# Youngs Moduli (GPa) = 62.37239 37.29674 84.65997
#
# Poissons Ratio (x) = 0.45485 0.15284
# Poissons Ratio (y) = 0.76066 0.11684
# Poissons Ratio (z) = 0.11261 0.05147
#
# Static dielectric constant tensor:
#      x y z
#    x 2.190430 0.000000 -0.089090 
#    y 0.000000 2.226730 0.000000 
#    z -0.089090 0.000000 2.173310 
# 
# From -- ./inp_files/39383.got.cif
#   From: 2010.05.17/outbox.cif.g08.bks.cpg/sg14_20_cif.got.tgz:39383.got - 2010.06.03 17:49:19.
