data_PCOD9242905
_publ_section_title
;
Structure prediction by ZEFSAII (Michael W. Deem and Ramdas Pophale) SiO2 
 PCOD9242905
Probable space group: P 21/C
;
_chemical_formula_sum "Si O2"
_cell_formula_units_Z 28
_cell_length_a 17.302614
_cell_length_b 7.310936
_cell_length_c 22.054352
_cell_angle_alpha 90.000000
_cell_angle_beta 148.152851
_cell_angle_gamma 90.000000
_cell_volume 1472.072025
_symmetry_space_group_name_H-M "P 21/C"
_symmetry_group_IT_number 14
_symmetry_cell_setting 'monoclinic'
loop_
_space_group_symop_operation_xyz
x,y,z
-x,1/2+y,1/2-z
-x,-y,-z
x,1/2-y,1/2+z
loop_
_atom_site_type_symbol
_atom_site_label
_atom_site_fract_x
_atom_site_fract_y
_atom_site_fract_z
Si Si1 0.649290 0.812018 0.358925
Si Si2 0.022530 0.867502 0.900035
Si Si3 0.863886 0.685625 0.604591
Si Si4 0.315315 0.729894 0.156480
Si Si5 0.089174 0.004746 0.743530
Si Si6 0.866216 0.759978 0.908754
Si Si7 0.840286 0.140658 0.332430
O O1 0.726953 0.740703 0.471537
O O2 0.475750 0.799252 0.247468
O O3 0.722061 0.700303 0.351456
O O4 0.692184 0.021153 0.373173
O O5 0.977827 0.684106 0.834026
O O6 0.913799 0.888450 0.885084
O O7 0.037235 0.039888 0.866441
O O8 0.181691 0.831294 0.034997
O O9 0.825865 0.583711 0.641917
O O10 0.960257 0.867907 0.678792
O O11 0.281074 0.733152 0.205749
O O12 0.176407 0.889944 0.750296
O O13 0.847319 0.564520 0.863925
O O14 0.001362 0.727053 0.045150
#
# Coordination Sequence:
#
# PCOD9242905 Si02
#       7
#     4   4   4   4   4   4   4
#     4  11  20  35  54  86 115 148 184 224 285 333
#     4  10  20  36  58  86 111 142 181 234 286 330
#     4  12  22  34  58  84 112 148 188 232 275 325
#     4  10  20  36  57  83 120 146 177 232 285 337
#     4  11  20  37  55  82 113 146 191 231 271 326
#     4   8  15  31  56  79 110 138 179 234 281 327
#     4   8  15  33  55  76 110 149 176 227 284 322
#
# _framework density 19.020807999999999
#
# number of rings (size 3 to 8) (size 9 to 14) (size 15 to 20)
#    0.000    2.000    4.286    2.571    0.000    0.571 
#    2.571    0.714    0.000    0.000    0.000    6.000 
#    0.000    0.000    0.000    0.000    0.000    0.000 
#
# Total GULP energy -156201.497344 kJ/mol
# GULP energy per Si atom -5578.624905 kJ/mol
# Density = 1.897752 g / cm^3
# Si number density = 19.020808 Si / 1000 Ang^3
#
#
#
# Elastic Constant Matrix: (Units=GPa)
#
#
# Indices 1 2 3 4 5 6 
#
# 1 118.0252 0.8540 35.2976 0.0000 -3.9302 0.0000
# 2 0.8540 56.5752 -6.4395 0.0000 -4.6537 0.0000
# 3 35.2976 -6.4395 35.3517 0.0000 -4.6747 0.0000
# 4 0.0000 0.0000 0.0000 14.9770 0.0000 -6.4378
# 5 -3.9302 -4.6537 -4.6747 0.0000 37.0646 0.0000
# 6 0.0000 0.0000 0.0000 -6.4378 0.0000 25.8162
#
#
#
# Elastic Compliance Matrix: (Units=1/GPa)
#
#
# Indices 1 2 3 4 5 6 
#
# 1 0.012230 -0.001657 -0.012579 0.000000 -0.000498 0.000000
# 2 -0.001657 0.018549 0.005409 0.000000 0.002835 0.000000
# 3 -0.012579 0.005409 0.042454 0.000000 0.004700 0.000000
# 4 0.000000 0.000000 0.000000 0.074785 0.000000 0.018649
# 5 -0.000498 0.002835 0.004700 0.000000 0.027876 0.000000
# 6 0.000000 0.000000 0.000000 0.018649 0.000000 0.043386
#
#
# Mechanical properties :
#
#
# Convention : Reuss Voigt Hill
#
# Bulk Modulus (GPa) = 17.99284 29.93070 23.96177
# Shear Modulus (GPa) = 19.57236 27.58757 23.57996
#
# Velocity S-wave (km/s) = 3.21128 3.81253 3.52475
# Velocity P-wave (km/s) = 4.81973 5.92878 5.40279
#
# Compressibility (1/GPa) = 0.05557765
#
# Stress axis : x y z
#
# Youngs Moduli (GPa) = 81.76455 53.90996 23.55497
#
# Poissons Ratio (x) = 0.08935 0.29630
# Poissons Ratio (y) = 0.13551 -0.12740
# Poissons Ratio (z) = 1.02854 -0.29158
#
# Static dielectric constant tensor:
#      x y z
#    x 1.714380 0.000000 -0.027260 
#    y 0.000000 1.726630 0.000000 
#    z -0.027260 0.000000 1.610100 
# 
# From -- ./inp_files/69103.got.cif
#   From: 2010.05.17/outbox.cif.g08.bks.cpg/sg14_35_cif.got.tgz:69103.got - 2010.06.03 17:49:19.
