data_PCOD9242345
_publ_section_title
;
Structure prediction by ZEFSAII (Michael W. Deem and Ramdas Pophale) SiO2 
 PCOD9242345
Probable space group: P 21/C
;
_chemical_formula_sum "Si O2"
_cell_formula_units_Z 28
_cell_length_a 14.219365
_cell_length_b 12.216770
_cell_length_c 15.342269
_cell_angle_alpha 90.000000
_cell_angle_beta 153.568685
_cell_angle_gamma 90.000000
_cell_volume 1186.336389
_symmetry_space_group_name_H-M "P 21/C"
_symmetry_group_IT_number 14
_symmetry_cell_setting 'monoclinic'
loop_
_space_group_symop_operation_xyz
x,y,z
-x,1/2+y,1/2-z
-x,-y,-z
x,1/2-y,1/2+z
loop_
_atom_site_type_symbol
_atom_site_label
_atom_site_fract_x
_atom_site_fract_y
_atom_site_fract_z
Si Si1 0.459126 0.532651 0.150542
Si Si2 0.482051 0.590225 0.619091
Si Si3 0.929006 0.617422 0.527700
Si Si4 0.115291 0.076255 0.276406
Si Si5 0.868044 0.271904 0.134714
Si Si6 0.114301 0.996618 0.734834
Si Si7 0.054030 0.333559 0.048543
O O1 0.481808 0.461574 0.256454
O O2 0.684240 0.585858 0.316425
O O3 0.361112 0.449342 0.997497
O O4 0.294545 0.631915 0.026397
O O5 0.305716 0.684130 0.475819
O O6 0.361146 0.497009 0.463451
O O7 0.700425 0.640038 0.768394
O O8 0.989636 0.706316 0.504962
O O9 0.046746 0.501898 0.640254
O O10 0.985131 0.682385 0.664710
O O11 0.006052 0.030581 0.275504
O O12 0.022545 0.198332 0.201551
O O13 0.024819 0.105527 0.615769
O O14 0.075878 0.903732 0.630468
#
# Coordination Sequence:
#
# PCOD9242345 Si02
#       7
#     4   4   4   4   4   4   4
#     4  11  20  30  55  74 105 149 178 217 265 317
#     4  11  18  33  48  76 112 140 173 211 267 324
#     4  11  19  32  52  75 105 141 183 213 262 318
#     4  10  20  35  49  76 113 138 176 220 262 312
#     4  10  20  31  49  77 108 136 177 225 258 313
#     4  10  20  33  49  75 116 142 165 219 275 324
#     4  11  20  32  52  78 110 144 172 213 274 327
#
# _framework density 23.602074999999999
#
# number of rings (size 3 to 8) (size 9 to 14) (size 15 to 20)
#    0.000    1.429    8.571    0.429    0.000    0.000 
#    0.000    0.000    0.000    0.000    0.000    5.000 
#    0.000    0.143    0.000    0.000    0.000    0.000 
#
# Total GULP energy -156256.346124 kJ/mol
# GULP energy per Si atom -5580.583790 kJ/mol
# Density = 2.354836 g / cm^3
# Si number density = 23.602075 Si / 1000 Ang^3
#
#
#
# Elastic Constant Matrix: (Units=GPa)
#
#
# Indices 1 2 3 4 5 6 
#
# 1 29.2959 11.3992 6.6179 0.0000 -9.8345 0.0000
# 2 11.3992 118.5471 26.6926 0.0000 -16.5208 0.0000
# 3 6.6179 26.6926 151.3204 0.0000 -3.9361 0.0000
# 4 0.0000 0.0000 0.0000 48.8569 0.0000 0.1214
# 5 -9.8345 -16.5208 -3.9361 0.0000 20.3579 0.0000
# 6 0.0000 0.0000 0.0000 0.1214 0.0000 24.2253
#
#
#
# Elastic Compliance Matrix: (Units=1/GPa)
#
#
# Indices 1 2 3 4 5 6 
#
# 1 0.041107 -0.001087 -0.001118 0.000000 0.018760 0.000000
# 2 -0.001087 0.009884 -0.001509 0.000000 0.007204 0.000000
# 3 -0.001118 -0.001509 0.006912 0.000000 -0.000428 0.000000
# 4 0.000000 0.000000 0.000000 0.020468 0.000000 -0.000103
# 5 0.018760 0.007204 -0.000428 0.000000 0.063947 0.000000
# 6 0.000000 0.000000 0.000000 -0.000103 0.000000 0.041280
#
#
# Mechanical properties :
#
#
# Convention : Reuss Voigt Hill
#
# Bulk Modulus (GPa) = 19.81105 43.17587 31.49346
# Shear Modulus (GPa) = 24.05575 35.65161 29.85368
#
# Velocity S-wave (km/s) = 3.19599 3.89077 3.56037
# Velocity P-wave (km/s) = 4.69373 6.20621 5.50219
#
# Compressibility (1/GPa) = 0.05047689
#
# Stress axis : x y z
#
# Youngs Moduli (GPa) = 24.32646 101.17787 144.66816
#
# Poissons Ratio (x) = 0.10994 0.16176
# Poissons Ratio (y) = 0.02643 0.21824
# Poissons Ratio (z) = 0.02720 0.15263
#
# Static dielectric constant tensor:
#      x y z
#    x 1.942030 0.000000 -0.021830 
#    y 0.000000 1.997780 0.000000 
#    z -0.021830 0.000000 1.892500 
# 
# From -- ./inp_files/61389.got.cif
#   From: 2010.05.17/outbox.cif.g08.bks.cpg/sg14_31_cif.got.tgz:61389.got - 2010.06.03 17:49:19.
