data_PCOD9242971
_publ_section_title
;
Structure prediction by ZEFSAII (Michael W. Deem and Ramdas Pophale) SiO2 
 PCOD9242971
Probable space group: P 21/C
;
_chemical_formula_sum "Si O2"
_cell_formula_units_Z 32
_cell_length_a 12.491399
_cell_length_b 13.656427
_cell_length_c 9.041522
_cell_angle_alpha 90.000000
_cell_angle_beta 98.968233
_cell_angle_gamma 90.000000
_cell_volume 1523.518414
_symmetry_space_group_name_H-M "P 21/C"
_symmetry_group_IT_number 14
_symmetry_cell_setting 'monoclinic'
loop_
_space_group_symop_operation_xyz
x,y,z
-x,1/2+y,1/2-z
-x,-y,-z
x,1/2-y,1/2+z
loop_
_atom_site_type_symbol
_atom_site_label
_atom_site_fract_x
_atom_site_fract_y
_atom_site_fract_z
Si Si1 0.787207 0.458032 0.276904
Si Si2 0.303121 0.155266 0.157883
Si Si3 0.949889 0.305011 0.418069
Si Si4 0.759423 0.154204 0.313901
Si Si5 0.604975 0.811166 0.517294
Si Si6 0.355479 0.705344 0.905814
Si Si7 0.907417 0.720506 0.818951
Si Si8 0.203648 0.048535 0.540344
O O1 0.731012 0.543158 0.357831
O O2 0.883685 0.404339 0.382054
O O3 0.701113 0.375186 0.211384
O O4 0.825742 0.504286 0.127409
O O5 0.341051 0.208163 0.017903
O O6 0.391457 0.169532 0.306819
O O7 0.198722 0.212975 0.198805
O O8 0.868933 0.217662 0.352950
O O9 0.993873 0.280358 0.588173
O O10 0.054821 0.307849 0.335390
O O11 0.686842 0.184023 0.439503
O O12 0.783193 0.040128 0.341932
O O13 0.692411 0.190745 0.157896
O O14 0.483624 0.808051 0.431575
O O15 0.682480 0.894118 0.461577
O O16 0.881379 0.626619 0.915024
#
# Coordination Sequence:
#
# PCOD9242971 Si02
#       8
#     4   4   4   4   4   4   4   4
#     4   9  20  36  55  83 113 142 185 232 273 330
#     4  10  21  38  55  80 114 143 185 233 273 332
#     4  11  22  37  58  82 111 148 186 229 279 329
#     4  10  21  38  57  83 115 143 185 235 274 329
#     4  10  20  36  59  83 110 148 187 227 278 330
#     4  10  20  36  59  84 111 146 184 227 281 331
#     4  11  22  38  59  82 111 149 189 228 277 330
#     4   9  20  37  58  83 113 149 191 228 269 338
#
# _framework density 21.004011999999999
#
# number of rings (size 3 to 8) (size 9 to 14) (size 15 to 20)
#    0.000    2.000    0.000    5.250    0.000    9.000 
#    0.000   10.000    0.000    7.500    0.000    0.000 
#    0.000    0.000    0.000    0.000    0.000    0.000 
#
# Total GULP energy -178832.913734 kJ/mol
# GULP energy per Si atom -5588.528554 kJ/mol
# Density = 2.095621 g / cm^3
# Si number density = 21.004012 Si / 1000 Ang^3
#
#
#
# Elastic Constant Matrix: (Units=GPa)
#
#
# Indices 1 2 3 4 5 6 
#
# 1 105.7258 -12.2302 2.6274 0.0000 8.9966 0.0000
# 2 -12.2302 99.4200 6.4714 0.0000 -5.9492 0.0000
# 3 2.6274 6.4714 20.0328 0.0000 6.7708 0.0000
# 4 0.0000 0.0000 0.0000 127.4024 0.0000 -68.1555
# 5 8.9966 -5.9492 6.7708 0.0000 27.8053 0.0000
# 6 0.0000 0.0000 0.0000 -68.1555 0.0000 59.1755
#
#
#
# Elastic Compliance Matrix: (Units=1/GPa)
#
#
# Indices 1 2 3 4 5 6 
#
# 1 0.009838 0.001090 -0.000703 0.000000 -0.002779 0.000000
# 2 0.001090 0.010676 -0.004625 0.000000 0.003058 0.000000
# 3 -0.000703 -0.004625 0.056404 0.000000 -0.014497 0.000000
# 4 0.000000 0.000000 0.000000 0.020448 0.000000 0.023551
# 5 -0.002779 0.003058 -0.014497 0.000000 0.041048 0.000000
# 6 0.000000 0.000000 0.000000 0.023551 0.000000 0.044024
#
#
# Mechanical properties :
#
#
# Convention : Reuss Voigt Hill
#
# Bulk Modulus (GPa) = 14.61099 24.32398 19.46748
# Shear Modulus (GPa) = 23.39392 58.09731 40.74561
#
# Velocity S-wave (km/s) = 3.34096 5.26499 4.40920
# Velocity P-wave (km/s) = 4.67483 6.96893 5.93380
#
# Compressibility (1/GPa) = 0.06844163
#
# Stress axis : x y z
#
# Youngs Moduli (GPa) = 101.64228 93.66402 17.72912
#
# Poissons Ratio (x) = -0.10207 0.01247
# Poissons Ratio (y) = -0.11077 0.08200
# Poissons Ratio (z) = 0.07147 0.43324
#
# Static dielectric constant tensor:
#      x y z
#    x 1.733630 0.000000 0.003660 
#    y 0.000000 1.756480 0.000000 
#    z 0.003660 0.000000 1.754470 
# 
# From -- ./inp_files/13387.got.cif
#   From: 2010.05.17/outbox.cif.g08.bks.cpg/sg14_7_cif.got.tgz:13387.got - 2010.06.03 17:49:19.
