data_PCOD9242509
_publ_section_title
;
Structure prediction by ZEFSAII (Michael W. Deem and Ramdas Pophale) SiO2 
 PCOD9242509
Probable space group: P 21/C
;
_chemical_formula_sum "Si O2"
_cell_formula_units_Z 32
_cell_length_a 9.867210
_cell_length_b 24.335544
_cell_length_c 5.490159
_cell_angle_alpha 90.000000
_cell_angle_beta 86.381531
_cell_angle_gamma 90.000000
_cell_volume 1315.690366
_symmetry_space_group_name_H-M "P 21/C"
_symmetry_group_IT_number 14
_symmetry_cell_setting 'monoclinic'
loop_
_space_group_symop_operation_xyz
x,y,z
-x,1/2+y,1/2-z
-x,-y,-z
x,1/2-y,1/2+z
loop_
_atom_site_type_symbol
_atom_site_label
_atom_site_fract_x
_atom_site_fract_y
_atom_site_fract_z
Si Si1 0.717439 0.482320 0.834962
Si Si2 0.824670 0.871166 0.958988
Si Si3 0.176662 0.871392 0.541205
Si Si4 0.717613 0.981832 0.834865
Si Si5 0.343584 0.715082 0.756537
Si Si6 0.342148 0.215108 0.755267
Si Si7 0.998904 0.216206 0.249963
Si Si8 0.000302 0.948743 0.250063
O O1 0.651449 0.499920 0.093913
O O2 0.732734 0.417078 0.841947
O O3 0.651544 0.500726 0.593969
O O4 0.866948 0.514436 0.825013
O O5 0.733608 0.916620 0.841650
O O6 0.752639 0.837693 0.185176
O O7 0.949727 0.907296 0.047021
O O8 0.874810 0.824607 0.773125
O O9 0.248937 0.837788 0.315629
O O10 0.126885 0.824873 0.727629
O O11 0.051272 0.907282 0.452746
O O12 0.866702 0.014238 0.824838
O O13 0.324167 0.745541 0.498903
O O14 0.500725 0.697672 0.750595
O O15 0.322801 0.245497 0.497523
O O16 0.998761 0.249910 0.500223
#
# Coordination Sequence:
#
# PCOD9242509 Si02
#       8
#     4   4   4   4   4   4   4   4
#     4  10  20  34  53  80 113 149 188 225 275 346
#     4  11  21  37  60  84 118 157 193 234 295 352
#     4  11  21  37  60  84 118 157 193 234 295 352
#     4  10  20  34  53  80 113 149 188 225 275 346
#     4  10  23  43  63  84 113 154 204 248 286 338
#     4  10  23  43  63  84 113 154 204 248 286 338
#     4  12  24  34  48  80 116 142 178 232 288 340
#     4  10  20  36  56  86 120 154 188 230 288 356
#
# _framework density 24.321829999999999
#
# number of rings (size 3 to 8) (size 9 to 14) (size 15 to 20)
#    0.000    1.500    0.000    7.500    0.000    8.000 
#    0.000    0.000    0.000    6.000    0.000    0.000 
#    0.000    0.000    0.000    0.000    0.000    0.000 
#
# Total GULP energy -178887.292460 kJ/mol
# GULP energy per Si atom -5590.227889 kJ/mol
# Density = 2.426647 g / cm^3
# Si number density = 24.321830 Si / 1000 Ang^3
#
#
#
# Elastic Constant Matrix: (Units=GPa)
#
#
# Indices 1 2 3 4 5 6 
#
# 1 54.0018 18.2167 26.9254 0.0000 -1.8578 0.0000
# 2 18.2167 149.0209 90.9129 0.0000 -3.0224 0.0000
# 3 26.9254 90.9129 204.6683 0.0000 11.1555 0.0000
# 4 0.0000 0.0000 0.0000 41.9803 0.0000 1.6090
# 5 -1.8578 -3.0224 11.1555 0.0000 31.9451 0.0000
# 6 0.0000 0.0000 0.0000 1.6090 0.0000 5.7062
#
#
#
# Elastic Compliance Matrix: (Units=1/GPa)
#
#
# Indices 1 2 3 4 5 6 
#
# 1 0.020067 -0.001018 -0.002290 0.000000 0.001870 0.000000
# 2 -0.001018 0.009432 -0.004181 0.000000 0.002293 0.000000
# 3 -0.002290 -0.004181 0.007210 0.000000 -0.003047 0.000000
# 4 0.000000 0.000000 0.000000 0.024081 0.000000 -0.006790
# 5 0.001870 0.002293 -0.003047 0.000000 0.032693 0.000000
# 6 0.000000 0.000000 0.000000 -0.006790 0.000000 0.177162
#
#
# Mechanical properties :
#
#
# Convention : Reuss Voigt Hill
#
# Bulk Modulus (GPa) = 46.01424 75.53344 60.77384
# Shear Modulus (GPa) = 17.07261 34.03540 25.55400
#
# Velocity S-wave (km/s) = 2.65230 3.74488 3.24491
# Velocity P-wave (km/s) = 5.32349 7.05848 6.25147
#
# Compressibility (1/GPa) = 0.02173240
#
# Stress axis : x y z
#
# Youngs Moduli (GPa) = 49.83214 106.02262 138.69148
#
# Poissons Ratio (x) = 0.10797 0.31754
# Poissons Ratio (y) = 0.05075 0.57982
# Poissons Ratio (z) = 0.11409 0.44324
#
# Static dielectric constant tensor:
#      x y z
#    x 2.009040 0.000000 0.031190 
#    y 0.000000 1.894670 0.000000 
#    z 0.031190 0.000000 2.114170 
# 
# From -- ./inp_files/3210.got.cif
#   From: 2010.05.17/outbox.cif.g08.bks.cpg/sg14_2_cif.got.tgz:3210.got - 2010.06.03 17:49:19.
