data_PCOD9242696
_publ_section_title
;
Structure prediction by ZEFSAII (Michael W. Deem and Ramdas Pophale) SiO2 
 PCOD9242696
Probable space group: P 21/C
;
_chemical_formula_sum "Si O2"
_cell_formula_units_Z 24
_cell_length_a 15.622112
_cell_length_b 7.166605
_cell_length_c 20.698787
_cell_angle_alpha 90.000000
_cell_angle_beta 158.049049
_cell_angle_gamma 90.000000
_cell_volume 866.267841
_symmetry_space_group_name_H-M "P 21/C"
_symmetry_group_IT_number 14
_symmetry_cell_setting 'monoclinic'
loop_
_space_group_symop_operation_xyz
x,y,z
-x,1/2+y,1/2-z
-x,-y,-z
x,1/2-y,1/2+z
loop_
_atom_site_type_symbol
_atom_site_label
_atom_site_fract_x
_atom_site_fract_y
_atom_site_fract_z
Si Si1 0.533001 0.061797 0.726145
Si Si2 0.997039 0.632456 0.392255
Si Si3 0.513505 0.770860 0.559392
Si Si4 0.069879 0.057050 0.448060
Si Si5 0.406404 0.649997 0.344210
Si Si6 0.162447 0.851993 0.398995
O O1 0.524454 0.234438 0.670027
O O2 0.334987 0.105404 0.640321
O O3 0.413188 0.886567 0.607677
O O4 0.787056 0.023857 0.928640
O O5 0.049484 0.671734 0.352843
O O6 0.734411 0.597056 0.225768
O O7 0.037652 0.843602 0.448412
O O8 0.529488 0.726359 0.494483
O O9 0.539872 0.571354 0.614283
O O10 0.258180 0.846075 0.394688
O O11 0.866427 0.171431 0.335376
O O12 0.033872 0.023642 0.344576
#
# Coordination Sequence:
#
# PCOD9242696 Si02
#       6
#     4   4   4   4   4   4
#     4   9  19  35  56  81 107 151 178 229 278 324
#     4   8  18  35  54  81 109 143 179 230 271 326
#     4  10  20  35  57  80 109 146 183 230 274 336
#     4   7  19  37  49  80 117 141 181 232 274 324
#     4  10  20  36  57  80 109 149 187 220 280 335
#     4   8  20  37  51  81 118 140 182 235 276 316
#
# _framework density 27.705058000000001
#
# number of rings (size 3 to 8) (size 9 to 14) (size 15 to 20)
#    2.000    1.000    0.000    0.000    0.000    9.333 
#    0.000    1.667    0.000    0.000    0.000    0.000 
#    0.000    0.000    0.000    0.000    0.000    0.000 
#
# Total GULP energy -133792.788445 kJ/mol
# GULP energy per Si atom -5574.699519 kJ/mol
# Density = 2.764200 g / cm^3
# Si number density = 27.705058 Si / 1000 Ang^3
#
#
#
# Elastic Constant Matrix: (Units=GPa)
#
#
# Indices 1 2 3 4 5 6 
#
# 1 81.6714 22.1021 35.9747 0.0000 27.3891 0.0000
# 2 22.1021 93.8858 41.0265 0.0000 10.2061 0.0000
# 3 35.9747 41.0265 92.7784 0.0000 36.3903 0.0000
# 4 0.0000 0.0000 0.0000 53.0505 0.0000 6.3489
# 5 27.3891 10.2061 36.3903 0.0000 46.2648 0.0000
# 6 0.0000 0.0000 0.0000 6.3489 0.0000 26.3430
#
#
#
# Elastic Compliance Matrix: (Units=1/GPa)
#
#
# Indices 1 2 3 4 5 6 
#
# 1 0.016337 -0.001890 -0.002703 0.000000 -0.007129 0.000000
# 2 -0.001890 0.013613 -0.006577 0.000000 0.003289 0.000000
# 3 -0.002703 -0.006577 0.019578 0.000000 -0.012349 0.000000
# 4 0.000000 0.000000 0.000000 0.019410 0.000000 -0.004678
# 5 -0.007129 0.003289 -0.012349 0.000000 0.034822 0.000000
# 6 0.000000 0.000000 0.000000 -0.004678 0.000000 0.039088
#
#
# Mechanical properties :
#
#
# Convention : Reuss Voigt Hill
#
# Bulk Modulus (GPa) = 36.77999 51.83802 44.30900
# Shear Modulus (GPa) = 28.69454 36.41380 32.55417
#
# Velocity S-wave (km/s) = 3.22174 3.62931 3.43158
# Velocity P-wave (km/s) = 5.20998 6.02610 5.63284
#
# Compressibility (1/GPa) = 0.02718870
#
# Stress axis : x y z
#
# Youngs Moduli (GPa) = 61.21141 73.46189 51.07777
#
# Poissons Ratio (x) = 0.13884 0.13805
# Poissons Ratio (y) = 0.11568 0.33592
# Poissons Ratio (z) = 0.16544 0.48313
#
# Static dielectric constant tensor:
#      x y z
#    x 2.447810 0.000000 -0.015640 
#    y 0.000000 2.199580 0.000000 
#    z -0.015640 0.000000 2.144740 
# 
# From -- ./inp_files/74282.got.cif
#   From: 2010.05.17/outbox.cif.g08.bks.cpg/sg14_38_cif.got.tgz:74282.got - 2010.06.03 17:49:19.
