data_PCOD9242219
_publ_section_title
;
Structure prediction by ZEFSAII (Michael W. Deem and Ramdas Pophale) SiO2 
 PCOD9242219
Probable space group: P 21/C
;
_chemical_formula_sum "Si O2"
_cell_formula_units_Z 28
_cell_length_a 6.876209
_cell_length_b 18.030078
_cell_length_c 11.087500
_cell_angle_alpha 90.000000
_cell_angle_beta 56.173380
_cell_angle_gamma 90.000000
_cell_volume 1141.926282
_symmetry_space_group_name_H-M "P 21/C"
_symmetry_group_IT_number 14
_symmetry_cell_setting 'monoclinic'
loop_
_space_group_symop_operation_xyz
x,y,z
-x,1/2+y,1/2-z
-x,-y,-z
x,1/2-y,1/2+z
loop_
_atom_site_type_symbol
_atom_site_label
_atom_site_fract_x
_atom_site_fract_y
_atom_site_fract_z
Si Si1 0.205435 0.739718 0.833070
Si Si2 0.791172 0.640148 0.285804
Si Si3 0.520062 0.879688 0.115381
Si Si4 0.130137 0.635422 0.543253
Si Si5 0.764070 0.809921 0.332349
Si Si6 0.592249 0.463156 0.707808
Si Si7 0.310733 0.626048 0.112219
O O1 0.420414 0.683484 0.738838
O O2 0.263634 0.806934 0.722461
O O3 0.962537 0.701944 0.870231
O O4 0.176164 0.783187 0.969088
O O5 0.742631 0.630794 0.448053
O O6 0.741058 0.727058 0.287564
O O7 0.609078 0.591304 0.274350
O O8 0.049450 0.618011 0.151189
O O9 0.313677 0.879841 0.086251
O O10 0.536868 0.956549 0.178278
O O11 0.174640 0.570687 0.433488
O O12 0.880090 0.638900 0.690795
O O13 0.527169 0.845140 0.461189
O O14 0.618012 0.447634 0.839781
#
# Coordination Sequence:
#
# PCOD9242219 Si02
#       7
#     4   4   4   4   4   4   4
#     4   9  19  37  62  90 122 169 214 266 324 374
#     4  10  20  36  63  92 130 169 213 274 319 381
#     4  10  19  40  66  96 130 169 219 271 323 393
#     4   9  19  36  62  92 124 170 214 263 325 384
#     4  10  20  35  60  91 133 161 214 281 310 382
#     4  10  22  39  69  93 132 175 216 263 334 395
#     4  10  21  39  60  94 129 166 220 268 317 389
#
# _framework density 24.519973
#
# number of rings (size 3 to 8) (size 9 to 14) (size 15 to 20)
#    0.000    2.286    1.429    1.714    4.000    0.571 
#    0.000    4.286    3.143    7.714    0.000   12.000 
#    0.000    0.000    0.000    0.000    0.000    0.000 
#
# Total GULP energy -156694.089926 kJ/mol
# GULP energy per Si atom -5596.217497 kJ/mol
# Density = 2.446416 g / cm^3
# Si number density = 24.519973 Si / 1000 Ang^3
#
#
#
# Elastic Constant Matrix: (Units=GPa)
#
#
# Indices 1 2 3 4 5 6 
#
# 1 96.9937 34.4113 36.7936 0.0000 -26.0240 0.0000
# 2 34.4113 58.7537 -2.1871 0.0000 -10.7514 0.0000
# 3 36.7936 -2.1871 113.6670 0.0000 -38.0040 0.0000
# 4 0.0000 0.0000 0.0000 22.2851 0.0000 2.4821
# 5 -26.0240 -10.7514 -38.0040 0.0000 41.1233 0.0000
# 6 0.0000 0.0000 0.0000 2.4821 0.0000 24.0964
#
#
#
# Elastic Compliance Matrix: (Units=1/GPa)
#
#
# Indices 1 2 3 4 5 6 
#
# 1 0.016056 -0.008782 -0.003960 0.000000 0.004205 0.000000
# 2 -0.008782 0.023297 0.005021 0.000000 0.005173 0.000000
# 3 -0.003960 0.005021 0.014149 0.000000 0.011882 0.000000
# 4 0.000000 0.000000 0.000000 0.045394 0.000000 -0.004676
# 5 0.004205 0.005173 0.011882 0.000000 0.039311 0.000000
# 6 0.000000 0.000000 0.000000 -0.004676 0.000000 0.041982
#
#
# Mechanical properties :
#
#
# Convention : Reuss Voigt Hill
#
# Bulk Modulus (GPa) = 26.27516 45.27222 35.77369
# Shear Modulus (GPa) = 24.00169 30.86071 27.43120
#
# Velocity S-wave (km/s) = 3.13207 3.55152 3.34837
# Velocity P-wave (km/s) = 4.88046 5.94316 5.43784
#
# Compressibility (1/GPa) = 0.03805876
#
# Stress axis : x y z
#
# Youngs Moduli (GPa) = 62.28170 42.92364 70.67682
#
# Poissons Ratio (x) = 0.37695 0.27991
# Poissons Ratio (y) = 0.54695 -0.35484
# Poissons Ratio (z) = 0.24666 -0.21550
#
# Static dielectric constant tensor:
#      x y z
#    x 2.053990 0.000000 0.002640 
#    y 0.000000 1.888010 0.000000 
#    z 0.002640 0.000000 1.989550 
# 
# From -- ./inp_files/41772.got.cif
#   From: 2010.05.17/outbox.cif.g08.bks.cpg/sg14_21_cif.got.tgz:41772.got - 2010.06.03 17:49:19.
