data_PCOD9242477
_publ_section_title
;
Structure prediction by ZEFSAII (Michael W. Deem and Ramdas Pophale) SiO2 
 PCOD9242477
Probable space group: P 21/C
;
_chemical_formula_sum "Si O2"
_cell_formula_units_Z 28
_cell_length_a 7.189296
_cell_length_b 9.036738
_cell_length_c 17.028475
_cell_angle_alpha 90.000000
_cell_angle_beta 102.169252
_cell_angle_gamma 90.000000
_cell_volume 1081.442752
_symmetry_space_group_name_H-M "P 21/C"
_symmetry_group_IT_number 14
_symmetry_cell_setting 'monoclinic'
loop_
_space_group_symop_operation_xyz
x,y,z
-x,1/2+y,1/2-z
-x,-y,-z
x,1/2-y,1/2+z
loop_
_atom_site_type_symbol
_atom_site_label
_atom_site_fract_x
_atom_site_fract_y
_atom_site_fract_z
Si Si1 0.827442 0.681314 0.355041
Si Si2 0.446405 0.270414 0.542620
Si Si3 0.795935 0.567700 0.070260
Si Si4 0.987749 0.763844 0.208622
Si Si5 0.300522 0.466142 0.392320
Si Si6 0.335396 0.635967 0.658637
Si Si7 0.885038 0.231880 0.506054
O O1 0.668685 0.774113 0.388898
O O2 0.927638 0.763781 0.292984
O O3 0.724249 0.530284 0.325027
O O4 0.994001 0.653861 0.432876
O O5 0.401692 0.139501 0.476445
O O6 0.335278 0.396879 0.481720
O O7 0.626752 0.365429 0.590279
O O8 0.871440 0.624840 0.160672
O O9 0.794699 0.394268 0.053535
O O10 0.959587 0.642238 0.031031
O O11 0.900817 0.909324 0.157900
O O12 0.213798 0.762994 0.208933
O O13 0.442461 0.383266 0.341927
O O14 0.253671 0.691662 0.567521
#
# Coordination Sequence:
#
# PCOD9242477 Si02
#       7
#     4   4   4   4   4   4   4
#     4  10  20  33  59  88 126 158 202 256 319 378
#     4   8  16  34  59  83 107 159 201 250 296 348
#     4   8  16  32  56  80 113 152 199 244 298 352
#     4  10  21  36  57  86 127 165 188 256 328 368
#     4   9  18  37  62  83 119 152 210 259 300 361
#     4  10  21  38  60  88 116 159 216 252 298 381
#     4   9  17  32  57  85 112 155 204 252 292 358
#
# _framework density 25.891337
#
# number of rings (size 3 to 8) (size 9 to 14) (size 15 to 20)
#    0.000    2.857    0.000    1.286    2.000    3.429 
#    0.000    7.143    0.000    0.000    0.000    0.000 
#    0.000    0.000    0.000    0.000    0.000    0.000 
#
# Total GULP energy -156205.621410 kJ/mol
# GULP energy per Si atom -5578.772193 kJ/mol
# Density = 2.583241 g / cm^3
# Si number density = 25.891337 Si / 1000 Ang^3
#
#
#
# Elastic Constant Matrix: (Units=GPa)
#
#
# Indices 1 2 3 4 5 6 
#
# 1 98.4762 1.2131 3.3189 0.0000 -9.7664 0.0000
# 2 1.2131 84.0969 4.9801 0.0000 -5.2892 0.0000
# 3 3.3189 4.9801 65.1338 0.0000 -19.1160 0.0000
# 4 0.0000 0.0000 0.0000 19.1995 0.0000 -6.4650
# 5 -9.7664 -5.2892 -19.1160 0.0000 29.8506 0.0000
# 6 0.0000 0.0000 0.0000 -6.4650 0.0000 39.7234
#
#
#
# Elastic Compliance Matrix: (Units=1/GPa)
#
#
# Indices 1 2 3 4 5 6 
#
# 1 0.010514 0.000054 0.000582 0.000000 0.003822 0.000000
# 2 0.000054 0.012032 -0.000359 0.000000 0.001920 0.000000
# 3 0.000582 -0.000359 0.018950 0.000000 0.012262 0.000000
# 4 0.000000 0.000000 0.000000 0.055105 0.000000 0.008968
# 5 0.003822 0.001920 0.012262 0.000000 0.042943 0.000000
# 6 0.000000 0.000000 0.000000 0.008968 0.000000 0.026634
#
#
# Mechanical properties :
#
#
# Convention : Reuss Voigt Hill
#
# Bulk Modulus (GPa) = 23.78189 29.63679 26.70934
# Shear Modulus (GPa) = 27.83353 33.63435 30.73394
#
# Velocity S-wave (km/s) = 3.28230 3.60815 3.44908
# Velocity P-wave (km/s) = 4.85488 5.36934 5.11858
#
# Compressibility (1/GPa) = 0.04204880
#
# Stress axis : x y z
#
# Youngs Moduli (GPa) = 95.11569 83.10983 52.77175
#
# Poissons Ratio (x) = -0.00451 -0.03070
# Poissons Ratio (y) = -0.00516 0.01896
# Poissons Ratio (z) = -0.05534 0.02987
#
# Static dielectric constant tensor:
#      x y z
#    x 2.219370 0.000000 -0.063600 
#    y 0.000000 2.043580 0.000000 
#    z -0.063600 0.000000 2.019170 
# 
# From -- ./inp_files/54914.got.cif
#   From: 2010.05.17/outbox.cif.g08.bks.cpg/sg14_28_cif.got.tgz:54914.got - 2010.06.03 17:49:19.
