data_PCOD9242411
_publ_section_title
;
Structure prediction by ZEFSAII (Michael W. Deem and Ramdas Pophale) SiO2 
 PCOD9242411
Probable space group: P 21/C
;
_chemical_formula_sum "Si O2"
_cell_formula_units_Z 22
_cell_length_a 14.554239
_cell_length_b 9.057280
_cell_length_c 17.407630
_cell_angle_alpha 90.000000
_cell_angle_beta 158.077012
_cell_angle_gamma 90.000000
_cell_volume 856.751255
_symmetry_space_group_name_H-M "P 21/C"
_symmetry_group_IT_number 14
_symmetry_cell_setting 'monoclinic'
loop_
_space_group_symop_operation_xyz
x,y,z
-x,1/2+y,1/2-z
-x,-y,-z
x,1/2-y,1/2+z
loop_
_atom_site_type_symbol
_atom_site_label
_atom_site_fract_x
_atom_site_fract_y
_atom_site_fract_z
Si Si1 0.972276 0.312551 0.909297
Si Si2 0.500000 0.000000 0.000000
Si Si3 0.223396 0.875117 0.011545
Si Si4 0.769543 0.799286 0.741333
Si Si5 0.247579 0.666269 0.897267
Si Si6 0.682515 0.445132 0.891017
O O1 0.706484 0.391084 0.703677
O O2 0.950713 0.202651 0.820081
O O3 0.067589 0.223565 0.056137
O O4 0.171319 0.439712 0.046655
O O5 0.698246 0.862172 0.154746
O O6 0.277636 0.828134 0.964908
O O7 0.936741 0.884397 0.809670
O O8 0.307665 0.726581 0.122385
O O9 0.402565 0.003305 0.175177
O O10 0.511822 0.870072 0.566536
O O11 0.198437 0.561440 0.931326
#
# Coordination Sequence:
#
# PCOD9242411 Si02
#       6
#     4   2   4   4   4   4
#     4  11  20  40  64  97 133 175 235 289 338 410
#     4  10  20  32  64  92 130 160 234 276 328 402
#     4  10  22  42  69  95 139 179 235 279 358 410
#     4  11  21  41  67 102 131 185 227 293 339 421
#     4   9  23  41  61  99 135 169 230 289 345 407
#     4  10  21  45  63 101 134 186 225 287 355 412
#
# _framework density 25.678398000000001
#
# number of rings (size 3 to 8) (size 9 to 14) (size 15 to 20)
#    1.091    0.727    3.636    0.545    0.000    0.727 
#   16.364    2.727    0.000    0.000    0.000    0.000 
#    0.000    0.000    0.000    0.000    0.000    0.000 
#
# Total GULP energy -122558.548924 kJ/mol
# GULP energy per Si atom -5570.843133 kJ/mol
# Density = 2.561995 g / cm^3
# Si number density = 25.678398 Si / 1000 Ang^3
#
#
#
# Elastic Constant Matrix: (Units=GPa)
#
#
# Indices 1 2 3 4 5 6 
#
# 1 67.0850 9.6741 39.7293 0.0000 8.1977 0.0000
# 2 9.6741 56.0993 5.0113 0.0000 -9.1773 0.0000
# 3 39.7293 5.0113 107.9749 0.0000 -4.9240 0.0000
# 4 0.0000 0.0000 0.0000 48.4431 0.0000 -8.2589
# 5 8.1977 -9.1773 -4.9240 0.0000 41.3447 0.0000
# 6 0.0000 0.0000 0.0000 -8.2589 0.0000 14.9986
#
#
#
# Elastic Compliance Matrix: (Units=1/GPa)
#
#
# Indices 1 2 3 4 5 6 
#
# 1 0.020759 -0.003853 -0.007728 0.000000 -0.005892 0.000000
# 2 -0.003853 0.019261 0.000758 0.000000 0.005130 0.000000
# 3 -0.007728 0.000758 0.012214 0.000000 0.003155 0.000000
# 4 0.000000 0.000000 0.000000 0.022781 0.000000 0.012544
# 5 -0.005892 0.005130 0.003155 0.000000 0.026869 0.000000
# 6 0.000000 0.000000 0.000000 0.012544 0.000000 0.073580
#
#
# Mechanical properties :
#
#
# Convention : Reuss Voigt Hill
#
# Bulk Modulus (GPa) = 32.69372 37.77651 35.23512
# Shear Modulus (GPa) = 24.11872 32.74024 28.42948
#
# Velocity S-wave (km/s) = 3.06806 3.57460 3.33098
# Velocity P-wave (km/s) = 5.03093 5.63741 5.34278
#
# Compressibility (1/GPa) = 0.03058691
#
# Stress axis : x y z
#
# Youngs Moduli (GPa) = 48.17234 51.91709 81.87561
#
# Poissons Ratio (x) = 0.20005 0.63274
# Poissons Ratio (y) = 0.18562 -0.06204
# Poissons Ratio (z) = 0.37228 -0.03934
#
# Static dielectric constant tensor:
#      x y z
#    x 2.114710 0.000000 0.021890 
#    y 0.000000 1.737650 0.000000 
#    z 0.021890 0.000000 1.948770 
# 
# From -- ./inp_files/59340.got.cif
#   From: 2010.05.17/outbox.cif.g08.bks.cpg/sg14_30_cif.got.tgz:59340.got - 2010.06.03 17:49:19.
