data_PCOD9242030
_publ_section_title
;
Structure prediction by ZEFSAII (Michael W. Deem and Ramdas Pophale) SiO2 
 PCOD9242030
Probable space group: P 21/C
;
_chemical_formula_sum "Si O2"
_cell_formula_units_Z 28
_cell_length_a 12.335384
_cell_length_b 13.219570
_cell_length_c 9.141954
_cell_angle_alpha 90.000000
_cell_angle_beta 114.524096
_cell_angle_gamma 90.000000
_cell_volume 1356.277823
_symmetry_space_group_name_H-M "P 21/C"
_symmetry_group_IT_number 14
_symmetry_cell_setting 'monoclinic'
loop_
_space_group_symop_operation_xyz
x,y,z
-x,1/2+y,1/2-z
-x,-y,-z
x,1/2-y,1/2+z
loop_
_atom_site_type_symbol
_atom_site_label
_atom_site_fract_x
_atom_site_fract_y
_atom_site_fract_z
Si Si1 0.586446 0.086716 0.715416
Si Si2 0.274234 0.794894 0.672133
Si Si3 0.298882 0.381682 0.601871
Si Si4 0.978168 0.621126 0.497710
Si Si5 0.452518 0.392531 0.416223
Si Si6 0.892724 0.254867 0.679497
Si Si7 0.514352 0.181026 0.388517
O O1 0.680645 0.178680 0.789905
O O2 0.468940 0.095867 0.751321
O O3 0.539430 0.100589 0.526451
O O4 0.658333 0.989200 0.808033
O O5 0.198996 0.820811 0.773061
O O6 0.187124 0.803905 0.483968
O O7 0.395451 0.847748 0.690521
O O8 0.161723 0.363701 0.553361
O O9 0.337005 0.374937 0.452697
O O10 0.384940 0.309822 0.744787
O O11 0.000000 0.500000 0.500000
O O12 0.045304 0.678579 0.670079
O O13 0.021799 0.675277 0.371924
O O14 0.500000 0.500000 0.500000
O O15 0.532995 0.290290 0.475897
#
# Coordination Sequence:
#
# PCOD9242030 Si02
#       7
#     4   4   4   4   4   4   4
#     4  10  20  38  59  96 127 162 209 264 335 397
#     4  10  19  38  67  91 123 161 222 270 321 386
#     4  11  23  38  62  90 131 167 208 267 338 399
#     4  11  26  48  70  94 134 184 229 276 333 392
#     4   9  20  36  57  91 127 164 207 251 331 402
#     4  10  22  43  69  93 126 178 230 273 321 395
#     4  11  21  35  64  96 128 164 204 268 345 387
#
# _framework density 20.644738
#
# number of rings (size 3 to 8) (size 9 to 14) (size 15 to 20)
#    0.000    1.714    1.429    3.857    4.000    0.000 
#    2.571    2.857    0.000    0.000    0.000    0.000 
#    0.000    0.000    0.000    0.000    0.000    0.000 
#
# Total GULP energy -155973.104591 kJ/mol
# GULP energy per Si atom -5570.468021 kJ/mol
# Density = 2.059775 g / cm^3
# Si number density = 20.644738 Si / 1000 Ang^3
#
#
#
# Elastic Constant Matrix: (Units=GPa)
#
#
# Indices 1 2 3 4 5 6 
#
# 1 196.7054 26.3685 72.7269 0.0000 -18.6438 0.0000
# 2 26.3685 99.8203 16.7987 0.0000 -4.7690 0.0000
# 3 72.7269 16.7987 94.4182 0.0000 -10.2528 0.0000
# 4 0.0000 0.0000 0.0000 24.1379 0.0000 -1.4724
# 5 -18.6438 -4.7690 -10.2528 0.0000 43.4687 0.0000
# 6 0.0000 0.0000 0.0000 -1.4724 0.0000 28.7821
#
#
#
# Elastic Compliance Matrix: (Units=1/GPa)
#
#
# Indices 1 2 3 4 5 6 
#
# 1 0.007337 -0.000963 -0.005285 0.000000 0.001795 0.000000
# 2 -0.000963 0.010475 -0.001069 0.000000 0.000484 0.000000
# 3 -0.005285 -0.001069 0.014977 0.000000 0.001148 0.000000
# 4 0.000000 0.000000 0.000000 0.041558 0.000000 0.002126
# 5 0.001795 0.000484 0.001148 0.000000 0.024099 0.000000
# 6 0.000000 0.000000 0.000000 0.002126 0.000000 0.034853
#
#
# Mechanical properties :
#
#
# Convention : Reuss Voigt Hill
#
# Bulk Modulus (GPa) = 55.08329 69.19246 62.13788
# Shear Modulus (GPa) = 32.47050 37.61442 35.04246
#
# Velocity S-wave (km/s) = 3.97018 4.27310 4.12443
# Velocity P-wave (km/s) = 6.91057 7.61147 7.26947
#
# Compressibility (1/GPa) = 0.01815432
#
# Stress axis : x y z
#
# Youngs Moduli (GPa) = 136.29552 95.46101 66.76831
#
# Poissons Ratio (x) = 0.09192 0.35288
# Poissons Ratio (y) = 0.13125 0.07141
# Poissons Ratio (z) = 0.72035 0.10209
#
# Static dielectric constant tensor:
#      x y z
#    x 1.770310 0.000000 0.008540 
#    y 0.000000 1.846850 0.000000 
#    z 0.008540 0.000000 1.777510 
# 
# From -- ./inp_files/13417.got.cif
#   From: 2010.05.17/outbox.cif.g08.bks.cpg/sg14_7_cif.got.tgz:13417.got - 2010.06.03 17:49:19.
