data_PCOD9242319
_publ_section_title
;
Structure prediction by ZEFSAII (Michael W. Deem and Ramdas Pophale) SiO2 
 PCOD9242319
Probable space group: P 21/C
;
_chemical_formula_sum "Si O2"
_cell_formula_units_Z 32
_cell_length_a 18.579349
_cell_length_b 14.759016
_cell_length_c 11.654815
_cell_angle_alpha 90.000000
_cell_angle_beta 27.172747
_cell_angle_gamma 90.000000
_cell_volume 1459.487390
_symmetry_space_group_name_H-M "P 21/C"
_symmetry_group_IT_number 14
_symmetry_cell_setting 'monoclinic'
loop_
_space_group_symop_operation_xyz
x,y,z
-x,1/2+y,1/2-z
-x,-y,-z
x,1/2-y,1/2+z
loop_
_atom_site_type_symbol
_atom_site_label
_atom_site_fract_x
_atom_site_fract_y
_atom_site_fract_z
Si Si1 0.261415 0.017291 0.271974
Si Si2 0.313065 0.728926 0.420062
Si Si3 0.995190 0.561372 0.293666
Si Si4 0.157208 0.131029 0.215719
Si Si5 0.975129 0.203285 0.041317
Si Si6 0.546880 0.144351 0.946539
Si Si7 0.510206 0.811987 0.322713
Si Si8 0.773869 0.398795 0.654660
O O1 0.157589 0.057288 0.316347
O O2 0.356746 0.924701 0.109378
O O3 0.401577 0.088681 0.100031
O O4 0.149321 0.998256 0.541001
O O5 0.320094 0.817777 0.328725
O O6 0.467599 0.748228 0.275036
O O7 0.291661 0.642947 0.370186
O O8 0.167095 0.733671 0.712527
O O9 0.958121 0.612994 0.227064
O O10 0.008366 0.626477 0.384983
O O11 0.846675 0.496333 0.531056
O O12 0.120635 0.230214 0.318462
O O13 0.333080 0.133211 0.917556
O O14 0.917657 0.160058 0.003518
O O15 0.479735 0.237133 0.092611
O O16 0.366409 0.880361 0.555294
#
# Coordination Sequence:
#
# PCOD9242319 Si02
#       8
#     4   4   4   4   4   4   4   4
#     4  11  24  43  66  99 130 173 229 274 331 385
#     4  10  19  43  67  93 130 178 217 270 328 392
#     4  12  26  43  68  98 138 170 224 281 331 388
#     4  12  27  42  66 103 133 176 220 274 329 406
#     4  11  24  42  67  95 134 175 220 264 340 395
#     4  10  22  41  69  93 131 179 221 274 325 396
#     4  10  24  42  69  95 136 177 221 261 339 396
#     4  10  24  42  69  97 130 175 221 274 328 395
#
# _framework density 21.925508000000001
#
# number of rings (size 3 to 8) (size 9 to 14) (size 15 to 20)
#    0.000    1.250    2.500    2.250    8.750    0.500 
#    2.250    0.000    0.000    0.000    0.000    0.000 
#    0.000    0.000    0.000    0.000    0.000    0.000 
#
# Total GULP energy -178619.553760 kJ/mol
# GULP energy per Si atom -5581.861055 kJ/mol
# Density = 2.187560 g / cm^3
# Si number density = 21.925508 Si / 1000 Ang^3
#
#
#
# Elastic Constant Matrix: (Units=GPa)
#
#
# Indices 1 2 3 4 5 6 
#
# 1 46.6553 -5.3358 -10.0643 0.0000 -0.8658 0.0000
# 2 -5.3358 52.9121 26.5933 0.0000 2.1155 0.0000
# 3 -10.0643 26.5933 60.6103 0.0000 -6.4468 0.0000
# 4 0.0000 0.0000 0.0000 35.3597 0.0000 1.4842
# 5 -0.8658 2.1155 -6.4468 0.0000 24.1653 0.0000
# 6 0.0000 0.0000 0.0000 1.4842 0.0000 27.0366
#
#
#
# Elastic Compliance Matrix: (Units=1/GPa)
#
#
# Indices 1 2 3 4 5 6 
#
# 1 0.022313 0.000284 0.003770 0.000000 0.001780 0.000000
# 2 0.000284 0.024877 -0.011423 0.000000 -0.005215 0.000000
# 3 0.003770 -0.011423 0.022907 0.000000 0.007246 0.000000
# 4 0.000000 0.000000 0.000000 0.028346 0.000000 -0.001556
# 5 0.001780 -0.005215 0.007246 0.000000 0.043835 0.000000
# 6 0.000000 0.000000 0.000000 -0.001556 0.000000 0.037072
#
#
# Mechanical properties :
#
#
# Convention : Reuss Voigt Hill
#
# Bulk Modulus (GPa) = 18.06369 20.28491 19.17430
# Shear Modulus (GPa) = 23.52479 27.24461 25.38470
#
# Velocity S-wave (km/s) = 3.27913 3.52888 3.40629
# Velocity P-wave (km/s) = 4.75326 5.08682 4.92287
#
# Compressibility (1/GPa) = 0.05535968
#
# Stress axis : x y z
#
# Youngs Moduli (GPa) = 44.81788 40.19708 43.65414
#
# Poissons Ratio (x) = -0.01143 -0.16456
# Poissons Ratio (y) = -0.01274 0.49865
# Poissons Ratio (z) = -0.16895 0.45916
#
# Static dielectric constant tensor:
#      x y z
#    x 1.850180 0.000000 0.031770 
#    y 0.000000 1.817560 0.000000 
#    z 0.031770 0.000000 1.818370 
# 
# From -- ./inp_files/34151.got.cif
#   From: 2010.05.17/outbox.cif.g08.bks.cpg/sg14_18_cif.got.tgz:34151.got - 2010.06.03 17:49:19.
