data_PCOD9242866
_publ_section_title
;
Structure prediction by ZEFSAII (Michael W. Deem and Ramdas Pophale) SiO2 
 PCOD9242866
Probable space group: P 21/C
;
_chemical_formula_sum "Si O2"
_cell_formula_units_Z 32
_cell_length_a 17.120562
_cell_length_b 5.220119
_cell_length_c 30.338282
_cell_angle_alpha 90.000000
_cell_angle_beta 147.711987
_cell_angle_gamma 90.000000
_cell_volume 1448.349480
_symmetry_space_group_name_H-M "P 21/C"
_symmetry_group_IT_number 14
_symmetry_cell_setting 'monoclinic'
loop_
_space_group_symop_operation_xyz
x,y,z
-x,1/2+y,1/2-z
-x,-y,-z
x,1/2-y,1/2+z
loop_
_atom_site_type_symbol
_atom_site_label
_atom_site_fract_x
_atom_site_fract_y
_atom_site_fract_z
Si Si1 0.828496 0.290811 0.367919
Si Si2 0.813597 0.109327 0.180587
Si Si3 0.140616 0.386967 0.495172
Si Si4 0.832191 0.897272 0.640515
Si Si5 0.576217 0.681292 0.227305
Si Si6 0.785823 0.572409 0.763136
Si Si7 0.687029 0.933141 0.362265
Si Si8 0.117715 0.633062 0.928099
O O1 0.689258 0.471125 0.299077
O O2 0.979880 0.443426 0.437865
O O3 0.814691 0.130445 0.315899
O O4 0.817782 0.105154 0.405027
O O5 0.778860 0.885382 0.128627
O O6 0.754281 0.042336 0.200443
O O7 0.990894 0.114641 0.269857
O O8 0.770761 0.391257 0.144701
O O9 0.253387 0.325310 0.587628
O O10 0.180690 0.611708 0.480585
O O11 0.125376 0.109185 0.464481
O O12 0.810940 0.020376 0.582230
O O13 0.649445 0.768241 0.216726
O O14 0.589110 0.895005 0.271628
O O15 0.414675 0.572046 0.150734
O O16 0.946390 0.704989 0.835950
#
# Coordination Sequence:
#
# PCOD9242866 Si02
#       8
#     4   4   4   4   4   4   4   4
#     4  10  21  38  55  80 114 149 184 237 282 325
#     4   9  17  28  50  80 111 144 177 220 274 342
#     4  11  23  37  59  84 112 151 193 230 276 336
#     4   9  17  29  49  79 114 143 174 221 283 329
#     4  11  21  38  56  77 114 148 187 236 284 323
#     4   9  20  33  54  81 113 148 184 227 284 332
#     4  11  24  37  57  81 108 153 194 233 279 335
#     4  10  20  36  55  83 117 148 181 233 283 331
#
# _framework density 22.094113
#
# number of rings (size 3 to 8) (size 9 to 14) (size 15 to 20)
#    0.000    2.000    2.500    1.125    3.500    3.500 
#    0.000    0.000    0.000    0.000    0.000    5.250 
#    0.000    0.000    0.000    0.000    0.000    0.000 
#
# Total GULP energy -178628.331522 kJ/mol
# GULP energy per Si atom -5582.135360 kJ/mol
# Density = 2.204383 g / cm^3
# Si number density = 22.094113 Si / 1000 Ang^3
#
#
#
# Elastic Constant Matrix: (Units=GPa)
#
#
# Indices 1 2 3 4 5 6 
#
# 1 64.5581 -14.6123 12.1175 0.0000 -4.0313 0.0000
# 2 -14.6123 48.0116 -3.6523 0.0000 5.4763 0.0000
# 3 12.1175 -3.6523 31.8054 0.0000 2.5670 0.0000
# 4 0.0000 0.0000 0.0000 23.3673 0.0000 -5.6143
# 5 -4.0313 5.4763 2.5670 0.0000 15.9242 0.0000
# 6 0.0000 0.0000 0.0000 -5.6143 0.0000 22.5188
#
#
#
# Elastic Compliance Matrix: (Units=1/GPa)
#
#
# Indices 1 2 3 4 5 6 
#
# 1 0.018019 0.004510 -0.006677 0.000000 0.004087 0.000000
# 2 0.004510 0.023120 0.001506 0.000000 -0.007052 0.000000
# 3 -0.006677 0.001506 0.034789 0.000000 -0.007816 0.000000
# 4 0.000000 0.000000 0.000000 0.045522 0.000000 0.011349
# 5 0.004087 -0.007052 -0.007816 0.000000 0.067517 0.000000
# 6 0.000000 0.000000 0.000000 0.011349 0.000000 0.047237
#
#
# Mechanical properties :
#
#
# Convention : Reuss Voigt Hill
#
# Bulk Modulus (GPa) = 13.40384 14.67565 14.03974
# Shear Modulus (GPa) = 19.05528 22.39689 20.72609
#
# Velocity S-wave (km/s) = 2.93995 3.18733 3.06613
# Velocity P-wave (km/s) = 4.19575 4.49468 4.34778
#
# Compressibility (1/GPa) = 0.07460550
#
# Stress axis : x y z
#
# Youngs Moduli (GPa) = 55.49633 43.25287 28.74487
#
# Poissons Ratio (x) = -0.19507 0.19193
# Poissons Ratio (y) = -0.25029 -0.04328
# Poissons Ratio (z) = 0.37055 -0.06513
#
# Static dielectric constant tensor:
#      x y z
#    x 1.838560 0.000000 -0.017450 
#    y 0.000000 1.896420 0.000000 
#    z -0.017450 0.000000 1.827150 
# 
# From -- ./inp_files/80340.got.cif
#   From: 2010.05.17/outbox.cif.g08.bks.cpg/sg14_41_cif.got.tgz:80340.got - 2010.06.03 17:49:19.
