data_PCOD9242294
_publ_section_title
;
Structure prediction by ZEFSAII (Michael W. Deem and Ramdas Pophale) SiO2 
 PCOD9242294
Probable space group: P 21/C
;
_chemical_formula_sum "Si O2"
_cell_formula_units_Z 28
_cell_length_a 5.257591
_cell_length_b 16.604277
_cell_length_c 15.092189
_cell_angle_alpha 90.000000
_cell_angle_beta 121.357960
_cell_angle_gamma 90.000000
_cell_volume 1125.078239
_symmetry_space_group_name_H-M "P 21/C"
_symmetry_group_IT_number 14
_symmetry_cell_setting 'monoclinic'
loop_
_space_group_symop_operation_xyz
x,y,z
-x,1/2+y,1/2-z
-x,-y,-z
x,1/2-y,1/2+z
loop_
_atom_site_type_symbol
_atom_site_label
_atom_site_fract_x
_atom_site_fract_y
_atom_site_fract_z
Si Si1 0.667567 0.529538 0.260052
Si Si2 0.790395 0.145402 0.105335
Si Si3 0.114837 0.312883 0.167519
Si Si4 0.167746 0.693105 0.692491
Si Si5 0.265117 0.561159 0.570304
Si Si6 0.204075 0.524177 0.895119
Si Si7 0.803901 0.134514 0.311380
O O1 0.528986 0.488324 0.323026
O O2 0.711143 0.463928 0.192839
O O3 0.476459 0.602403 0.185864
O O4 0.961642 0.576187 0.339699
O O5 0.688161 0.151292 0.188922
O O6 0.939859 0.231071 0.106433
O O7 0.600357 0.106050 0.990934
O O8 0.472191 0.305893 0.221613
O O9 0.036748 0.316418 0.258251
O O10 0.974003 0.396648 0.104547
O O11 0.126537 0.628512 0.608582
O O12 0.079936 0.780518 0.637183
O O13 0.000000 0.500000 0.500000
O O14 0.016137 0.441761 0.858490
O O15 0.500000 0.500000 0.000000
#
# Coordination Sequence:
#
# PCOD9242294 Si02
#       7
#     4   4   4   4   4   4   4
#     4  10  19  42  65  96 138 178 233 292 360 414
#     4   9  21  40  64  98 136 176 233 290 351 424
#     4  11  23  47  69  98 140 188 235 290 354 423
#     4  11  23  46  72  99 141 187 232 295 359 417
#     4  10  21  41  67 105 137 178 229 291 359 421
#     4  11  25  42  67 103 142 192 242 294 356 433
#     4  10  22  42  70  96 139 187 234 298 353 427
#
# _framework density 24.887159
#
# number of rings (size 3 to 8) (size 9 to 14) (size 15 to 20)
#    0.000    1.714    2.857    0.857    0.000    2.286 
#    7.714    0.000    0.000    0.000    0.000    0.000 
#    0.000    0.000    0.000    0.000    0.000    0.000 
#
# Total GULP energy -156197.224968 kJ/mol
# GULP energy per Si atom -5578.472320 kJ/mol
# Density = 2.483051 g / cm^3
# Si number density = 24.887159 Si / 1000 Ang^3
#
#
#
# Elastic Constant Matrix: (Units=GPa)
#
#
# Indices 1 2 3 4 5 6 
#
# 1 70.3787 18.1438 12.0188 0.0000 3.8814 0.0000
# 2 18.1438 158.3605 50.9190 0.0000 -7.4742 0.0000
# 3 12.0188 50.9190 66.2134 0.0000 7.2733 0.0000
# 4 0.0000 0.0000 0.0000 41.9364 0.0000 -6.0410
# 5 3.8814 -7.4742 7.2733 0.0000 16.2413 0.0000
# 6 0.0000 0.0000 0.0000 -6.0410 0.0000 35.2300
#
#
#
# Elastic Compliance Matrix: (Units=1/GPa)
#
#
# Indices 1 2 3 4 5 6 
#
# 1 0.015006 -0.001536 -0.001127 0.000000 -0.003789 0.000000
# 2 -0.001536 0.009404 -0.007855 0.000000 0.008212 0.000000
# 3 -0.001127 -0.007855 0.022839 0.000000 -0.013573 0.000000
# 4 0.000000 0.000000 0.000000 0.024450 0.000000 0.004192
# 5 -0.003789 0.008212 -0.013573 0.000000 0.072335 0.000000
# 6 0.000000 0.000000 0.000000 0.004192 0.000000 0.029104
#
#
# Mechanical properties :
#
#
# Convention : Reuss Voigt Hill
#
# Bulk Modulus (GPa) = 38.14780 50.79065 44.46923
# Shear Modulus (GPa) = 24.64146 32.93962 28.79054
#
# Velocity S-wave (km/s) = 3.15004 3.64202 3.40493
# Velocity P-wave (km/s) = 5.34714 6.17563 5.77626
#
# Compressibility (1/GPa) = 0.02621383
#
# Stress axis : x y z
#
# Youngs Moduli (GPa) = 66.63948 106.33767 43.78499
#
# Poissons Ratio (x) = 0.16332 0.04933
# Poissons Ratio (y) = 0.10235 0.34394
# Poissons Ratio (z) = 0.07508 0.83530
#
# Static dielectric constant tensor:
#      x y z
#    x 2.055190 0.000000 -0.025820 
#    y 0.000000 2.079360 0.000000 
#    z -0.025820 0.000000 2.099740 
# 
# From -- ./inp_files/37908.got.cif
#   From: 2010.05.17/outbox.cif.g08.bks.cpg/sg14_19_cif.got.tgz:37908.got - 2010.06.03 17:49:19.
