data_PCOD9242085
_publ_section_title
;
Structure prediction by ZEFSAII (Michael W. Deem and Ramdas Pophale) SiO2 
 PCOD9242085
Probable space group: P 21/C
;
_chemical_formula_sum "Si O2"
_cell_formula_units_Z 28
_cell_length_a 7.320208
_cell_length_b 30.030401
_cell_length_c 5.214967
_cell_angle_alpha 90.000000
_cell_angle_beta 111.521907
_cell_angle_gamma 90.000000
_cell_volume 1066.469828
_symmetry_space_group_name_H-M "P 21/C"
_symmetry_group_IT_number 14
_symmetry_cell_setting 'monoclinic'
loop_
_space_group_symop_operation_xyz
x,y,z
-x,1/2+y,1/2-z
-x,-y,-z
x,1/2-y,1/2+z
loop_
_atom_site_type_symbol
_atom_site_label
_atom_site_fract_x
_atom_site_fract_y
_atom_site_fract_z
Si Si1 0.986421 0.905025 0.462337
Si Si2 0.260997 0.515769 0.054729
Si Si3 0.471705 0.771776 0.202203
Si Si4 0.092342 0.235982 0.028728
Si Si5 0.627776 0.362578 0.084352
Si Si6 0.792204 0.866983 0.874675
Si Si7 0.546425 0.051772 0.845378
O O1 0.064259 0.956099 0.504752
O O2 0.177701 0.876000 0.469052
O O3 0.910822 0.888245 0.697586
O O4 0.837020 0.893516 0.156327
O O5 0.405057 0.540272 0.337498
O O6 0.331683 0.465520 0.149109
O O7 0.313139 0.524757 0.784165
O O8 0.425785 0.732448 0.380105
O O9 0.712853 0.768282 0.346854
O O10 0.382803 0.815046 0.285936
O O11 0.978918 0.249392 0.221960
O O12 0.144362 0.184397 0.060525
O O13 0.595490 0.398406 0.294192
O O14 0.436117 0.366971 0.809896
#
# Coordination Sequence:
#
# PCOD9242085 Si02
#       7
#     4   4   4   4   4   4   4
#     4  11  26  42  65 104 129 175 223 275 319 405
#     4   9  18  40  61  94 142 159 218 272 318 382
#     4  10  21  37  65  89 124 173 206 273 330 370
#     4  10  19  39  63  85 123 173 207 266 335 376
#     4  11  24  45  71  96 136 171 230 267 336 393
#     4  12  25  42  68  94 134 175 219 270 339 382
#     4   9  19  35  69  96 122 188 206 257 340 394
#
# _framework density 26.254846000000001
#
# number of rings (size 3 to 8) (size 9 to 14) (size 15 to 20)
#    0.000    1.714    2.857    2.571    2.000    6.857 
#    0.000    5.714    0.000    0.000    0.000    0.000 
#    0.000    0.000    0.000    0.000    0.000    0.000 
#
# Total GULP energy -156778.771088 kJ/mol
# GULP energy per Si atom -5599.241825 kJ/mol
# Density = 2.619509 g / cm^3
# Si number density = 26.254846 Si / 1000 Ang^3
#
#
#
# Elastic Constant Matrix: (Units=GPa)
#
#
# Indices 1 2 3 4 5 6 
#
# 1 96.2249 -6.5507 8.6781 0.0000 -5.4061 0.0000
# 2 -6.5507 118.1873 21.5223 0.0000 -37.4577 0.0000
# 3 8.6781 21.5223 101.5495 0.0000 -46.3258 0.0000
# 4 0.0000 0.0000 0.0000 37.2457 0.0000 -10.2586
# 5 -5.4061 -37.4577 -46.3258 0.0000 39.6445 0.0000
# 6 0.0000 0.0000 0.0000 -10.2586 0.0000 34.4848
#
#
#
# Elastic Compliance Matrix: (Units=1/GPa)
#
#
# Indices 1 2 3 4 5 6 
#
# 1 0.010657 0.001554 0.000199 0.000000 0.003154 0.000000
# 2 0.001554 0.014047 0.006514 0.000000 0.021096 0.000000
# 3 0.000199 0.006514 0.024136 0.000000 0.034385 0.000000
# 4 0.000000 0.000000 0.000000 0.029245 0.000000 0.008700
# 5 0.003154 0.021096 0.034385 0.000000 0.085767 0.000000
# 6 0.000000 0.000000 0.000000 0.008700 0.000000 0.031586
#
#
# Mechanical properties :
#
#
# Convention : Reuss Voigt Hill
#
# Bulk Modulus (GPa) = 15.29682 40.36235 27.82958
# Shear Modulus (GPa) = 24.91316 41.76246 33.33781
#
# Velocity S-wave (km/s) = 3.08376 3.99263 3.56726
# Velocity P-wave (km/s) = 4.30330 6.05487 5.25261
#
# Compressibility (1/GPa) = 0.06537307
#
# Stress axis : x y z
#
# Youngs Moduli (GPa) = 93.83163 71.18944 41.43148
#
# Poissons Ratio (x) = -0.11063 -0.00823
# Poissons Ratio (y) = -0.14582 -0.26987
# Poissons Ratio (z) = -0.01863 -0.46370
#
# Static dielectric constant tensor:
#      x y z
#    x 2.149530 0.000000 0.009300 
#    y 0.000000 2.084520 0.000000 
#    z 0.009300 0.000000 2.034390 
# 
# From -- ./inp_files/2176.got.cif
#   From: 2010.05.17/outbox.cif.g08.bks.cpg/sg14_2_cif.got.tgz:2176.got - 2010.06.03 17:49:19.
