data_PCOD9242602
_publ_section_title
;
Structure prediction by ZEFSAII (Michael W. Deem and Ramdas Pophale) SiO2 
 PCOD9242602
Probable space group: P 21/C
;
_chemical_formula_sum "Si O2"
_cell_formula_units_Z 30
_cell_length_a 6.782454
_cell_length_b 11.400396
_cell_length_c 20.732377
_cell_angle_alpha 90.000000
_cell_angle_beta 72.898540
_cell_angle_gamma 90.000000
_cell_volume 1532.203109
_symmetry_space_group_name_H-M "P 21/C"
_symmetry_group_IT_number 14
_symmetry_cell_setting 'monoclinic'
loop_
_space_group_symop_operation_xyz
x,y,z
-x,1/2+y,1/2-z
-x,-y,-z
x,1/2-y,1/2+z
loop_
_atom_site_type_symbol
_atom_site_label
_atom_site_fract_x
_atom_site_fract_y
_atom_site_fract_z
Si Si1 0.638237 0.671065 0.243902
Si Si2 0.012606 0.508491 0.202252
Si Si3 0.192373 0.929422 0.817692
Si Si4 0.184005 0.818787 0.586764
Si Si5 0.811095 0.836762 0.115275
Si Si6 0.000000 0.000000 0.500000
Si Si7 0.843646 0.739306 0.856335
Si Si8 0.661141 0.700047 0.009404
O O1 0.402990 0.633609 0.276072
O O2 0.682566 0.757847 0.179662
O O3 0.726799 0.728212 0.301331
O O4 0.779340 0.555120 0.219708
O O5 0.091482 0.500496 0.267367
O O6 0.147084 0.610789 0.156419
O O7 0.050147 0.387353 0.162628
O O8 0.023757 0.832626 0.851990
O O9 0.230197 0.027433 0.867741
O O10 0.421743 0.807185 0.548939
O O11 0.050128 0.699982 0.603253
O O12 0.079908 0.899257 0.542222
O O13 0.752555 0.796163 0.049571
O O14 0.215233 0.078783 0.491321
O O15 0.695341 0.734017 0.931789
#
# Coordination Sequence:
#
# PCOD9242602 Si02
#       8
#     4   4   4   4   4   2   4   4
#     4  10  23  42  64  93 119 172 206 254 323 362
#     4  10  21  40  63  91 127 156 213 267 307 374
#     4  11  24  42  64  91 128 164 215 260 307 377
#     4  10  21  40  63  90 128 165 200 261 322 360
#     4  10  23  42  62  93 124 167 213 252 310 382
#     4  10  20  34  58  94 120 154 206 246 306 366
#     4  11  24  40  63  97 126 160 210 260 308 375
#     4  11  23  40  63  94 132 169 203 259 318 368
#
# _framework density 19.579649
#
# number of rings (size 3 to 8) (size 9 to 14) (size 15 to 20)
#    0.000    1.600    2.667    1.200    1.867    4.800 
#    0.000    1.333    0.000    0.000    0.000    0.000 
#    0.000    0.000    0.000    0.000    0.000    0.000 
#
# Total GULP energy -167033.228184 kJ/mol
# GULP energy per Si atom -5567.774273 kJ/mol
# Density = 1.953508 g / cm^3
# Si number density = 19.579649 Si / 1000 Ang^3
#
#
#
# Elastic Constant Matrix: (Units=GPa)
#
#
# Indices 1 2 3 4 5 6 
#
# 1 34.3300 0.1370 3.0686 0.0000 -13.5581 0.0000
# 2 0.1370 31.6310 -4.6837 0.0000 -4.5246 0.0000
# 3 3.0686 -4.6837 48.3471 0.0000 -7.9886 0.0000
# 4 0.0000 0.0000 0.0000 16.1988 0.0000 -0.2132
# 5 -13.5581 -4.5246 -7.9886 0.0000 30.6637 0.0000
# 6 0.0000 0.0000 0.0000 -0.2132 0.0000 2.9139
#
#
#
# Elastic Compliance Matrix: (Units=1/GPa)
#
#
# Indices 1 2 3 4 5 6 
#
# 1 0.035451 0.002255 0.000641 0.000000 0.016174 0.000000
# 2 0.002255 0.033234 0.004234 0.000000 0.007004 0.000000
# 3 0.000641 0.004234 0.022157 0.000000 0.006681 0.000000
# 4 0.000000 0.000000 0.000000 0.061793 0.000000 0.004520
# 5 0.016174 0.007004 0.006681 0.000000 0.042537 0.000000
# 6 0.000000 0.000000 0.000000 0.004520 0.000000 0.343514
#
#
# Mechanical properties :
#
#
# Convention : Reuss Voigt Hill
#
# Bulk Modulus (GPa) = 9.51472 12.37245 10.94359
# Shear Modulus (GPa) = 8.93720 17.67435 13.30578
#
# Velocity S-wave (km/s) = 2.13880 3.00774 2.60969
# Velocity P-wave (km/s) = 3.31199 4.28891 3.83171
#
# Compressibility (1/GPa) = 0.10510030
#
# Stress axis : x y z
#
# Youngs Moduli (GPa) = 28.20833 30.09006 45.13234
#
# Poissons Ratio (x) = -0.06785 -0.02893
# Poissons Ratio (y) = -0.06361 -0.19108
# Poissons Ratio (z) = -0.01808 -0.12739
#
# Static dielectric constant tensor:
#      x y z
#    x 1.667330 0.000000 0.013750 
#    y 0.000000 1.682870 0.000000 
#    z 0.013750 0.000000 1.688860 
# 
# From -- ./inp_files/61299.got.cif
#   From: 2010.05.17/outbox.cif.g08.bks.cpg/sg14_31_cif.got.tgz:61299.got - 2010.06.03 17:49:19.
