data_PCOD9242600
_publ_section_title
;
Structure prediction by ZEFSAII (Michael W. Deem and Ramdas Pophale) SiO2 
 PCOD9242600
Probable space group: P 21/C
;
_chemical_formula_sum "Si O2"
_cell_formula_units_Z 30
_cell_length_a 16.599774
_cell_length_b 4.955828
_cell_length_c 18.463563
_cell_angle_alpha 90.000000
_cell_angle_beta 57.945603
_cell_angle_gamma 90.000000
_cell_volume 1287.349524
_symmetry_space_group_name_H-M "P 21/C"
_symmetry_group_IT_number 14
_symmetry_cell_setting 'monoclinic'
loop_
_space_group_symop_operation_xyz
x,y,z
-x,1/2+y,1/2-z
-x,-y,-z
x,1/2-y,1/2+z
loop_
_atom_site_type_symbol
_atom_site_label
_atom_site_fract_x
_atom_site_fract_y
_atom_site_fract_z
Si Si1 0.145897 0.518339 0.451205
Si Si2 0.105816 0.365814 0.843070
Si Si3 0.169738 0.463477 0.191395
Si Si4 0.589819 0.204572 0.522791
Si Si5 0.473970 0.718482 0.611984
Si Si6 0.000000 0.000000 0.500000
Si Si7 0.277365 0.736085 0.269591
Si Si8 0.203508 0.548494 0.581355
O O1 0.092793 0.282448 0.429500
O O2 0.239044 0.584244 0.358875
O O3 0.165966 0.444592 0.523049
O O4 0.086208 0.789221 0.482948
O O5 0.092558 0.172531 0.781946
O O6 0.210385 0.497829 0.793837
O O7 0.026115 0.581778 0.897551
O O8 0.244759 0.568893 0.214926
O O9 0.145777 0.720424 0.153199
O O10 0.212859 0.215380 0.126381
O O11 0.515744 0.421233 0.588816
O O12 0.571240 0.207707 0.445036
O O13 0.696354 0.304984 0.481898
O O14 0.562037 0.924737 0.573713
O O15 0.389542 0.730813 0.710316
#
# Coordination Sequence:
#
# PCOD9242600 Si02
#       8
#     4   4   4   4   4   2   4   4
#     4  10  25  41  71  95 135 174 226 274 345 408
#     4  10  21  43  71 100 128 178 222 270 326 433
#     4  11  22  39  68  94 135 173 224 273 336 396
#     4  10  21  33  57  92 131 172 222 279 332 377
#     4  10  20  34  58  92 127 174 228 273 317 402
#     4  10  22  46  70 100 128 170 222 264 330 420
#     4  10  21  40  66  97 125 184 226 274 324 422
#     4  12  24  42  63 101 137 177 222 292 341 389
#
# _framework density 23.303694
#
# number of rings (size 3 to 8) (size 9 to 14) (size 15 to 20)
#    0.000    1.600    2.667    1.200   11.200    0.000 
#    0.000    2.667    0.000    0.000    0.000    0.000 
#    0.000    0.000    0.000    0.000    0.000    0.000 
#
# Total GULP energy -167223.771624 kJ/mol
# GULP energy per Si atom -5574.125721 kJ/mol
# Density = 2.325065 g / cm^3
# Si number density = 23.303694 Si / 1000 Ang^3
#
#
#
# Elastic Constant Matrix: (Units=GPa)
#
#
# Indices 1 2 3 4 5 6 
#
# 1 32.6811 -7.2679 30.8271 0.0000 -0.8294 0.0000
# 2 -7.2679 39.0806 9.5907 0.0000 1.3675 0.0000
# 3 30.8271 9.5907 121.9892 0.0000 0.2588 0.0000
# 4 0.0000 0.0000 0.0000 42.2449 0.0000 -3.0731
# 5 -0.8294 1.3675 0.2588 0.0000 29.4967 0.0000
# 6 0.0000 0.0000 0.0000 -3.0731 0.0000 14.0269
#
#
#
# Elastic Compliance Matrix: (Units=1/GPa)
#
#
# Indices 1 2 3 4 5 6 
#
# 1 0.044583 0.011244 -0.012152 0.000000 0.000839 0.000000
# 2 0.011244 0.028969 -0.005117 0.000000 -0.000982 0.000000
# 3 -0.012152 -0.005117 0.011671 0.000000 -0.000207 0.000000
# 4 0.000000 0.000000 0.000000 0.024055 0.000000 0.005270
# 5 0.000839 -0.000982 -0.000207 0.000000 0.033973 0.000000
# 6 0.000000 0.000000 0.000000 0.005270 0.000000 0.072446
#
#
# Mechanical properties :
#
#
# Convention : Reuss Voigt Hill
#
# Bulk Modulus (GPa) = 13.66607 28.89452 21.28030
# Shear Modulus (GPa) = 19.83034 27.86045 23.84539
#
# Velocity S-wave (km/s) = 2.92027 3.46141 3.20229
# Velocity P-wave (km/s) = 4.15304 5.32927 4.77749
#
# Compressibility (1/GPa) = 0.07317391
#
# Stress axis : x y z
#
# Youngs Moduli (GPa) = 22.42988 34.51931 85.68195
#
# Poissons Ratio (x) = -0.38814 1.04122
# Poissons Ratio (y) = -0.25220 0.43843
# Poissons Ratio (z) = 0.27257 0.17663
#
# Static dielectric constant tensor:
#      x y z
#    x 1.949380 0.000000 -0.060640 
#    y 0.000000 2.216750 0.000000 
#    z -0.060640 0.000000 2.051520 
# 
# From -- ./inp_files/59961.got.cif
#   From: 2010.05.17/outbox.cif.g08.bks.cpg/sg14_30_cif.got.tgz:59961.got - 2010.06.03 17:49:19.
