data_PCOD9242379
_publ_section_title
;
Structure prediction by ZEFSAII (Michael W. Deem and Ramdas Pophale) SiO2 
 PCOD9242379
Probable space group: P 21/C
;
_chemical_formula_sum "Si O2"
_cell_formula_units_Z 28
_cell_length_a 8.544109
_cell_length_b 12.615414
_cell_length_c 12.858867
_cell_angle_alpha 90.000000
_cell_angle_beta 52.857679
_cell_angle_gamma 90.000000
_cell_volume 1104.853231
_symmetry_space_group_name_H-M "P 21/C"
_symmetry_group_IT_number 14
_symmetry_cell_setting 'monoclinic'
loop_
_space_group_symop_operation_xyz
x,y,z
-x,1/2+y,1/2-z
-x,-y,-z
x,1/2-y,1/2+z
loop_
_atom_site_type_symbol
_atom_site_label
_atom_site_fract_x
_atom_site_fract_y
_atom_site_fract_z
Si Si1 0.275862 0.187483 0.691630
Si Si2 0.082555 0.808578 0.771175
Si Si3 0.605903 0.606674 0.647848
Si Si4 0.155847 0.847548 0.399405
Si Si5 0.526130 0.686473 0.077674
Si Si6 0.545789 0.893594 0.802509
Si Si7 0.009062 0.463110 0.840252
O O1 0.260191 0.125203 0.805277
O O2 0.372349 0.125365 0.557112
O O3 0.441258 0.279338 0.648946
O O4 0.077066 0.242655 0.731484
O O5 0.097679 0.770194 0.884947
O O6 0.302357 0.785139 0.644515
O O7 0.047152 0.930741 0.753766
O O8 0.381417 0.628513 0.779076
O O9 0.639045 0.701594 0.553147
O O10 0.602195 0.487180 0.606744
O O11 0.110855 0.888087 0.532252
O O12 0.011805 0.919622 0.385257
O O13 0.529168 0.624601 0.185360
O O14 0.763444 0.934277 0.737977
#
# Coordination Sequence:
#
# PCOD9242379 Si02
#       7
#     4   4   4   4   4   4   4
#     4  10  20  34  53  75 100 132 166 203 248 293
#     4  10  20  32  52  78 102 126 166 210 244 290
#     4   9  19  34  50  72 102 132 165 204 245 294
#     4   9  17  31  51  73  99 132 166 202 246 292
#     4  10  20  34  53  75 100 132 166 203 248 293
#     4   9  19  34  50  72 102 132 165 204 245 294
#     4   9  17  31  51  73  99 132 166 202 246 292
#
# _framework density 25.342731000000001
#
# number of rings (size 3 to 8) (size 9 to 14) (size 15 to 20)
#    0.000    2.571    0.000    1.714    0.000    2.286 
#    0.000    0.000    0.000    2.571    0.000    0.000 
#    0.000    0.000    0.000    0.000    0.000    0.000 
#
# Total GULP energy -156282.647442 kJ/mol
# GULP energy per Si atom -5581.523123 kJ/mol
# Density = 2.528505 g / cm^3
# Si number density = 25.342731 Si / 1000 Ang^3
#
#
#
# Elastic Constant Matrix: (Units=GPa)
#
#
# Indices 1 2 3 4 5 6 
#
# 1 94.5520 2.5833 12.5158 0.0000 11.7323 0.0000
# 2 2.5833 56.7049 -2.3946 0.0000 19.4181 0.0000
# 3 12.5158 -2.3946 46.5299 0.0000 6.6513 0.0000
# 4 0.0000 0.0000 0.0000 19.6734 0.0000 4.1996
# 5 11.7323 19.4181 6.6513 0.0000 29.1350 0.0000
# 6 0.0000 0.0000 0.0000 4.1996 0.0000 22.9361
#
#
#
# Elastic Compliance Matrix: (Units=1/GPa)
#
#
# Indices 1 2 3 4 5 6 
#
# 1 0.011448 0.001003 -0.002350 0.000000 -0.004742 0.000000
# 2 0.001003 0.023492 0.003344 0.000000 -0.016825 0.000000
# 3 -0.002350 0.003344 0.023237 0.000000 -0.006588 0.000000
# 4 0.000000 0.000000 0.000000 0.052897 0.000000 -0.009685
# 5 -0.004742 -0.016825 -0.006588 0.000000 0.048950 0.000000
# 6 0.000000 0.000000 0.000000 -0.009685 0.000000 0.045373
#
#
# Mechanical properties :
#
#
# Convention : Reuss Voigt Hill
#
# Bulk Modulus (GPa) = 16.08422 24.79952 20.44187
# Shear Modulus (GPa) = 22.50961 26.68771 24.59866
#
# Velocity S-wave (km/s) = 2.98351 3.24863 3.11889
# Velocity P-wave (km/s) = 4.26954 4.88655 4.58842
#
# Compressibility (1/GPa) = 0.06217275
#
# Stress axis : x y z
#
# Youngs Moduli (GPa) = 87.34946 42.56746 43.03400
#
# Poissons Ratio (x) = -0.04270 0.10112
# Poissons Ratio (y) = -0.08763 -0.14391
# Poissons Ratio (z) = 0.20526 -0.14235
#
# Static dielectric constant tensor:
#      x y z
#    x 1.991590 0.000000 0.025920 
#    y 0.000000 2.127790 0.000000 
#    z 0.025920 0.000000 1.944030 
# 
# From -- ./inp_files/25209.got.cif
#   From: 2010.05.17/outbox.cif.g08.bks.cpg/sg14_13_cif.got.tgz:25209.got - 2010.06.03 17:49:19.
