data_PCOD9242681
_publ_section_title
;
Structure prediction by ZEFSAII (Michael W. Deem and Ramdas Pophale) SiO2 
 PCOD9242681
Probable space group: P 21/C
;
_chemical_formula_sum "Si O2"
_cell_formula_units_Z 32
_cell_length_a 13.863302
_cell_length_b 5.373664
_cell_length_c 20.441252
_cell_angle_alpha 90.000000
_cell_angle_beta 117.271011
_cell_angle_gamma 90.000000
_cell_volume 1353.545182
_symmetry_space_group_name_H-M "P 21/C"
_symmetry_group_IT_number 14
_symmetry_cell_setting 'monoclinic'
loop_
_space_group_symop_operation_xyz
x,y,z
-x,1/2+y,1/2-z
-x,-y,-z
x,1/2-y,1/2+z
loop_
_atom_site_type_symbol
_atom_site_label
_atom_site_fract_x
_atom_site_fract_y
_atom_site_fract_z
Si Si1 0.488704 0.353000 0.388196
Si Si2 0.933093 0.701801 0.735867
Si Si3 0.100710 0.221171 0.507606
Si Si4 0.988704 0.853000 0.388196
Si Si5 0.399290 0.278829 0.492394
Si Si6 0.433093 0.298199 0.235867
Si Si7 0.811895 0.476343 0.579037
Si Si8 0.311895 0.523657 0.079037
O O1 0.446940 0.199123 0.437888
O O2 0.513158 0.618189 0.428620
O O3 0.403713 0.346988 0.302615
O O4 0.602914 0.250736 0.394483
O O5 0.850452 0.651135 0.651313
O O6 0.022777 0.482907 0.752988
O O7 0.903713 0.653012 0.802615
O O8 0.167840 0.419917 0.487856
O O9 0.182545 0.986832 0.545879
O O10 0.053060 0.300877 0.562112
O O11 0.013158 0.118189 0.428620
O O12 0.102914 0.750735 0.394483
O O13 0.317455 0.513168 0.454121
O O14 0.332160 0.080083 0.512144
O O15 0.522777 0.517093 0.252988
O O16 0.350452 0.348865 0.151313
#
# Coordination Sequence:
#
# PCOD9242681 Si02
#       8
#     4   4   4   4   4   4   4   4
#     4  10  20  35  57  81 114 150 193 239 294 346
#     4  10  20  37  60  83 118 156 190 236 299 345
#     4  10  20  35  56  84 110 148 198 238 290 351
#     4  10  20  35  57  81 114 150 193 239 294 346
#     4  10  20  35  56  84 110 148 198 238 290 351
#     4  10  20  37  60  83 118 156 190 236 299 345
#     4  10  20  35  57  81 114 150 193 239 294 346
#     4  10  20  35  57  81 114 150 193 239 294 346
#
# _framework density 23.641615999999999
#
# number of rings (size 3 to 8) (size 9 to 14) (size 15 to 20)
#    0.000    2.000    2.500    1.500    0.000    1.000 
#    0.000    0.000    0.000    3.000    0.000    0.000 
#    0.000    0.000    0.000    0.000    0.000    0.000 
#
# Total GULP energy -178176.990823 kJ/mol
# GULP energy per Si atom -5568.030963 kJ/mol
# Density = 2.358781 g / cm^3
# Si number density = 23.641616 Si / 1000 Ang^3
#
#
#
# Elastic Constant Matrix: (Units=GPa)
#
#
# Indices 1 2 3 4 5 6 
#
# 1 68.8854 13.9933 25.2972 0.0000 -12.7137 0.0000
# 2 13.9933 45.0313 8.6207 0.0000 2.1268 0.0000
# 3 25.2972 8.6207 140.4571 0.0000 -29.9672 0.0000
# 4 0.0000 0.0000 0.0000 38.9866 0.0000 -1.1267
# 5 -12.7137 2.1268 -29.9672 0.0000 34.1878 0.0000
# 6 0.0000 0.0000 0.0000 -1.1267 0.0000 15.3202
#
#
#
# Elastic Compliance Matrix: (Units=1/GPa)
#
#
# Indices 1 2 3 4 5 6 
#
# 1 0.017163 -0.005268 -0.001644 0.000000 0.005270 0.000000
# 2 -0.005268 0.024377 -0.001585 0.000000 -0.004865 0.000000
# 3 -0.001644 -0.001585 0.009107 0.000000 0.007470 0.000000
# 4 0.000000 0.000000 0.000000 0.025704 0.000000 0.001890
# 5 0.005270 -0.004865 0.007470 0.000000 0.038060 0.000000
# 6 0.000000 0.000000 0.000000 0.001890 0.000000 0.065412
#
#
# Mechanical properties :
#
#
# Convention : Reuss Voigt Hill
#
# Bulk Modulus (GPa) = 29.71457 38.91068 34.31262
# Shear Modulus (GPa) = 24.03445 31.46309 27.74877
#
# Velocity S-wave (km/s) = 3.19190 3.65202 3.42968
# Velocity P-wave (km/s) = 5.11667 5.85468 5.49807
#
# Compressibility (1/GPa) = 0.03365352
#
# Stress axis : x y z
#
# Youngs Moduli (GPa) = 58.26465 41.02239 109.80973
#
# Poissons Ratio (x) = 0.21609 0.18048
# Poissons Ratio (y) = 0.30691 0.17409
# Poissons Ratio (z) = 0.09576 0.06504
#
# Static dielectric constant tensor:
#      x y z
#    x 1.931540 0.000000 0.008170 
#    y 0.000000 2.043750 0.000000 
#    z 0.008170 0.000000 1.951220 
# 
# From -- ./inp_files/60733.got.cif
#   From: 2010.05.17/outbox.cif.g08.bks.cpg/sg14_31_cif.got.tgz:60733.got - 2010.06.03 17:49:19.
