data_PCOD9242950
_publ_section_title
;
Structure prediction by ZEFSAII (Michael W. Deem and Ramdas Pophale) SiO2 
 PCOD9242950
Probable space group: P 21/C
;
_chemical_formula_sum "Si O2"
_cell_formula_units_Z 32
_cell_length_a 20.122570
_cell_length_b 6.233887
_cell_length_c 13.260281
_cell_angle_alpha 90.000000
_cell_angle_beta 109.803395
_cell_angle_gamma 90.000000
_cell_volume 1565.021925
_symmetry_space_group_name_H-M "P 21/C"
_symmetry_group_IT_number 14
_symmetry_cell_setting 'monoclinic'
loop_
_space_group_symop_operation_xyz
x,y,z
-x,1/2+y,1/2-z
-x,-y,-z
x,1/2-y,1/2+z
loop_
_atom_site_type_symbol
_atom_site_label
_atom_site_fract_x
_atom_site_fract_y
_atom_site_fract_z
Si Si1 0.647724 0.573322 0.443662
Si Si2 0.269484 0.453476 0.114323
Si Si3 0.101214 0.933396 0.001928
Si Si4 0.773373 0.196217 0.068108
Si Si5 0.476216 0.369226 0.084318
Si Si6 0.968358 0.813981 0.413778
Si Si7 0.411013 0.690945 0.215877
Si Si8 0.149284 0.594768 0.194647
O O1 0.699695 0.429912 0.537275
O O2 0.604876 0.414799 0.348404
O O3 0.697582 0.729703 0.403468
O O4 0.590985 0.718410 0.471982
O O5 0.334568 0.587386 0.195120
O O6 0.206230 0.455705 0.161016
O O7 0.242854 0.586161 0.001934
O O8 0.035112 0.823025 0.909409
O O9 0.170822 0.938399 0.970476
O O10 0.119766 0.775461 0.104216
O O11 0.075082 0.154593 0.035694
O O12 0.811375 0.211499 0.194181
O O13 0.450826 0.532647 0.158852
O O14 0.540692 0.232797 0.162940
O O15 0.500000 0.500000 0.000000
O O16 0.914625 0.932911 0.310850
O O17 0.000000 0.000000 0.500000
#
# Coordination Sequence:
#
# PCOD9242950 Si02
#       8
#     4   4   4   4   4   4   4   4
#     4  10  21  39  59  84 121 156 198 254 302 357
#     4   9  21  37  59  81 118 157 193 250 300 353
#     4   9  19  38  57  82 121 153 191 248 290 351
#     4  10  21  37  57  88 118 153 203 247 296 359
#     4  11  23  39  62  88 119 159 202 251 308 367
#     4   9  18  36  58  81 112 154 195 238 303 352
#     4  10  21  40  58  86 119 153 202 251 305 359
#     4  10  20  36  58  87 115 156 198 239 299 354
#
# _framework density 20.446999999999999
#
# number of rings (size 3 to 8) (size 9 to 14) (size 15 to 20)
#    0.000    2.250    1.250    0.750    0.000    5.500 
#    6.750    0.000    0.000    0.000    0.000    0.000 
#    0.000    0.000    0.000    0.000    0.000    0.000 
#
# Total GULP energy -178617.480486 kJ/mol
# GULP energy per Si atom -5581.796265 kJ/mol
# Density = 2.040046 g / cm^3
# Si number density = 20.447000 Si / 1000 Ang^3
#
#
#
# Elastic Constant Matrix: (Units=GPa)
#
#
# Indices 1 2 3 4 5 6 
#
# 1 84.6880 13.0787 29.6676 0.0000 24.2439 0.0000
# 2 13.0787 35.2864 -6.0792 0.0000 7.7438 0.0000
# 3 29.6676 -6.0792 71.2124 0.0000 22.4135 0.0000
# 4 0.0000 0.0000 0.0000 7.3050 0.0000 8.2250
# 5 24.2439 7.7438 22.4135 0.0000 19.8451 0.0000
# 6 0.0000 0.0000 0.0000 8.2250 0.0000 26.7847
#
#
#
# Elastic Compliance Matrix: (Units=1/GPa)
#
#
# Indices 1 2 3 4 5 6 
#
# 1 0.018428 -0.002922 -0.001862 0.000000 -0.019270 0.000000
# 2 -0.002922 0.036859 0.012051 0.000000 -0.024424 0.000000
# 3 -0.001862 0.012051 0.025773 0.000000 -0.031536 0.000000
# 4 0.000000 0.000000 0.000000 0.209239 0.000000 -0.064253
# 5 -0.019270 -0.024424 -0.031536 0.000000 0.119079 0.000000
# 6 0.000000 0.000000 0.000000 -0.064253 0.000000 0.057066
#
#
# Mechanical properties :
#
#
# Convention : Reuss Voigt Hill
#
# Bulk Modulus (GPa) = 10.46097 29.39122 19.92609
# Shear Modulus (GPa) = 10.33545 21.08827 15.71186
#
# Velocity S-wave (km/s) = 2.25072 3.21497 2.77504
# Velocity P-wave (km/s) = 3.44696 5.30913 4.47596
#
# Compressibility (1/GPa) = 0.09559347
#
# Stress axis : x y z
#
# Youngs Moduli (GPa) = 54.26567 27.13064 38.80096
#
# Poissons Ratio (x) = 0.07928 0.07224
# Poissons Ratio (y) = 0.15857 -0.46759
# Poissons Ratio (z) = 0.10103 -0.32695
#
# Static dielectric constant tensor:
#      x y z
#    x 1.737580 0.000000 0.027820 
#    y 0.000000 1.726840 0.000000 
#    z 0.027820 0.000000 1.695870 
# 
# From -- ./inp_files/35541.got.cif
#   From: 2010.05.17/outbox.cif.g08.bks.cpg/sg14_18_cif.got.tgz:35541.got - 2010.06.03 17:49:19.
