data_PCOD9242101
_publ_section_title
;
Structure prediction by ZEFSAII (Michael W. Deem and Ramdas Pophale) SiO2 
 PCOD9242101
Probable space group: P 21/C
;
_chemical_formula_sum "Si O2"
_cell_formula_units_Z 24
_cell_length_a 7.233404
_cell_length_b 9.514080
_cell_length_c 13.777505
_cell_angle_alpha 90.000000
_cell_angle_beta 63.890271
_cell_angle_gamma 90.000000
_cell_volume 851.399981
_symmetry_space_group_name_H-M "P 21/C"
_symmetry_group_IT_number 14
_symmetry_cell_setting 'monoclinic'
loop_
_space_group_symop_operation_xyz
x,y,z
-x,1/2+y,1/2-z
-x,-y,-z
x,1/2-y,1/2+z
loop_
_atom_site_type_symbol
_atom_site_label
_atom_site_fract_x
_atom_site_fract_y
_atom_site_fract_z
Si Si1 0.936944 0.499320 0.638086
Si Si2 0.220117 0.769374 0.075398
Si Si3 0.633593 0.218891 0.252823
Si Si4 0.330905 0.338115 0.586081
Si Si5 0.322674 0.014829 0.301007
Si Si6 0.861565 0.966024 0.385091
O O1 0.759970 0.385887 0.652169
O O2 0.891081 0.507392 0.763155
O O3 0.005176 0.657716 0.593318
O O4 0.156043 0.424735 0.570033
O O5 0.220419 0.770143 0.193467
O O6 0.239464 0.605338 0.045987
O O7 0.434141 0.844285 0.001368
O O8 0.446113 0.126191 0.336677
O O9 0.556694 0.366360 0.227877
O O10 0.320470 0.401468 0.698001
O O11 0.256706 0.179121 0.587230
O O12 0.091193 0.969583 0.375889
#
# Coordination Sequence:
#
# PCOD9242101 Si02
#       6
#     4   4   4   4   4   4
#     4  10  19  39  64  86 118 166 214 245 298 377
#     4  11  22  38  67  94 121 163 207 263 305 365
#     4  11  24  40  62  94 125 164 212 258 312 374
#     4  11  21  40  65  92 124 159 214 257 306 366
#     4  11  24  40  64  91 126 166 209 260 312 372
#     4  10  20  39  62  92 120 167 210 244 302 380
#
# _framework density 28.188867999999999
#
# number of rings (size 3 to 8) (size 9 to 14) (size 15 to 20)
#    0.000    1.333    5.000    3.000    7.000    0.000 
#    0.000    3.333    0.000    0.000    0.000    0.000 
#    0.000    0.000    0.000    0.000    0.000    0.000 
#
# Total GULP energy -134232.628471 kJ/mol
# GULP energy per Si atom -5593.026186 kJ/mol
# Density = 2.812471 g / cm^3
# Si number density = 28.188868 Si / 1000 Ang^3
#
#
#
# Elastic Constant Matrix: (Units=GPa)
#
#
# Indices 1 2 3 4 5 6 
#
# 1 101.5097 39.0540 15.6700 0.0000 -15.3297 0.0000
# 2 39.0540 219.0369 31.4004 0.0000 -27.6607 0.0000
# 3 15.6700 31.4004 85.6137 0.0000 -10.0237 0.0000
# 4 0.0000 0.0000 0.0000 34.9269 0.0000 -35.4963
# 5 -15.3297 -27.6607 -10.0237 0.0000 43.6434 0.0000
# 6 0.0000 0.0000 0.0000 -35.4963 0.0000 49.1848
#
#
#
# Elastic Compliance Matrix: (Units=1/GPa)
#
#
# Indices 1 2 3 4 5 6 
#
# 1 0.010995 -0.001456 -0.001166 0.000000 0.002671 0.000000
# 2 -0.001456 0.005348 -0.001396 0.000000 0.002558 0.000000
# 3 -0.001166 -0.001396 0.012593 0.000000 0.001598 0.000000
# 4 0.000000 0.000000 0.000000 0.107417 0.000000 0.077522
# 5 0.002671 0.002558 0.001598 0.000000 0.025839 0.000000
# 6 0.000000 0.000000 0.000000 0.077522 0.000000 0.076278
#
#
# Mechanical properties :
#
#
# Convention : Reuss Voigt Hill
#
# Bulk Modulus (GPa) = 47.84384 64.26768 56.05576
# Shear Modulus (GPa) = 19.72609 46.88675 33.30642
#
# Velocity S-wave (km/s) = 2.64821 4.08279 3.44109
# Velocity P-wave (km/s) = 5.13421 6.71372 5.97638
#
# Compressibility (1/GPa) = 0.02090133
#
# Stress axis : x y z
#
# Youngs Moduli (GPa) = 90.95226 186.98295 79.41109
#
# Poissons Ratio (x) = 0.27223 0.09256
# Poissons Ratio (y) = 0.13242 0.11082
# Poissons Ratio (z) = 0.10602 0.26095
#
# Static dielectric constant tensor:
#      x y z
#    x 2.191100 0.000000 0.055920 
#    y 0.000000 2.275750 0.000000 
#    z 0.055920 0.000000 2.193000 
# 
# From -- ./inp_files/64745.got.cif
#   From: 2010.05.17/outbox.cif.g08.bks.cpg/sg14_33_cif.got.tgz:64745.got - 2010.06.03 17:49:19.
