data_PCOD9242359
_publ_section_title
;
Structure prediction by ZEFSAII (Michael W. Deem and Ramdas Pophale) SiO2 
 PCOD9242359
Probable space group: P 21/C
;
_chemical_formula_sum "Si O2"
_cell_formula_units_Z 24
_cell_length_a 5.376859
_cell_length_b 12.062802
_cell_length_c 12.874976
_cell_angle_alpha 90.000000
_cell_angle_beta 84.585164
_cell_angle_gamma 90.000000
_cell_volume 831.344306
_symmetry_space_group_name_H-M "P 21/C"
_symmetry_group_IT_number 14
_symmetry_cell_setting 'monoclinic'
loop_
_space_group_symop_operation_xyz
x,y,z
-x,1/2+y,1/2-z
-x,-y,-z
x,1/2-y,1/2+z
loop_
_atom_site_type_symbol
_atom_site_label
_atom_site_fract_x
_atom_site_fract_y
_atom_site_fract_z
Si Si1 0.115954 0.345229 0.560969
Si Si2 0.379845 0.713980 0.916961
Si Si3 0.930176 0.575066 0.199688
Si Si4 0.833206 0.166989 0.782128
Si Si5 0.327011 0.390487 0.353858
Si Si6 0.553428 0.473861 0.859116
O O1 0.370439 0.276074 0.561697
O O2 0.075144 0.390389 0.679182
O O3 0.191616 0.428098 0.464259
O O4 0.884789 0.266223 0.537437
O O5 0.328488 0.734588 0.795180
O O6 0.468512 0.584480 0.924643
O O7 0.901384 0.441081 0.210343
O O8 0.685700 0.603186 0.143357
O O9 0.190909 0.592025 0.130093
O O10 0.610932 0.142550 0.870104
O O11 0.108842 0.191336 0.814946
O O12 0.382140 0.479323 0.260753
#
# Coordination Sequence:
#
# PCOD9242359 Si02
#       6
#     4   4   4   4   4   4
#     4  12  20  28  47  82 100 107 156 222 231 234
#     4  10  20  32  47  65 100 130 156 194 231 266
#     4   9  18  29  47  68  96 126 158 183 225 280
#     4   9  18  35  47  59  96 145 158 162 225 319
#     4   9  18  29  47  68  96 126 158 183 225 280
#     4   9  18  35  47  59  96 145 158 162 225 319
#
# _framework density 28.868904000000001
#
# number of rings (size 3 to 8) (size 9 to 14) (size 15 to 20)
#    0.000    2.667    0.000    6.000    0.000    5.333 
#    0.000    0.000    0.000    0.000    0.000    0.000 
#    0.000  488.000    0.000    0.000    0.000    0.000 
#
# Total GULP energy -133892.051796 kJ/mol
# GULP energy per Si atom -5578.835491 kJ/mol
# Density = 2.880320 g / cm^3
# Si number density = 28.868904 Si / 1000 Ang^3
#
#
#
# Elastic Constant Matrix: (Units=GPa)
#
#
# Indices 1 2 3 4 5 6 
#
# 1 297.5301 29.0093 5.4604 0.0000 -2.8016 0.0000
# 2 29.0093 15.4822 1.0051 0.0000 -7.2986 0.0000
# 3 5.4604 1.0051 73.4174 0.0000 -4.5207 0.0000
# 4 0.0000 0.0000 0.0000 25.2467 0.0000 11.9644
# 5 -2.8016 -7.2986 -4.5207 0.0000 32.7642 0.0000
# 6 0.0000 0.0000 0.0000 11.9644 0.0000 41.2690
#
#
#
# Elastic Compliance Matrix: (Units=1/GPa)
#
#
# Indices 1 2 3 4 5 6 
#
# 1 0.004188 -0.008579 -0.000292 0.000000 -0.001593 0.000000
# 2 -0.008579 0.089743 0.000600 0.000000 0.019341 0.000000
# 3 -0.000292 0.000600 0.013758 0.000000 0.002007 0.000000
# 4 0.000000 0.000000 0.000000 0.045918 0.000000 -0.013312
# 5 -0.001593 0.019341 0.002007 0.000000 0.034970 0.000000
# 6 0.000000 0.000000 0.000000 -0.013312 0.000000 0.028091
#
#
# Mechanical properties :
#
#
# Convention : Reuss Voigt Hill
#
# Bulk Modulus (GPa) = 10.97123 50.81993 30.89558
# Shear Modulus (GPa) = 18.96878 43.25298 31.11088
#
# Velocity S-wave (km/s) = 2.56611 3.87493 3.28634
# Velocity P-wave (km/s) = 3.54803 6.13694 5.01251
#
# Compressibility (1/GPa) = 0.09114749
#
# Stress axis : x y z
#
# Youngs Moduli (GPa) = 238.78829 11.14291 72.68581
#
# Poissons Ratio (x) = 0.09559 0.02123
# Poissons Ratio (y) = 2.04854 -0.04364
# Poissons Ratio (z) = 0.06976 -0.00669
#
# Static dielectric constant tensor:
#      x y z
#    x 2.311430 0.000000 0.087140 
#    y 0.000000 2.596360 0.000000 
#    z 0.087140 0.000000 2.286990 
# 
# From -- ./inp_files/37214.got.cif
#   From: 2010.05.17/outbox.cif.g08.bks.cpg/sg14_19_cif.got.tgz:37214.got - 2010.06.03 17:49:19.
