data_PCOD9242722
_publ_section_title
;
Structure prediction by ZEFSAII (Michael W. Deem and Ramdas Pophale) SiO2 
 PCOD9242722
Probable space group: P 21/C
;
_chemical_formula_sum "Si O2"
_cell_formula_units_Z 28
_cell_length_a 11.349178
_cell_length_b 5.376025
_cell_length_c 22.675119
_cell_angle_alpha 90.000000
_cell_angle_beta 60.284916
_cell_angle_gamma 90.000000
_cell_volume 1201.560405
_symmetry_space_group_name_H-M "P 21/C"
_symmetry_group_IT_number 14
_symmetry_cell_setting 'monoclinic'
loop_
_space_group_symop_operation_xyz
x,y,z
-x,1/2+y,1/2-z
-x,-y,-z
x,1/2-y,1/2+z
loop_
_atom_site_type_symbol
_atom_site_label
_atom_site_fract_x
_atom_site_fract_y
_atom_site_fract_z
Si Si1 0.549699 0.402690 0.801634
Si Si2 0.923925 0.713540 0.199606
Si Si3 0.899184 0.715575 0.336997
Si Si4 0.291033 0.377306 0.331224
Si Si5 0.553234 0.180496 0.923648
Si Si6 0.295214 0.492207 0.030806
Si Si7 0.626579 0.203924 0.083909
O O1 0.678915 0.427436 0.728208
O O2 0.427253 0.284806 0.795324
O O3 0.586497 0.229543 0.847301
O O4 0.476107 0.639881 0.849793
O O5 0.845072 0.727292 0.282533
O O6 0.835628 0.728832 0.162065
O O7 0.999562 0.450505 0.183147
O O8 0.024415 0.953091 0.173859
O O9 0.790754 0.783619 0.414360
O O10 0.297735 0.502865 0.393653
O O11 0.679324 0.285755 0.928675
O O12 0.475684 0.917338 0.939519
O O13 0.431470 0.358958 0.974525
O O14 0.260782 0.632661 0.978214
#
# Coordination Sequence:
#
# PCOD9242722 Si02
#       7
#     4   4   4   4   4   4   4
#     4  10  20  35  57  90 122 159 201 255 320 383
#     4  10  24  43  66  91 126 163 220 263 314 371
#     4  10  23  45  64  94 121 167 216 270 310 374
#     4  11  21  37  61  88 126 166 203 265 317 378
#     4   9  20  36  59  93 121 157 203 256 321 378
#     4  10  20  38  63  87 125 161 206 258 320 370
#     4  10  21  36  56  92 127 156 205 255 311 394
#
# _framework density 23.303031000000001
#
# number of rings (size 3 to 8) (size 9 to 14) (size 15 to 20)
#    0.000    2.000    1.429    1.286    4.000    0.000 
#    7.714    1.429    0.000    0.000    0.000    0.000 
#    0.000    0.000    0.000    0.000    0.000    0.000 
#
# Total GULP energy -156158.835105 kJ/mol
# GULP energy per Si atom -5577.101254 kJ/mol
# Density = 2.324999 g / cm^3
# Si number density = 23.303031 Si / 1000 Ang^3
#
#
#
# Elastic Constant Matrix: (Units=GPa)
#
#
# Indices 1 2 3 4 5 6 
#
# 1 39.4728 -1.7331 10.3909 0.0000 14.7946 0.0000
# 2 -1.7331 63.8906 7.6842 0.0000 1.0085 0.0000
# 3 10.3909 7.6842 69.4702 0.0000 -0.0904 0.0000
# 4 0.0000 0.0000 0.0000 24.8853 0.0000 1.2779
# 5 14.7946 1.0085 -0.0904 0.0000 19.4567 0.0000
# 6 0.0000 0.0000 0.0000 1.2779 0.0000 26.3692
#
#
#
# Elastic Compliance Matrix: (Units=1/GPa)
#
#
# Indices 1 2 3 4 5 6 
#
# 1 0.037827 0.002197 -0.005939 0.000000 -0.028905 0.000000
# 2 0.002197 0.016004 -0.002102 0.000000 -0.002509 0.000000
# 3 -0.005939 -0.002102 0.015522 0.000000 0.004697 0.000000
# 4 0.000000 0.000000 0.000000 0.040285 0.000000 -0.001952
# 5 -0.028905 -0.002509 0.004697 0.000000 0.073527 0.000000
# 6 0.000000 0.000000 0.000000 -0.001952 0.000000 0.038018
#
#
# Mechanical properties :
#
#
# Convention : Reuss Voigt Hill
#
# Bulk Modulus (GPa) = 17.34168 22.83531 20.08850
# Shear Modulus (GPa) = 19.83409 24.57500 22.20455
#
# Velocity S-wave (km/s) = 2.92059 3.25096 3.09019
# Velocity P-wave (km/s) = 4.33948 4.89001 4.62295
#
# Compressibility (1/GPa) = 0.05766455
#
# Stress axis : x y z
#
# Youngs Moduli (GPa) = 26.43599 62.48536 64.42667
#
# Poissons Ratio (x) = -0.13725 0.38260
# Poissons Ratio (y) = -0.05807 0.13543
# Poissons Ratio (z) = 0.15699 0.13135
#
# Static dielectric constant tensor:
#      x y z
#    x 1.911690 0.000000 0.047550 
#    y 0.000000 2.026180 0.000000 
#    z 0.047550 0.000000 1.961590 
# 
# From -- ./inp_files/66413.got.cif
#   From: 2010.05.17/outbox.cif.g08.bks.cpg/sg14_34_cif.got.tgz:66413.got - 2010.06.03 17:49:19.
