data_PCOD9242282
_publ_section_title
;
Structure prediction by ZEFSAII (Michael W. Deem and Ramdas Pophale) SiO2 
 PCOD9242282
Probable space group: P 21/C
;
_chemical_formula_sum "Si O2"
_cell_formula_units_Z 32
_cell_length_a 32.959439
_cell_length_b 9.292216
_cell_length_c 12.383262
_cell_angle_alpha 90.000000
_cell_angle_beta 22.641631
_cell_angle_gamma 90.000000
_cell_volume 1460.012489
_symmetry_space_group_name_H-M "P 21/C"
_symmetry_group_IT_number 14
_symmetry_cell_setting 'monoclinic'
loop_
_space_group_symop_operation_xyz
x,y,z
-x,1/2+y,1/2-z
-x,-y,-z
x,1/2-y,1/2+z
loop_
_atom_site_type_symbol
_atom_site_label
_atom_site_fract_x
_atom_site_fract_y
_atom_site_fract_z
Si Si1 0.883515 0.844128 0.540537
Si Si2 0.390872 0.399439 0.139744
Si Si3 0.195894 0.918565 0.103549
Si Si4 0.836646 0.984297 0.451981
Si Si5 0.284030 0.820766 0.532952
Si Si6 0.274374 0.373802 0.978158
Si Si7 0.383904 0.947957 0.888679
Si Si8 0.089647 0.706261 0.672884
O O1 0.897643 0.874667 0.380225
O O2 0.791856 0.726546 0.778148
O O3 0.985831 0.802988 0.356453
O O4 0.845965 0.993295 0.690002
O O5 0.296006 0.488179 0.318034
O O6 0.359368 0.232402 0.215083
O O7 0.390889 0.449034 0.266443
O O8 0.506499 0.443239 0.816422
O O9 0.241074 0.766116 0.033632
O O10 0.107604 0.898119 0.230587
O O11 0.813543 0.923326 0.392030
O O12 0.896532 0.134053 0.314174
O O13 0.719150 0.010402 0.790846
O O14 0.367477 0.712581 0.381167
O O15 0.319803 0.980455 0.416260
O O16 0.186777 0.827581 0.854471
#
# Coordination Sequence:
#
# PCOD9242282 Si02
#       8
#     4   4   4   4   4   4   4   4
#     4  11  24  41  61  90 124 162 206 249 306 363
#     4   9  19  39  65  87 118 162 197 248 307 360
#     4  10  19  42  60  88 118 161 202 241 301 369
#     4  11  22  43  60  89 129 159 200 259 310 357
#     4  10  21  37  62  88 125 153 202 252 298 362
#     4  11  23  38  62  94 125 157 206 260 298 364
#     4   9  18  42  65  81 122 167 191 247 315 357
#     4  11  23  38  66  87 120 167 205 248 302 364
#
# _framework density 21.917618999999998
#
# number of rings (size 3 to 8) (size 9 to 14) (size 15 to 20)
#    0.000    1.750    6.250    0.375    1.750    4.000 
#    4.500    0.000    0.000    0.000    0.000    0.000 
#    0.000    0.000    0.000    0.000    0.000    0.000 
#
# Total GULP energy -178751.074317 kJ/mol
# GULP energy per Si atom -5585.971072 kJ/mol
# Density = 2.186773 g / cm^3
# Si number density = 21.917619 Si / 1000 Ang^3
#
#
#
# Elastic Constant Matrix: (Units=GPa)
#
#
# Indices 1 2 3 4 5 6 
#
# 1 36.1163 9.4881 -4.6992 0.0000 -5.3256 0.0000
# 2 9.4881 109.9549 1.0379 0.0000 3.7767 0.0000
# 3 -4.6992 1.0379 32.4817 0.0000 -11.1825 0.0000
# 4 0.0000 0.0000 0.0000 13.7268 0.0000 -1.8951
# 5 -5.3256 3.7767 -11.1825 0.0000 19.0577 0.0000
# 6 0.0000 0.0000 0.0000 -1.8951 0.0000 25.3076
#
#
#
# Elastic Compliance Matrix: (Units=1/GPa)
#
#
# Indices 1 2 3 4 5 6 
#
# 1 0.032211 -0.003412 0.010151 0.000000 0.015634 0.000000
# 2 -0.003412 0.009553 -0.002229 0.000000 -0.004155 0.000000
# 3 0.010151 -0.002229 0.041924 0.000000 0.027879 0.000000
# 4 0.000000 0.000000 0.000000 0.073611 0.000000 0.005512
# 5 0.015634 -0.004155 0.027879 0.000000 0.074023 0.000000
# 6 0.000000 0.000000 0.000000 0.005512 0.000000 0.039927
#
#
# Mechanical properties :
#
#
# Convention : Reuss Voigt Hill
#
# Bulk Modulus (GPa) = 10.78657 21.13404 15.96030
# Shear Modulus (GPa) = 17.05719 23.13350 20.09534
#
# Velocity S-wave (km/s) = 2.79272 3.25233 3.03125
# Velocity P-wave (km/s) = 3.91550 4.87514 4.42143
#
# Compressibility (1/GPa) = 0.09270785
#
# Stress axis : x y z
#
# Youngs Moduli (GPa) = 31.04527 104.68088 23.85253
#
# Poissons Ratio (x) = 0.35721 -0.24214
# Poissons Ratio (y) = 0.10594 0.05317
# Poissons Ratio (z) = -0.31515 0.23336
#
# Static dielectric constant tensor:
#      x y z
#    x 1.815900 0.000000 0.000690 
#    y 0.000000 1.810070 0.000000 
#    z 0.000690 0.000000 1.818750 
# 
# From -- ./inp_files/36428.got.cif
#   From: 2010.05.17/outbox.cif.g08.bks.cpg/sg14_19_cif.got.tgz:36428.got - 2010.06.03 17:49:19.
