data_PCOD9242488
_publ_section_title
;
Structure prediction by ZEFSAII (Michael W. Deem and Ramdas Pophale) SiO2 
 PCOD9242488
Probable space group: P 21/C
;
_chemical_formula_sum "Si O2"
_cell_formula_units_Z 32
_cell_length_a 19.075885
_cell_length_b 11.436373
_cell_length_c 7.800378
_cell_angle_alpha 90.000000
_cell_angle_beta 57.485080
_cell_angle_gamma 90.000000
_cell_volume 1434.979774
_symmetry_space_group_name_H-M "P 21/C"
_symmetry_group_IT_number 14
_symmetry_cell_setting 'monoclinic'
loop_
_space_group_symop_operation_xyz
x,y,z
-x,1/2+y,1/2-z
-x,-y,-z
x,1/2-y,1/2+z
loop_
_atom_site_type_symbol
_atom_site_label
_atom_site_fract_x
_atom_site_fract_y
_atom_site_fract_z
Si Si1 0.513104 0.808687 0.428936
Si Si2 0.140012 0.681949 0.978537
Si Si3 0.610395 0.895162 0.980501
Si Si4 0.227239 0.601474 0.541843
Si Si5 0.905054 0.824800 0.351730
Si Si6 0.801907 0.636294 0.304284
Si Si7 0.023933 0.831583 0.912942
Si Si8 0.412890 0.634277 0.374461
O O1 0.571358 0.875526 0.220680
O O2 0.563473 0.692756 0.418215
O O3 0.431999 0.758133 0.438147
O O4 0.485196 0.874939 0.636595
O O5 0.177891 0.804462 0.996151
O O6 0.099342 0.619838 0.197251
O O7 0.207751 0.622448 0.769700
O O8 0.066564 0.717920 0.945393
O O9 0.592428 0.031935 0.976727
O O10 0.707641 0.864329 0.859419
O O11 0.198748 0.467889 0.554454
O O12 0.324810 0.623061 0.395136
O O13 0.832208 0.759651 0.341387
O O14 0.865010 0.890868 0.564959
O O15 0.955916 0.718054 0.371874
O O16 0.971701 0.887336 0.137944
#
# Coordination Sequence:
#
# PCOD9242488 Si02
#       8
#     4   4   4   4   4   4   4   4
#     4  10  20  34  54  76 100 136 166 202 254 292
#     4   9  17  34  53  73 102 132 166 209 249 294
#     4  10  20  34  52  76 103 131 168 207 245 297
#     4  10  20  34  53  75 101 134 167 204 251 297
#     4   9  17  34  53  73 102 132 166 209 249 294
#     4  10  20  34  53  75 101 134 167 204 251 297
#     4   8  16  32  52  72 102 132 162 212 250 284
#     4  10  20  34  52  76 103 131 168 207 245 297
#
# _framework density 22.299966999999999
#
# number of rings (size 3 to 8) (size 9 to 14) (size 15 to 20)
#    0.000    2.500    0.000    2.250    0.000    0.000 
#    0.000   28.750    0.000   21.000    0.000    0.000 
#    0.000    0.000    0.000    0.000    0.000    0.000 
#
# Total GULP energy -178309.221705 kJ/mol
# GULP energy per Si atom -5572.163178 kJ/mol
# Density = 2.224921 g / cm^3
# Si number density = 22.299967 Si / 1000 Ang^3
#
#
#
# Elastic Constant Matrix: (Units=GPa)
#
#
# Indices 1 2 3 4 5 6 
#
# 1 45.3518 -2.7102 -2.2633 0.0000 -14.1582 0.0000
# 2 -2.7102 22.1731 -13.2097 0.0000 -6.9373 0.0000
# 3 -2.2633 -13.2097 77.7098 0.0000 -9.7825 0.0000
# 4 0.0000 0.0000 0.0000 22.5741 0.0000 4.6631
# 5 -14.1582 -6.9373 -9.7825 0.0000 29.5197 0.0000
# 6 0.0000 0.0000 0.0000 4.6631 0.0000 4.1744
#
#
#
# Elastic Compliance Matrix: (Units=1/GPa)
#
#
# Indices 1 2 3 4 5 6 
#
# 1 0.028839 0.012470 0.005291 0.000000 0.018516 0.000000
# 2 0.012470 0.063152 0.014317 0.000000 0.025566 0.000000
# 3 0.005291 0.014317 0.016904 0.000000 0.011504 0.000000
# 4 0.000000 0.000000 0.000000 0.057587 0.000000 -0.064330
# 5 0.018516 0.025566 0.011504 0.000000 0.052576 0.000000
# 6 0.000000 0.000000 0.000000 -0.064330 0.000000 0.311420
#
#
# Mechanical properties :
#
#
# Convention : Reuss Voigt Hill
#
# Bulk Modulus (GPa) = 5.77870 12.09646 8.93758
# Shear Modulus (GPa) = 9.54182 22.14815 15.84499
#
# Velocity S-wave (km/s) = 2.07078 3.15491 2.66848
# Velocity P-wave (km/s) = 2.88349 4.32522 3.67573
#
# Compressibility (1/GPa) = 0.17304937
#
# Stress axis : x y z
#
# Youngs Moduli (GPa) = 34.67486 15.83484 59.15656
#
# Poissons Ratio (x) = -0.19746 -0.31297
# Poissons Ratio (y) = -0.43239 -0.84692
# Poissons Ratio (z) = -0.18345 -0.22670
#
# Static dielectric constant tensor:
#      x y z
#    x 1.774710 0.000000 0.002040 
#    y 0.000000 1.860790 0.000000 
#    z 0.002040 0.000000 1.838260 
# 
# From -- ./inp_files/18941.got.cif
#   From: 2010.05.17/outbox.cif.g08.bks.cpg/sg14_10_cif.got.tgz:18941.got - 2010.06.03 17:49:19.
