data_PCOD9242937
_publ_section_title
;
Structure prediction by ZEFSAII (Michael W. Deem and Ramdas Pophale) SiO2 
 PCOD9242937
Probable space group: P 21/C
;
_chemical_formula_sum "Si O2"
_cell_formula_units_Z 28
_cell_length_a 15.816679
_cell_length_b 18.663391
_cell_length_c 9.406568
_cell_angle_alpha 90.000000
_cell_angle_beta 150.708990
_cell_angle_gamma 90.000000
_cell_volume 1358.513615
_symmetry_space_group_name_H-M "P 21/C"
_symmetry_group_IT_number 14
_symmetry_cell_setting 'monoclinic'
loop_
_space_group_symop_operation_xyz
x,y,z
-x,1/2+y,1/2-z
-x,-y,-z
x,1/2-y,1/2+z
loop_
_atom_site_type_symbol
_atom_site_label
_atom_site_fract_x
_atom_site_fract_y
_atom_site_fract_z
Si Si1 0.995689 0.209279 0.594303
Si Si2 0.309848 0.028603 0.760776
Si Si3 0.759089 0.578115 0.529662
Si Si4 0.840745 0.194538 0.644393
Si Si5 0.530990 0.796344 0.769166
Si Si6 0.002202 0.455347 0.359551
Si Si7 0.299646 0.195548 0.680941
O O1 0.080718 0.131660 0.702390
O O2 0.837641 0.205585 0.472041
O O3 0.930724 0.239110 0.352048
O O4 0.134498 0.262559 0.873735
O O5 0.282770 0.032351 0.891873
O O6 0.288021 0.109713 0.668309
O O7 0.160439 0.980874 0.472870
O O8 0.500000 0.000000 0.000000
O O9 0.602755 0.635080 0.286727
O O10 0.824602 0.539351 0.483070
O O11 0.655481 0.185197 0.442998
O O12 0.965869 0.126695 0.848245
O O13 0.549484 0.726918 0.698328
O O14 0.653821 0.785072 0.087732
O O15 0.000000 0.500000 0.500000
#
# Coordination Sequence:
#
# PCOD9242937 Si02
#       7
#     4   4   4   4   4   4   4
#     4  10  20  36  61  84 111 144 189 240 283 333
#     4  11  22  39  59  82 115 156 193 227 277 351
#     4   9  21  40  60  80 112 156 193 228 283 342
#     4  11  21  36  57  89 114 142 187 238 285 327
#     4  10  20  36  58  84 113 142 184 242 285 328
#     4  11  23  38  59  84 116 152 192 234 277 339
#     4  10  20  37  57  81 110 148 186 227 287 338
#
# _framework density 20.610759999999999
#
# number of rings (size 3 to 8) (size 9 to 14) (size 15 to 20)
#    0.000    1.714    0.000    6.429    0.000    3.429 
#    0.000    7.143    0.000    0.000    0.000    0.000 
#    0.000    0.000    0.000    0.000    0.000    0.000 
#
# Total GULP energy -156281.094652 kJ/mol
# GULP energy per Si atom -5581.467666 kJ/mol
# Density = 2.056385 g / cm^3
# Si number density = 20.610760 Si / 1000 Ang^3
#
#
#
# Elastic Constant Matrix: (Units=GPa)
#
#
# Indices 1 2 3 4 5 6 
#
# 1 168.0168 23.4699 19.2227 0.0000 24.9479 0.0000
# 2 23.4699 39.6685 -11.4275 0.0000 -4.0694 0.0000
# 3 19.2227 -11.4275 34.9679 0.0000 16.8888 0.0000
# 4 0.0000 0.0000 0.0000 9.3840 0.0000 -5.4104
# 5 24.9479 -4.0694 16.8888 0.0000 33.1853 0.0000
# 6 0.0000 0.0000 0.0000 -5.4104 0.0000 43.9067
#
#
#
# Elastic Compliance Matrix: (Units=1/GPa)
#
#
# Indices 1 2 3 4 5 6 
#
# 1 0.008036 -0.006466 -0.004283 0.000000 -0.004655 0.000000
# 2 -0.006466 0.033096 0.013342 0.000000 0.002129 0.000000
# 3 -0.004283 0.013342 0.043711 0.000000 -0.017390 0.000000
# 4 0.000000 0.000000 0.000000 0.114714 0.000000 0.014136
# 5 -0.004655 0.002129 -0.017390 0.000000 0.042744 0.000000
# 6 0.000000 0.000000 0.000000 0.014136 0.000000 0.024517
#
#
# Mechanical properties :
#
#
# Convention : Reuss Voigt Hill
#
# Bulk Modulus (GPa) = 11.10735 33.90928 22.50831
# Shear Modulus (GPa) = 17.14431 31.38776 24.26603
#
# Velocity S-wave (km/s) = 2.88725 3.90665 3.43497
# Velocity P-wave (km/s) = 4.06395 6.06936 5.16492
#
# Compressibility (1/GPa) = 0.09003050
#
# Stress axis : x y z
#
# Youngs Moduli (GPa) = 124.43871 30.21493 22.87755
#
# Poissons Ratio (x) = 0.19536 0.09797
# Poissons Ratio (y) = 0.80459 -0.30523
# Poissons Ratio (z) = 0.53291 -0.40312
#
# Static dielectric constant tensor:
#      x y z
#    x 1.806780 0.000000 -0.004300 
#    y 0.000000 1.744340 0.000000 
#    z -0.004300 0.000000 1.764590 
# 
# From -- ./inp_files/16940.got.cif
#   From: 2010.05.17/outbox.cif.g08.bks.cpg/sg14_9_cif.got.tgz:16940.got - 2010.06.03 17:49:19.
