data_PCOD9242348
_publ_section_title
;
Structure prediction by ZEFSAII (Michael W. Deem and Ramdas Pophale) SiO2 
 PCOD9242348
Probable space group: P 21/C
;
_chemical_formula_sum "Si O2"
_cell_formula_units_Z 28
_cell_length_a 9.705157
_cell_length_b 11.876554
_cell_length_c 12.367502
_cell_angle_alpha 90.000000
_cell_angle_beta 128.573713
_cell_angle_gamma 90.000000
_cell_volume 1114.485307
_symmetry_space_group_name_H-M "P 21/C"
_symmetry_group_IT_number 14
_symmetry_cell_setting 'monoclinic'
loop_
_space_group_symop_operation_xyz
x,y,z
-x,1/2+y,1/2-z
-x,-y,-z
x,1/2-y,1/2+z
loop_
_atom_site_type_symbol
_atom_site_label
_atom_site_fract_x
_atom_site_fract_y
_atom_site_fract_z
Si Si1 0.183468 0.894800 0.968005
Si Si2 0.958231 0.755995 0.027988
Si Si3 0.619942 0.599756 0.320470
Si Si4 0.147968 0.166625 0.804602
Si Si5 0.529468 0.318163 0.557347
Si Si6 0.355186 0.110340 0.409054
Si Si7 0.039117 0.025269 0.348491
O O1 0.083613 0.810602 0.000074
O O2 0.330100 0.835464 0.966253
O O3 0.272247 0.992107 0.083822
O O4 0.060981 0.948800 0.814558
O O5 0.983246 0.627361 0.078760
O O6 0.978009 0.821607 0.153013
O O7 0.755155 0.793107 0.900796
O O8 0.453444 0.628465 0.315789
O O9 0.576738 0.580255 0.175014
O O10 0.345615 0.122440 0.927443
O O11 0.204467 0.294554 0.810312
O O12 0.052648 0.092986 0.668760
O O13 0.489732 0.184937 0.543848
O O14 0.245329 0.018768 0.420163
#
# Coordination Sequence:
#
# PCOD9242348 Si02
#       7
#     4   4   4   4   4   4   4
#     4  12  20  33  58  85 104 139 186 226 264 322
#     4  10  20  31  53  85 105 135 187 220 262 316
#     4  11  18  35  60  77 103 147 181 218 268 322
#     4   8  18  36  49  77 111 135 174 219 270 310
#     4   9  21  35  48  84 113 128 179 230 272 305
#     4   9  19  34  55  80 112 139 178 228 266 319
#     4  11  18  33  59  77 110 139 180 228 259 317
#
# _framework density 25.123705999999999
#
# number of rings (size 3 to 8) (size 9 to 14) (size 15 to 20)
#    0.857    1.143    5.714    1.714    0.000    1.143 
#    0.000    0.714    0.000    0.000    0.000    7.000 
#    0.000    0.000    0.000    0.000    0.000    0.000 
#
# Total GULP energy -156160.381387 kJ/mol
# GULP energy per Si atom -5577.156478 kJ/mol
# Density = 2.506652 g / cm^3
# Si number density = 25.123706 Si / 1000 Ang^3
#
#
#
# Elastic Constant Matrix: (Units=GPa)
#
#
# Indices 1 2 3 4 5 6 
#
# 1 140.4311 35.6964 47.0270 0.0000 -40.7445 0.0000
# 2 35.6964 57.4993 12.2815 0.0000 14.5600 0.0000
# 3 47.0270 12.2815 56.1853 0.0000 -16.9443 0.0000
# 4 0.0000 0.0000 0.0000 12.9795 0.0000 9.6255
# 5 -40.7445 14.5600 -16.9443 0.0000 32.6249 0.0000
# 6 0.0000 0.0000 0.0000 9.6255 0.0000 22.9078
#
#
#
# Elastic Compliance Matrix: (Units=1/GPa)
#
#
# Indices 1 2 3 4 5 6 
#
# 1 0.031231 -0.031493 -0.003860 0.000000 0.051054 0.000000
# 2 -0.031493 0.055180 -0.005917 0.000000 -0.067029 0.000000
# 3 -0.003860 -0.005917 0.025689 0.000000 0.011162 0.000000
# 4 0.000000 0.000000 0.000000 0.111920 0.000000 -0.047027
# 5 0.051054 -0.067029 0.011162 0.000000 0.130123 0.000000
# 6 0.000000 0.000000 0.000000 -0.047027 0.000000 0.063413
#
#
# Mechanical properties :
#
#
# Convention : Reuss Voigt Hill
#
# Bulk Modulus (GPa) = 33.82874 49.34729 41.58801
# Shear Modulus (GPa) = 9.80490 24.30980 17.05735
#
# Velocity S-wave (km/s) = 1.97766 3.11401 2.60846
# Velocity P-wave (km/s) = 4.32538 5.71085 5.06570
#
# Compressibility (1/GPa) = 0.02956067
#
# Stress axis : x y z
#
# Youngs Moduli (GPa) = 32.01899 18.12263 38.92770
#
# Poissons Ratio (x) = 0.57073 0.15025
# Poissons Ratio (y) = 1.00836 0.23034
# Poissons Ratio (z) = 0.12359 0.10724
#
# Static dielectric constant tensor:
#      x y z
#    x 2.052010 0.000000 0.004710 
#    y 0.000000 2.128490 0.000000 
#    z 0.004710 0.000000 2.039540 
# 
# From -- ./inp_files/40708.got.cif
#   From: 2010.05.17/outbox.cif.g08.bks.cpg/sg14_21_cif.got.tgz:40708.got - 2010.06.03 17:49:19.
