data_PCOD9242029
_publ_section_title
;
Structure prediction by ZEFSAII (Michael W. Deem and Ramdas Pophale) SiO2 
 PCOD9242029
Probable space group: P 21/C
;
_chemical_formula_sum "Si O2"
_cell_formula_units_Z 28
_cell_length_a 10.384618
_cell_length_b 17.087330
_cell_length_c 14.552709
_cell_angle_alpha 90.000000
_cell_angle_beta 152.907257
_cell_angle_gamma 90.000000
_cell_volume 1176.067540
_symmetry_space_group_name_H-M "P 21/C"
_symmetry_group_IT_number 14
_symmetry_cell_setting 'monoclinic'
loop_
_space_group_symop_operation_xyz
x,y,z
-x,1/2+y,1/2-z
-x,-y,-z
x,1/2-y,1/2+z
loop_
_atom_site_type_symbol
_atom_site_label
_atom_site_fract_x
_atom_site_fract_y
_atom_site_fract_z
Si Si1 0.733435 0.205471 0.700096
Si Si2 0.059222 0.042400 0.444050
Si Si3 0.463526 0.840261 0.223697
Si Si4 0.505642 0.125433 0.076408
Si Si5 0.939109 0.940866 0.878369
Si Si6 0.126462 0.938895 0.326865
Si Si7 0.651089 0.678840 0.328432
O O1 0.601650 0.171590 0.709892
O O2 0.579170 0.287906 0.584651
O O3 0.725209 0.139121 0.617193
O O4 0.065181 0.211924 0.939628
O O5 0.764861 0.070550 0.212937
O O6 0.240735 0.116674 0.588695
O O7 0.221542 0.984478 0.478044
O O8 0.000000 0.000000 0.500000
O O9 0.475046 0.754570 0.187562
O O10 0.223848 0.895602 0.030291
O O11 0.507031 0.134390 0.189122
O O12 0.197223 0.090339 0.859882
O O13 0.749548 0.875002 0.807559
O O14 0.848289 0.995697 0.736969
O O15 0.000000 0.000000 0.000000
#
# Coordination Sequence:
#
# PCOD9242029 Si02
#       7
#     4   4   4   4   4   4   4
#     4   9  18  37  66  92 124 167 211 254 321 384
#     4  12  26  39  62  92 129 162 215 270 319 370
#     4  10  20  37  63  91 128 168 205 257 319 382
#     4  10  19  38  67  89 127 170 202 257 323 386
#     4  11  19  39  68  95 122 165 214 259 316 380
#     4  11  23  41  66  96 128 170 217 266 320 377
#     4   9  18  35  66  91 125 170 208 249 322 387
#
# _framework density 23.808156
#
# number of rings (size 3 to 8) (size 9 to 14) (size 15 to 20)
#    0.000    1.714    5.714    1.286    0.000    0.571 
#    0.000    1.429   12.571    0.000    0.000    0.000 
#    0.000    0.000    0.000    0.000    0.000    0.000 
#
# Total GULP energy -156607.370688 kJ/mol
# GULP energy per Si atom -5593.120382 kJ/mol
# Density = 2.375397 g / cm^3
# Si number density = 23.808156 Si / 1000 Ang^3
#
#
#
# Elastic Constant Matrix: (Units=GPa)
#
#
# Indices 1 2 3 4 5 6 
#
# 1 85.8162 43.4472 7.0716 0.0000 -4.9292 0.0000
# 2 43.4472 142.9862 31.9548 0.0000 -1.2840 0.0000
# 3 7.0716 31.9548 47.2742 0.0000 5.0984 0.0000
# 4 0.0000 0.0000 0.0000 26.6563 0.0000 24.1363
# 5 -4.9292 -1.2840 5.0984 0.0000 33.8677 0.0000
# 6 0.0000 0.0000 0.0000 24.1363 0.0000 46.8256
#
#
#
# Elastic Compliance Matrix: (Units=1/GPa)
#
#
# Indices 1 2 3 4 5 6 
#
# 1 0.013906 -0.004361 0.000678 0.000000 0.001756 0.000000
# 2 -0.004361 0.009652 -0.005939 0.000000 0.000625 0.000000
# 3 0.000678 -0.005939 0.025494 0.000000 -0.003964 0.000000
# 4 0.000000 0.000000 0.000000 0.070347 0.000000 -0.036260
# 5 0.001756 0.000625 -0.003964 0.000000 0.030403 0.000000
# 6 0.000000 0.000000 0.000000 -0.036260 0.000000 0.040046
#
#
# Mechanical properties :
#
#
# Convention : Reuss Voigt Hill
#
# Bulk Modulus (GPa) = 33.54866 49.00263 41.27565
# Shear Modulus (GPa) = 22.82828 34.37681 28.60254
#
# Velocity S-wave (km/s) = 3.09988 3.80400 3.46985
# Velocity P-wave (km/s) = 5.18981 6.31830 5.78165
#
# Compressibility (1/GPa) = 0.02980745
#
# Stress axis : x y z
#
# Youngs Moduli (GPa) = 71.91256 103.60808 39.22530
#
# Poissons Ratio (x) = 0.45185 -0.02661
# Poissons Ratio (y) = 0.31362 0.23296
# Poissons Ratio (z) = -0.04878 0.61534
#
# Static dielectric constant tensor:
#      x y z
#    x 1.828620 0.000000 -0.002970 
#    y 0.000000 1.893170 0.000000 
#    z -0.002970 0.000000 1.950990 
# 
# From -- ./inp_files/41810.got.cif
#   From: 2010.05.17/outbox.cif.g08.bks.cpg/sg14_21_cif.got.tgz:41810.got - 2010.06.03 17:49:19.
