data_PCOD9242980
_publ_section_title
;
Structure prediction by ZEFSAII (Michael W. Deem and Ramdas Pophale) SiO2 
 PCOD9242980
Probable space group: P 21/C
;
_chemical_formula_sum "Si O2"
_cell_formula_units_Z 24
_cell_length_a 7.828239
_cell_length_b 9.425521
_cell_length_c 14.488492
_cell_angle_alpha 90.000000
_cell_angle_beta 62.448088
_cell_angle_gamma 90.000000
_cell_volume 947.799529
_symmetry_space_group_name_H-M "P 21/C"
_symmetry_group_IT_number 14
_symmetry_cell_setting 'monoclinic'
loop_
_space_group_symop_operation_xyz
x,y,z
-x,1/2+y,1/2-z
-x,-y,-z
x,1/2-y,1/2+z
loop_
_atom_site_type_symbol
_atom_site_label
_atom_site_fract_x
_atom_site_fract_y
_atom_site_fract_z
Si Si1 0.207164 0.422740 0.943900
Si Si2 0.001776 0.836400 0.023915
Si Si3 0.405443 0.461953 0.169893
Si Si4 0.753677 0.969905 0.782708
Si Si5 0.036783 0.303728 0.246494
Si Si6 0.401544 0.673966 0.335909
O O1 0.405595 0.486190 0.932932
O O2 0.251248 0.430391 0.823747
O O3 0.161696 0.260864 0.981478
O O4 0.000000 0.500000 0.000000
O O5 0.977998 0.817384 0.139019
O O6 0.208741 0.784800 0.937156
O O7 0.000000 0.000000 0.000000
O O8 0.210471 0.407591 0.169964
O O9 0.353429 0.585196 0.255988
O O10 0.477766 0.319144 0.205128
O O11 0.901326 0.856751 0.791369
O O12 0.536824 0.930077 0.864737
O O13 0.836694 0.127321 0.765523
#
# Coordination Sequence:
#
# PCOD9242980 Si02
#       6
#     4   4   4   4   4   4
#     4  10  20  38  61  84 112 148 191 238 285 338
#     4  11  21  36  59  90 117 144 194 244 281 335
#     4  10  20  36  60  85 115 150 193 234 286 340
#     4   9  22  37  56  82 115 153 189 231 290 339
#     4  10  21  39  57  81 118 151 191 236 286 343
#     4  10  20  36  59  85 116 151 190 238 285 339
#
# _framework density 25.321811
#
# number of rings (size 3 to 8) (size 9 to 14) (size 15 to 20)
#    0.000    2.000    3.333    1.000    0.000    4.667 
#    0.000    0.833    0.000    0.000    0.000    0.000 
#    0.000    0.000    0.000    0.000    0.000    0.000 
#
# Total GULP energy -134076.041978 kJ/mol
# GULP energy per Si atom -5586.501749 kJ/mol
# Density = 2.526418 g / cm^3
# Si number density = 25.321811 Si / 1000 Ang^3
#
#
#
# Elastic Constant Matrix: (Units=GPa)
#
#
# Indices 1 2 3 4 5 6 
#
# 1 75.9176 27.6770 12.5135 0.0000 -18.3672 0.0000
# 2 27.6770 101.8565 -1.0866 0.0000 -6.6439 0.0000
# 3 12.5135 -1.0866 94.3710 0.0000 -22.5862 0.0000
# 4 0.0000 0.0000 0.0000 24.8171 0.0000 -12.7016
# 5 -18.3672 -6.6439 -22.5862 0.0000 37.9901 0.0000
# 6 0.0000 0.0000 0.0000 -12.7016 0.0000 50.0033
#
#
#
# Elastic Compliance Matrix: (Units=1/GPa)
#
#
# Indices 1 2 3 4 5 6 
#
# 1 0.016395 -0.004012 -0.000572 0.000000 0.006884 0.000000
# 2 -0.004012 0.010944 0.000760 0.000000 0.000426 0.000000
# 3 -0.000572 0.000760 0.012413 0.000000 0.007236 0.000000
# 4 0.000000 0.000000 0.000000 0.046316 0.000000 0.011765
# 5 0.006884 0.000426 0.007236 0.000000 0.034028 0.000000
# 6 0.000000 0.000000 0.000000 0.011765 0.000000 0.022987
#
#
# Mechanical properties :
#
#
# Convention : Reuss Voigt Hill
#
# Bulk Modulus (GPa) = 31.15009 38.92811 35.03910
# Shear Modulus (GPa) = 30.97280 38.09820 34.53550
#
# Velocity S-wave (km/s) = 3.50117 3.88307 3.69706
# Velocity P-wave (km/s) = 5.35469 5.95912 5.66497
#
# Compressibility (1/GPa) = 0.03210264
#
# Stress axis : x y z
#
# Youngs Moduli (GPa) = 60.99525 91.37618 80.56109
#
# Poissons Ratio (x) = 0.36659 0.04612
# Poissons Ratio (y) = 0.24471 -0.06122
# Poissons Ratio (z) = 0.03492 -0.06944
#
# Static dielectric constant tensor:
#      x y z
#    x 2.183010 0.000000 -0.084970 
#    y 0.000000 2.056780 0.000000 
#    z -0.084970 0.000000 2.056880 
# 
# From -- ./inp_files/38935.got.cif
#   From: 2010.05.17/outbox.cif.g08.bks.cpg/sg14_20_cif.got.tgz:38935.got - 2010.06.03 17:49:19.
