data_PCOD9242979
_publ_section_title
;
Structure prediction by ZEFSAII (Michael W. Deem and Ramdas Pophale) SiO2 
 PCOD9242979
Probable space group: P 21/C
;
_chemical_formula_sum "Si O2"
_cell_formula_units_Z 28
_cell_length_a 17.733585
_cell_length_b 9.127969
_cell_length_c 10.063188
_cell_angle_alpha 90.000000
_cell_angle_beta 47.011762
_cell_angle_gamma 90.000000
_cell_volume 1191.562613
_symmetry_space_group_name_H-M "P 21/C"
_symmetry_group_IT_number 14
_symmetry_cell_setting 'monoclinic'
loop_
_space_group_symop_operation_xyz
x,y,z
-x,1/2+y,1/2-z
-x,-y,-z
x,1/2-y,1/2+z
loop_
_atom_site_type_symbol
_atom_site_label
_atom_site_fract_x
_atom_site_fract_y
_atom_site_fract_z
Si Si1 0.359539 0.526911 0.625074
Si Si2 0.187294 0.771415 0.221641
Si Si3 0.529026 0.753539 0.972788
Si Si4 0.908568 0.632037 0.273205
Si Si5 0.537578 0.006684 0.285556
Si Si6 0.043077 0.134200 0.572924
Si Si7 0.757011 0.092419 0.102091
O O1 0.250490 0.599160 0.722278
O O2 0.375007 0.363868 0.663628
O O3 0.429371 0.644301 0.619011
O O4 0.420765 0.514002 0.411887
O O5 0.067239 0.799898 0.341938
O O6 0.203012 0.636327 0.301383
O O7 0.234089 0.774859 0.016639
O O8 0.505380 0.653627 0.872429
O O9 0.539332 0.636054 0.079406
O O10 0.013139 0.532519 0.145906
O O11 0.825284 0.533494 0.450433
O O12 0.921675 0.778980 0.340403
O O13 0.887437 0.653305 0.141924
O O14 0.640569 0.040313 0.247229
#
# Coordination Sequence:
#
# PCOD9242979 Si02
#       7
#     4   4   4   4   4   4   4
#     4  10  20  36  60  85 116 154 198 243 295 367
#     4  10  20  38  63  86 122 155 202 247 304 357
#     4  10  20  36  59  85 114 156 194 241 298 369
#     4  10  22  40  63  89 123 159 213 244 318 358
#     4  10  20  37  57  84 121 151 193 250 302 350
#     4  10  21  40  65  90 122 167 199 265 300 371
#     4  10  21  39  59  89 121 157 201 257 298 366
#
# _framework density 23.498555
#
# number of rings (size 3 to 8) (size 9 to 14) (size 15 to 20)
#    0.000    2.000    1.429    2.571    0.000    2.286 
#   10.286    1.429    0.000    0.000    0.000    0.000 
#    0.000    0.000    0.000    0.000    0.000    0.000 
#
# Total GULP energy -156275.614372 kJ/mol
# GULP energy per Si atom -5581.271942 kJ/mol
# Density = 2.344507 g / cm^3
# Si number density = 23.498555 Si / 1000 Ang^3
#
#
#
# Elastic Constant Matrix: (Units=GPa)
#
#
# Indices 1 2 3 4 5 6 
#
# 1 23.8535 -12.7050 2.1350 0.0000 2.7495 0.0000
# 2 -12.7050 74.2687 16.3795 0.0000 17.7105 0.0000
# 3 2.1350 16.3795 76.9758 0.0000 13.8713 0.0000
# 4 0.0000 0.0000 0.0000 30.4274 0.0000 12.3354
# 5 2.7495 17.7105 13.8713 0.0000 37.4183 0.0000
# 6 0.0000 0.0000 0.0000 12.3354 0.0000 35.4557
#
#
#
# Elastic Compliance Matrix: (Units=1/GPa)
#
#
# Indices 1 2 3 4 5 6 
#
# 1 0.048713 0.010686 -0.002217 0.000000 -0.007816 0.000000
# 2 0.010686 0.017837 -0.002603 0.000000 -0.008263 0.000000
# 3 -0.002217 -0.002603 0.014311 0.000000 -0.003910 0.000000
# 4 0.000000 0.000000 0.000000 0.038262 0.000000 -0.013312
# 5 -0.007816 -0.008263 -0.003910 0.000000 0.032660 0.000000
# 6 0.000000 0.000000 0.000000 -0.013312 0.000000 0.032835
#
#
# Mechanical properties :
#
#
# Convention : Reuss Voigt Hill
#
# Bulk Modulus (GPa) = 10.79979 20.74634 15.77307
# Shear Modulus (GPa) = 24.53983 31.94618 28.24300
#
# Velocity S-wave (km/s) = 3.23509 3.69113 3.47061
# Velocity P-wave (km/s) = 4.30817 5.19749 4.77358
#
# Compressibility (1/GPa) = 0.09259438
#
# Stress axis : x y z
#
# Youngs Moduli (GPa) = 20.52824 56.06305 69.87582
#
# Poissons Ratio (x) = -0.59908 0.15488
# Poissons Ratio (y) = -0.21936 0.18188
# Poissons Ratio (z) = 0.04550 0.14593
#
# Static dielectric constant tensor:
#      x y z
#    x 1.906230 0.000000 0.011720 
#    y 0.000000 1.975620 0.000000 
#    z 0.011720 0.000000 1.917650 
# 
# From -- ./inp_files/34943.got.cif
#   From: 2010.05.17/outbox.cif.g08.bks.cpg/sg14_18_cif.got.tgz:34943.got - 2010.06.03 17:49:19.
