data_PCOD9242573
_publ_section_title
;
Structure prediction by ZEFSAII (Michael W. Deem and Ramdas Pophale) SiO2 
 PCOD9242573
Probable space group: P 21/C
;
_chemical_formula_sum "Si O2"
_cell_formula_units_Z 24
_cell_length_a 7.975478
_cell_length_b 13.175945
_cell_length_c 18.110595
_cell_angle_alpha 90.000000
_cell_angle_beta 147.753535
_cell_angle_gamma 90.000000
_cell_volume 1015.444937
_symmetry_space_group_name_H-M "P 21/C"
_symmetry_group_IT_number 14
_symmetry_cell_setting 'monoclinic'
loop_
_space_group_symop_operation_xyz
x,y,z
-x,1/2+y,1/2-z
-x,-y,-z
x,1/2-y,1/2+z
loop_
_atom_site_type_symbol
_atom_site_label
_atom_site_fract_x
_atom_site_fract_y
_atom_site_fract_z
Si Si1 0.324918 0.118777 0.518848
Si Si2 0.509303 0.541354 0.605359
Si Si3 0.879706 0.961267 0.702360
Si Si4 0.814810 0.673764 0.483022
Si Si5 0.145581 0.127019 0.162486
Si Si6 0.488243 0.587469 0.756334
O O1 0.086570 0.084906 0.366759
O O2 0.346041 0.239663 0.528497
O O3 0.275104 0.095857 0.586941
O O4 0.629486 0.052367 0.612400
O O5 0.341738 0.434136 0.559757
O O6 0.637338 0.585726 0.730972
O O7 0.794021 0.516822 0.657560
O O8 0.231163 0.616225 0.479609
O O9 0.782450 0.872091 0.723291
O O10 0.778044 0.694883 0.380638
O O11 0.186451 0.663721 0.641307
O O12 0.312541 0.020530 0.203228
#
# Coordination Sequence:
#
# PCOD9242573 Si02
#       6
#     4   4   4   4   4   4
#     4  10  21  34  54  84 122 158 185 237 289 351
#     4   9  17  33  61  85 106 156 194 233 289 340
#     4  10  20  34  56  87 122 153 183 234 307 349
#     4   9  18  34  60  80 108 151 200 242 274 335
#     4   8  16  35  59  83 107 147 199 237 280 345
#     4   8  17  34  56  81 109 147 200 230 278 355
#
# _framework density 23.634957
#
# number of rings (size 3 to 8) (size 9 to 14) (size 15 to 20)
#    0.000    3.000    0.000    2.500    2.333    0.667 
#    0.000    1.667    7.333    0.000    0.000    0.000 
#    0.000    0.000    0.000    0.000    0.000    0.000 
#
# Total GULP energy -133647.868872 kJ/mol
# GULP energy per Si atom -5568.661203 kJ/mol
# Density = 2.358116 g / cm^3
# Si number density = 23.634957 Si / 1000 Ang^3
#
#
#
# Elastic Constant Matrix: (Units=GPa)
#
#
# Indices 1 2 3 4 5 6 
#
# 1 52.8779 8.2468 18.9987 0.0000 -13.8077 0.0000
# 2 8.2468 51.4007 18.7155 0.0000 -13.2243 0.0000
# 3 18.9987 18.7155 73.2636 0.0000 -27.3973 0.0000
# 4 0.0000 0.0000 0.0000 18.2197 0.0000 -4.6147
# 5 -13.8077 -13.2243 -27.3973 0.0000 32.3449 0.0000
# 6 0.0000 0.0000 0.0000 -4.6147 0.0000 18.3677
#
#
#
# Elastic Compliance Matrix: (Units=1/GPa)
#
#
# Indices 1 2 3 4 5 6 
#
# 1 0.021802 -0.000731 -0.003071 0.000000 0.006407 0.000000
# 2 -0.000731 0.022313 -0.003243 0.000000 0.006064 0.000000
# 3 -0.003071 -0.003243 0.020912 0.000000 0.015076 0.000000
# 4 0.000000 0.000000 0.000000 0.058616 0.000000 0.014727
# 5 0.006407 0.006064 0.015076 0.000000 0.048901 0.000000
# 6 0.000000 0.000000 0.000000 0.014727 0.000000 0.058143
#
#
# Mechanical properties :
#
#
# Convention : Reuss Voigt Hill
#
# Bulk Modulus (GPa) = 19.63221 29.94049 24.78635
# Shear Modulus (GPa) = 19.10174 22.55854 20.83014
#
# Velocity S-wave (km/s) = 2.84597 3.09278 2.97194
# Velocity P-wave (km/s) = 4.37308 5.04471 4.72085
#
# Compressibility (1/GPa) = 0.05093669
#
# Stress axis : x y z
#
# Youngs Moduli (GPa) = 45.86756 44.81664 47.81954
#
# Poissons Ratio (x) = 0.03278 0.14685
# Poissons Ratio (y) = 0.03355 0.15506
# Poissons Ratio (z) = 0.14086 0.14533
#
# Static dielectric constant tensor:
#      x y z
#    x 1.885110 0.000000 -0.080040 
#    y 0.000000 1.910550 0.000000 
#    z -0.080040 0.000000 2.009400 
# 
# From -- ./inp_files/55817.got.cif
#   From: 2010.05.17/outbox.cif.g08.bks.cpg/sg14_28_cif.got.tgz:55817.got - 2010.06.03 17:49:19.
