data_PCOD9242106
_publ_section_title
;
Structure prediction by ZEFSAII (Michael W. Deem and Ramdas Pophale) SiO2 
 PCOD9242106
Probable space group: P 21/C
;
_chemical_formula_sum "Si O2"
_cell_formula_units_Z 28
_cell_length_a 7.992704
_cell_length_b 17.677921
_cell_length_c 15.043080
_cell_angle_alpha 90.000000
_cell_angle_beta 146.833037
_cell_angle_gamma 90.000000
_cell_volume 1162.821460
_symmetry_space_group_name_H-M "P 21/C"
_symmetry_group_IT_number 14
_symmetry_cell_setting 'monoclinic'
loop_
_space_group_symop_operation_xyz
x,y,z
-x,1/2+y,1/2-z
-x,-y,-z
x,1/2-y,1/2+z
loop_
_atom_site_type_symbol
_atom_site_label
_atom_site_fract_x
_atom_site_fract_y
_atom_site_fract_z
Si Si1 0.862094 0.651053 0.374270
Si Si2 0.817404 0.974454 0.724849
Si Si3 0.746295 0.609884 0.618430
Si Si4 0.437769 0.728044 0.588776
Si Si5 0.355004 0.885523 0.782900
Si Si6 0.270483 0.720593 0.812254
Si Si7 0.307422 0.416210 0.020436
O O1 0.973638 0.582494 0.361871
O O2 0.634138 0.705881 0.218817
O O3 0.658040 0.613725 0.359148
O O4 0.153720 0.702893 0.523135
O O5 0.696892 0.925301 0.589017
O O6 0.537937 0.017159 0.650291
O O7 0.025965 0.039877 0.775694
O O8 0.632148 0.651824 0.655780
O O9 0.467231 0.587753 0.429952
O O10 0.951767 0.675994 0.664393
O O11 0.324977 0.756750 0.440757
O O12 0.264877 0.798407 0.757955
O O13 0.045479 0.922817 0.608760
O O14 0.532961 0.664409 0.893137
#
# Coordination Sequence:
#
# PCOD9242106 Si02
#       7
#     4   4   4   4   4   4   4
#     4  12  26  39  63  96 133 163 209 266 324 375
#     4  10  22  43  66  95 122 167 216 262 310 377
#     4  10  22  40  66  91 124 167 215 261 313 374
#     4  11  22  41  63  94 120 167 218 270 302 371
#     4  11  24  37  61  95 131 169 200 260 324 377
#     4  10  19  39  64  90 118 166 214 264 304 370
#     4  10  21  39  66  89 122 167 213 256 308 380
#
# _framework density 24.079364000000002
#
# number of rings (size 3 to 8) (size 9 to 14) (size 15 to 20)
#    0.000    1.429    2.857    3.429    4.000    3.429 
#    0.000    0.000    0.000    0.000    0.000    0.000 
#    0.000    0.000    0.000    0.000    0.000    0.000 
#
# Total GULP energy -156599.439580 kJ/mol
# GULP energy per Si atom -5592.837128 kJ/mol
# Density = 2.402456 g / cm^3
# Si number density = 24.079364 Si / 1000 Ang^3
#
#
#
# Elastic Constant Matrix: (Units=GPa)
#
#
# Indices 1 2 3 4 5 6 
#
# 1 70.2784 5.6006 0.9835 0.0000 21.1529 0.0000
# 2 5.6006 63.2665 11.5707 0.0000 -3.3013 0.0000
# 3 0.9835 11.5707 59.8622 0.0000 18.3711 0.0000
# 4 0.0000 0.0000 0.0000 36.0738 0.0000 16.9246
# 5 21.1529 -3.3013 18.3711 0.0000 29.2113 0.0000
# 6 0.0000 0.0000 0.0000 16.9246 0.0000 20.6823
#
#
#
# Elastic Compliance Matrix: (Units=1/GPa)
#
#
# Indices 1 2 3 4 5 6 
#
# 1 0.020165 -0.003918 0.006249 0.000000 -0.018975 0.000000
# 2 -0.003918 0.017699 -0.005999 0.000000 0.008610 0.000000
# 3 0.006249 -0.005999 0.023989 0.000000 -0.020290 0.000000
# 4 0.000000 0.000000 0.000000 0.044996 0.000000 -0.036821
# 5 -0.018975 0.008610 -0.020290 0.000000 0.061708 0.000000
# 6 0.000000 0.000000 0.000000 -0.036821 0.000000 0.078482
#
#
# Mechanical properties :
#
#
# Convention : Reuss Voigt Hill
#
# Bulk Modulus (GPa) = 18.34274 25.52409 21.93342
# Shear Modulus (GPa) = 18.34543 28.87696 23.61120
#
# Velocity S-wave (km/s) = 2.76320 3.46676 3.13478
# Velocity P-wave (km/s) = 4.22073 5.16213 4.71498
#
# Compressibility (1/GPa) = 0.05451747
#
# Stress axis : x y z
#
# Youngs Moduli (GPa) = 49.59013 56.49887 41.68635
#
# Poissons Ratio (x) = 0.22137 -0.26051
# Poissons Ratio (y) = 0.19430 0.25008
# Poissons Ratio (z) = -0.30991 0.33895
#
# Static dielectric constant tensor:
#      x y z
#    x 1.964170 0.000000 0.025770 
#    y 0.000000 1.863750 0.000000 
#    z 0.025770 0.000000 1.935950 
# 
# From -- ./inp_files/9515.got.cif
#   From: 2010.05.17/outbox.cif.g08.bks.cpg/sg14_5_cif.got.tgz:9515.got - 2010.06.03 17:49:19.
