data_PCOD9242605
_publ_section_title
;
Structure prediction by ZEFSAII (Michael W. Deem and Ramdas Pophale) SiO2 
 PCOD9242605
Probable space group: P 21/C
;
_chemical_formula_sum "Si O2"
_cell_formula_units_Z 30
_cell_length_a 28.505547
_cell_length_b 6.901965
_cell_length_c 17.516493
_cell_angle_alpha 90.000000
_cell_angle_beta 159.104027
_cell_angle_gamma 90.000000
_cell_volume 1229.189158
_symmetry_space_group_name_H-M "P 21/C"
_symmetry_group_IT_number 14
_symmetry_cell_setting 'monoclinic'
loop_
_space_group_symop_operation_xyz
x,y,z
-x,1/2+y,1/2-z
-x,-y,-z
x,1/2-y,1/2+z
loop_
_atom_site_type_symbol
_atom_site_label
_atom_site_fract_x
_atom_site_fract_y
_atom_site_fract_z
Si Si1 0.069218 0.395883 0.000271
Si Si2 0.500000 0.500000 0.500000
Si Si3 0.164700 0.094608 0.325084
Si Si4 0.216643 0.514903 0.371090
Si Si5 0.202688 0.111618 0.551745
Si Si6 0.695557 0.014622 0.748838
Si Si7 0.562001 0.196439 0.695384
Si Si8 0.867986 0.439562 0.377078
O O1 0.167104 0.507174 0.207907
O O2 0.101457 0.447805 0.962647
O O3 0.105077 0.168707 0.065261
O O4 0.916687 0.423898 0.787550
O O5 0.650565 0.546797 0.708112
O O6 0.543345 0.423867 0.654046
O O7 0.245376 0.290362 0.436506
O O8 0.168279 0.028542 0.417197
O O9 0.195248 0.946952 0.303253
O O10 0.010454 0.153427 0.082713
O O11 0.343213 0.628471 0.593852
O O12 0.219584 0.346510 0.580572
O O13 0.577728 0.914898 0.520582
O O14 0.784426 0.125663 0.822562
O O15 0.625828 0.137249 0.709241
#
# Coordination Sequence:
#
# PCOD9242605 Si02
#       8
#     4   2   4   4   4   4   4   4
#     4   9  21  36  58  85 124 153 209 257 303 372
#     4  10  24  38  58  88 122 148 208 260 300 382
#     4  10  20  34  59  84 121 158 201 248 318 362
#     4  10  20  38  58  87 120 163 199 255 313 372
#     4  10  20  38  57  84 119 158 198 260 310 370
#     4   9  19  38  59  82 115 155 203 245 309 380
#     4  10  20  37  62  84 115 161 200 252 315 378
#     4   9  20  37  55  87 122 156 201 262 300 373
#
# _framework density 24.406331000000002
#
# number of rings (size 3 to 8) (size 9 to 14) (size 15 to 20)
#    0.000    2.400    1.333    0.000    3.733    1.067 
#    2.400    0.000    0.000    0.000    0.000    0.000 
#    0.000    0.000    0.000    0.000    0.000    0.000 
#
# Total GULP energy -167118.103545 kJ/mol
# GULP energy per Si atom -5570.603452 kJ/mol
# Density = 2.435078 g / cm^3
# Si number density = 24.406331 Si / 1000 Ang^3
#
#
#
# Elastic Constant Matrix: (Units=GPa)
#
#
# Indices 1 2 3 4 5 6 
#
# 1 195.2315 -100.2566 10.4110 0.0000 -89.9775 0.0000
# 2 -100.2566 105.1020 -3.4133 0.0000 50.2324 0.0000
# 3 10.4110 -3.4133 75.8938 0.0000 -44.8873 0.0000
# 4 0.0000 0.0000 0.0000 -41.9184 0.0000 -64.3807
# 5 -89.9775 50.2324 -44.8873 0.0000 96.5103 0.0000
# 6 0.0000 0.0000 0.0000 -64.3807 0.0000 -16.1410
#
#
#
# Elastic Compliance Matrix: (Units=1/GPa)
#
#
# Indices 1 2 3 4 5 6 
#
# 1 0.014544 0.008522 0.005221 0.000000 0.011552 0.000000
# 2 0.008522 0.018936 -0.001997 0.000000 -0.002840 0.000000
# 3 0.005221 -0.001997 0.021884 0.000000 0.016085 0.000000
# 4 0.000000 0.000000 0.000000 0.004654 0.000000 -0.018563
# 5 0.011552 -0.002840 0.016085 0.000000 0.030091 0.000000
# 6 0.000000 0.000000 0.000000 -0.018563 0.000000 0.012086
#
#
# Mechanical properties :
#
#
# Convention : Reuss Voigt Hill
#
# Bulk Modulus (GPa) = 12.68153 21.07884 16.88019
# Shear Modulus (GPa) = 47.62424 38.98925 43.30675
#
# Velocity S-wave (km/s) = 4.42215 4.00122 4.21694
# Velocity P-wave (km/s) = 5.59296 5.47738 5.53547
#
# Compressibility (1/GPa) = 0.07885483
#
# Stress axis : x y z
#
# Youngs Moduli (GPa) = 68.75663 52.80989 45.69608
#
# Poissons Ratio (x) = -0.45004 -0.23857
# Poissons Ratio (y) = -0.58593 0.09125
# Poissons Ratio (z) = -0.35896 0.10546
#
# Static dielectric constant tensor:
#      x y z
#    x 1.927030 0.000000 -0.066340 
#    y 0.000000 2.135540 0.000000 
#    z -0.066340 0.000000 1.881080 
# 
# From -- ./inp_files/62694.got.cif
#   From: 2010.05.17/outbox.cif.g08.bks.cpg/sg14_32_cif.got.tgz:62694.got - 2010.06.03 17:49:19.
