data_PCOD9242801
_publ_section_title
;
Structure prediction by ZEFSAII (Michael W. Deem and Ramdas Pophale) SiO2 
 PCOD9242801
Probable space group: P 21/C
;
_chemical_formula_sum "Si O2"
_cell_formula_units_Z 32
_cell_length_a 9.144192
_cell_length_b 26.516899
_cell_length_c 11.439509
_cell_angle_alpha 90.000000
_cell_angle_beta 33.541974
_cell_angle_gamma 90.000000
_cell_volume 1532.657989
_symmetry_space_group_name_H-M "P 21/C"
_symmetry_group_IT_number 14
_symmetry_cell_setting 'monoclinic'
loop_
_space_group_symop_operation_xyz
x,y,z
-x,1/2+y,1/2-z
-x,-y,-z
x,1/2-y,1/2+z
loop_
_atom_site_type_symbol
_atom_site_label
_atom_site_fract_x
_atom_site_fract_y
_atom_site_fract_z
Si Si1 0.515365 0.563775 0.866047
Si Si2 0.065966 0.879365 0.031513
Si Si3 0.790872 0.274820 0.006255
Si Si4 0.562591 0.133669 0.795690
Si Si5 0.970403 0.872872 0.352887
Si Si6 0.260938 0.278474 0.857752
Si Si7 0.977563 0.681997 0.364442
Si Si8 0.499102 0.944789 0.642978
O O1 0.391584 0.596089 0.843759
O O2 0.512262 0.504717 0.839148
O O3 0.811654 0.585649 0.675754
O O4 0.405563 0.568804 0.071916
O O5 0.013104 0.854690 0.191909
O O6 0.315647 0.915989 0.857007
O O7 0.086936 0.839691 0.912652
O O8 0.091203 0.267788 0.852433
O O9 0.806337 0.306467 0.876482
O O10 0.669945 0.311866 0.184225
O O11 0.573965 0.231020 0.134552
O O12 0.743674 0.117388 0.781892
O O13 0.252178 0.143601 0.025134
O O14 0.813945 0.832069 0.535979
O O15 0.792518 0.922799 0.462537
O O16 0.151415 0.235828 0.018595
#
# Coordination Sequence:
#
# PCOD9242801 Si02
#       8
#     4   4   4   4   4   4   4   4
#     4   9  19  38  61  87 121 158 208 255 308 373
#     4  10  21  38  61  88 118 160 204 256 304 373
#     4  10  22  41  62  86 117 160 208 249 305 366
#     4   9  20  41  57  85 121 160 198 246 308 370
#     4  10  23  38  59  89 126 156 202 256 309 369
#     4  10  24  39  59  88 119 159 203 254 302 366
#     4  10  22  38  61  82 113 162 200 247 300 358
#     4  10  20  35  61  92 119 159 205 261 309 358
#
# _framework density 20.878761000000001
#
# number of rings (size 3 to 8) (size 9 to 14) (size 15 to 20)
#    0.000    2.250    0.000    1.125    3.500    6.500 
#    0.000    0.625    0.000    0.000    0.000    0.000 
#    0.000    0.000    0.000    0.000    0.000    0.000 
#
# Total GULP energy -178591.313527 kJ/mol
# GULP energy per Si atom -5580.978548 kJ/mol
# Density = 2.083124 g / cm^3
# Si number density = 20.878761 Si / 1000 Ang^3
#
#
#
# Elastic Constant Matrix: (Units=GPa)
#
#
# Indices 1 2 3 4 5 6 
#
# 1 96.9021 14.7750 27.8950 0.0000 -21.5995 0.0000
# 2 14.7750 56.1145 3.8104 0.0000 -6.8547 0.0000
# 3 27.8950 3.8104 48.6318 0.0000 1.3716 0.0000
# 4 0.0000 0.0000 0.0000 21.0904 0.0000 3.8338
# 5 -21.5995 -6.8547 1.3716 0.0000 18.8637 0.0000
# 6 0.0000 0.0000 0.0000 3.8338 0.0000 16.6643
#
#
#
# Elastic Compliance Matrix: (Units=1/GPa)
#
#
# Indices 1 2 3 4 5 6 
#
# 1 0.018542 -0.001501 -0.011124 0.000000 0.021495 0.000000
# 2 -0.001501 0.018904 -0.000767 0.000000 0.005206 0.000000
# 3 -0.011124 -0.000767 0.027427 0.000000 -0.015011 0.000000
# 4 0.000000 0.000000 0.000000 0.049484 0.000000 -0.011384
# 5 0.021495 0.005206 -0.015011 0.000000 0.080607 0.000000
# 6 0.000000 0.000000 0.000000 -0.011384 0.000000 0.062628
#
#
# Mechanical properties :
#
#
# Convention : Reuss Voigt Hill
#
# Bulk Modulus (GPa) = 26.25475 32.73438 29.49456
# Shear Modulus (GPa) = 16.83088 21.66822 19.24955
#
# Velocity S-wave (km/s) = 2.84231 3.22500 3.03969
# Velocity P-wave (km/s) = 4.83465 5.43874 5.14557
#
# Compressibility (1/GPa) = 0.03808834
#
# Stress axis : x y z
#
# Youngs Moduli (GPa) = 53.93151 52.89884 36.46050
#
# Poissons Ratio (x) = 0.07940 0.40560
# Poissons Ratio (y) = 0.08095 0.02797
# Poissons Ratio (z) = 0.59995 0.04057
#
# Static dielectric constant tensor:
#      x y z
#    x 1.773170 0.000000 -0.016200 
#    y 0.000000 1.740870 0.000000 
#    z -0.016200 0.000000 1.747700 
# 
# From -- ./inp_files/27144.got.cif
#   From: 2010.05.17/outbox.cif.g08.bks.cpg/sg14_14_cif.got.tgz:27144.got - 2010.06.03 17:49:19.
