data_PCOD9242527
_publ_section_title
;
Structure prediction by ZEFSAII (Michael W. Deem and Ramdas Pophale) SiO2 
 PCOD9242527
Probable space group: P 21/C
;
_chemical_formula_sum "Si O2"
_cell_formula_units_Z 32
_cell_length_a 7.216576
_cell_length_b 22.041743
_cell_length_c 11.571251
_cell_angle_alpha 90.000000
_cell_angle_beta 132.520746
_cell_angle_gamma 90.000000
_cell_volume 1356.576143
_symmetry_space_group_name_H-M "P 21/C"
_symmetry_group_IT_number 14
_symmetry_cell_setting 'monoclinic'
loop_
_space_group_symop_operation_xyz
x,y,z
-x,1/2+y,1/2-z
-x,-y,-z
x,1/2-y,1/2+z
loop_
_atom_site_type_symbol
_atom_site_label
_atom_site_fract_x
_atom_site_fract_y
_atom_site_fract_z
Si Si1 0.849647 0.488602 0.820225
Si Si2 0.847064 0.383675 0.320694
Si Si3 0.153216 0.364988 0.678732
Si Si4 0.284809 0.489587 0.816171
Si Si5 0.321615 0.388779 0.343966
Si Si6 0.222260 0.260489 0.266094
Si Si7 0.237379 0.863227 0.791034
Si Si8 0.663325 0.264362 0.134888
O O1 0.679293 0.547094 0.721242
O O2 0.750736 0.420125 0.787699
O O3 0.029984 0.486448 0.783854
O O4 0.000000 0.500000 0.000000
O O5 0.726528 0.449922 0.263927
O O6 0.674525 0.328328 0.204620
O O7 0.954108 0.373135 0.492792
O O8 0.083409 0.385593 0.331189
O O9 0.307849 0.427156 0.755643
O O10 0.267427 0.298477 0.706745
O O11 0.025724 0.359313 0.751544
O O12 0.500000 0.500000 0.000000
O O13 0.295148 0.328080 0.255634
O O14 0.562445 0.380273 0.525491
O O15 0.410462 0.247481 0.454375
O O16 0.921642 0.263828 0.166262
O O17 0.294765 0.796031 0.770620
#
# Coordination Sequence:
#
# PCOD9242527 Si02
#       8
#     4   4   4   4   4   4   4   4
#     4  10  21  34  52  76 100 132 175 216 260 311
#     4  10  20  34  54  80 106 138 178 220 267 320
#     4  10  20  34  54  80 106 138 178 220 267 320
#     4  10  21  36  52  74 108 140 173 222 269 315
#     4   9  19  36  53  73 105 138 170 215 264 312
#     4   9  18  35  55  76 107 144 177 218 269 317
#     4   9  19  36  53  73 105 138 170 215 264 312
#     4   9  18  35  55  76 107 144 177 218 269 317
#
# _framework density 23.588799000000002
#
# number of rings (size 3 to 8) (size 9 to 14) (size 15 to 20)
#    0.000    2.500    0.000    1.500    0.000    3.000 
#    0.000   11.250    0.000    0.000    0.000    0.000 
#    0.000    0.000    0.000    0.000    0.000    0.000 
#
# Total GULP energy -178571.411725 kJ/mol
# GULP energy per Si atom -5580.356616 kJ/mol
# Density = 2.353511 g / cm^3
# Si number density = 23.588799 Si / 1000 Ang^3
#
#
#
# Elastic Constant Matrix: (Units=GPa)
#
#
# Indices 1 2 3 4 5 6 
#
# 1 104.0779 -6.5078 -16.4243 0.0000 9.4305 0.0000
# 2 -6.5078 96.4050 -12.8021 0.0000 1.2512 0.0000
# 3 -16.4243 -12.8021 36.9809 0.0000 4.7358 0.0000
# 4 0.0000 0.0000 0.0000 51.2465 0.0000 3.6438
# 5 9.4305 1.2512 4.7358 0.0000 21.9902 0.0000
# 6 0.0000 0.0000 0.0000 3.6438 0.0000 -22.2694
#
#
#
# Elastic Compliance Matrix: (Units=1/GPa)
#
#
# Indices 1 2 3 4 5 6 
#
# 1 0.011300 0.001697 0.006416 0.000000 -0.006324 0.000000
# 2 0.001697 0.011174 0.004932 0.000000 -0.002426 0.000000
# 3 0.006416 0.004932 0.032893 0.000000 -0.010116 0.000000
# 4 0.000000 0.000000 0.000000 0.019289 0.000000 0.003156
# 5 -0.006324 -0.002426 -0.010116 0.000000 0.050503 0.000000
# 6 0.000000 0.000000 0.000000 0.003156 0.000000 -0.044388
#
#
# Mechanical properties :
#
#
# Convention : Reuss Voigt Hill
#
# Bulk Modulus (GPa) = 12.27633 18.44394 15.36014
# Shear Modulus (GPa) = 61.09961 28.40666 44.75313
#
# Velocity S-wave (km/s) = 5.09492 3.47399 4.36043
# Velocity P-wave (km/s) = 6.31083 4.89156 5.64597
#
# Compressibility (1/GPa) = 0.08145754
#
# Stress axis : x y z
#
# Youngs Moduli (GPa) = 88.49720 89.49388 30.40123
#
# Poissons Ratio (x) = -0.15186 -0.19505
# Poissons Ratio (y) = -0.15017 -0.14995
# Poissons Ratio (z) = -0.56779 -0.44143
#
# Static dielectric constant tensor:
#      x y z
#    x 1.803510 0.000000 0.048610 
#    y 0.000000 1.917520 0.000000 
#    z 0.048610 0.000000 1.819340 
# 
# From -- ./inp_files/42019.got.cif
#   From: 2010.05.17/outbox.cif.g08.bks.cpg/sg14_22_cif.got.tgz:42019.got - 2010.06.03 17:49:19.
