data_PCOD9242251
_publ_section_title
;
Structure prediction by ZEFSAII (Michael W. Deem and Ramdas Pophale) SiO2 
 PCOD9242251
Probable space group: P 21/C
;
_chemical_formula_sum "Si O2"
_cell_formula_units_Z 24
_cell_length_a 13.701215
_cell_length_b 10.801252
_cell_length_c 16.029690
_cell_angle_alpha 90.000000
_cell_angle_beta 154.574379
_cell_angle_gamma 90.000000
_cell_volume 1018.494481
_symmetry_space_group_name_H-M "P 21/C"
_symmetry_group_IT_number 14
_symmetry_cell_setting 'monoclinic'
loop_
_space_group_symop_operation_xyz
x,y,z
-x,1/2+y,1/2-z
-x,-y,-z
x,1/2-y,1/2+z
loop_
_atom_site_type_symbol
_atom_site_label
_atom_site_fract_x
_atom_site_fract_y
_atom_site_fract_z
Si Si1 0.678506 0.752313 0.772987
Si Si2 0.103362 0.013768 0.487641
Si Si3 0.832094 0.891572 0.045155
Si Si4 0.058003 0.897502 0.974617
Si Si5 0.216844 0.686311 0.325853
Si Si6 0.384645 0.697931 0.264175
O O1 0.747717 0.635663 0.883313
O O2 0.692273 0.861655 0.850937
O O3 0.441588 0.712872 0.550979
O O4 0.864285 0.792715 0.845265
O O5 0.914619 0.053798 0.274916
O O6 0.251846 0.891748 0.596566
O O7 0.000000 0.000000 0.500000
O O8 0.641990 0.850563 0.964398
O O9 0.041207 0.796258 0.210054
O O10 0.932526 0.028177 0.104927
O O11 0.304376 0.834281 0.175680
O O12 0.000000 0.000000 0.000000
O O13 0.289253 0.692085 0.284527
#
# Coordination Sequence:
#
# PCOD9242251 Si02
#       6
#     4   4   4   4   4   4
#     4  10  20  40  65  87 126 158 205 258 305 365
#     4   9  18  37  59  87 117 160 196 247 306 358
#     4  10  23  40  61  92 125 165 207 253 308 369
#     4  10  19  41  65  85 118 170 203 248 312 363
#     4  10  21  41  62  93 122 161 209 251 312 367
#     4  11  21  40  66  86 128 166 204 258 307 364
#
# _framework density 23.564193
#
# number of rings (size 3 to 8) (size 9 to 14) (size 15 to 20)
#    0.000    2.000    6.667    0.000    4.667    3.333 
#    3.000    0.000    0.000    0.000    0.000    0.000 
#    0.000    0.000    0.000    0.000    0.000    0.000 
#
# Total GULP energy -133695.708102 kJ/mol
# GULP energy per Si atom -5570.654504 kJ/mol
# Density = 2.351056 g / cm^3
# Si number density = 23.564193 Si / 1000 Ang^3
#
#
#
# Elastic Constant Matrix: (Units=GPa)
#
#
# Indices 1 2 3 4 5 6 
#
# 1 47.8603 9.3880 4.9842 0.0000 23.6547 0.0000
# 2 9.3880 86.0855 24.4842 0.0000 8.2660 0.0000
# 3 4.9842 24.4842 128.2520 0.0000 8.9965 0.0000
# 4 0.0000 0.0000 0.0000 24.6782 0.0000 3.0582
# 5 23.6547 8.2660 8.9965 0.0000 40.1823 0.0000
# 6 0.0000 0.0000 0.0000 3.0582 0.0000 -1.0358
#
#
#
# Elastic Compliance Matrix: (Units=1/GPa)
#
#
# Indices 1 2 3 4 5 6 
#
# 1 0.029697 -0.001692 0.000377 0.000000 -0.017218 0.000000
# 2 -0.001692 0.012546 -0.002254 0.000000 -0.001080 0.000000
# 3 0.000377 -0.002254 0.008327 0.000000 -0.001622 0.000000
# 4 0.000000 0.000000 0.000000 0.029667 0.000000 0.087591
# 5 -0.017218 -0.001080 -0.001622 0.000000 0.035608 0.000000
# 6 0.000000 0.000000 0.000000 0.087591 0.000000 -0.706818
#
#
# Mechanical properties :
#
#
# Convention : Reuss Voigt Hill
#
# Bulk Modulus (GPa) = 23.02517 37.76786 30.39652
# Shear Modulus (GPa) = -8.78181 27.65437 9.43628
#
# Velocity S-wave (km/s) = -1.93258 3.42947 2.00330
# Velocity P-wave (km/s) = 2.19378 5.63419 4.27532
#
# Compressibility (1/GPa) = 0.04343073
#
# Stress axis : x y z
#
# Youngs Moduli (GPa) = 33.67357 79.70950 120.09806
#
# Poissons Ratio (x) = 0.13490 -0.04525
# Poissons Ratio (y) = 0.05699 0.27064
# Poissons Ratio (z) = -0.01269 0.17963
#
# Static dielectric constant tensor:
#      x y z
#    x 2.073320 0.000000 0.016710 
#    y 0.000000 1.692640 0.000000 
#    z 0.016710 0.000000 1.911570 
# 
# From -- ./inp_files/69237.got.cif
#   From: 2010.05.17/outbox.cif.g08.bks.cpg/sg14_35_cif.got.tgz:69237.got - 2010.06.03 17:49:19.
