data_PCOD9242431
_publ_section_title
;
Structure prediction by ZEFSAII (Michael W. Deem and Ramdas Pophale) SiO2 
 PCOD9242431
Probable space group: P 21/C
;
_chemical_formula_sum "Si O2"
_cell_formula_units_Z 28
_cell_length_a 11.772446
_cell_length_b 8.905144
_cell_length_c 15.294612
_cell_angle_alpha 90.000000
_cell_angle_beta 52.651575
_cell_angle_gamma 90.000000
_cell_volume 1274.652955
_symmetry_space_group_name_H-M "P 21/C"
_symmetry_group_IT_number 14
_symmetry_cell_setting 'monoclinic'
loop_
_space_group_symop_operation_xyz
x,y,z
-x,1/2+y,1/2-z
-x,-y,-z
x,1/2-y,1/2+z
loop_
_atom_site_type_symbol
_atom_site_label
_atom_site_fract_x
_atom_site_fract_y
_atom_site_fract_z
Si Si1 0.408299 0.845238 0.993775
Si Si2 0.820496 0.765380 0.501471
Si Si3 0.954604 0.299108 0.463574
Si Si4 0.784517 0.069846 0.437842
Si Si5 0.330576 0.984996 0.858673
Si Si6 0.722586 0.872213 0.878650
Si Si7 0.782324 0.915786 0.252109
O O1 0.347255 0.682240 0.005316
O O2 0.292648 0.947438 0.101864
O O3 0.435182 0.923287 0.885471
O O4 0.555990 0.834338 0.976440
O O5 0.707777 0.656980 0.600978
O O6 0.830457 0.687135 0.401904
O O7 0.965557 0.764625 0.488689
O O8 0.765717 0.932373 0.512743
O O9 0.915248 0.169553 0.412847
O O10 0.808693 0.382805 0.555499
O O11 0.067178 0.413927 0.368796
O O12 0.802205 0.997446 0.334650
O O13 0.336651 0.997785 0.750919
O O14 0.750740 0.762309 0.783635
#
# Coordination Sequence:
#
# PCOD9242431 Si02
#       7
#     4   4   4   4   4   4   4
#     4   9  19  39  56  75 105 146 177 215 278 329
#     4   9  17  32  53  77 102 137 176 217 265 320
#     4  10  20  35  54  77 112 149 176 216 278 329
#     4  10  21  33  54  81 105 136 182 225 263 318
#     4   9  19  37  56  73 108 148 176 216 277 328
#     4   9  19  36  58  75 102 139 182 219 262 326
#     4  10  20  33  51  82 107 136 179 225 263 312
#
# _framework density 21.966764000000001
#
# number of rings (size 3 to 8) (size 9 to 14) (size 15 to 20)
#    0.000    2.571    0.000    2.143    0.000    9.143 
#    0.000   14.286    0.000    0.000    0.000    0.000 
#    0.000    0.000    0.000    0.000    0.000    0.000 
#
# Total GULP energy -155897.752908 kJ/mol
# GULP energy per Si atom -5567.776890 kJ/mol
# Density = 2.191677 g / cm^3
# Si number density = 21.966764 Si / 1000 Ang^3
#
#
#
# Elastic Constant Matrix: (Units=GPa)
#
#
# Indices 1 2 3 4 5 6 
#
# 1 99.9279 28.1990 21.0034 0.0000 26.4213 0.0000
# 2 28.1990 109.6396 12.8180 0.0000 9.0438 0.0000
# 3 21.0034 12.8180 31.5108 0.0000 24.7322 0.0000
# 4 0.0000 0.0000 0.0000 22.8301 0.0000 13.0569
# 5 26.4213 9.0438 24.7322 0.0000 26.4400 0.0000
# 6 0.0000 0.0000 0.0000 13.0569 0.0000 37.8406
#
#
#
# Elastic Compliance Matrix: (Units=1/GPa)
#
#
# Indices 1 2 3 4 5 6 
#
# 1 0.014790 -0.002992 0.008110 0.000000 -0.021342 0.000000
# 2 -0.002992 0.010195 -0.006630 0.000000 0.005704 0.000000
# 3 0.008110 -0.006630 0.126431 0.000000 -0.124101 0.000000
# 4 0.000000 0.000000 0.000000 0.054571 0.000000 -0.018830
# 5 -0.021342 0.005704 -0.124101 0.000000 0.173282 0.000000
# 6 0.000000 0.000000 0.000000 -0.018830 0.000000 0.032924
#
#
# Mechanical properties :
#
#
# Convention : Reuss Voigt Hill
#
# Bulk Modulus (GPa) = 6.73893 40.56879 23.65386
# Shear Modulus (GPa) = 10.76008 29.35932 20.05970
#
# Velocity S-wave (km/s) = 2.21562 3.65983 3.02517
# Velocity P-wave (km/s) = 3.10157 6.03055 4.79517
#
# Compressibility (1/GPa) = 0.14839157
#
# Stress axis : x y z
#
# Youngs Moduli (GPa) = 67.61418 98.08885 7.90945
#
# Poissons Ratio (x) = 0.29344 -0.06414
# Poissons Ratio (y) = 0.20227 0.05244
# Poissons Ratio (z) = -0.54834 0.65036
#
# Static dielectric constant tensor:
#      x y z
#    x 1.858810 0.000000 0.064210 
#    y 0.000000 1.847040 0.000000 
#    z 0.064210 0.000000 1.872180 
# 
# From -- ./inp_files/43323.got.cif
#   From: 2010.05.17/outbox.cif.g08.bks.cpg/sg14_22_cif.got.tgz:43323.got - 2010.06.03 17:49:19.
