data_PCOD9242892
_publ_section_title
;
Structure prediction by ZEFSAII (Michael W. Deem and Ramdas Pophale) SiO2 
 PCOD9242892
Probable space group: P 21/C
;
_chemical_formula_sum "Si O2"
_cell_formula_units_Z 30
_cell_length_a 20.361657
_cell_length_b 9.344524
_cell_length_c 23.496906
_cell_angle_alpha 90.000000
_cell_angle_beta 161.505101
_cell_angle_gamma 90.000000
_cell_volume 1418.214272
_symmetry_space_group_name_H-M "P 21/C"
_symmetry_group_IT_number 14
_symmetry_cell_setting 'monoclinic'
loop_
_space_group_symop_operation_xyz
x,y,z
-x,1/2+y,1/2-z
-x,-y,-z
x,1/2-y,1/2+z
loop_
_atom_site_type_symbol
_atom_site_label
_atom_site_fract_x
_atom_site_fract_y
_atom_site_fract_z
Si Si1 0.697547 0.088160 0.248366
Si Si2 0.903968 0.905337 0.569284
Si Si3 0.046371 0.893844 0.907910
Si Si4 0.000000 0.500000 0.500000
Si Si5 0.868136 0.790220 0.418949
Si Si6 0.767643 0.627483 0.654410
Si Si7 0.374254 0.654623 0.176997
Si Si8 0.149165 0.359395 0.411329
O O1 0.672103 0.119881 0.294773
O O2 0.881551 0.192916 0.380691
O O3 0.767990 0.922607 0.302806
O O4 0.477005 0.116288 0.038947
O O5 0.823042 0.818413 0.447953
O O6 0.953094 0.793233 0.658785
O O7 0.736807 0.026218 0.448257
O O8 0.105061 0.994969 0.715211
O O9 0.866149 0.775350 0.755778
O O10 0.032375 0.015382 0.848469
O O11 0.257105 0.803066 0.069325
O O12 0.042465 0.962017 0.967086
O O13 0.829784 0.633486 0.364562
O O14 0.821023 0.616490 0.630878
O O15 0.618747 0.653938 0.372282
#
# Coordination Sequence:
#
# PCOD9242892 Si02
#       8
#     4   4   4   2   4   4   4   4
#     4   9  19  38  62  84 111 160 199 242 294 372
#     4  10  20  36  56  86 113 157 198 243 299 361
#     4  11  22  39  62  91 123 163 198 258 316 359
#     4  12  22  40  62  90 122 158 200 264 304 362
#     4  10  20  38  63  83 115 151 203 247 292 361
#     4  10  23  39  59  86 124 156 199 247 313 368
#     4   9  19  35  60  86 116 154 207 248 296 357
#     4  11  20  37  61  86 120 156 201 253 302 365
#
# _framework density 21.153362000000001
#
# number of rings (size 3 to 8) (size 9 to 14) (size 15 to 20)
#    0.000    1.867    2.667    1.600    1.867    0.533 
#    0.000    2.000    0.000    0.000    0.000    0.000 
#    0.000    0.000    0.000    0.000    0.000    0.000 
#
# Total GULP energy -167018.211134 kJ/mol
# GULP energy per Si atom -5567.273704 kJ/mol
# Density = 2.110522 g / cm^3
# Si number density = 21.153362 Si / 1000 Ang^3
#
#
#
# Elastic Constant Matrix: (Units=GPa)
#
#
# Indices 1 2 3 4 5 6 
#
# 1 70.0471 19.0618 -11.3807 0.0000 -2.9147 0.0000
# 2 19.0618 59.9498 3.9742 0.0000 -5.1267 0.0000
# 3 -11.3807 3.9742 75.2199 0.0000 9.5491 0.0000
# 4 0.0000 0.0000 0.0000 12.8349 0.0000 -7.7430
# 5 -2.9147 -5.1267 9.5491 0.0000 22.0377 0.0000
# 6 0.0000 0.0000 0.0000 -7.7430 0.0000 28.8522
#
#
#
# Elastic Compliance Matrix: (Units=1/GPa)
#
#
# Indices 1 2 3 4 5 6 
#
# 1 0.016169 -0.005351 0.002768 0.000000 -0.000306 0.000000
# 2 -0.005351 0.018948 -0.002413 0.000000 0.004746 0.000000
# 3 0.002768 -0.002413 0.014673 0.000000 -0.006553 0.000000
# 4 0.000000 0.000000 0.000000 0.092963 0.000000 0.024948
# 5 -0.000306 0.004746 -0.006553 0.000000 0.049280 0.000000
# 6 0.000000 0.000000 0.000000 0.024948 0.000000 0.041355
#
#
# Mechanical properties :
#
#
# Convention : Reuss Voigt Hill
#
# Bulk Modulus (GPa) = 25.12727 25.39192 25.25959
# Shear Modulus (GPa) = 19.48211 25.64905 22.56558
#
# Velocity S-wave (km/s) = 3.03808 3.48592 3.26967
# Velocity P-wave (km/s) = 4.92047 5.31337 5.12069
#
# Compressibility (1/GPa) = 0.03979740
#
# Stress axis : x y z
#
# Youngs Moduli (GPa) = 61.84588 52.77654 68.15450
#
# Poissons Ratio (x) = 0.28240 -0.18865
# Poissons Ratio (y) = 0.33093 0.16447
# Poissons Ratio (z) = -0.17118 0.12736
#
# Static dielectric constant tensor:
#      x y z
#    x 1.754380 0.000000 -0.011490 
#    y 0.000000 1.810940 0.000000 
#    z -0.011490 0.000000 1.765450 
# 
# From -- ./inp_files/74679.got.cif
#   From: 2010.05.17/outbox.cif.g08.bks.cpg/sg14_38_cif.got.tgz:74679.got - 2010.06.03 17:49:19.
