data_PCOD9242355
_publ_section_title
;
Structure prediction by ZEFSAII (Michael W. Deem and Ramdas Pophale) SiO2 
 PCOD9242355
Probable space group: P 21/C
;
_chemical_formula_sum "Si O2"
_cell_formula_units_Z 28
_cell_length_a 13.457999
_cell_length_b 5.349661
_cell_length_c 17.825044
_cell_angle_alpha 90.000000
_cell_angle_beta 122.376935
_cell_angle_gamma 90.000000
_cell_volume 1083.825635
_symmetry_space_group_name_H-M "P 21/C"
_symmetry_group_IT_number 14
_symmetry_cell_setting 'monoclinic'
loop_
_space_group_symop_operation_xyz
x,y,z
-x,1/2+y,1/2-z
-x,-y,-z
x,1/2-y,1/2+z
loop_
_atom_site_type_symbol
_atom_site_label
_atom_site_fract_x
_atom_site_fract_y
_atom_site_fract_z
Si Si1 0.752558 0.452507 0.916670
Si Si2 0.773365 0.488992 0.083110
Si Si3 0.622462 0.940924 0.725387
Si Si4 0.990532 0.234946 0.351413
Si Si5 0.450013 0.558395 0.292382
Si Si6 0.146007 0.455525 0.596643
Si Si7 0.166804 0.480271 0.317455
O O1 0.654334 0.448307 0.812195
O O2 0.806763 0.174372 0.938916
O O3 0.841393 0.677133 0.930008
O O4 0.699316 0.508707 0.977048
O O5 0.772193 0.218232 0.119450
O O6 0.904966 0.534953 0.101642
O O7 0.764290 0.723088 0.136603
O O8 0.573260 0.193387 0.671136
O O9 0.566218 0.940564 0.788445
O O10 0.760517 0.946719 0.795653
O O11 0.568480 0.692198 0.669568
O O12 0.967455 0.417033 0.411731
O O13 0.874621 0.080871 0.280176
O O14 0.040476 0.419398 0.306775
#
# Coordination Sequence:
#
# PCOD9242355 Si02
#       7
#     4   4   4   4   4   4   4
#     4  10  20  32  43  74  98 124 145 177 234 290
#     4  10  20  33  49  65  94 120 160 183 224 273
#     4   8  14  27  41  66  85 120 148 178 218 262
#     4  10  21  34  51  65  90 119 162 199 222 256
#     4   8  14  26  45  58  93 119 147 176 210 272
#     4  10  21  29  48  70  99 118 149 188 234 272
#     4  10  20  35  50  65  82 122 167 196 217 254
#
# _framework density 25.834416000000001
#
# number of rings (size 3 to 8) (size 9 to 14) (size 15 to 20)
#    0.857    1.714    1.429    0.857    2.000    1.143 
#    0.000    0.000    0.000    0.000    0.000    2.000 
#    0.000    0.000    0.000    0.143    0.000    0.000 
#
# Total GULP energy -156295.527829 kJ/mol
# GULP energy per Si atom -5581.983137 kJ/mol
# Density = 2.577562 g / cm^3
# Si number density = 25.834416 Si / 1000 Ang^3
#
#
#
# Elastic Constant Matrix: (Units=GPa)
#
#
# Indices 1 2 3 4 5 6 
#
# 1 41.7477 -4.4361 10.9830 0.0000 0.1471 0.0000
# 2 -4.4361 216.7136 23.2860 0.0000 -4.6340 0.0000
# 3 10.9830 23.2860 69.6311 0.0000 -10.6786 0.0000
# 4 0.0000 0.0000 0.0000 29.2932 0.0000 -3.8300
# 5 0.1471 -4.6340 -10.6786 0.0000 24.8552 0.0000
# 6 0.0000 0.0000 0.0000 -3.8300 0.0000 20.1366
#
#
#
# Elastic Compliance Matrix: (Units=1/GPa)
#
#
# Indices 1 2 3 4 5 6 
#
# 1 0.025276 0.000971 -0.004611 0.000000 -0.001949 0.000000
# 2 0.000971 0.004825 -0.001745 0.000000 0.000144 0.000000
# 3 -0.004611 -0.001745 0.016729 0.000000 0.006889 0.000000
# 4 0.000000 0.000000 0.000000 0.035008 0.000000 0.006659
# 5 -0.001949 0.000144 0.006889 0.000000 0.043231 0.000000
# 6 0.000000 0.000000 0.000000 0.006659 0.000000 0.050927
#
#
# Mechanical properties :
#
#
# Convention : Reuss Voigt Hill
#
# Bulk Modulus (GPa) = 27.73024 43.08426 35.40725
# Shear Modulus (GPa) = 25.15274 34.74094 29.94684
#
# Velocity S-wave (km/s) = 3.12366 3.67107 3.40837
# Velocity P-wave (km/s) = 4.87512 5.88917 5.40597
#
# Compressibility (1/GPa) = 0.03606171
#
# Stress axis : x y z
#
# Youngs Moduli (GPa) = 39.56250 207.26233 59.77797
#
# Poissons Ratio (x) = -0.20128 0.27561
# Poissons Ratio (y) = -0.03842 0.10429
# Poissons Ratio (z) = 0.18241 0.36158
#
# Static dielectric constant tensor:
#      x y z
#    x 2.090950 0.000000 0.015450 
#    y 0.000000 2.113290 0.000000 
#    z 0.015450 0.000000 2.106810 
# 
# From -- ./inp_files/58474.got.cif
#   From: 2010.05.17/outbox.cif.g08.bks.cpg/sg14_30_cif.got.tgz:58474.got - 2010.06.03 17:49:19.
