data_PCOD9242611
_publ_section_title
;
Structure prediction by ZEFSAII (Michael W. Deem and Ramdas Pophale) SiO2 
 PCOD9242611
Probable space group: P 21/C
;
_chemical_formula_sum "Si O2"
_cell_formula_units_Z 24
_cell_length_a 21.371504
_cell_length_b 4.960588
_cell_length_c 18.726428
_cell_angle_alpha 90.000000
_cell_angle_beta 155.000516
_cell_angle_gamma 90.000000
_cell_volume 839.002126
_symmetry_space_group_name_H-M "P 21/C"
_symmetry_group_IT_number 14
_symmetry_cell_setting 'monoclinic'
loop_
_space_group_symop_operation_xyz
x,y,z
-x,1/2+y,1/2-z
-x,-y,-z
x,1/2-y,1/2+z
loop_
_atom_site_type_symbol
_atom_site_label
_atom_site_fract_x
_atom_site_fract_y
_atom_site_fract_z
Si Si1 0.064235 0.295002 0.984840
Si Si2 0.987700 0.558103 0.280582
Si Si3 0.697381 0.660587 0.531232
Si Si4 0.452523 0.195297 0.772846
Si Si5 0.801320 0.204165 0.802289
Si Si6 0.548156 0.295973 0.133934
O O1 0.082166 0.135297 0.929824
O O2 0.887463 0.293485 0.820172
O O3 0.125242 0.589893 0.063720
O O4 0.143163 0.094186 0.122038
O O5 0.859215 0.726448 0.187068
O O6 0.071935 0.811412 0.331279
O O7 0.608948 0.778984 0.370105
O O8 0.630994 0.357519 0.456738
O O9 0.627132 0.758954 0.533656
O O10 0.413970 0.434286 0.785704
O O11 0.392691 0.937828 0.753068
O O12 0.626102 0.223620 0.637953
#
# Coordination Sequence:
#
# PCOD9242611 Si02
#       6
#     4   4   4   4   4   4
#     4  10  23  43  61  95 127 170 218 273 317 399
#     4  12  29  40  62  92 137 178 207 264 348 403
#     4  10  23  38  56  91 124 167 210 267 319 394
#     4  10  20  34  60  84 126 153 212 268 306 381
#     4  10  21  41  70  88 123 166 229 272 320 378
#     4  10  20  34  62  91 111 159 211 277 312 365
#
# _framework density 28.605409000000002
#
# number of rings (size 3 to 8) (size 9 to 14) (size 15 to 20)
#    1.000    0.667    1.667    2.000    9.333    0.000 
#    0.000    0.833    0.000    1.000    0.000    0.000 
#    0.000    0.000    0.000    0.000    0.000    0.000 
#
# Total GULP energy -134163.294706 kJ/mol
# GULP energy per Si atom -5590.137279 kJ/mol
# Density = 2.854030 g / cm^3
# Si number density = 28.605409 Si / 1000 Ang^3
#
#
#
# Elastic Constant Matrix: (Units=GPa)
#
#
# Indices 1 2 3 4 5 6 
#
# 1 107.3324 35.7916 20.5635 0.0000 26.9516 0.0000
# 2 35.7916 201.2937 13.3398 0.0000 -10.6406 0.0000
# 3 20.5635 13.3398 98.4760 0.0000 8.5176 0.0000
# 4 0.0000 0.0000 0.0000 4.3952 0.0000 -8.2884
# 5 26.9516 -10.6406 8.5176 0.0000 56.3363 0.0000
# 6 0.0000 0.0000 0.0000 -8.2884 0.0000 34.9294
#
#
#
# Elastic Compliance Matrix: (Units=1/GPa)
#
#
# Indices 1 2 3 4 5 6 
#
# 1 0.011880 -0.002313 -0.001660 0.000000 -0.005869 0.000000
# 2 -0.002313 0.005527 -0.000458 0.000000 0.002219 0.000000
# 3 -0.001660 -0.000458 0.010641 0.000000 -0.000901 0.000000
# 4 0.000000 0.000000 0.000000 0.411788 0.000000 0.097713
# 5 -0.005869 0.002219 -0.000901 0.000000 0.021114 0.000000
# 6 0.000000 0.000000 0.000000 0.097713 0.000000 0.051815
#
#
# Mechanical properties :
#
#
# Convention : Reuss Voigt Hill
#
# Bulk Modulus (GPa) = 52.11692 60.72134 56.41913
# Shear Modulus (GPa) = 9.46932 41.62599 25.54765
#
# Velocity S-wave (km/s) = 1.82140 3.81882 2.99173
# Velocity P-wave (km/s) = 4.76258 6.38105 5.63027
#
# Compressibility (1/GPa) = 0.01918763
#
# Stress axis : x y z
#
# Youngs Moduli (GPa) = 84.17666 180.93939 93.97342
#
# Poissons Ratio (x) = 0.41844 0.15598
# Poissons Ratio (y) = 0.19466 0.04301
# Poissons Ratio (z) = 0.13972 0.08282
#
# Static dielectric constant tensor:
#      x y z
#    x 2.306050 0.000000 0.073520 
#    y 0.000000 2.193790 0.000000 
#    z 0.073520 0.000000 2.375560 
# 
# From -- ./inp_files/69619.got.cif
#   From: 2010.05.17/outbox.cif.g08.bks.cpg/sg14_35_cif.got.tgz:69619.got - 2010.06.03 17:49:19.
