data_PCOD9242996
_publ_section_title
;
Structure prediction by ZEFSAII (Michael W. Deem and Ramdas Pophale) SiO2 
 PCOD9242996
Probable space group: P 21/C
;
_chemical_formula_sum "Si O2"
_cell_formula_units_Z 28
_cell_length_a 14.850104
_cell_length_b 10.089665
_cell_length_c 8.913851
_cell_angle_alpha 90.000000
_cell_angle_beta 99.848974
_cell_angle_gamma 90.000000
_cell_volume 1315.901457
_symmetry_space_group_name_H-M "P 21/C"
_symmetry_group_IT_number 14
_symmetry_cell_setting 'monoclinic'
loop_
_space_group_symop_operation_xyz
x,y,z
-x,1/2+y,1/2-z
-x,-y,-z
x,1/2-y,1/2+z
loop_
_atom_site_type_symbol
_atom_site_label
_atom_site_fract_x
_atom_site_fract_y
_atom_site_fract_z
Si Si1 0.763369 0.074442 0.075946
Si Si2 0.999773 0.857372 0.420812
Si Si3 0.067216 0.395003 0.436503
Si Si4 0.798853 0.174663 0.415796
Si Si5 0.570378 0.154658 0.033098
Si Si6 0.474771 0.006519 0.249073
Si Si7 0.364307 0.953446 0.475934
O O1 0.802454 0.139479 0.241510
O O2 0.831855 0.957937 0.050392
O O3 0.758167 0.180325 0.937967
O O4 0.656690 0.055150 0.082939
O O5 0.972837 0.872381 0.240907
O O6 0.937091 0.744856 0.478664
O O7 0.103277 0.813288 0.479264
O O8 0.000000 0.000000 0.500000
O O9 0.000000 0.500000 0.500000
O O10 0.735568 0.065855 0.481941
O O11 0.536075 0.122149 0.857756
O O12 0.495539 0.120711 0.135049
O O13 0.605076 0.303169 0.054809
O O14 0.562873 0.996943 0.381198
O O15 0.386495 0.029773 0.328788
#
# Coordination Sequence:
#
# PCOD9242996 Si02
#       7
#     4   4   4   4   4   4   4
#     4  11  23  40  67  99 131 164 227 283 333 401
#     4  12  24  43  70  98 136 181 218 277 342 405
#     4  12  25  44  69 101 135 174 225 280 340 397
#     4  11  22  40  67 100 125 166 223 279 332 395
#     4  10  21  37  64  90 124 168 215 273 329 389
#     4  10  20  36  59  90 123 165 207 268 329 388
#     4  10  21  36  64  91 122 160 222 271 320 390
#
# _framework density 21.278186999999999
#
# number of rings (size 3 to 8) (size 9 to 14) (size 15 to 20)
#    0.000    1.143    4.286    2.571    6.000    0.000 
#    0.000    0.000   31.429    0.000    0.000    0.000 
#    0.000    0.000    0.000    0.000    0.000    0.000 
#
# Total GULP energy -156324.389884 kJ/mol
# GULP energy per Si atom -5583.013924 kJ/mol
# Density = 2.122976 g / cm^3
# Si number density = 21.278187 Si / 1000 Ang^3
#
#
#
# Elastic Constant Matrix: (Units=GPa)
#
#
# Indices 1 2 3 4 5 6 
#
# 1 92.7841 35.2182 33.7289 0.0000 -7.4353 0.0000
# 2 35.2182 79.5674 39.8376 0.0000 -17.1188 0.0000
# 3 33.7289 39.8376 126.3344 0.0000 -23.6024 0.0000
# 4 0.0000 0.0000 0.0000 35.3559 0.0000 -11.5819
# 5 -7.4353 -17.1188 -23.6024 0.0000 34.5228 0.0000
# 6 0.0000 0.0000 0.0000 -11.5819 0.0000 13.2719
#
#
#
# Elastic Compliance Matrix: (Units=1/GPa)
#
#
# Indices 1 2 3 4 5 6 
#
# 1 0.013413 -0.005084 -0.002189 0.000000 -0.001128 0.000000
# 2 -0.005084 0.017577 -0.003166 0.000000 0.005457 0.000000
# 3 -0.002189 -0.003166 0.010452 0.000000 0.005104 0.000000
# 4 0.000000 0.000000 0.000000 0.039606 0.000000 0.034563
# 5 -0.001128 0.005457 0.005104 0.000000 0.034919 0.000000
# 6 0.000000 0.000000 0.000000 0.034563 0.000000 0.105508
#
#
# Mechanical properties :
#
#
# Convention : Reuss Voigt Hill
#
# Bulk Modulus (GPa) = 48.62662 57.36169 52.99415
# Shear Modulus (GPa) = 20.06370 29.29019 24.67695
#
# Velocity S-wave (km/s) = 3.07404 3.71420 3.40918
# Velocity P-wave (km/s) = 5.95836 6.73871 6.36051
#
# Compressibility (1/GPa) = 0.02056487
#
# Stress axis : x y z
#
# Youngs Moduli (GPa) = 74.55727 56.89179 95.67716
#
# Poissons Ratio (x) = 0.28922 0.20941
# Poissons Ratio (y) = 0.37902 0.30292
# Poissons Ratio (z) = 0.16318 0.18012
#
# Static dielectric constant tensor:
#      x y z
#    x 1.859390 0.000000 -0.017920 
#    y 0.000000 1.868270 0.000000 
#    z -0.017920 0.000000 1.779220 
# 
# From -- ./inp_files/15578.got.cif
#   From: 2010.05.17/outbox.cif.g08.bks.cpg/sg14_8_cif.got.tgz:15578.got - 2010.06.03 17:49:19.
