data_PCOD9242079
_publ_section_title
;
Structure prediction by ZEFSAII (Michael W. Deem and Ramdas Pophale) SiO2 
 PCOD9242079
Probable space group: P 21/C
;
_chemical_formula_sum "Si O2"
_cell_formula_units_Z 32
_cell_length_a 19.677757
_cell_length_b 8.242995
_cell_length_c 26.331573
_cell_angle_alpha 90.000000
_cell_angle_beta 158.359536
_cell_angle_gamma 90.000000
_cell_volume 1575.092578
_symmetry_space_group_name_H-M "P 21/C"
_symmetry_group_IT_number 14
_symmetry_cell_setting 'monoclinic'
loop_
_space_group_symop_operation_xyz
x,y,z
-x,1/2+y,1/2-z
-x,-y,-z
x,1/2-y,1/2+z
loop_
_atom_site_type_symbol
_atom_site_label
_atom_site_fract_x
_atom_site_fract_y
_atom_site_fract_z
Si Si1 0.782378 0.241899 0.125275
Si Si2 0.911213 0.000466 0.632159
Si Si3 0.738261 0.982069 0.773240
Si Si4 0.625676 0.699041 0.985321
Si Si5 0.457697 0.024222 0.910397
Si Si6 0.043659 0.241238 0.016097
Si Si7 0.983171 0.546086 0.907868
Si Si8 0.282137 0.468428 0.852715
O O1 0.846309 0.351982 0.122832
O O2 0.801942 0.360574 0.187608
O O3 0.900914 0.080725 0.216568
O O4 0.570840 0.185172 0.973931
O O5 0.938420 0.059868 0.594004
O O6 0.764708 0.852352 0.537444
O O7 0.544085 0.073437 0.637398
O O8 0.778832 0.914929 0.744875
O O9 0.768725 0.848980 0.837656
O O10 0.894956 0.115146 0.892489
O O11 0.737281 0.657526 0.114953
O O12 0.540404 0.875347 0.934939
O O13 0.239444 0.030923 0.750574
O O14 0.500000 0.000000 0.000000
O O15 0.972382 0.317079 0.019745
O O16 0.060949 0.382663 0.987539
O O17 0.500000 0.500000 0.000000
#
# Coordination Sequence:
#
# PCOD9242079 Si02
#       8
#     4   4   4   4   4   4   4   4
#     4  11  23  38  60  97 133 171 194 257 337 402
#     4  11  24  41  60  93 141 160 204 256 339 380
#     4  10  19  39  62  94 120 161 214 266 304 361
#     4  10  22  38  63  97 131 160 198 263 326 396
#     4  12  22  38  68  95 128 167 210 255 324 376
#     4  10  23  39  65  86 121 170 227 262 292 357
#     4  11  24  42  63  92 126 167 218 265 302 373
#     4   9  19  34  62  96 124 152 206 255 318 375
#
# _framework density 20.316265999999999
#
# number of rings (size 3 to 8) (size 9 to 14) (size 15 to 20)
#    0.000    1.500    2.500    3.000    7.000    1.000 
#    0.000    3.750    0.000    0.000    0.000    0.000 
#    0.000    0.000    0.000    0.000    0.000    0.000 
#
# Total GULP energy -178739.434593 kJ/mol
# GULP energy per Si atom -5585.607331 kJ/mol
# Density = 2.027003 g / cm^3
# Si number density = 20.316266 Si / 1000 Ang^3
#
#
#
# Elastic Constant Matrix: (Units=GPa)
#
#
# Indices 1 2 3 4 5 6 
#
# 1 98.2626 20.1742 28.3206 0.0000 -3.5547 0.0000
# 2 20.1742 71.6953 16.9324 0.0000 -5.7585 0.0000
# 3 28.3206 16.9324 79.2467 0.0000 -14.3284 0.0000
# 4 0.0000 0.0000 0.0000 36.8094 0.0000 2.0679
# 5 -3.5547 -5.7585 -14.3284 0.0000 27.2386 0.0000
# 6 0.0000 0.0000 0.0000 2.0679 0.0000 32.4987
#
#
#
# Elastic Compliance Matrix: (Units=1/GPa)
#
#
# Indices 1 2 3 4 5 6 
#
# 1 0.011761 -0.002480 -0.003857 0.000000 -0.001019 0.000000
# 2 -0.002480 0.015276 -0.002047 0.000000 0.001829 0.000000
# 3 -0.003857 -0.002047 0.015765 0.000000 0.007357 0.000000
# 4 0.000000 0.000000 0.000000 0.027264 0.000000 -0.001735
# 5 -0.001019 0.001829 0.007357 0.000000 0.040836 0.000000
# 6 0.000000 0.000000 0.000000 -0.001735 0.000000 0.030881
#
#
# Mechanical properties :
#
#
# Convention : Reuss Voigt Hill
#
# Bulk Modulus (GPa) = 38.41270 42.22880 40.32075
# Shear Modulus (GPa) = 29.89899 31.56118 30.73008
#
# Velocity S-wave (km/s) = 3.84041 3.94571 3.89342
# Velocity P-wave (km/s) = 6.21397 6.44896 6.33255
#
# Compressibility (1/GPa) = 0.02603306
#
# Stress axis : x y z
#
# Youngs Moduli (GPa) = 85.02764 65.46155 63.43247
#
# Poissons Ratio (x) = 0.16236 0.24467
# Poissons Ratio (y) = 0.21089 0.12984
# Poissons Ratio (z) = 0.32797 0.13399
#
# Static dielectric constant tensor:
#      x y z
#    x 1.718950 0.000000 0.011360 
#    y 0.000000 1.791680 0.000000 
#    z 0.011360 0.000000 1.723620 
# 
# From -- ./inp_files/78023.got.cif
#   From: 2010.05.17/outbox.cif.g08.bks.cpg/sg14_40_cif.got.tgz:78023.got - 2010.06.03 17:49:19.
