data_PCOD9242163
_publ_section_title
;
Structure prediction by ZEFSAII (Michael W. Deem and Ramdas Pophale) SiO2 
 PCOD9242163
Probable space group: P 21/C
;
_chemical_formula_sum "Si O2"
_cell_formula_units_Z 28
_cell_length_a 5.447782
_cell_length_b 19.466173
_cell_length_c 11.845920
_cell_angle_alpha 90.000000
_cell_angle_beta 74.128722
_cell_angle_gamma 90.000000
_cell_volume 1208.340473
_symmetry_space_group_name_H-M "P 21/C"
_symmetry_group_IT_number 14
_symmetry_cell_setting 'monoclinic'
loop_
_space_group_symop_operation_xyz
x,y,z
-x,1/2+y,1/2-z
-x,-y,-z
x,1/2-y,1/2+z
loop_
_atom_site_type_symbol
_atom_site_label
_atom_site_fract_x
_atom_site_fract_y
_atom_site_fract_z
Si Si1 0.443822 0.626105 0.695323
Si Si2 0.204467 0.747368 0.144558
Si Si3 0.497732 0.349316 0.723634
Si Si4 0.913002 0.032379 0.646888
Si Si5 0.922446 0.850576 0.534092
Si Si6 0.645292 0.006114 0.245105
Si Si7 0.305178 0.281604 0.155008
O O1 0.397159 0.688181 0.615515
O O2 0.173911 0.588970 0.748419
O O3 0.641332 0.562013 0.665442
O O4 0.513530 0.665515 0.802096
O O5 0.312763 0.692960 0.220208
O O6 0.941885 0.775134 0.231890
O O7 0.142637 0.703025 0.041926
O O8 0.623423 0.422409 0.680571
O O9 0.416938 0.295174 0.639414
O O10 0.247836 0.360161 0.833289
O O11 0.632755 0.000952 0.660053
O O12 0.996588 0.076248 0.527697
O O13 0.136438 0.993295 0.686511
O O14 0.765890 0.812633 0.455803
#
# Coordination Sequence:
#
# PCOD9242163 Si02
#       7
#     4   4   4   4   4   4   4
#     4   9  18  37  59  78 115 162 195 234 288 351
#     4  10  21  34  57  86 115 155 201 246 286 357
#     4  10  25  34  57  88 121 153 202 237 298 352
#     4  10  21  35  61  81 122 158 195 228 305 345
#     4  11  21  36  58  87 119 158 198 245 294 352
#     4  10  21  38  57  86 121 163 188 240 294 365
#     4  10  19  40  54  81 120 158 197 244 291 347
#
# _framework density 23.172274000000002
#
# number of rings (size 3 to 8) (size 9 to 14) (size 15 to 20)
#    0.857    1.143    2.857    0.000    8.000    1.143 
#    0.000    0.000    0.000    0.857    0.000   11.000 
#    0.000    0.000    0.000    0.000    0.000    0.000 
#
# Total GULP energy -156100.190232 kJ/mol
# GULP energy per Si atom -5575.006794 kJ/mol
# Density = 2.311953 g / cm^3
# Si number density = 23.172274 Si / 1000 Ang^3
#
#
#
# Elastic Constant Matrix: (Units=GPa)
#
#
# Indices 1 2 3 4 5 6 
#
# 1 106.4472 16.0142 4.2272 0.0000 10.8124 0.0000
# 2 16.0142 106.1430 -0.8255 0.0000 5.2586 0.0000
# 3 4.2272 -0.8255 31.4886 0.0000 1.7152 0.0000
# 4 0.0000 0.0000 0.0000 10.9082 0.0000 -0.9711
# 5 10.8124 5.2586 1.7152 0.0000 16.9001 0.0000
# 6 0.0000 0.0000 0.0000 -0.9711 0.0000 26.9970
#
#
#
# Elastic Compliance Matrix: (Units=1/GPa)
#
#
# Indices 1 2 3 4 5 6 
#
# 1 0.010240 -0.001254 -0.001078 0.000000 -0.006052 0.000000
# 2 -0.001254 0.009728 0.000548 0.000000 -0.002280 0.000000
# 3 -0.001078 0.000548 0.032066 0.000000 -0.002735 0.000000
# 4 0.000000 0.000000 0.000000 0.091969 0.000000 0.003308
# 5 -0.006052 -0.002280 -0.002735 0.000000 0.064030 0.000000
# 6 0.000000 0.000000 0.000000 0.003308 0.000000 0.037160
#
#
# Mechanical properties :
#
#
# Convention : Reuss Voigt Hill
#
# Bulk Modulus (GPa) = 20.63312 31.43449 26.03381
# Shear Modulus (GPa) = 18.87389 25.93860 22.40625
#
# Velocity S-wave (km/s) = 2.85705 3.34934 3.11294
# Velocity P-wave (km/s) = 4.45053 5.34345 4.91730
#
# Compressibility (1/GPa) = 0.04846576
#
# Stress axis : x y z
#
# Youngs Moduli (GPa) = 97.65166 102.80018 31.18610
#
# Poissons Ratio (x) = 0.12887 0.03362
# Poissons Ratio (y) = 0.12241 -0.01708
# Poissons Ratio (z) = 0.10526 -0.05629
#
# Static dielectric constant tensor:
#      x y z
#    x 1.896020 0.000000 -0.060220 
#    y 0.000000 1.960980 0.000000 
#    z -0.060220 0.000000 1.860460 
# 
# From -- ./inp_files/21521.got.cif
#   From: 2010.05.17/outbox.cif.g08.bks.cpg/sg14_11_cif.got.tgz:21521.got - 2010.06.03 17:49:19.
