data_PCOD9242782
_publ_section_title
;
Structure prediction by ZEFSAII (Michael W. Deem and Ramdas Pophale) SiO2 
 PCOD9242782
Probable space group: P 21/C
;
_chemical_formula_sum "Si O2"
_cell_formula_units_Z 28
_cell_length_a 21.908228
_cell_length_b 8.824656
_cell_length_c 16.875980
_cell_angle_alpha 90.000000
_cell_angle_beta 22.330006
_cell_angle_gamma 90.000000
_cell_volume 1239.623476
_symmetry_space_group_name_H-M "P 21/C"
_symmetry_group_IT_number 14
_symmetry_cell_setting 'monoclinic'
loop_
_space_group_symop_operation_xyz
x,y,z
-x,1/2+y,1/2-z
-x,-y,-z
x,1/2-y,1/2+z
loop_
_atom_site_type_symbol
_atom_site_label
_atom_site_fract_x
_atom_site_fract_y
_atom_site_fract_z
Si Si1 0.401869 0.614603 0.549179
Si Si2 0.541012 0.858762 0.504318
Si Si3 0.768838 0.139776 0.036262
Si Si4 0.731686 0.478642 0.138480
Si Si5 0.081485 0.442661 0.228122
Si Si6 0.166734 0.741501 0.706293
Si Si7 0.097470 0.159736 0.871502
O O1 0.487750 0.721813 0.510975
O O2 0.545097 0.514965 0.340130
O O3 0.276874 0.522268 0.755374
O O4 0.311622 0.713404 0.592684
O O5 0.723275 0.851406 0.312077
O O6 0.500000 0.000000 0.500000
O O7 0.419623 0.879305 0.723560
O O8 0.815250 0.130146 0.889177
O O9 0.891393 0.037452 0.939529
O O10 0.792558 0.311304 0.041072
O O11 0.836224 0.586942 0.955888
O O12 0.161003 0.592163 0.171986
O O13 0.099466 0.316265 0.274558
O O14 0.007057 0.726943 0.950398
O O15 0.000000 0.000000 0.000000
#
# Coordination Sequence:
#
# PCOD9242782 Si02
#       7
#     4   4   4   4   4   4   4
#     4  10  21  41  66  90 132 179 218 277 349 410
#     4  11  21  36  64  97 125 170 231 276 339 398
#     4  10  22  40  65  95 134 170 223 286 336 407
#     4   9  21  40  67  88 134 172 214 272 348 404
#     4  10  20  39  66  91 130 171 224 280 333 398
#     4  10  21  39  65  94 132 174 218 275 344 397
#     4  10  20  35  60  89 124 165 214 276 325 389
#
# _framework density 22.587503000000002
#
# number of rings (size 3 to 8) (size 9 to 14) (size 15 to 20)
#    0.000    2.000    0.000    5.143    4.000    0.000 
#    0.000    0.714   18.857    0.000    0.000    0.000 
#    0.000    0.000    0.000    0.000    0.000    0.000 
#
# Total GULP energy -156077.044783 kJ/mol
# GULP energy per Si atom -5574.180171 kJ/mol
# Density = 2.253609 g / cm^3
# Si number density = 22.587503 Si / 1000 Ang^3
#
#
#
# Elastic Constant Matrix: (Units=GPa)
#
#
# Indices 1 2 3 4 5 6 
#
# 1 114.0346 20.9638 81.2129 0.0000 -5.6594 0.0000
# 2 20.9638 40.0502 23.0493 0.0000 -4.3974 0.0000
# 3 81.2129 23.0493 128.5785 0.0000 -24.5003 0.0000
# 4 0.0000 0.0000 0.0000 22.9507 0.0000 -10.0966
# 5 -5.6594 -4.3974 -24.5003 0.0000 46.7446 0.0000
# 6 0.0000 0.0000 0.0000 -10.0966 0.0000 30.0224
#
#
#
# Elastic Compliance Matrix: (Units=1/GPa)
#
#
# Indices 1 2 3 4 5 6 
#
# 1 0.016862 -0.003008 -0.010861 0.000000 -0.003934 0.000000
# 2 -0.003008 0.028377 -0.003053 0.000000 0.000705 0.000000
# 3 -0.010861 -0.003053 0.016530 0.000000 0.007062 0.000000
# 4 0.000000 0.000000 0.000000 0.051137 0.000000 0.017198
# 5 -0.003934 0.000705 0.007062 0.000000 0.024684 0.000000
# 6 0.000000 0.000000 0.000000 0.017198 0.000000 0.039092
#
#
# Mechanical properties :
#
#
# Convention : Reuss Voigt Hill
#
# Bulk Modulus (GPa) = 35.80796 59.23504 47.52150
# Shear Modulus (GPa) = 22.74447 30.43936 26.59192
#
# Velocity S-wave (km/s) = 3.17669 3.67498 3.43488
# Velocity P-wave (km/s) = 5.41688 6.65499 6.06760
#
# Compressibility (1/GPa) = 0.02792675
#
# Stress axis : x y z
#
# Youngs Moduli (GPa) = 59.30631 35.23934 60.49602
#
# Poissons Ratio (x) = 0.10599 0.65702
# Poissons Ratio (y) = 0.17837 0.18469
# Poissons Ratio (z) = 0.64410 0.10758
#
# Static dielectric constant tensor:
#      x y z
#    x 1.861760 0.000000 0.046250 
#    y 0.000000 1.964050 0.000000 
#    z 0.046250 0.000000 1.842030 
# 
# From -- ./inp_files/61270.got.cif
#   From: 2010.05.17/outbox.cif.g08.bks.cpg/sg14_31_cif.got.tgz:61270.got - 2010.06.03 17:49:19.
