data_PCOD9242615
_publ_section_title
;
Structure prediction by ZEFSAII (Michael W. Deem and Ramdas Pophale) SiO2 
 PCOD9242615
Probable space group: P 21/C
;
_chemical_formula_sum "Si O2"
_cell_formula_units_Z 30
_cell_length_a 13.589372
_cell_length_b 10.453518
_cell_length_c 9.125543
_cell_angle_alpha 90.000000
_cell_angle_beta 79.291612
_cell_angle_gamma 90.000000
_cell_volume 1273.769870
_symmetry_space_group_name_H-M "P 21/C"
_symmetry_group_IT_number 14
_symmetry_cell_setting 'monoclinic'
loop_
_space_group_symop_operation_xyz
x,y,z
-x,1/2+y,1/2-z
-x,-y,-z
x,1/2-y,1/2+z
loop_
_atom_site_type_symbol
_atom_site_label
_atom_site_fract_x
_atom_site_fract_y
_atom_site_fract_z
Si Si1 0.217604 0.234067 0.132017
Si Si2 0.759150 0.265955 0.391415
Si Si3 0.466998 0.796718 0.049905
Si Si4 0.582213 0.656082 0.253933
Si Si5 0.687734 0.504277 0.978174
Si Si6 0.113018 0.641170 0.394489
Si Si7 0.096355 0.351342 0.405485
Si Si8 0.500000 0.000000 0.500000
O O1 0.313398 0.184121 0.194421
O O2 0.128005 0.254302 0.270764
O O3 0.243750 0.373799 0.059154
O O4 0.181855 0.152212 0.005640
O O5 0.649025 0.315542 0.376446
O O6 0.835072 0.230015 0.240582
O O7 0.810563 0.359640 0.490883
O O8 0.742186 0.128571 0.477440
O O9 0.540800 0.772475 0.166119
O O10 0.477151 0.654977 0.976390
O O11 0.506959 0.881586 0.904298
O O12 0.601367 0.544681 0.124101
O O13 0.608446 0.499999 0.868926
O O14 0.093213 0.496321 0.346489
O O15 0.007381 0.686148 0.489429
#
# Coordination Sequence:
#
# PCOD9242615 Si02
#       8
#     4   4   4   4   4   4   4   2
#     4  12  20  40  65  94 127 168 215 271 332 381
#     4  11  23  44  67  92 133 179 218 266 330 398
#     4  10  20  34  60  89 129 168 214 260 317 384
#     4  11  19  36  59  98 129 165 213 264 314 389
#     4  10  20  35  63  90 127 170 211 258 320 381
#     4  11  25  46  67  94 130 172 222 277 338 390
#     4  11  25  43  69  96 128 169 220 285 336 388
#     4   8  16  32  52  84 116 170 198 236 306 374
#
# _framework density 23.552135
#
# number of rings (size 3 to 8) (size 9 to 14) (size 15 to 20)
#    0.000    1.333    5.333    1.600    0.000    1.067 
#    0.000    2.000    0.000   10.400    0.000    0.000 
#    0.000    0.000    0.000    0.000    0.000    0.000 
#
# Total GULP energy -167108.289868 kJ/mol
# GULP energy per Si atom -5570.276329 kJ/mol
# Density = 2.349853 g / cm^3
# Si number density = 23.552135 Si / 1000 Ang^3
#
#
#
# Elastic Constant Matrix: (Units=GPa)
#
#
# Indices 1 2 3 4 5 6 
#
# 1 65.0042 -3.8930 -4.0706 0.0000 -14.1305 0.0000
# 2 -3.8930 40.5626 11.0471 0.0000 -8.0304 0.0000
# 3 -4.0706 11.0471 84.2376 0.0000 -18.9935 0.0000
# 4 0.0000 0.0000 0.0000 20.6038 0.0000 4.6514
# 5 -14.1305 -8.0304 -18.9935 0.0000 42.6214 0.0000
# 6 0.0000 0.0000 0.0000 4.6514 0.0000 17.5695
#
#
#
# Elastic Compliance Matrix: (Units=1/GPa)
#
#
# Indices 1 2 3 4 5 6 
#
# 1 0.017211 0.002486 0.002110 0.000000 0.007115 0.000000
# 2 0.002486 0.026459 -0.002268 0.000000 0.004799 0.000000
# 3 0.002110 -0.002268 0.013709 0.000000 0.006382 0.000000
# 4 0.000000 0.000000 0.000000 0.051620 0.000000 -0.013666
# 5 0.007115 0.004799 0.006382 0.000000 0.029569 0.000000
# 6 0.000000 0.000000 0.000000 -0.013666 0.000000 0.060535
#
#
# Mechanical properties :
#
#
# Convention : Reuss Voigt Hill
#
# Bulk Modulus (GPa) = 16.11974 21.77461 18.94718
# Shear Modulus (GPa) = 23.24209 28.60701 25.92455
#
# Velocity S-wave (km/s) = 3.14480 3.48893 3.32132
# Velocity P-wave (km/s) = 4.47722 5.04931 4.77185
#
# Compressibility (1/GPa) = 0.06203575
#
# Stress axis : x y z
#
# Youngs Moduli (GPa) = 58.10171 37.79366 72.94244
#
# Poissons Ratio (x) = -0.09395 -0.15390
# Poissons Ratio (y) = -0.14443 0.16542
# Poissons Ratio (z) = -0.12259 0.08571
#
# Static dielectric constant tensor:
#      x y z
#    x 2.321940 0.000000 0.189660 
#    y 0.000000 2.038460 0.000000 
#    z 0.189660 0.000000 2.102840 
# 
# From -- ./inp_files/15536.got.cif
#   From: 2010.05.17/outbox.cif.g08.bks.cpg/sg14_8_cif.got.tgz:15536.got - 2010.06.03 17:49:19.
