data_PCOD9242033
_publ_section_title
;
Structure prediction by ZEFSAII (Michael W. Deem and Ramdas Pophale) SiO2 
 PCOD9242033
Probable space group: P 21/C
;
_chemical_formula_sum "Si O2"
_cell_formula_units_Z 28
_cell_length_a 14.023417
_cell_length_b 5.561990
_cell_length_c 14.815113
_cell_angle_alpha 90.000000
_cell_angle_beta 117.523997
_cell_angle_gamma 90.000000
_cell_volume 1024.762461
_symmetry_space_group_name_H-M "P 21/C"
_symmetry_group_IT_number 14
_symmetry_cell_setting 'monoclinic'
loop_
_space_group_symop_operation_xyz
x,y,z
-x,1/2+y,1/2-z
-x,-y,-z
x,1/2-y,1/2+z
loop_
_atom_site_type_symbol
_atom_site_label
_atom_site_fract_x
_atom_site_fract_y
_atom_site_fract_z
Si Si1 0.647933 0.675128 0.543220
Si Si2 0.393914 0.173964 0.277421
Si Si3 0.216739 0.444677 0.100382
Si Si4 0.130280 0.506451 0.353381
Si Si5 0.232676 0.823807 0.261846
Si Si6 0.061008 0.264918 0.645392
Si Si7 0.615743 0.171341 0.437915
O O1 0.632185 0.668687 0.644196
O O2 0.777037 0.681398 0.578079
O O3 0.605746 0.428637 0.481850
O O4 0.599017 0.926481 0.487850
O O5 0.316427 0.259370 0.162527
O O6 0.521064 0.175117 0.321215
O O7 0.350925 0.916640 0.292298
O O8 0.209030 0.608731 0.185442
O O9 0.099029 0.326946 0.062426
O O10 0.266302 0.630253 0.051749
O O11 0.201588 0.724838 0.345192
O O12 0.062461 0.406018 0.236840
O O13 0.051132 0.597211 0.395686
O O14 0.155031 0.045646 0.208225
#
# Coordination Sequence:
#
# PCOD9242033 Si02
#       7
#     4   4   4   4   4   4   4
#     4  12  26  46  66 104 144 181 228 285 346 427
#     4  11  24  43  73  96 134 186 242 279 335 407
#     4  10  25  43  67 102 134 181 239 292 335 422
#     4  11  20  37  68 103 127 177 223 299 338 406
#     4  10  19  38  67  97 133 157 239 291 330 394
#     4  10  20  37  70  98 131 169 244 287 347 390
#     4  12  30  44  69  99 150 186 222 280 364 406
#
# _framework density 27.323405000000001
#
# number of rings (size 3 to 8) (size 9 to 14) (size 15 to 20)
#    0.000    1.143    5.714    1.714    8.000    0.000 
#    0.000    1.429    0.000    0.000    0.000    0.000 
#    0.000    0.000    0.000    0.000    0.000    0.000 
#
# Total GULP energy -156518.822491 kJ/mol
# GULP energy per Si atom -5589.957946 kJ/mol
# Density = 2.726122 g / cm^3
# Si number density = 27.323405 Si / 1000 Ang^3
#
#
#
# Elastic Constant Matrix: (Units=GPa)
#
#
# Indices 1 2 3 4 5 6 
#
# 1 156.8302 17.4411 15.0644 0.0000 5.1805 0.0000
# 2 17.4411 97.5704 8.5515 0.0000 -4.8155 0.0000
# 3 15.0644 8.5515 47.2065 0.0000 8.0992 0.0000
# 4 0.0000 0.0000 0.0000 43.7862 0.0000 -1.2495
# 5 5.1805 -4.8155 8.0992 0.0000 32.3237 0.0000
# 6 0.0000 0.0000 0.0000 -1.2495 0.0000 34.5562
#
#
#
# Elastic Compliance Matrix: (Units=1/GPa)
#
#
# Indices 1 2 3 4 5 6 
#
# 1 0.006696 -0.001077 -0.001808 0.000000 -0.000781 0.000000
# 2 -0.001077 0.010728 -0.001989 0.000000 0.002269 0.000000
# 3 -0.001808 -0.001989 0.023116 0.000000 -0.005799 0.000000
# 4 0.000000 0.000000 0.000000 0.022862 0.000000 0.000827
# 5 -0.000781 0.002269 -0.005799 0.000000 0.032853 0.000000
# 6 0.000000 0.000000 0.000000 0.000827 0.000000 0.028968
#
#
# Mechanical properties :
#
#
# Convention : Reuss Voigt Hill
#
# Bulk Modulus (GPa) = 32.47626 42.63568 37.55597
# Shear Modulus (GPa) = 34.42739 39.50323 36.96531
#
# Velocity S-wave (km/s) = 3.55349 3.80645 3.68214
# Velocity P-wave (km/s) = 5.36173 5.91242 5.64379
#
# Compressibility (1/GPa) = 0.03079172
#
# Stress axis : x y z
#
# Youngs Moduli (GPa) = 149.35390 93.21538 43.26092
#
# Poissons Ratio (x) = 0.10039 0.07820
# Poissons Ratio (y) = 0.16085 0.08605
# Poissons Ratio (z) = 0.26998 0.18541
#
# Static dielectric constant tensor:
#      x y z
#    x 2.205800 0.000000 -0.005410 
#    y 0.000000 2.160570 0.000000 
#    z -0.005410 0.000000 2.172160 
# 
# From -- ./inp_files/58509.got.cif
#   From: 2010.05.17/outbox.cif.g08.bks.cpg/sg14_30_cif.got.tgz:58509.got - 2010.06.03 17:49:19.
