data_PCOD9242158
_publ_section_title
;
Structure prediction by ZEFSAII (Michael W. Deem and Ramdas Pophale) SiO2 
 PCOD9242158
Probable space group: P 21/C
;
_chemical_formula_sum "Si O2"
_cell_formula_units_Z 28
_cell_length_a 8.874803
_cell_length_b 27.149153
_cell_length_c 8.561676
_cell_angle_alpha 90.000000
_cell_angle_beta 143.056512
_cell_angle_gamma 90.000000
_cell_volume 1239.846134
_symmetry_space_group_name_H-M "P 21/C"
_symmetry_group_IT_number 14
_symmetry_cell_setting 'monoclinic'
loop_
_space_group_symop_operation_xyz
x,y,z
-x,1/2+y,1/2-z
-x,-y,-z
x,1/2-y,1/2+z
loop_
_atom_site_type_symbol
_atom_site_label
_atom_site_fract_x
_atom_site_fract_y
_atom_site_fract_z
Si Si1 0.379084 0.752894 0.802993
Si Si2 0.949861 0.665041 0.995417
Si Si3 0.710453 0.505969 0.811140
Si Si4 0.495186 0.109833 0.840663
Si Si5 0.895934 0.162384 0.028815
Si Si6 0.630422 0.684249 0.274857
Si Si7 0.304407 0.598582 0.140283
O O1 0.146285 0.790523 0.638799
O O2 0.248780 0.713780 0.580784
O O3 0.607016 0.781851 0.909168
O O4 0.491778 0.718114 0.030965
O O5 0.972094 0.652468 0.197505
O O6 0.034300 0.624761 0.934834
O O7 0.651378 0.660763 0.741107
O O8 0.500000 0.500000 0.500000
O O9 0.666824 0.561532 0.833266
O O10 0.677241 0.458079 0.893771
O O11 0.000000 0.500000 0.000000
O O12 0.684643 0.120419 0.855990
O O13 0.621565 0.099582 0.113677
O O14 0.095944 0.169159 0.057797
O O15 0.476233 0.635008 0.184493
#
# Coordination Sequence:
#
# PCOD9242158 Si02
#       7
#     4   4   4   4   4   4   4
#     4  11  24  41  63  88 125 178 219 278 329 408
#     4  10  20  39  63  89 127 165 221 274 331 393
#     4  10  19  39  70 107 136 179 232 287 344 418
#     4  10  21  39  67  98 133 170 227 280 343 408
#     4  11  24  38  60  88 129 171 213 273 339 395
#     4  11  25  42  61  92 133 167 230 269 347 402
#     4   9  21  39  65  98 128 176 219 282 339 403
#
# _framework density 22.583445999999999
#
# number of rings (size 3 to 8) (size 9 to 14) (size 15 to 20)
#    0.000    1.714    2.857    0.857    4.000    2.286 
#    0.000    0.714    0.000    3.429    0.000    0.000 
#    0.000    0.000    0.000    0.000    0.000    0.000 
#
# Total GULP energy -155968.797560 kJ/mol
# GULP energy per Si atom -5570.314199 kJ/mol
# Density = 2.253205 g / cm^3
# Si number density = 22.583446 Si / 1000 Ang^3
#
#
#
# Elastic Constant Matrix: (Units=GPa)
#
#
# Indices 1 2 3 4 5 6 
#
# 1 138.7901 84.1911 20.7494 0.0000 33.4975 0.0000
# 2 84.1911 142.8326 26.9531 0.0000 15.4910 0.0000
# 3 20.7494 26.9531 39.1682 0.0000 9.5122 0.0000
# 4 0.0000 0.0000 0.0000 26.7327 0.0000 6.0610
# 5 33.4975 15.4910 9.5122 0.0000 35.2605 0.0000
# 6 0.0000 0.0000 0.0000 6.0610 0.0000 30.6559
#
#
#
# Elastic Compliance Matrix: (Units=1/GPa)
#
#
# Indices 1 2 3 4 5 6 
#
# 1 0.013989 -0.007139 -0.000035 0.000000 -0.010144 0.000000
# 2 -0.007139 0.011850 -0.005088 0.000000 0.002949 0.000000
# 3 -0.000035 -0.005088 0.030498 0.000000 -0.005959 0.000000
# 4 0.000000 0.000000 0.000000 0.039163 0.000000 -0.007743
# 5 -0.010144 0.002949 -0.005959 0.000000 0.038309 0.000000
# 6 0.000000 0.000000 0.000000 -0.007743 0.000000 0.034151
#
#
# Mechanical properties :
#
#
# Convention : Reuss Voigt Hill
#
# Bulk Modulus (GPa) = 31.43407 64.95313 48.19360
# Shear Modulus (GPa) = 24.61983 31.12297 27.87140
#
# Velocity S-wave (km/s) = 3.30536 3.71635 3.51686
# Velocity P-wave (km/s) = 5.34008 6.87305 6.15448
#
# Compressibility (1/GPa) = 0.03181262
#
# Stress axis : x y z
#
# Youngs Moduli (GPa) = 71.48357 84.39072 32.78912
#
# Poissons Ratio (x) = 0.60247 0.00113
# Poissons Ratio (y) = 0.51033 0.16684
# Poissons Ratio (z) = 0.00247 0.42941
#
# Static dielectric constant tensor:
#      x y z
#    x 1.878610 0.000000 0.028470 
#    y 0.000000 1.925400 0.000000 
#    z 0.028470 0.000000 1.979050 
# 
# From -- ./inp_files/11108.got.cif
#   From: 2010.05.17/outbox.cif.g08.bks.cpg/sg14_6_cif.got.tgz:11108.got - 2010.06.03 17:49:19.
