data_PCOD9242164
_publ_section_title
;
Structure prediction by ZEFSAII (Michael W. Deem and Ramdas Pophale) SiO2 
 PCOD9242164
Probable space group: P 21/C
;
_chemical_formula_sum "Si O2"
_cell_formula_units_Z 24
_cell_length_a 9.629933
_cell_length_b 15.985770
_cell_length_c 8.343176
_cell_angle_alpha 90.000000
_cell_angle_beta 112.215697
_cell_angle_gamma 90.000000
_cell_volume 1189.022145
_symmetry_space_group_name_H-M "P 21/C"
_symmetry_group_IT_number 14
_symmetry_cell_setting 'monoclinic'
loop_
_space_group_symop_operation_xyz
x,y,z
-x,1/2+y,1/2-z
-x,-y,-z
x,1/2-y,1/2+z
loop_
_atom_site_type_symbol
_atom_site_label
_atom_site_fract_x
_atom_site_fract_y
_atom_site_fract_z
Si Si1 0.818892 0.083071 0.497457
Si Si2 0.013603 0.547162 0.248589
Si Si3 0.706566 0.004353 0.956417
Si Si4 0.312106 0.439265 0.900956
Si Si5 0.450063 0.812907 0.591767
Si Si6 0.481378 0.136171 0.013170
O O1 0.724464 0.162834 0.514042
O O2 0.951816 0.044488 0.664781
O O3 0.888170 0.086658 0.351740
O O4 0.700969 0.004846 0.459192
O O5 0.124420 0.535021 0.443830
O O6 0.857062 0.596826 0.195549
O O7 0.668063 0.991710 0.753974
O O8 0.672386 0.916110 0.031109
O O9 0.598628 0.071486 0.989875
O O10 0.441190 0.371850 0.966138
O O11 0.504558 0.719481 0.584481
O O12 0.473825 0.837297 0.787280
#
# Coordination Sequence:
#
# PCOD9242164 Si02
#       6
#     4   4   4   4   4   4
#     4   9  19  34  58  84 112 149 182 233 278 336
#     4   9  18  35  60  83 112 149 185 228 279 348
#     4  10  19  40  57  85 111 153 190 230 287 339
#     4   9  20  33  62  85 107 149 184 234 280 337
#     4  11  21  39  53  88 112 145 197 230 285 330
#     4  10  24  35  60  81 118 148 188 242 278 335
#
# _framework density 20.184653000000001
#
# number of rings (size 3 to 8) (size 9 to 14) (size 15 to 20)
#    1.000    1.333    1.667    1.000    2.333    1.333 
#    0.000    1.667    7.333    0.000    0.000    0.000 
#    0.000    0.000    0.000    0.000    0.000    0.000 
#
# Total GULP energy -133616.281303 kJ/mol
# GULP energy per Si atom -5567.345054 kJ/mol
# Density = 2.013871 g / cm^3
# Si number density = 20.184653 Si / 1000 Ang^3
#
#
#
# Elastic Constant Matrix: (Units=GPa)
#
#
# Indices 1 2 3 4 5 6 
#
# 1 118.8851 33.7508 8.2942 0.0000 -3.8028 0.0000
# 2 33.7508 68.7683 -0.8359 0.0000 -12.3023 0.0000
# 3 8.2942 -0.8359 17.4838 0.0000 -0.2900 0.0000
# 4 0.0000 0.0000 0.0000 16.0314 0.0000 -8.9543
# 5 -3.8028 -12.3023 -0.2900 0.0000 30.6579 0.0000
# 6 0.0000 0.0000 0.0000 -8.9543 0.0000 19.3410
#
#
#
# Elastic Compliance Matrix: (Units=1/GPa)
#
#
# Indices 1 2 3 4 5 6 
#
# 1 0.010228 -0.005240 -0.005117 0.000000 -0.000882 0.000000
# 2 -0.005240 0.018363 0.003476 0.000000 0.006752 0.000000
# 3 -0.005117 0.003476 0.059812 0.000000 0.001326 0.000000
# 4 0.000000 0.000000 0.000000 0.084134 0.000000 0.038952
# 5 -0.000882 0.006752 0.001326 0.000000 0.035230 0.000000
# 6 0.000000 0.000000 0.000000 0.038952 0.000000 0.069737
#
#
# Mechanical properties :
#
#
# Convention : Reuss Voigt Hill
#
# Bulk Modulus (GPa) = 13.39760 31.95059 22.67409
# Shear Modulus (GPa) = 15.81542 24.13459 19.97501
#
# Velocity S-wave (km/s) = 2.80221 3.46163 3.14923
# Velocity P-wave (km/s) = 4.13785 5.64275 4.94785
#
# Compressibility (1/GPa) = 0.07464025
#
# Stress axis : x y z
#
# Youngs Moduli (GPa) = 97.77272 54.45648 16.71915
#
# Poissons Ratio (x) = 0.28534 0.08555
# Poissons Ratio (y) = 0.51230 -0.05811
# Poissons Ratio (z) = 0.50032 -0.18927
#
# Static dielectric constant tensor:
#      x y z
#    x 1.777950 0.000000 0.012120 
#    y 0.000000 1.705350 0.000000 
#    z 0.012120 0.000000 1.748610 
# 
# From -- ./inp_files/25012.got.cif
#   From: 2010.05.17/outbox.cif.g08.bks.cpg/sg14_13_cif.got.tgz:25012.got - 2010.06.03 17:49:19.
