data_PCOD9242771
_publ_section_title
;
Structure prediction by ZEFSAII (Michael W. Deem and Ramdas Pophale) SiO2 
 PCOD9242771
Probable space group: P 21/C
;
_chemical_formula_sum "Si O2"
_cell_formula_units_Z 32
_cell_length_a 23.119117
_cell_length_b 5.035401
_cell_length_c 16.474919
_cell_angle_alpha 90.000000
_cell_angle_beta 47.717678
_cell_angle_gamma 90.000000
_cell_volume 1418.945267
_symmetry_space_group_name_H-M "P 21/C"
_symmetry_group_IT_number 14
_symmetry_cell_setting 'monoclinic'
loop_
_space_group_symop_operation_xyz
x,y,z
-x,1/2+y,1/2-z
-x,-y,-z
x,1/2-y,1/2+z
loop_
_atom_site_type_symbol
_atom_site_label
_atom_site_fract_x
_atom_site_fract_y
_atom_site_fract_z
Si Si1 0.702766 0.025420 0.371825
Si Si2 0.185524 0.032334 0.599702
Si Si3 0.401268 0.807675 0.816012
Si Si4 0.252334 0.480020 0.767914
Si Si5 0.741942 0.627949 0.594909
Si Si6 0.430041 0.311874 0.895624
Si Si7 0.019260 0.272313 0.286043
Si Si8 0.129645 0.749620 0.985289
O O1 0.700920 0.270517 0.312205
O O2 0.620422 0.913048 0.481266
O O3 0.757418 0.122881 0.394690
O O4 0.746200 0.767906 0.294082
O O5 0.237425 0.268115 0.513442
O O6 0.107835 0.138619 0.716211
O O7 0.156529 0.882855 0.545891
O O8 0.321120 0.898053 0.851698
O O9 0.413298 0.013685 0.880374
O O10 0.476579 0.844248 0.687320
O O11 0.404024 0.511890 0.848044
O O12 0.287706 0.354691 0.816765
O O13 0.167226 0.589951 0.875485
O O14 0.823529 0.525441 0.555981
O O15 0.983182 0.490052 0.257520
O O16 0.962933 0.269035 0.417256
#
# Coordination Sequence:
#
# PCOD9242771 Si02
#       8
#     4   4   4   4   4   4   4   4
#     4  12  23  41  60  89 123 160 201 246 298 353
#     4  10  22  35  67  93 113 153 210 254 292 354
#     4  10  21  36  64  93 119 149 200 251 305 347
#     4  11  26  39  60  83 129 167 195 240 302 362
#     4  11  20  41  64  90 115 164 204 242 296 365
#     4  10  21  38  59  94 124 149 190 263 302 338
#     4  10  20  35  59  94 119 144 197 264 302 336
#     4  10  21  41  63  88 122 159 199 249 302 354
#
# _framework density 22.551964000000002
#
# number of rings (size 3 to 8) (size 9 to 14) (size 15 to 20)
#    0.000    1.500    3.750    1.500    3.500    0.000 
#    0.000    2.500    0.000    0.000    0.000    0.000 
#    0.000    0.000    0.000    0.000    0.000    0.000 
#
# Total GULP energy -178804.160776 kJ/mol
# GULP energy per Si atom -5587.630024 kJ/mol
# Density = 2.250063 g / cm^3
# Si number density = 22.551964 Si / 1000 Ang^3
#
#
#
# Elastic Constant Matrix: (Units=GPa)
#
#
# Indices 1 2 3 4 5 6 
#
# 1 21.9517 -0.6863 16.3865 0.0000 -11.9427 0.0000
# 2 -0.6863 88.5424 16.6273 0.0000 9.4400 0.0000
# 3 16.3865 16.6273 139.2359 0.0000 -14.6213 0.0000
# 4 0.0000 0.0000 0.0000 33.1649 0.0000 3.1441
# 5 -11.9427 9.4400 -14.6213 0.0000 23.5902 0.0000
# 6 0.0000 0.0000 0.0000 3.1441 0.0000 24.6905
#
#
#
# Elastic Compliance Matrix: (Units=1/GPa)
#
#
# Indices 1 2 3 4 5 6 
#
# 1 0.065765 -0.002066 -0.004182 0.000000 0.031528 0.000000
# 2 -0.002066 0.012428 -0.002004 0.000000 -0.007261 0.000000
# 3 -0.004182 -0.002004 0.008317 0.000000 0.003839 0.000000
# 4 0.000000 0.000000 0.000000 0.030521 0.000000 -0.003887
# 5 0.031528 -0.007261 0.003839 0.000000 0.063637 0.000000
# 6 0.000000 0.000000 0.000000 -0.003887 0.000000 0.040996
#
#
# Mechanical properties :
#
#
# Convention : Reuss Voigt Hill
#
# Bulk Modulus (GPa) = 14.28454 34.93166 24.60810
# Shear Modulus (GPa) = 19.12024 30.78262 24.95143
#
# Velocity S-wave (km/s) = 2.91491 3.69855 3.32986
# Velocity P-wave (km/s) = 4.20437 5.81051 5.07143
#
# Compressibility (1/GPa) = 0.07000574
#
# Stress axis : x y z
#
# Youngs Moduli (GPa) = 15.20575 80.46086 120.24061
#
# Poissons Ratio (x) = 0.16625 0.50287
# Poissons Ratio (y) = 0.03142 0.24090
# Poissons Ratio (z) = 0.06359 0.16120
#
# Static dielectric constant tensor:
#      x y z
#    x 1.836300 0.000000 0.013210 
#    y 0.000000 1.871010 0.000000 
#    z 0.013210 0.000000 1.876100 
# 
# From -- ./inp_files/62092.got.cif
#   From: 2010.05.17/outbox.cif.g08.bks.cpg/sg14_32_cif.got.tgz:62092.got - 2010.06.03 17:49:19.
