data_PCOD9242652
_publ_section_title
;
Structure prediction by ZEFSAII (Michael W. Deem and Ramdas Pophale) SiO2 
 PCOD9242652
Probable space group: P 21/C
;
_chemical_formula_sum "Si O2"
_cell_formula_units_Z 32
_cell_length_a 13.279842
_cell_length_b 7.383629
_cell_length_c 21.485157
_cell_angle_alpha 90.000000
_cell_angle_beta 129.104840
_cell_angle_gamma 90.000000
_cell_volume 1634.779496
_symmetry_space_group_name_H-M "P 21/C"
_symmetry_group_IT_number 14
_symmetry_cell_setting 'monoclinic'
loop_
_space_group_symop_operation_xyz
x,y,z
-x,1/2+y,1/2-z
-x,-y,-z
x,1/2-y,1/2+z
loop_
_atom_site_type_symbol
_atom_site_label
_atom_site_fract_x
_atom_site_fract_y
_atom_site_fract_z
Si Si1 0.868009 0.436244 0.294225
Si Si2 0.656248 0.293973 0.533007
Si Si3 0.978588 0.071278 0.366198
Si Si4 0.779413 0.945408 0.628143
Si Si5 0.628585 0.600977 0.622441
Si Si6 0.093048 0.279054 0.031898
Si Si7 0.229184 0.303069 0.204770
Si Si8 0.888823 0.430171 0.539446
O O1 0.871618 0.230138 0.318205
O O2 0.838427 0.451609 0.210602
O O3 0.774522 0.585173 0.290035
O O4 0.010990 0.502382 0.368971
O O5 0.662952 0.417166 0.598517
O O6 0.519707 0.346847 0.449094
O O7 0.769778 0.341135 0.528389
O O8 0.676907 0.083631 0.557730
O O9 0.100867 0.096989 0.369814
O O10 0.036169 0.086643 0.458004
O O11 0.904907 0.887432 0.319970
O O12 0.714181 0.761079 0.625424
O O13 0.661458 0.610835 0.708893
O O14 0.204418 0.347663 0.122554
O O15 0.974116 0.194553 0.026152
O O16 0.148347 0.107593 0.014697
#
# Coordination Sequence:
#
# PCOD9242652 Si02
#       8
#     4   4   4   4   4   4   4   4
#     4   9  20  32  49  86 116 138 174 230 290 338
#     4  11  22  39  58  80 116 155 192 230 281 344
#     4  11  21  31  58  89 115 146 180 231 294 343
#     4  11  22  33  58  88 120 143 183 236 284 341
#     4  10  23  39  57  81 114 155 194 231 279 342
#     4   9  18  35  55  84 114 144 185 237 285 335
#     4  10  20  35  55  78 113 147 187 234 279 331
#     4   9  18  34  59  80 113 150 181 227 293 334
#
# _framework density 19.574504999999998
#
# number of rings (size 3 to 8) (size 9 to 14) (size 15 to 20)
#    0.000    2.000    0.000    5.250    7.000    0.000 
#    0.000    0.000    5.500    0.000    0.000    0.000 
#    0.000    0.000    0.000    0.000    0.000    0.000 
#
# Total GULP energy -178414.340365 kJ/mol
# GULP energy per Si atom -5575.448136 kJ/mol
# Density = 1.952995 g / cm^3
# Si number density = 19.574505 Si / 1000 Ang^3
#
#
#
# Elastic Constant Matrix: (Units=GPa)
#
#
# Indices 1 2 3 4 5 6 
#
# 1 17.7891 -20.9595 3.3719 0.0000 -4.8127 0.0000
# 2 -20.9595 68.8265 2.6386 0.0000 -1.1204 0.0000
# 3 3.3719 2.6386 116.2815 0.0000 -16.3128 0.0000
# 4 0.0000 0.0000 0.0000 31.1283 0.0000 -3.8802
# 5 -4.8127 -1.1204 -16.3128 0.0000 15.3935 0.0000
# 6 0.0000 0.0000 0.0000 -3.8802 0.0000 15.7188
#
#
#
# Elastic Compliance Matrix: (Units=1/GPa)
#
#
# Indices 1 2 3 4 5 6 
#
# 1 0.103495 0.032054 0.001337 0.000000 0.036107 0.000000
# 2 0.032054 0.024478 0.000201 0.000000 0.012016 0.000000
# 3 0.001337 0.000201 0.010122 0.000000 0.011159 0.000000
# 4 0.000000 0.000000 0.000000 0.033145 0.000000 0.008182
# 5 0.036107 0.012016 0.011159 0.000000 0.088951 0.000000
# 6 0.000000 0.000000 0.000000 0.008182 0.000000 0.065638
#
#
# Mechanical properties :
#
#
# Convention : Reuss Voigt Hill
#
# Bulk Modulus (GPa) = 4.87144 19.22211 12.04678
# Shear Modulus (GPa) = 15.28710 26.97119 21.12915
#
# Velocity S-wave (km/s) = 2.79762 3.71600 3.28902
# Velocity P-wave (km/s) = 3.59578 5.31534 4.53775
#
# Compressibility (1/GPa) = 0.20527804
#
# Stress axis : x y z
#
# Youngs Moduli (GPa) = 9.66228 40.85232 98.79497
#
# Poissons Ratio (x) = -1.30947 -0.13208
# Poissons Ratio (y) = -0.30971 -0.01983
# Poissons Ratio (z) = -0.01292 -0.00820
#
# Static dielectric constant tensor:
#      x y z
#    x 1.657290 0.000000 -0.032870 
#    y 0.000000 1.754960 0.000000 
#    z -0.032870 0.000000 1.711250 
# 
# From -- ./inp_files/67065.got.cif
#   From: 2010.05.17/outbox.cif.g08.bks.cpg/sg14_34_cif.got.tgz:67065.got - 2010.06.03 17:49:19.
