data_PCOD9242512
_publ_section_title
;
Structure prediction by ZEFSAII (Michael W. Deem and Ramdas Pophale) SiO2 
 PCOD9242512
Probable space group: P 21/C
;
_chemical_formula_sum "Si O2"
_cell_formula_units_Z 32
_cell_length_a 19.437085
_cell_length_b 13.646419
_cell_length_c 17.889308
_cell_angle_alpha 90.000000
_cell_angle_beta 21.209923
_cell_angle_gamma 90.000000
_cell_volume 1716.703029
_symmetry_space_group_name_H-M "P 21/C"
_symmetry_group_IT_number 14
_symmetry_cell_setting 'monoclinic'
loop_
_space_group_symop_operation_xyz
x,y,z
-x,1/2+y,1/2-z
-x,-y,-z
x,1/2-y,1/2+z
loop_
_atom_site_type_symbol
_atom_site_label
_atom_site_fract_x
_atom_site_fract_y
_atom_site_fract_z
Si Si1 0.793283 0.840017 0.543542
Si Si2 0.342930 0.827293 0.997380
Si Si3 0.216116 0.375663 0.584715
Si Si4 0.264675 0.343921 0.065994
Si Si5 0.350708 0.957452 0.844351
Si Si6 0.063893 0.662831 0.257627
Si Si7 0.925189 0.030842 0.655831
Si Si8 0.009807 0.528952 0.576576
O O1 0.828501 0.862986 0.420648
O O2 0.902902 0.739061 0.451312
O O3 0.889352 0.927047 0.490684
O O4 0.567887 0.830547 0.781112
O O5 0.259858 0.720154 0.067765
O O6 0.230051 0.881783 0.178335
O O7 0.291593 0.886079 0.973046
O O8 0.305880 0.272275 0.518693
O O9 0.338382 0.436984 0.399224
O O10 0.015642 0.356427 0.744984
O O11 0.170360 0.441942 0.702229
O O12 0.117284 0.375477 0.278409
O O13 0.447402 0.413853 0.884661
O O14 0.212021 0.956378 0.913460
O O15 0.073404 0.562607 0.292632
O O16 0.000000 0.000000 0.500000
O O17 0.000000 0.500000 0.500000
#
# Coordination Sequence:
#
# PCOD9242512 Si02
#       8
#     4   4   4   4   4   4   4   4
#     4   9  18  35  57  79 103 135 181 230 269 315
#     4   9  18  35  58  81 103 136 186 232 270 316
#     4   9  18  36  59  81 107 143 183 227 277 321
#     4  10  20  35  57  80 106 140 184 231 269 314
#     4   9  19  37  58  82 108 136 181 231 271 317
#     4   9  18  34  56  75 100 139 181 227 270 317
#     4  10  20  34  53  81 117 147 174 216 272 332
#     4  11  23  36  51  77 114 149 178 215 271 331
#
# _framework density 18.640381000000001
#
# number of rings (size 3 to 8) (size 9 to 14) (size 15 to 20)
#    0.000    2.500    0.000    3.750    0.000    7.000 
#    0.000    8.750    0.000    1.500    0.000    0.000 
#    0.000    0.000    0.000    0.000    0.000    0.000 
#
# Total GULP energy -178270.190880 kJ/mol
# GULP energy per Si atom -5570.943465 kJ/mol
# Density = 1.859795 g / cm^3
# Si number density = 18.640381 Si / 1000 Ang^3
#
#
#
# Elastic Constant Matrix: (Units=GPa)
#
#
# Indices 1 2 3 4 5 6 
#
# 1 43.5820 24.7812 22.8273 0.0000 -3.4535 0.0000
# 2 24.7812 83.3581 18.3683 0.0000 -10.8827 0.0000
# 3 22.8273 18.3683 69.9524 0.0000 -14.7067 0.0000
# 4 0.0000 0.0000 0.0000 19.8681 0.0000 -6.3893
# 5 -3.4535 -10.8827 -14.7067 0.0000 27.2757 0.0000
# 6 0.0000 0.0000 0.0000 -6.3893 0.0000 14.0537
#
#
#
# Elastic Compliance Matrix: (Units=1/GPa)
#
#
# Indices 1 2 3 4 5 6 
#
# 1 0.032000 -0.008022 -0.009200 0.000000 -0.004110 0.000000
# 2 -0.008022 0.015084 -0.000328 0.000000 0.004825 0.000000
# 3 -0.009200 -0.000328 0.019299 0.000000 0.009110 0.000000
# 4 0.000000 0.000000 0.000000 0.058951 0.000000 0.026801
# 5 -0.004110 0.004825 0.009110 0.000000 0.042980 0.000000
# 6 0.000000 0.000000 0.000000 0.026801 0.000000 0.083341
#
#
# Mechanical properties :
#
#
# Convention : Reuss Voigt Hill
#
# Bulk Modulus (GPa) = 31.96775 36.53845 34.25310
# Shear Modulus (GPa) = 16.82469 20.96720 18.89595
#
# Velocity S-wave (km/s) = 3.00758 3.35748 3.18734
# Velocity P-wave (km/s) = 5.40811 5.88851 5.65342
#
# Compressibility (1/GPa) = 0.03128153
#
# Stress axis : x y z
#
# Youngs Moduli (GPa) = 31.25007 66.29670 51.81605
#
# Poissons Ratio (x) = 0.53186 0.47670
# Poissons Ratio (y) = 0.25070 0.01701
# Poissons Ratio (z) = 0.28750 0.02177
#
# Static dielectric constant tensor:
#      x y z
#    x 1.633680 0.000000 -0.012410 
#    y 0.000000 1.699890 0.000000 
#    z -0.012410 0.000000 1.661040 
# 
# From -- ./inp_files/61442.got.cif
#   From: 2010.05.17/outbox.cif.g08.bks.cpg/sg14_31_cif.got.tgz:61442.got - 2010.06.03 17:49:19.
