data_PCOD9242658
_publ_section_title
;
Structure prediction by ZEFSAII (Michael W. Deem and Ramdas Pophale) SiO2 
 PCOD9242658
Probable space group: P 21/C
;
_chemical_formula_sum "Si O2"
_cell_formula_units_Z 32
_cell_length_a 11.145639
_cell_length_b 22.212917
_cell_length_c 5.803422
_cell_angle_alpha 90.000000
_cell_angle_beta 58.853437
_cell_angle_gamma 90.000000
_cell_volume 1229.676474
_symmetry_space_group_name_H-M "P 21/C"
_symmetry_group_IT_number 14
_symmetry_cell_setting 'monoclinic'
loop_
_space_group_symop_operation_xyz
x,y,z
-x,1/2+y,1/2-z
-x,-y,-z
x,1/2-y,1/2+z
loop_
_atom_site_type_symbol
_atom_site_label
_atom_site_fract_x
_atom_site_fract_y
_atom_site_fract_z
Si Si1 0.291961 0.227506 0.779239
Si Si2 0.109135 0.719724 0.636439
Si Si3 0.595717 0.606200 0.955125
Si Si4 0.100498 0.475019 0.696488
Si Si5 0.076928 0.900662 0.968358
Si Si6 0.344074 0.487812 0.740063
Si Si7 0.572729 0.301562 0.554119
Si Si8 0.665021 0.110243 0.580798
O O1 0.234516 0.248897 0.086768
O O2 0.301871 0.155610 0.754983
O O3 0.454294 0.251920 0.620868
O O4 0.071469 0.751915 0.426887
O O5 0.042907 0.652021 0.683140
O O6 0.280484 0.716537 0.476507
O O7 0.662111 0.550155 0.019931
O O8 0.509778 0.645754 0.228787
O O9 0.472481 0.585876 0.909656
O O10 0.123171 0.535252 0.524810
O O11 0.247564 0.454115 0.654101
O O12 0.034100 0.422143 0.610770
O O13 0.000000 0.500000 0.000000
O O14 0.210662 0.872708 0.708669
O O15 0.500000 0.500000 0.500000
O O16 0.279425 0.554053 0.829485
O O17 0.618736 0.334432 0.276291
#
# Coordination Sequence:
#
# PCOD9242658 Si02
#       8
#     4   4   4   4   4   4   4   4
#     4  10  20  35  55  85 132 179 224 270 341 418
#     4  12  25  39  68 109 148 188 240 311 368 430
#     4  11  22  35  56  92 136 177 221 288 352 415
#     4  11  25  48  72  98 141 194 245 300 367 447
#     4  11  25  43  72 101 137 194 245 299 369 445
#     4  12  24  42  67 102 140 179 238 300 363 421
#     4  11  21  36  58  97 144 181 228 288 366 422
#     4  12  21  40  63  98 145 182 232 299 359 432
#
# _framework density 26.023105999999999
#
# number of rings (size 3 to 8) (size 9 to 14) (size 15 to 20)
#    0.000    0.750    5.000    4.125    1.750    0.000 
#    0.000    0.000    0.000    3.000    0.000    0.000 
#    0.000    0.000    0.000    0.000    0.000    0.000 
#
# Total GULP energy -179187.949464 kJ/mol
# GULP energy per Si atom -5599.623421 kJ/mol
# Density = 2.596388 g / cm^3
# Si number density = 26.023106 Si / 1000 Ang^3
#
#
#
# Elastic Constant Matrix: (Units=GPa)
#
#
# Indices 1 2 3 4 5 6 
#
# 1 125.8829 37.2062 54.1439 0.0000 26.2944 0.0000
# 2 37.2062 106.8789 35.6208 0.0000 3.7733 0.0000
# 3 54.1439 35.6208 108.6278 0.0000 11.6106 0.0000
# 4 0.0000 0.0000 0.0000 51.7748 0.0000 12.7549
# 5 26.2944 3.7733 11.6106 0.0000 41.5614 0.0000
# 6 0.0000 0.0000 0.0000 12.7549 0.0000 31.3727
#
#
#
# Elastic Compliance Matrix: (Units=1/GPa)
#
#
# Indices 1 2 3 4 5 6 
#
# 1 0.011837 -0.002421 -0.004462 0.000000 -0.006022 0.000000
# 2 -0.002421 0.010999 -0.002533 0.000000 0.001240 0.000000
# 3 -0.004462 -0.002533 0.012301 0.000000 -0.000383 0.000000
# 4 0.000000 0.000000 0.000000 0.021464 0.000000 -0.008726
# 5 -0.006022 0.001240 -0.000383 0.000000 0.027865 0.000000
# 6 0.000000 0.000000 0.000000 -0.008726 0.000000 0.035423
#
#
# Mechanical properties :
#
#
# Convention : Reuss Voigt Hill
#
# Bulk Modulus (GPa) = 61.32831 66.14793 63.73812
# Shear Modulus (GPa) = 34.68445 39.23635 36.96040
#
# Velocity S-wave (km/s) = 3.65476 3.88719 3.77276
# Velocity P-wave (km/s) = 6.43644 6.75434 6.59730
#
# Compressibility (1/GPa) = 0.01630568
#
# Stress axis : x y z
#
# Youngs Moduli (GPa) = 84.48391 90.91367 81.29097
#
# Poissons Ratio (x) = 0.22007 0.36275
# Poissons Ratio (y) = 0.20451 0.20590
# Poissons Ratio (z) = 0.37699 0.23028
#
# Static dielectric constant tensor:
#      x y z
#    x 2.054800 0.000000 0.028740 
#    y 0.000000 2.065150 0.000000 
#    z 0.028740 0.000000 2.192460 
# 
# From -- ./inp_files/3206.got.cif
#   From: 2010.05.17/outbox.cif.g08.bks.cpg/sg14_2_cif.got.tgz:3206.got - 2010.06.03 17:49:19.
