data_PCOD9242597
_publ_section_title
;
Structure prediction by ZEFSAII (Michael W. Deem and Ramdas Pophale) SiO2 
 PCOD9242597
Probable space group: P 21/C
;
_chemical_formula_sum "Si O2"
_cell_formula_units_Z 28
_cell_length_a 20.092611
_cell_length_b 8.752264
_cell_length_c 22.326709
_cell_angle_alpha 90.000000
_cell_angle_beta 159.442558
_cell_angle_gamma 90.000000
_cell_volume 1378.699296
_symmetry_space_group_name_H-M "P 21/C"
_symmetry_group_IT_number 14
_symmetry_cell_setting 'monoclinic'
loop_
_space_group_symop_operation_xyz
x,y,z
-x,1/2+y,1/2-z
-x,-y,-z
x,1/2-y,1/2+z
loop_
_atom_site_type_symbol
_atom_site_label
_atom_site_fract_x
_atom_site_fract_y
_atom_site_fract_z
Si Si1 0.831662 0.378739 0.853828
Si Si2 0.038740 0.222033 0.931934
Si Si3 0.764374 0.348387 0.513251
Si Si4 0.586754 0.869849 0.195618
Si Si5 0.788691 0.094747 0.895965
Si Si6 0.477040 0.553504 0.048580
Si Si7 0.092916 0.587503 0.792878
O O1 0.644037 0.474436 0.710365
O O2 0.868359 0.247472 0.933573
O O3 0.859085 0.298129 0.812944
O O4 0.000000 0.500000 0.000000
O O5 0.010996 0.210492 0.837937
O O6 0.228615 0.310589 0.111833
O O7 0.066957 0.047726 0.978640
O O8 0.585645 0.389602 0.403736
O O9 0.724196 0.371489 0.409327
O O10 0.823288 0.175708 0.579692
O O11 0.941402 0.457421 0.677502
O O12 0.532226 0.731407 0.105214
O O13 0.618679 0.040918 0.710367
O O14 0.500000 0.500000 0.000000
O O15 0.267568 0.530734 0.899179
#
# Coordination Sequence:
#
# PCOD9242597 Si02
#       7
#     4   4   4   4   4   4   4
#     4  10  20  34  58  88 113 144 192 246 293 339
#     4   9  19  38  60  83 115 155 194 237 296 359
#     4  10  23  40  57  86 119 157 201 237 300 362
#     4   9  21  38  59  87 120 152 191 250 299 354
#     4  10  21  37  61  84 117 161 195 236 296 374
#     4  10  21  40  62  85 116 157 203 247 299 359
#     4  10  22  39  60  85 117 154 196 249 287 351
#
# _framework density 20.308997000000002
#
# number of rings (size 3 to 8) (size 9 to 14) (size 15 to 20)
#    0.000    2.286    0.000    1.286    0.000   14.857 
#    0.000    6.429    0.000    0.000    0.000    0.000 
#    0.000    0.000    0.000    0.000    0.000    0.000 
#
# Total GULP energy -156337.860980 kJ/mol
# GULP energy per Si atom -5583.495035 kJ/mol
# Density = 2.026277 g / cm^3
# Si number density = 20.308997 Si / 1000 Ang^3
#
#
#
# Elastic Constant Matrix: (Units=GPa)
#
#
# Indices 1 2 3 4 5 6 
#
# 1 113.4171 64.1607 39.8062 0.0000 -3.8735 0.0000
# 2 64.1607 94.1620 30.9856 0.0000 9.6854 0.0000
# 3 39.8062 30.9856 80.7913 0.0000 -2.3145 0.0000
# 4 0.0000 0.0000 0.0000 18.7395 0.0000 10.2548
# 5 -3.8735 9.6854 -2.3145 0.0000 30.0233 0.0000
# 6 0.0000 0.0000 0.0000 10.2548 0.0000 35.7192
#
#
#
# Elastic Compliance Matrix: (Units=1/GPa)
#
#
# Indices 1 2 3 4 5 6 
#
# 1 0.016153 -0.010254 -0.003880 0.000000 0.005093 0.000000
# 2 -0.010254 0.019240 -0.002548 0.000000 -0.007726 0.000000
# 3 -0.003880 -0.002548 0.015310 0.000000 0.001502 0.000000
# 4 0.000000 0.000000 0.000000 0.063310 0.000000 -0.018176
# 5 0.005093 -0.007726 0.001502 0.000000 0.036573 0.000000
# 6 0.000000 0.000000 0.000000 -0.018176 0.000000 0.033214
#
#
# Mechanical properties :
#
#
# Convention : Reuss Voigt Hill
#
# Bulk Modulus (GPa) = 57.67541 62.03057 59.85299
# Shear Modulus (GPa) = 22.42718 27.12427 24.77572
#
# Velocity S-wave (km/s) = 3.32670 3.65852 3.49655
# Velocity P-wave (km/s) = 6.57393 6.96104 6.77025
#
# Compressibility (1/GPa) = 0.01733841
#
# Stress axis : x y z
#
# Youngs Moduli (GPa) = 61.90660 51.97529 65.31741
#
# Poissons Ratio (x) = 0.53293 0.25346
# Poissons Ratio (y) = 0.63476 0.16645
# Poissons Ratio (z) = 0.24022 0.13245
#
# Static dielectric constant tensor:
#      x y z
#    x 1.712190 0.000000 -0.012120 
#    y 0.000000 1.741630 0.000000 
#    z -0.012120 0.000000 1.739840 
# 
# From -- ./inp_files/70164.got.cif
#   From: 2010.05.17/outbox.cif.g08.bks.cpg/sg14_36_cif.got.tgz:70164.got - 2010.06.03 17:49:19.
