data_PCOD9242517
_publ_section_title
;
Structure prediction by ZEFSAII (Michael W. Deem and Ramdas Pophale) SiO2 
 PCOD9242517
Probable space group: P 21/C
;
_chemical_formula_sum "Si O2"
_cell_formula_units_Z 28
_cell_length_a 11.982134
_cell_length_b 21.957834
_cell_length_c 5.719859
_cell_angle_alpha 90.000000
_cell_angle_beta 84.345736
_cell_angle_gamma 90.000000
_cell_volume 1497.582618
_symmetry_space_group_name_H-M "P 21/C"
_symmetry_group_IT_number 14
_symmetry_cell_setting 'monoclinic'
loop_
_space_group_symop_operation_xyz
x,y,z
-x,1/2+y,1/2-z
-x,-y,-z
x,1/2-y,1/2+z
loop_
_atom_site_type_symbol
_atom_site_label
_atom_site_fract_x
_atom_site_fract_y
_atom_site_fract_z
Si Si1 0.439442 0.727482 0.644913
Si Si2 0.823217 0.520708 0.958983
Si Si3 0.412537 0.024185 0.324674
Si Si4 0.180051 0.771817 0.636433
Si Si5 0.423442 0.904027 0.032597
Si Si6 0.035869 0.949774 0.181707
Si Si7 0.800757 0.397212 0.687028
O O1 0.486212 0.741927 0.373372
O O2 0.309111 0.748325 0.638520
O O3 0.449337 0.654909 0.680533
O O4 0.796813 0.465325 0.787333
O O5 0.919681 0.564728 0.837993
O O6 0.703820 0.548540 0.048664
O O7 0.881880 0.485378 0.160674
O O8 0.500000 0.000000 0.500000
O O9 0.384821 0.963039 0.184684
O O10 0.474276 0.072277 0.146037
O O11 0.131932 0.746555 0.402427
O O12 0.176036 0.845198 0.629437
O O13 0.320251 0.883744 0.893558
O O14 0.104644 0.898113 0.033605
O O15 0.000000 0.000000 0.000000
#
# Coordination Sequence:
#
# PCOD9242517 Si02
#       7
#     4   4   4   4   4   4   4
#     4  10  21  34  53  77 112 148 192 234 287 345
#     4  10  20  34  54  75 109 145 192 220 276 338
#     4  11  23  33  53  79 116 156 183 230 287 343
#     4  10  21  31  50  82 110 146 181 229 294 340
#     4  11  22  33  49  81 115 150 186 233 288 346
#     4   9  20  34  52  77 103 144 181 228 272 323
#     4  11  19  32  54  75 115 142 183 235 280 341
#
# _framework density 18.696797
#
# number of rings (size 3 to 8) (size 9 to 14) (size 15 to 20)
#    0.000    1.714    5.714    0.000    8.000    0.000 
#    0.000    0.000    0.000    0.000    0.000    2.000 
#    0.000    0.000    0.000    0.000    0.000    0.000 
#
# Total GULP energy -156012.181883 kJ/mol
# GULP energy per Si atom -5571.863639 kJ/mol
# Density = 1.865424 g / cm^3
# Si number density = 18.696797 Si / 1000 Ang^3
#
#
#
# Elastic Constant Matrix: (Units=GPa)
#
#
# Indices 1 2 3 4 5 6 
#
# 1 84.9059 8.5030 15.8950 0.0000 -25.7193 0.0000
# 2 8.5030 68.4527 6.0298 0.0000 -20.9797 0.0000
# 3 15.8950 6.0298 80.9734 0.0000 -6.5196 0.0000
# 4 0.0000 0.0000 0.0000 24.5510 0.0000 -8.1737
# 5 -25.7193 -20.9797 -6.5196 0.0000 28.1496 0.0000
# 6 0.0000 0.0000 0.0000 -8.1737 0.0000 6.4594
#
#
#
# Elastic Compliance Matrix: (Units=1/GPa)
#
#
# Indices 1 2 3 4 5 6 
#
# 1 0.017256 0.003534 -0.002210 0.000000 0.017888 0.000000
# 2 0.003534 0.019663 -0.000732 0.000000 0.017714 0.000000
# 3 -0.002210 -0.000732 0.012872 0.000000 0.000416 0.000000
# 4 0.000000 0.000000 0.000000 0.070383 0.000000 0.089063
# 5 0.017888 0.017714 0.000416 0.000000 0.065167 0.000000
# 6 0.000000 0.000000 0.000000 0.089063 0.000000 0.267514
#
#
# Mechanical properties :
#
#
# Convention : Reuss Voigt Hill
#
# Bulk Modulus (GPa) = 19.61772 32.79863 26.20817
# Shear Modulus (GPa) = 10.66866 25.42560 18.04713
#
# Velocity S-wave (km/s) = 2.39134 3.69167 3.11022
# Velocity P-wave (km/s) = 4.25911 5.97927 5.19094
#
# Compressibility (1/GPa) = 0.05097432
#
# Stress axis : x y z
#
# Youngs Moduli (GPa) = 57.95022 50.85653 77.69032
#
# Poissons Ratio (x) = -0.17970 0.17171
# Poissons Ratio (y) = -0.20477 0.05684
# Poissons Ratio (z) = 0.12808 0.03721
#
# Static dielectric constant tensor:
#      x y z
#    x 1.643670 0.000000 -0.024630 
#    y 0.000000 1.175350 0.000000 
#    z -0.024630 0.000000 1.779930 
# 
# From -- ./inp_files/2865.got.cif
#   From: 2010.05.17/outbox.cif.g08.bks.cpg/sg14_2_cif.got.tgz:2865.got - 2010.06.03 17:49:19.
