data_PCOD9242394
_publ_section_title
;
Structure prediction by ZEFSAII (Michael W. Deem and Ramdas Pophale) SiO2 
 PCOD9242394
Probable space group: P 21/C
;
_chemical_formula_sum "Si O2"
_cell_formula_units_Z 18
_cell_length_a 22.225507
_cell_length_b 4.410860
_cell_length_c 7.724663
_cell_angle_alpha 90.000000
_cell_angle_beta 53.834702
_cell_angle_gamma 90.000000
_cell_volume 611.362870
_symmetry_space_group_name_H-M "P 21/C"
_symmetry_group_IT_number 14
_symmetry_cell_setting 'monoclinic'
loop_
_space_group_symop_operation_xyz
x,y,z
-x,1/2+y,1/2-z
-x,-y,-z
x,1/2-y,1/2+z
loop_
_atom_site_type_symbol
_atom_site_label
_atom_site_fract_x
_atom_site_fract_y
_atom_site_fract_z
Si Si1 0.114878 0.426808 0.598826
Si Si2 0.225368 0.464780 0.675329
Si Si3 0.556065 0.982928 0.654275
Si Si4 0.664500 0.936408 0.745118
Si Si5 0.000000 0.000000 0.000000
O O1 0.168333 0.621052 0.637007
O O2 0.171254 0.229749 0.389769
O O3 0.057131 0.590737 0.569935
O O4 0.062740 0.226293 0.812302
O O5 0.283903 0.619560 0.707058
O O6 0.278444 0.248799 0.472086
O O7 0.496792 0.741492 0.830229
O O8 0.609311 0.115124 0.713201
O O9 0.610741 0.795612 0.437438
#
# Coordination Sequence:
#
# PCOD9242394 Si02
#       5
#     4   4   4   4   2
#     4   9  18  34  58  84 119 160 204 258 327 380
#     4   8  16  33  58  79 109 165 204 247 318 396
#     4  11  22  37  60  90 123 162 214 272 329 392
#     4   9  18  34  58  80 109 156 212 262 327 388
#     4  10  20  32  56  86 112 154 200 258 318 384
#
# _framework density 29.442419000000001
#
# number of rings (size 3 to 8) (size 9 to 14) (size 15 to 20)
#    0.000    2.667    0.000    1.333    0.000    3.556 
#    0.000    0.000    0.000  149.333    0.000    0.000 
#    0.000    0.000    0.000    0.000    0.000    0.000 
#
# Total GULP energy -100372.845830 kJ/mol
# GULP energy per Si atom -5576.269213 kJ/mol
# Density = 2.937541 g / cm^3
# Si number density = 29.442419 Si / 1000 Ang^3
#
#
#
# Elastic Constant Matrix: (Units=GPa)
#
#
# Indices 1 2 3 4 5 6 
#
# 1 382.4126 31.5593 5.1323 0.0000 -13.9167 0.0000
# 2 31.5593 67.7915 68.4213 0.0000 -19.0077 0.0000
# 3 5.1323 68.4213 217.0767 0.0000 -36.9876 0.0000
# 4 0.0000 0.0000 0.0000 65.9308 0.0000 -5.2418
# 5 -13.9167 -19.0077 -36.9876 0.0000 31.0433 0.0000
# 6 0.0000 0.0000 0.0000 -5.2418 0.0000 -5.5627
#
#
#
# Elastic Compliance Matrix: (Units=1/GPa)
#
#
# Indices 1 2 3 4 5 6 
#
# 1 0.002778 -0.001644 0.000619 0.000000 0.000976 0.000000
# 2 -0.001644 0.023679 -0.006374 0.000000 0.006167 0.000000
# 3 0.000619 -0.006374 0.007507 0.000000 0.005320 0.000000
# 4 0.000000 0.000000 0.000000 0.014110 0.000000 -0.013296
# 5 0.000976 0.006167 0.005320 0.000000 0.042765 0.000000
# 6 0.000000 0.000000 0.000000 -0.013296 0.000000 -0.167240
#
#
# Mechanical properties :
#
#
# Convention : Reuss Voigt Hill
#
# Bulk Modulus (GPa) = 52.17589 97.50074 74.83832
# Shear Modulus (GPa) = -90.55585 55.76015 -17.39785
#
# Velocity S-wave (km/s) = -5.55191 4.35658 -2.43350
# Velocity P-wave (km/s) = 4.83099 7.64814 4.19259
#
# Compressibility (1/GPa) = 0.01916594
#
# Stress axis : x y z
#
# Youngs Moduli (GPa) = 359.98753 42.23231 133.20164
#
# Poissons Ratio (x) = 0.06944 -0.08243
# Poissons Ratio (y) = 0.59187 0.84898
# Poissons Ratio (z) = -0.22277 0.26917
#
# Static dielectric constant tensor:
#      x y z
#    x 2.262240 0.000000 0.126140 
#    y 0.000000 2.215800 0.000000 
#    z 0.126140 0.000000 2.089210 
# 
# From -- ./inp_files/17108.got.cif
#   From: 2010.05.17/outbox.cif.g08.bks.cpg/sg14_9_cif.got.tgz:17108.got - 2010.06.03 17:49:19.
