data_PCOD9242877
_publ_section_title
;
Structure prediction by ZEFSAII (Michael W. Deem and Ramdas Pophale) SiO2 
 PCOD9242877
Probable space group: P 21/C
;
_chemical_formula_sum "Si O2"
_cell_formula_units_Z 30
_cell_length_a 18.542673
_cell_length_b 9.350673
_cell_length_c 18.564105
_cell_angle_alpha 90.000000
_cell_angle_beta 19.690948
_cell_angle_gamma 90.000000
_cell_volume 1084.551534
_symmetry_space_group_name_H-M "P 21/C"
_symmetry_group_IT_number 14
_symmetry_cell_setting 'monoclinic'
loop_
_space_group_symop_operation_xyz
x,y,z
-x,1/2+y,1/2-z
-x,-y,-z
x,1/2-y,1/2+z
loop_
_atom_site_type_symbol
_atom_site_label
_atom_site_fract_x
_atom_site_fract_y
_atom_site_fract_z
Si Si1 0.312253 0.632584 0.103026
Si Si2 0.000000 0.500000 0.500000
Si Si3 0.106158 0.260869 0.584225
Si Si4 0.521814 0.968837 0.205325
Si Si5 0.274176 0.301330 0.776617
Si Si6 0.702114 0.906695 0.892148
Si Si7 0.109108 0.730177 0.072504
Si Si8 0.453724 0.868704 0.683727
O O1 0.214221 0.571389 0.267387
O O2 0.107695 0.664715 0.246123
O O3 0.477380 0.758054 0.958700
O O4 0.455714 0.511392 0.932980
O O5 0.866240 0.662188 0.615390
O O6 0.283349 0.378790 0.440759
O O7 0.194350 0.170899 0.433444
O O8 0.010722 0.195136 0.747885
O O9 0.312078 0.869035 0.400932
O O10 0.484510 0.107184 0.289570
O O11 0.600745 0.003334 0.050448
O O12 0.269533 0.425582 0.720042
O O13 0.938417 0.870660 0.696558
O O14 0.565034 0.761734 0.038406
O O15 0.198823 0.846038 0.931106
#
# Coordination Sequence:
#
# PCOD9242877 Si02
#       8
#     4   2   4   4   4   4   4   4
#     4  11  21  32  54  79 117 150 184 226 285 339
#     4  10  22  28  46  80 116 148 180 214 280 346
#     4  10  20  36  56  78 111 153 186 229 280 340
#     4  10  21  39  55  77 115 149 192 231 281 334
#     4  11  21  33  52  82 118 152 182 228 283 344
#     4  10  24  34  54  86 115 151 187 227 284 336
#     4  10  22  37  54  82 114 147 193 233 275 342
#     4  11  21  34  57  81 112 151 189 235 276 335
#
# _framework density 27.661204000000001
#
# number of rings (size 3 to 8) (size 9 to 14) (size 15 to 20)
#    0.000    1.600    4.000    0.400    3.733    3.200 
#    0.000    0.000    0.000    0.800    0.000   14.000 
#    0.000    0.000    0.000    0.000    0.000    0.000 
#
# Total GULP energy -167518.796783 kJ/mol
# GULP energy per Si atom -5583.959893 kJ/mol
# Density = 2.759825 g / cm^3
# Si number density = 27.661204 Si / 1000 Ang^3
#
#
#
# Elastic Constant Matrix: (Units=GPa)
#
#
# Indices 1 2 3 4 5 6 
#
# 1 132.0953 32.9179 73.9791 0.0000 32.7577 0.0000
# 2 32.9179 52.1400 36.3203 0.0000 11.3006 0.0000
# 3 73.9791 36.3203 219.7656 0.0000 15.6339 0.0000
# 4 0.0000 0.0000 0.0000 36.1904 0.0000 11.6210
# 5 32.7577 11.3006 15.6339 0.0000 65.4685 0.0000
# 6 0.0000 0.0000 0.0000 11.6210 0.0000 24.5057
#
#
#
# Elastic Compliance Matrix: (Units=1/GPa)
#
#
# Indices 1 2 3 4 5 6 
#
# 1 0.011231 -0.004239 -0.002780 0.000000 -0.004224 0.000000
# 2 -0.004239 0.023843 -0.002413 0.000000 -0.001419 0.000000
# 3 -0.002780 -0.002413 0.005856 0.000000 0.000409 0.000000
# 4 0.000000 0.000000 0.000000 0.032595 0.000000 -0.015457
# 5 -0.004224 -0.001419 0.000409 0.000000 0.017535 0.000000
# 6 0.000000 0.000000 0.000000 -0.015457 0.000000 0.048137
#
#
# Mechanical properties :
#
#
# Convention : Reuss Voigt Hill
#
# Bulk Modulus (GPa) = 45.31510 76.71504 61.01507
# Shear Modulus (GPa) = 30.22707 42.61851 36.42279
#
# Velocity S-wave (km/s) = 3.30928 3.92947 3.63264
# Velocity P-wave (km/s) = 5.56952 6.95570 6.30084
#
# Compressibility (1/GPa) = 0.02206770
#
# Stress axis : x y z
#
# Youngs Moduli (GPa) = 89.04150 41.94039 170.77542
#
# Poissons Ratio (x) = 0.17777 0.47468
# Poissons Ratio (y) = 0.37742 0.41204
# Poissons Ratio (z) = 0.24750 0.10119
#
# Static dielectric constant tensor:
#      x y z
#    x 2.533830 0.000000 -0.020900 
#    y 0.000000 2.186420 0.000000 
#    z -0.020900 0.000000 2.180080 
# 
# From -- ./inp_files/60736.got.cif
#   From: 2010.05.17/outbox.cif.g08.bks.cpg/sg14_31_cif.got.tgz:60736.got - 2010.06.03 17:49:19.
