data_PCOD9242453
_publ_section_title
;
Structure prediction by ZEFSAII (Michael W. Deem and Ramdas Pophale) SiO2 
 PCOD9242453
Probable space group: P 21/C
;
_chemical_formula_sum "Si O2"
_cell_formula_units_Z 32
_cell_length_a 20.095279
_cell_length_b 13.009174
_cell_length_c 11.600764
_cell_angle_alpha 90.000000
_cell_angle_beta 24.426737
_cell_angle_gamma 90.000000
_cell_volume 1254.113081
_symmetry_space_group_name_H-M "P 21/C"
_symmetry_group_IT_number 14
_symmetry_cell_setting 'monoclinic'
loop_
_space_group_symop_operation_xyz
x,y,z
-x,1/2+y,1/2-z
-x,-y,-z
x,1/2-y,1/2+z
loop_
_atom_site_type_symbol
_atom_site_label
_atom_site_fract_x
_atom_site_fract_y
_atom_site_fract_z
Si Si1 0.438610 0.419596 0.863664
Si Si2 0.771982 0.807966 0.462264
Si Si3 0.195790 0.932097 0.977104
Si Si4 0.704140 0.116906 0.753542
Si Si5 0.868817 0.296022 0.620226
Si Si6 0.400737 0.753702 0.764677
Si Si7 0.154028 0.090984 0.422548
Si Si8 0.640759 0.903494 0.135272
O O1 0.290847 0.406093 0.010625
O O2 0.593663 0.405076 0.537392
O O3 0.446699 0.313589 0.924585
O O4 0.482277 0.526042 0.860637
O O5 0.805933 0.826109 0.543336
O O6 0.638847 0.717237 0.663900
O O7 0.946998 0.780544 0.133129
O O8 0.146187 0.903989 0.925090
O O9 0.324428 0.847862 0.813712
O O10 0.034851 0.911566 0.304817
O O11 0.265502 0.040568 0.908171
O O12 0.826679 0.207224 0.593875
O O13 0.588669 0.154310 0.832842
O O14 0.804171 0.015001 0.577277
O O15 0.731794 0.282090 0.932172
O O16 0.255816 0.094299 0.145746
#
# Coordination Sequence:
#
# PCOD9242453 Si02
#       8
#     4   4   4   4   4   4   4   4
#     4   9  21  36  55  82 109 148 189 222 270 332
#     4  11  22  35  54  85 114 137 184 239 277 319
#     4   9  17  32  55  83 111 141 185 225 270 331
#     4   9  18  35  58  79 107 146 188 227 269 327
#     4   9  18  33  56  87 115 141 178 228 277 324
#     4   9  17  34  58  79 109 152 185 218 269 329
#     4  10  20  33  55  84 108 140 188 232 270 323
#     4  10  20  37  58  76 110 152 183 224 276 328
#
# _framework density 25.516041999999999
#
# number of rings (size 3 to 8) (size 9 to 14) (size 15 to 20)
#    0.000    2.500    0.000    2.625    0.000    4.000 
#    0.000    3.750    0.000   17.250    0.000    0.000 
#    0.000    0.000    0.000    0.000    0.000    0.000 
#
# Total GULP energy -178872.410741 kJ/mol
# GULP energy per Si atom -5589.762836 kJ/mol
# Density = 2.545797 g / cm^3
# Si number density = 25.516042 Si / 1000 Ang^3
#
#
#
# Elastic Constant Matrix: (Units=GPa)
#
#
# Indices 1 2 3 4 5 6 
#
# 1 60.7195 32.9040 14.1078 0.0000 -3.1205 0.0000
# 2 32.9040 93.8417 16.5501 0.0000 6.0504 0.0000
# 3 14.1078 16.5501 76.1086 0.0000 -3.7342 0.0000
# 4 0.0000 0.0000 0.0000 29.6255 0.0000 3.7579
# 5 -3.1205 6.0504 -3.7342 0.0000 38.4199 0.0000
# 6 0.0000 0.0000 0.0000 3.7579 0.0000 45.5059
#
#
#
# Elastic Compliance Matrix: (Units=1/GPa)
#
#
# Indices 1 2 3 4 5 6 
#
# 1 0.020984 -0.007137 -0.002210 0.000000 0.002613 0.000000
# 2 -0.007137 0.013662 -0.001790 0.000000 -0.002905 0.000000
# 3 -0.002210 -0.001790 0.014010 0.000000 0.001464 0.000000
# 4 0.000000 0.000000 0.000000 0.034112 0.000000 -0.002817
# 5 0.002613 -0.002905 0.001464 0.000000 0.026840 0.000000
# 6 0.000000 0.000000 0.000000 -0.002817 0.000000 0.022208
#
#
# Mechanical properties :
#
#
# Convention : Reuss Voigt Hill
#
# Bulk Modulus (GPa) = 37.90399 39.75485 38.82942
# Shear Modulus (GPa) = 30.69686 33.85080 32.27383
#
# Velocity S-wave (km/s) = 3.47225 3.64627 3.56032
# Velocity P-wave (km/s) = 5.56440 5.77418 5.67026
#
# Compressibility (1/GPa) = 0.02638245
#
# Stress axis : x y z
#
# Youngs Moduli (GPa) = 47.65492 73.19773 71.37824
#
# Poissons Ratio (x) = 0.52238 0.15772
# Poissons Ratio (y) = 0.34009 0.12780
# Poissons Ratio (z) = 0.10530 0.13106
#
# Static dielectric constant tensor:
#      x y z
#    x 2.062320 0.000000 0.022950 
#    y 0.000000 2.017080 0.000000 
#    z 0.022950 0.000000 2.003370 
# 
# From -- ./inp_files/34227.got.cif
#   From: 2010.05.17/outbox.cif.g08.bks.cpg/sg14_18_cif.got.tgz:34227.got - 2010.06.03 17:49:19.
