data_PCOD9242201
_publ_section_title
;
Structure prediction by ZEFSAII (Michael W. Deem and Ramdas Pophale) SiO2 
 PCOD9242201
Probable space group: P 21/C
;
_chemical_formula_sum "Si O2"
_cell_formula_units_Z 32
_cell_length_a 14.344379
_cell_length_b 12.407868
_cell_length_c 13.302100
_cell_angle_alpha 90.000000
_cell_angle_beta 32.518644
_cell_angle_gamma 90.000000
_cell_volume 1272.733265
_symmetry_space_group_name_H-M "P 21/C"
_symmetry_group_IT_number 14
_symmetry_cell_setting 'monoclinic'
loop_
_space_group_symop_operation_xyz
x,y,z
-x,1/2+y,1/2-z
-x,-y,-z
x,1/2-y,1/2+z
loop_
_atom_site_type_symbol
_atom_site_label
_atom_site_fract_x
_atom_site_fract_y
_atom_site_fract_z
Si Si1 0.497727 0.366801 0.214860
Si Si2 0.271655 0.102595 0.233777
Si Si3 0.366601 0.216054 0.491390
Si Si4 0.759131 0.323854 0.702826
Si Si5 0.370918 0.553812 0.482661
Si Si6 0.039412 0.246810 0.566426
Si Si7 0.841905 0.255030 0.422466
Si Si8 0.733638 0.576061 0.752888
O O1 0.394689 0.261343 0.353052
O O2 0.436875 0.462248 0.344342
O O3 0.440450 0.395576 0.153810
O O4 0.701301 0.341141 0.040117
O O5 0.454387 0.099542 0.126145
O O6 0.124429 0.139426 0.445047
O O7 0.285053 0.193922 0.136952
O O8 0.262864 0.995422 0.174611
O O9 0.566629 0.205878 0.345947
O O10 0.283889 0.107361 0.613453
O O11 0.876981 0.276562 0.506748
O O12 0.773536 0.451355 0.702469
O O13 0.834674 0.261498 0.728798
O O14 0.257968 0.637196 0.522871
O O15 0.131001 0.348428 0.430247
O O16 0.024017 0.255369 0.699938
#
# Coordination Sequence:
#
# PCOD9242201 Si02
#       8
#     4   4   4   4   4   4   4   4
#     4  10  21  39  64  93 121 159 216 271 300 366
#     4   9  20  38  65  90 119 158 212 261 314 372
#     4   9  20  37  65  90 117 163 211 269 308 353
#     4  11  22  40  61  91 127 169 210 255 315 383
#     4  10  19  40  64  90 116 161 220 265 304 359
#     4  11  24  40  58  90 134 169 198 254 326 383
#     4  11  23  40  61  91 130 163 206 264 316 376
#     4  11  21  40  63  91 125 167 214 259 311 374
#
# _framework density 25.142738000000001
#
# number of rings (size 3 to 8) (size 9 to 14) (size 15 to 20)
#    0.000    1.750    1.250    3.750    0.000    4.500 
#    2.250    0.000    0.000    0.000    0.000    0.000 
#    0.000    0.000    0.000    0.000    0.000    0.000 
#
# Total GULP energy -178993.542238 kJ/mol
# GULP energy per Si atom -5593.548195 kJ/mol
# Density = 2.508551 g / cm^3
# Si number density = 25.142738 Si / 1000 Ang^3
#
#
#
# Elastic Constant Matrix: (Units=GPa)
#
#
# Indices 1 2 3 4 5 6 
#
# 1 52.1789 20.4975 -5.3301 0.0000 8.6228 0.0000
# 2 20.4975 79.0820 25.8411 0.0000 -1.3426 0.0000
# 3 -5.3301 25.8411 123.8672 0.0000 15.0127 0.0000
# 4 0.0000 0.0000 0.0000 32.1764 0.0000 2.4561
# 5 8.6228 -1.3426 15.0127 0.0000 41.5004 0.0000
# 6 0.0000 0.0000 0.0000 2.4561 0.0000 31.6306
#
#
#
# Elastic Compliance Matrix: (Units=1/GPa)
#
#
# Indices 1 2 3 4 5 6 
#
# 1 0.023380 -0.007237 0.003277 0.000000 -0.006277 0.000000
# 2 -0.007237 0.015904 -0.004052 0.000000 0.003484 0.000000
# 3 0.003277 -0.004052 0.009578 0.000000 -0.004277 0.000000
# 4 0.000000 0.000000 0.000000 0.031264 0.000000 -0.002428
# 5 -0.006277 0.003484 -0.004277 0.000000 0.027060 0.000000
# 6 0.000000 0.000000 0.000000 -0.002428 0.000000 0.031803
#
#
# Mechanical properties :
#
#
# Convention : Reuss Voigt Hill
#
# Bulk Modulus (GPa) = 30.45303 37.46057 33.95680
# Shear Modulus (GPa) = 30.12793 35.33613 32.73203
#
# Velocity S-wave (km/s) = 3.46537 3.75296 3.61203
# Velocity P-wave (km/s) = 5.30566 5.80613 5.56153
#
# Compressibility (1/GPa) = 0.03283746
#
# Stress axis : x y z
#
# Youngs Moduli (GPa) = 42.77187 62.87746 104.40914
#
# Poissons Ratio (x) = 0.45505 -0.34211
# Poissons Ratio (y) = 0.30955 0.42302
# Poissons Ratio (z) = -0.14015 0.25475
#
# Static dielectric constant tensor:
#      x y z
#    x 1.978180 0.000000 -0.008280 
#    y 0.000000 1.970280 0.000000 
#    z -0.008280 0.000000 2.050190 
# 
# From -- ./inp_files/48909.got.cif
#   From: 2010.05.17/outbox.cif.g08.bks.cpg/sg14_25_cif.got.tgz:48909.got - 2010.06.03 17:49:19.
