data_PCOD9242169
_publ_section_title
;
Structure prediction by ZEFSAII (Michael W. Deem and Ramdas Pophale) SiO2 
 PCOD9242169
Probable space group: P 21/C
;
_chemical_formula_sum "Si O2"
_cell_formula_units_Z 28
_cell_length_a 7.797236
_cell_length_b 22.037622
_cell_length_c 9.664588
_cell_angle_alpha 90.000000
_cell_angle_beta 45.188347
_cell_angle_gamma 90.000000
_cell_volume 1178.139504
_symmetry_space_group_name_H-M "P 21/C"
_symmetry_group_IT_number 14
_symmetry_cell_setting 'monoclinic'
loop_
_space_group_symop_operation_xyz
x,y,z
-x,1/2+y,1/2-z
-x,-y,-z
x,1/2-y,1/2+z
loop_
_atom_site_type_symbol
_atom_site_label
_atom_site_fract_x
_atom_site_fract_y
_atom_site_fract_z
Si Si1 0.577487 0.690110 0.684421
Si Si2 0.103986 0.291491 0.008619
Si Si3 0.449121 0.964982 0.796083
Si Si4 0.950734 0.376592 0.477009
Si Si5 0.903699 0.571988 0.890717
Si Si6 0.815080 0.248278 0.925811
Si Si7 0.447052 0.925631 0.107048
O O1 0.657206 0.755332 0.582881
O O2 0.448088 0.643056 0.657679
O O3 0.830978 0.656392 0.570104
O O4 0.409601 0.708354 0.909998
O O5 0.129763 0.361861 0.021955
O O6 0.895356 0.261573 0.223223
O O7 0.034492 0.278261 0.889831
O O8 0.677579 0.966909 0.565897
O O9 0.390565 0.032296 0.885689
O O10 0.236352 0.924326 0.851405
O O11 0.511890 0.932726 0.909031
O O12 0.800038 0.320172 0.496074
O O13 0.075623 0.414583 0.282976
O O14 0.171640 0.550047 0.778519
#
# Coordination Sequence:
#
# PCOD9242169 Si02
#       7
#     4   4   4   4   4   4   4
#     4  11  22  37  59  84 123 149 199 246 296 359
#     4  10  22  35  59  88 117 157 193 240 307 355
#     4  10  21  39  61  82 121 155 202 251 290 339
#     4   9  22  38  55  88 115 155 196 243 302 358
#     4  10  19  40  60  82 116 156 200 240 297 354
#     4  10  21  38  55  86 121 153 196 240 299 363
#     4  10  22  37  60  91 111 158 206 245 290 355
#
# _framework density 23.766285
#
# number of rings (size 3 to 8) (size 9 to 14) (size 15 to 20)
#    0.000    2.000    1.429    1.286    2.000    6.286 
#    0.000    0.714    0.000    0.000    0.000    0.000 
#    0.000    0.000    0.000    0.000    0.000    0.000 
#
# Total GULP energy -156324.371826 kJ/mol
# GULP energy per Si atom -5583.013279 kJ/mol
# Density = 2.371219 g / cm^3
# Si number density = 23.766285 Si / 1000 Ang^3
#
#
#
# Elastic Constant Matrix: (Units=GPa)
#
#
# Indices 1 2 3 4 5 6 
#
# 1 46.7860 4.9937 6.2067 0.0000 -5.5581 0.0000
# 2 4.9937 38.2616 8.2107 0.0000 3.1460 0.0000
# 3 6.2067 8.2107 74.7657 0.0000 -10.7372 0.0000
# 4 0.0000 0.0000 0.0000 31.0094 0.0000 -0.1075
# 5 -5.5581 3.1460 -10.7372 0.0000 22.7171 0.0000
# 6 0.0000 0.0000 0.0000 -0.1075 0.0000 34.5701
#
#
#
# Elastic Compliance Matrix: (Units=1/GPa)
#
#
# Indices 1 2 3 4 5 6 
#
# 1 0.022481 -0.003245 -0.000703 0.000000 0.005617 0.000000
# 2 -0.003245 0.027883 -0.003713 0.000000 -0.006411 0.000000
# 3 -0.000703 -0.003713 0.014902 0.000000 0.007386 0.000000
# 4 0.000000 0.000000 0.000000 0.032249 0.000000 0.000100
# 5 0.005617 -0.006411 0.007386 0.000000 0.049773 0.000000
# 6 0.000000 0.000000 0.000000 0.000100 0.000000 0.028927
#
#
# Mechanical properties :
#
#
# Convention : Reuss Voigt Hill
#
# Bulk Modulus (GPa) = 20.02284 22.07062 21.04673
# Shear Modulus (GPa) = 24.01706 27.01947 25.51827
#
# Velocity S-wave (km/s) = 3.18237 3.37543 3.28032
# Velocity P-wave (km/s) = 4.68470 4.94955 4.81895
#
# Compressibility (1/GPa) = 0.04994297
#
# Stress axis : x y z
#
# Youngs Moduli (GPa) = 44.48220 35.86368 67.10528
#
# Poissons Ratio (x) = 0.11638 0.04719
# Poissons Ratio (y) = 0.14435 0.24919
# Poissons Ratio (z) = 0.03128 0.13318
#
# Static dielectric constant tensor:
#      x y z
#    x 1.971950 0.000000 -0.060340 
#    y 0.000000 1.902090 0.000000 
#    z -0.060340 0.000000 1.908360 
# 
# From -- ./inp_files/26741.got.cif
#   From: 2010.05.17/outbox.cif.g08.bks.cpg/sg14_14_cif.got.tgz:26741.got - 2010.06.03 17:49:19.
