data_PCOD9242241
_publ_section_title
;
Structure prediction by ZEFSAII (Michael W. Deem and Ramdas Pophale) SiO2 
 PCOD9242241
Probable space group: P 21/C
;
_chemical_formula_sum "Si O2"
_cell_formula_units_Z 28
_cell_length_a 14.199030
_cell_length_b 22.675402
_cell_length_c 8.217961
_cell_angle_alpha 90.000000
_cell_angle_beta 145.269957
_cell_angle_gamma 90.000000
_cell_volume 1507.412106
_symmetry_space_group_name_H-M "P 21/C"
_symmetry_group_IT_number 14
_symmetry_cell_setting 'monoclinic'
loop_
_space_group_symop_operation_xyz
x,y,z
-x,1/2+y,1/2-z
-x,-y,-z
x,1/2-y,1/2+z
loop_
_atom_site_type_symbol
_atom_site_label
_atom_site_fract_x
_atom_site_fract_y
_atom_site_fract_z
Si Si1 0.616241 0.319859 0.116333
Si Si2 0.968061 0.332972 0.020342
Si Si3 0.163398 0.011046 0.125414
Si Si4 0.197001 0.727885 0.918246
Si Si5 0.238012 0.922894 0.961304
Si Si6 0.501938 0.009678 0.197640
Si Si7 0.702222 0.612696 0.412715
O O1 0.659950 0.260493 0.275404
O O2 0.709196 0.311754 0.078514
O O3 0.704278 0.371945 0.337104
O O4 0.427456 0.338893 0.834614
O O5 0.156641 0.353138 0.288260
O O6 0.915121 0.310428 0.122259
O O7 0.912807 0.279027 0.824019
O O8 0.866366 0.391086 0.825417
O O9 0.319765 0.991877 0.460285
O O10 0.213239 0.074261 0.113830
O O11 0.143802 0.969933 0.938305
O O12 0.000000 0.000000 0.000000
O O13 0.398090 0.955093 0.120334
O O14 0.402480 0.067232 0.122332
O O15 0.500000 0.000000 0.000000
#
# Coordination Sequence:
#
# PCOD9242241 Si02
#       7
#     4   4   4   4   4   4   4
#     4  10  19  41  62  84 116 167 198 258 304 360
#     4  10  23  39  63  93 118 164 202 261 297 361
#     4  11  24  40  61  93 126 161 197 252 302 376
#     4   9  22  41  63  85 119 158 215 253 309 351
#     4  10  21  40  62  85 130 158 201 243 308 364
#     4  11  24  40  60  94 126 158 202 247 304 383
#     4  11  23  39  63  90 128 157 204 247 307 366
#
# _framework density 18.574881000000001
#
# number of rings (size 3 to 8) (size 9 to 14) (size 15 to 20)
#    0.000    1.714    2.857    0.857    8.000    2.286 
#    0.000    0.000    0.000    0.000    0.000    0.000 
#    0.000    0.000    0.000    0.000    0.000    0.000 
#
# Total GULP energy -156130.785171 kJ/mol
# GULP energy per Si atom -5576.099470 kJ/mol
# Density = 1.853260 g / cm^3
# Si number density = 18.574881 Si / 1000 Ang^3
#
#
#
# Elastic Constant Matrix: (Units=GPa)
#
#
# Indices 1 2 3 4 5 6 
#
# 1 128.7171 40.0648 37.4493 0.0000 2.5840 0.0000
# 2 40.0648 61.1705 36.8865 0.0000 10.5836 0.0000
# 3 37.4493 36.8865 99.1087 0.0000 22.6025 0.0000
# 4 0.0000 0.0000 0.0000 25.1025 0.0000 5.9913
# 5 2.5840 10.5836 22.6025 0.0000 27.6364 0.0000
# 6 0.0000 0.0000 0.0000 5.9913 0.0000 15.0355
#
#
#
# Elastic Compliance Matrix: (Units=1/GPa)
#
#
# Indices 1 2 3 4 5 6 
#
# 1 0.010215 -0.005775 -0.002455 0.000000 0.003264 0.000000
# 2 -0.005775 0.024437 -0.006026 0.000000 -0.003890 0.000000
# 3 -0.002455 -0.006026 0.015589 0.000000 -0.010213 0.000000
# 4 0.000000 0.000000 0.000000 0.044024 0.000000 -0.017542
# 5 0.003264 -0.003890 -0.010213 0.000000 0.045721 0.000000
# 6 0.000000 0.000000 0.000000 -0.017542 0.000000 0.073499
#
#
# Mechanical properties :
#
#
# Convention : Reuss Voigt Hill
#
# Bulk Modulus (GPa) = 46.01923 57.53305 51.77614
# Shear Modulus (GPa) = 20.06098 25.19460 22.62779
#
# Velocity S-wave (km/s) = 3.28991 3.68690 3.49405
# Velocity P-wave (km/s) = 6.26579 7.01179 6.64926
#
# Compressibility (1/GPa) = 0.02173005
#
# Stress axis : x y z
#
# Youngs Moduli (GPa) = 97.89241 40.92185 64.14663
#
# Poissons Ratio (x) = 0.23633 0.15748
# Poissons Ratio (y) = 0.56534 0.38652
# Poissons Ratio (z) = 0.24033 0.24658
#
# Static dielectric constant tensor:
#      x y z
#    x 1.664150 0.000000 -0.013410 
#    y 0.000000 1.653880 0.000000 
#    z -0.013410 0.000000 1.663180 
# 
# From -- ./inp_files/16935.got.cif
#   From: 2010.05.17/outbox.cif.g08.bks.cpg/sg14_9_cif.got.tgz:16935.got - 2010.06.03 17:49:19.
