data_PCOD9242680
_publ_section_title
;
Structure prediction by ZEFSAII (Michael W. Deem and Ramdas Pophale) SiO2 
 PCOD9242680
Probable space group: P 21/C
;
_chemical_formula_sum "Si O2"
_cell_formula_units_Z 28
_cell_length_a 16.373145
_cell_length_b 7.694860
_cell_length_c 13.540636
_cell_angle_alpha 90.000000
_cell_angle_beta 46.072887
_cell_angle_gamma 90.000000
_cell_volume 1228.680097
_symmetry_space_group_name_H-M "P 21/C"
_symmetry_group_IT_number 14
_symmetry_cell_setting 'monoclinic'
loop_
_space_group_symop_operation_xyz
x,y,z
-x,1/2+y,1/2-z
-x,-y,-z
x,1/2-y,1/2+z
loop_
_atom_site_type_symbol
_atom_site_label
_atom_site_fract_x
_atom_site_fract_y
_atom_site_fract_z
Si Si1 0.861109 0.741343 0.696152
Si Si2 0.228606 0.896397 0.241341
Si Si3 0.941752 0.063613 0.351301
Si Si4 0.409603 0.663542 0.191176
Si Si5 0.643323 0.936242 0.446137
Si Si6 0.999557 0.700573 0.401887
Si Si7 0.288801 0.738743 0.486640
O O1 0.768497 0.641655 0.837792
O O2 0.915387 0.640445 0.558332
O O3 0.961952 0.827502 0.673266
O O4 0.797289 0.909826 0.704966
O O5 0.336923 0.817968 0.203999
O O6 0.249100 0.891109 0.106004
O O7 0.118665 0.772080 0.346441
O O8 0.823129 0.164876 0.461415
O O9 0.974274 0.067456 0.207839
O O10 0.947070 0.871943 0.392532
O O11 0.382759 0.497777 0.144021
O O12 0.363066 0.650153 0.340428
O O13 0.544152 0.687277 0.068208
O O14 0.643822 0.107837 0.513576
#
# Coordination Sequence:
#
# PCOD9242680 Si02
#       7
#     4   4   4   4   4   4   4
#     4  11  21  36  57  88 120 147 189 240 283 338
#     4   9  20  36  58  86 115 153 195 229 288 352
#     4  10  20  36  57  87 117 149 194 233 284 350
#     4  10  21  43  61  79 118 155 188 241 286 326
#     4  10  24  39  60  90 111 147 205 233 270 350
#     4  10  20  35  56  83 118 153 187 236 289 340
#     4  10  20  39  61  82 116 156 189 236 291 335
#
# _framework density 22.788681
#
# number of rings (size 3 to 8) (size 9 to 14) (size 15 to 20)
#    0.000    2.000    0.000    4.286    0.000    5.143 
#    0.000   17.857    0.000    0.000    0.000    0.000 
#    0.000    0.000    0.000    0.000    0.000    0.000 
#
# Total GULP energy -156683.239522 kJ/mol
# GULP energy per Si atom -5595.829983 kJ/mol
# Density = 2.273681 g / cm^3
# Si number density = 22.788681 Si / 1000 Ang^3
#
#
#
# Elastic Constant Matrix: (Units=GPa)
#
#
# Indices 1 2 3 4 5 6 
#
# 1 57.7609 0.2473 47.6171 0.0000 -7.1470 0.0000
# 2 0.2473 51.9912 23.6061 0.0000 -6.6714 0.0000
# 3 47.6171 23.6061 178.5554 0.0000 -4.5972 0.0000
# 4 0.0000 0.0000 0.0000 29.3761 0.0000 -6.5449
# 5 -7.1470 -6.6714 -4.5972 0.0000 26.0961 0.0000
# 6 0.0000 0.0000 0.0000 -6.5449 0.0000 20.8281
#
#
#
# Elastic Compliance Matrix: (Units=1/GPa)
#
#
# Indices 1 2 3 4 5 6 
#
# 1 0.023502 0.003680 -0.006594 0.000000 0.006216 0.000000
# 2 0.003680 0.021649 -0.003692 0.000000 0.005892 0.000000
# 3 -0.006594 -0.003692 0.007812 0.000000 -0.001374 0.000000
# 4 0.000000 0.000000 0.000000 0.036604 0.000000 0.011502
# 5 0.006216 0.005892 -0.001374 0.000000 0.041286 0.000000
# 6 0.000000 0.000000 0.000000 0.011502 0.000000 0.051627
#
#
# Mechanical properties :
#
#
# Convention : Reuss Voigt Hill
#
# Bulk Modulus (GPa) = 25.15694 47.91649 36.53671
# Shear Modulus (GPa) = 23.93016 29.71586 26.82301
#
# Velocity S-wave (km/s) = 3.24402 3.61498 3.43451
# Velocity P-wave (km/s) = 5.00947 6.20453 5.63875
#
# Compressibility (1/GPa) = 0.03975046
#
# Stress axis : x y z
#
# Youngs Moduli (GPa) = 42.54958 46.19212 128.01361
#
# Poissons Ratio (x) = -0.16997 0.84411
# Poissons Ratio (y) = -0.15657 0.47259
# Poissons Ratio (z) = 0.28057 0.17053
#
# Static dielectric constant tensor:
#      x y z
#    x 1.874020 0.000000 0.012710 
#    y 0.000000 1.841730 0.000000 
#    z 0.012710 0.000000 1.855920 
# 
# From -- ./inp_files/48555.got.cif
#   From: 2010.05.17/outbox.cif.g08.bks.cpg/sg14_25_cif.got.tgz:48555.got - 2010.06.03 17:49:19.
