data_PCOD9242870
_publ_section_title
;
Structure prediction by ZEFSAII (Michael W. Deem and Ramdas Pophale) SiO2 
 PCOD9242870
Probable space group: P 21/C
;
_chemical_formula_sum "Si O2"
_cell_formula_units_Z 32
_cell_length_a 12.476837
_cell_length_b 19.357951
_cell_length_c 13.724370
_cell_angle_alpha 90.000000
_cell_angle_beta 22.484725
_cell_angle_gamma 90.000000
_cell_volume 1267.699552
_symmetry_space_group_name_H-M "P 21/C"
_symmetry_group_IT_number 14
_symmetry_cell_setting 'monoclinic'
loop_
_space_group_symop_operation_xyz
x,y,z
-x,1/2+y,1/2-z
-x,-y,-z
x,1/2-y,1/2+z
loop_
_atom_site_type_symbol
_atom_site_label
_atom_site_fract_x
_atom_site_fract_y
_atom_site_fract_z
Si Si1 0.335816 0.701813 0.334903
Si Si2 0.684734 0.062631 0.673388
Si Si3 0.372791 0.755018 0.579347
Si Si4 0.028724 0.075027 0.854086
Si Si5 0.623667 0.887856 0.261052
Si Si6 0.402955 0.058997 0.362031
Si Si7 0.244950 0.360240 0.679652
Si Si8 0.165024 0.286825 0.551465
O O1 0.318572 0.728121 0.238404
O O2 0.562829 0.641320 0.165087
O O3 0.511382 0.764131 0.235008
O O4 0.053512 0.657203 0.590232
O O5 0.584227 0.082543 0.646955
O O6 0.463688 0.091235 0.937244
O O7 0.682210 0.979794 0.664982
O O8 0.984227 0.097267 0.438796
O O9 0.487015 0.825374 0.437196
O O10 0.586428 0.691116 0.391688
O O11 0.079426 0.736321 0.775633
O O12 0.227232 0.068155 0.780093
O O13 0.182549 0.044921 0.631655
O O14 0.274691 0.959922 0.883414
O O15 0.866844 0.853667 0.990386
O O16 0.126861 0.308611 0.694939
#
# Coordination Sequence:
#
# PCOD9242870 Si02
#       8
#     4   4   4   4   4   4   4   4
#     4   9  21  36  57  87 117 155 198 232 295 346
#     4  11  23  40  58  89 117 159 197 237 289 350
#     4  11  20  38  59  87 122 153 188 248 299 348
#     4  10  20  36  55  87 112 157 190 239 286 347
#     4  11  21  33  59  86 126 144 199 234 305 354
#     4  10  21  38  60  80 120 161 193 238 285 347
#     4  10  24  38  60  86 119 154 196 241 293 349
#     4  10  20  37  57  88 118 155 192 244 290 357
#
# _framework density 25.242574000000001
#
# number of rings (size 3 to 8) (size 9 to 14) (size 15 to 20)
#    0.750    1.000    3.750    0.750    1.750    3.000 
#    0.000    0.000    0.000    1.500    0.000    0.000 
#    0.000    0.000    0.000    0.000    0.000    0.000 
#
# Total GULP energy -178719.130106 kJ/mol
# GULP energy per Si atom -5584.972816 kJ/mol
# Density = 2.518512 g / cm^3
# Si number density = 25.242574 Si / 1000 Ang^3
#
#
#
# Elastic Constant Matrix: (Units=GPa)
#
#
# Indices 1 2 3 4 5 6 
#
# 1 56.8016 14.9400 19.5359 0.0000 -18.4030 0.0000
# 2 14.9400 35.5040 12.6592 0.0000 -8.2921 0.0000
# 3 19.5359 12.6592 118.7163 0.0000 -11.3659 0.0000
# 4 0.0000 0.0000 0.0000 30.8120 0.0000 0.8007
# 5 -18.4030 -8.2921 -11.3659 0.0000 14.8244 0.0000
# 6 0.0000 0.0000 0.0000 0.8007 0.0000 26.1463
#
#
#
# Elastic Compliance Matrix: (Units=1/GPa)
#
#
# Indices 1 2 3 4 5 6 
#
# 1 0.030237 -0.004297 -0.001245 0.000000 0.034177 0.000000
# 2 -0.004297 0.033392 -0.001701 0.000000 0.012040 0.000000
# 3 -0.001245 -0.001701 0.009250 0.000000 0.004594 0.000000
# 4 0.000000 0.000000 0.000000 0.032481 0.000000 -0.000995
# 5 0.034177 0.012040 0.004594 0.000000 0.120141 0.000000
# 6 0.000000 0.000000 0.000000 -0.000995 0.000000 0.038277
#
#
# Mechanical properties :
#
#
# Convention : Reuss Voigt Hill
#
# Bulk Modulus (GPa) = 17.12571 33.92136 25.52354
# Shear Modulus (GPa) = 16.79383 25.28233 21.03808
#
# Velocity S-wave (km/s) = 2.58214 3.16820 2.89006
# Velocity P-wave (km/s) = 3.96094 5.18176 4.61193
#
# Compressibility (1/GPa) = 0.05839173
#
# Stress axis : x y z
#
# Youngs Moduli (GPa) = 33.07231 29.94685 108.11258
#
# Poissons Ratio (x) = 0.12869 0.13464
# Poissons Ratio (y) = 0.14212 0.18389
# Poissons Ratio (z) = 0.04119 0.05094
#
# Static dielectric constant tensor:
#      x y z
#    x 1.992830 0.000000 0.003610 
#    y 0.000000 2.113060 0.000000 
#    z 0.003610 0.000000 1.965500 
# 
# From -- ./inp_files/53730.got.cif
#   From: 2010.05.17/outbox.cif.g08.bks.cpg/sg14_27_cif.got.tgz:53730.got - 2010.06.03 17:49:19.
