data_PCOD9242428
_publ_section_title
;
Structure prediction by ZEFSAII (Michael W. Deem and Ramdas Pophale) SiO2 
 PCOD9242428
Probable space group: P 21/C
;
_chemical_formula_sum "Si O2"
_cell_formula_units_Z 24
_cell_length_a 10.049683
_cell_length_b 5.336017
_cell_length_c 20.921873
_cell_angle_alpha 90.000000
_cell_angle_beta 109.598557
_cell_angle_gamma 90.000000
_cell_volume 1056.942626
_symmetry_space_group_name_H-M "P 21/C"
_symmetry_group_IT_number 14
_symmetry_cell_setting 'monoclinic'
loop_
_space_group_symop_operation_xyz
x,y,z
-x,1/2+y,1/2-z
-x,-y,-z
x,1/2-y,1/2+z
loop_
_atom_site_type_symbol
_atom_site_label
_atom_site_fract_x
_atom_site_fract_y
_atom_site_fract_z
Si Si1 0.922868 0.704806 0.559835
Si Si2 0.469269 0.498922 0.070603
Si Si3 0.366717 0.002575 0.025417
Si Si4 0.049407 0.202679 0.588387
Si Si5 0.633675 0.503116 0.212125
Si Si6 0.307914 0.000610 0.709101
O O1 0.772107 0.567490 0.536044
O O2 0.951112 0.752764 0.488441
O O3 0.024427 0.490812 0.606171
O O4 0.933512 0.988343 0.587363
O O5 0.613926 0.502110 0.132839
O O6 0.500000 0.500000 0.000000
O O7 0.371999 0.743541 0.064406
O O8 0.393165 0.239411 0.074692
O O9 0.500000 0.000000 0.000000
O O10 0.189070 0.069238 0.638170
O O11 0.698212 0.764546 0.243902
O O12 0.467857 0.502517 0.207309
O O13 0.705978 0.262647 0.255809
#
# Coordination Sequence:
#
# PCOD9242428 Si02
#       6
#     4   4   4   4   4   4
#     4  10  20  33  52  79 111 144 180 223 271 333
#     4  10  20  34  54  81 106 136 178 232 281 318
#     4  10  20  34  54  81 106 136 178 231 280 318
#     4  10  20  33  51  78 112 147 178 215 276 338
#     4  10  20  33  52  78 110 143 180 223 270 333
#     4  10  20  33  51  78 111 147 178 215 276 338
#
# _framework density 22.707003
#
# number of rings (size 3 to 8) (size 9 to 14) (size 15 to 20)
#    0.000    2.000    0.000    4.000    0.000    5.333 
#    0.000    0.000    0.000    0.000    0.000   93.333 
#    0.000    0.000    0.000    0.000    0.000    0.000 
#
# Total GULP energy -133793.643366 kJ/mol
# GULP energy per Si atom -5574.735140 kJ/mol
# Density = 2.265532 g / cm^3
# Si number density = 22.707003 Si / 1000 Ang^3
#
#
#
# Elastic Constant Matrix: (Units=GPa)
#
#
# Indices 1 2 3 4 5 6 
#
# 1 41.0621 28.1703 8.9088 0.0000 11.6078 0.0000
# 2 28.1703 194.0364 45.4045 0.0000 12.4371 0.0000
# 3 8.9088 45.4045 68.5215 0.0000 3.8001 0.0000
# 4 0.0000 0.0000 0.0000 40.4070 0.0000 17.5267
# 5 11.6078 12.4371 3.8001 0.0000 24.7113 0.0000
# 6 0.0000 0.0000 0.0000 17.5267 0.0000 11.0545
#
#
#
# Elastic Compliance Matrix: (Units=1/GPa)
#
#
# Indices 1 2 3 4 5 6 
#
# 1 0.030406 -0.003378 -0.001026 0.000000 -0.012425 0.000000
# 2 -0.003378 0.006628 -0.003889 0.000000 -0.001151 0.000000
# 3 -0.001026 -0.003889 0.017317 0.000000 -0.000224 0.000000
# 4 0.000000 0.000000 0.000000 0.079246 0.000000 -0.125642
# 5 -0.012425 -0.001151 -0.000224 0.000000 0.046917 0.000000
# 6 0.000000 0.000000 0.000000 -0.125642 0.000000 0.289662
#
#
# Mechanical properties :
#
#
# Convention : Reuss Voigt Hill
#
# Bulk Modulus (GPa) = 26.47955 52.06526 39.27240
# Shear Modulus (GPa) = 10.01304 29.97699 19.99501
#
# Velocity S-wave (km/s) = 2.10220 3.63735 2.97065
# Velocity P-wave (km/s) = 4.19274 6.37333 5.39437
#
# Compressibility (1/GPa) = 0.03776499
#
# Stress axis : x y z
#
# Youngs Moduli (GPa) = 32.88864 150.87892 57.74804
#
# Poissons Ratio (x) = 0.50965 0.05924
# Poissons Ratio (y) = 0.11109 0.22457
# Poissons Ratio (z) = 0.03374 0.58674
#
# Static dielectric constant tensor:
#      x y z
#    x 2.089450 0.000000 0.050900 
#    y 0.000000 3.009010 0.000000 
#    z 0.050900 0.000000 1.915970 
# 
# From -- ./inp_files/72675.got.cif
#   From: 2010.05.17/outbox.cif.g08.bks.cpg/sg14_37_cif.got.tgz:72675.got - 2010.06.03 17:49:19.
