data_PCOD9242536
_publ_section_title
;
Structure prediction by ZEFSAII (Michael W. Deem and Ramdas Pophale) SiO2 
 PCOD9242536
Probable space group: P 21/C
;
_chemical_formula_sum "Si O2"
_cell_formula_units_Z 30
_cell_length_a 13.735950
_cell_length_b 18.356567
_cell_length_c 5.089637
_cell_angle_alpha 90.000000
_cell_angle_beta 72.130435
_cell_angle_gamma 90.000000
_cell_volume 1221.415136
_symmetry_space_group_name_H-M "P 21/C"
_symmetry_group_IT_number 14
_symmetry_cell_setting 'monoclinic'
loop_
_space_group_symop_operation_xyz
x,y,z
-x,1/2+y,1/2-z
-x,-y,-z
x,1/2-y,1/2+z
loop_
_atom_site_type_symbol
_atom_site_label
_atom_site_fract_x
_atom_site_fract_y
_atom_site_fract_z
Si Si1 0.500000 0.500000 0.500000
Si Si2 0.673592 0.791482 0.987134
Si Si3 0.444761 0.846377 0.239709
Si Si4 0.080642 0.793476 0.086642
Si Si5 0.275827 0.992876 0.862723
Si Si6 0.661283 0.567584 0.204313
Si Si7 0.312980 0.830297 0.831166
Si Si8 0.946045 0.034601 0.793954
O O1 0.532810 0.432511 0.256714
O O2 0.541145 0.568367 0.253350
O O3 0.702550 0.772704 0.260642
O O4 0.552129 0.805733 0.099530
O O5 0.710882 0.865201 0.814404
O O6 0.392396 0.810127 0.538838
O O7 0.363609 0.839076 0.071975
O O8 0.043277 0.762968 0.838772
O O9 0.204434 0.791001 0.957012
O O10 0.053630 0.877166 0.183373
O O11 0.283322 0.044080 0.604189
O O12 0.282339 0.911412 0.758903
O O13 0.357935 0.010228 0.027508
O O14 0.170062 0.994429 0.106752
O O15 0.000000 0.000000 0.500000
O O16 0.000000 0.000000 0.000000
#
# Coordination Sequence:
#
# PCOD9242536 Si02
#       8
#     2   4   4   4   4   4   4   4
#     4  10  20  34  54  86 118 156 216 258 308 336
#     4  11  24  40  52  76 112 164 213 252 308 359
#     4  11  22  34  55  81 119 162 212 265 304 365
#     4  11  24  41  66  98 135 175 207 253 337 419
#     4  11  21  39  63  94 120 150 204 254 317 369
#     4  11  22  37  62  84 116 161 202 267 300 356
#     4  11  21  36  56  89 125 156 200 257 309 384
#     4  11  24  44  73 101 134 169 213 269 330 401
#
# _framework density 24.561672999999999
#
# number of rings (size 3 to 8) (size 9 to 14) (size 15 to 20)
#    0.000    1.067    2.667    4.000    0.000   11.733 
#    0.000    0.000    0.000   16.000    0.000    0.000 
#    0.000    0.000    0.000    0.000    0.000    0.000 
#
# Total GULP energy -167396.506310 kJ/mol
# GULP energy per Si atom -5579.883544 kJ/mol
# Density = 2.450577 g / cm^3
# Si number density = 24.561673 Si / 1000 Ang^3
#
#
#
# Elastic Constant Matrix: (Units=GPa)
#
#
# Indices 1 2 3 4 5 6 
#
# 1 31.3233 3.3331 14.3470 0.0000 -2.1687 0.0000
# 2 3.3331 124.9695 49.5215 0.0000 -12.3973 0.0000
# 3 14.3470 49.5215 179.0038 0.0000 -0.2099 0.0000
# 4 0.0000 0.0000 0.0000 -35.7421 0.0000 -27.1029
# 5 -2.1687 -12.3973 -0.2099 0.0000 38.9514 0.0000
# 6 0.0000 0.0000 0.0000 -27.1029 0.0000 17.6017
#
#
#
# Elastic Compliance Matrix: (Units=1/GPa)
#
#
# Indices 1 2 3 4 5 6 
#
# 1 0.033291 0.000409 -0.002779 0.000000 0.001969 0.000000
# 2 0.000409 0.009319 -0.002607 0.000000 0.002975 0.000000
# 3 -0.002779 -0.002607 0.006529 0.000000 -0.000949 0.000000
# 4 0.000000 0.000000 0.000000 -0.012907 0.000000 -0.019875
# 5 0.001969 0.002975 -0.000949 0.000000 0.026724 0.000000
# 6 0.000000 0.000000 0.000000 -0.019875 0.000000 0.026210
#
#
# Mechanical properties :
#
#
# Convention : Reuss Voigt Hill
#
# Bulk Modulus (GPa) = 25.52061 52.18884 38.85473
# Shear Modulus (GPa) = 44.56983 22.03521 33.30252
#
# Velocity S-wave (km/s) = 4.26444 2.99848 3.68621
# Velocity P-wave (km/s) = 5.88730 5.76906 5.82848
#
# Compressibility (1/GPa) = 0.03918402
#
# Stress axis : x y z
#
# Youngs Moduli (GPa) = 30.03830 107.30267 153.15213
#
# Poissons Ratio (x) = -0.04384 0.42561
# Poissons Ratio (y) = -0.01227 0.39934
# Poissons Ratio (z) = 0.08348 0.27979
#
# Static dielectric constant tensor:
#      x y z
#    x 2.096990 0.000000 -0.026290 
#    y 0.000000 2.183480 0.000000 
#    z -0.026290 0.000000 2.001690 
# 
# From -- ./inp_files/4247.got.cif
#   From: 2010.05.17/outbox.cif.g08.bks.cpg/sg14_3_cif.got.tgz:4247.got - 2010.06.03 17:49:19.
