data_PCOD9242481
_publ_section_title
;
Structure prediction by ZEFSAII (Michael W. Deem and Ramdas Pophale) SiO2 
 PCOD9242481
Probable space group: P 21/C
;
_chemical_formula_sum "Si O2"
_cell_formula_units_Z 28
_cell_length_a 7.854089
_cell_length_b 5.349209
_cell_length_c 25.875632
_cell_angle_alpha 90.000000
_cell_angle_beta 101.497012
_cell_angle_gamma 90.000000
_cell_volume 1065.304263
_symmetry_space_group_name_H-M "P 21/C"
_symmetry_group_IT_number 14
_symmetry_cell_setting 'monoclinic'
loop_
_space_group_symop_operation_xyz
x,y,z
-x,1/2+y,1/2-z
-x,-y,-z
x,1/2-y,1/2+z
loop_
_atom_site_type_symbol
_atom_site_label
_atom_site_fract_x
_atom_site_fract_y
_atom_site_fract_z
Si Si1 0.678099 0.779830 0.399453
Si Si2 0.247803 0.755758 0.989975
Si Si3 0.350892 0.250031 0.477643
Si Si4 0.227283 0.290368 0.754941
Si Si5 0.119302 0.777938 0.089724
Si Si6 0.340704 0.780005 0.810892
Si Si7 0.986032 0.019032 0.673139
O O1 0.648533 0.760849 0.459614
O O2 0.820726 0.562049 0.399162
O O3 0.509964 0.726016 0.355996
O O4 0.731689 0.065428 0.393082
O O5 0.260374 0.507094 0.957758
O O6 0.103732 0.750119 0.026003
O O7 0.240485 0.007913 0.956878
O O8 0.447256 0.769191 0.025344
O O9 0.333232 0.550573 0.767988
O O10 0.054668 0.349389 0.778681
O O11 0.321644 0.054649 0.786342
O O12 0.156072 0.183831 0.696719
O O13 0.995886 0.672189 0.126659
O O14 0.176720 0.705591 0.836740
#
# Coordination Sequence:
#
# PCOD9242481 Si02
#       7
#     4   4   4   4   4   4   4
#     4  10  20  34  49  82 108 135 160 218 267 308
#     4   8  14  27  43  73  96 134 164 205 242 302
#     4   8  14  26  47  65 103 134 167 190 249 313
#     4  10  20  35  58  70  92 137 182 205 241 323
#     4  10  21  31  54  79 109 125 172 223 264 286
#     4  10  20  35  55  73 101 134 178 201 257 321
#     4  10  21  36  58  74  95 135 180 218 246 310
#
# _framework density 26.283567999999999
#
# number of rings (size 3 to 8) (size 9 to 14) (size 15 to 20)
#    0.857    1.714    1.429    0.857    2.000    0.000 
#    0.000    2.857    0.000    0.857    0.000    1.000 
#    0.000    0.000    0.000    0.000    0.000    0.000 
#
# Total GULP energy -156371.446844 kJ/mol
# GULP energy per Si atom -5584.694530 kJ/mol
# Density = 2.622375 g / cm^3
# Si number density = 26.283568 Si / 1000 Ang^3
#
#
#
# Elastic Constant Matrix: (Units=GPa)
#
#
# Indices 1 2 3 4 5 6 
#
# 1 42.3481 -5.5788 31.0067 0.0000 -7.7854 0.0000
# 2 -5.5788 152.9232 22.9006 0.0000 3.1670 0.0000
# 3 31.0067 22.9006 74.4050 0.0000 2.5753 0.0000
# 4 0.0000 0.0000 0.0000 41.8632 0.0000 -3.1130
# 5 -7.7854 3.1670 2.5753 0.0000 38.7951 0.0000
# 6 0.0000 0.0000 0.0000 -3.1130 0.0000 35.9954
#
#
#
# Elastic Compliance Matrix: (Units=1/GPa)
#
#
# Indices 1 2 3 4 5 6 
#
# 1 0.038549 0.003856 -0.017549 0.000000 0.008586 0.000000
# 2 0.003856 0.007248 -0.003853 0.000000 0.000438 0.000000
# 3 -0.017549 -0.003853 0.022101 0.000000 -0.004674 0.000000
# 4 0.000000 0.000000 0.000000 0.024042 0.000000 0.002079
# 5 0.008586 0.000438 -0.004674 0.000000 0.027774 0.000000
# 6 0.000000 0.000000 0.000000 0.002079 0.000000 0.027961
#
#
# Mechanical properties :
#
#
# Convention : Reuss Voigt Hill
#
# Bulk Modulus (GPa) = 30.48108 40.70370 35.59239
# Shear Modulus (GPa) = 25.81294 38.08726 31.95010
#
# Velocity S-wave (km/s) = 3.13724 3.81082 3.49032
# Velocity P-wave (km/s) = 4.97445 5.90619 5.46024
#
# Compressibility (1/GPa) = 0.03280724
#
# Stress axis : x y z
#
# Youngs Moduli (GPa) = 25.94081 137.97212 45.24745
#
# Poissons Ratio (x) = -0.53208 0.79404
# Poissons Ratio (y) = -0.10004 0.17434
# Poissons Ratio (z) = 0.45523 0.53161
#
# Static dielectric constant tensor:
#      x y z
#    x 2.156880 0.000000 -0.058750 
#    y 0.000000 2.114670 0.000000 
#    z -0.058750 0.000000 2.055660 
# 
# From -- ./inp_files/79045.got.cif
#   From: 2010.05.17/outbox.cif.g08.bks.cpg/sg14_40_cif.got.tgz:79045.got - 2010.06.03 17:49:19.
