data_PCOD9242028
_publ_section_title
;
Structure prediction by ZEFSAII (Michael W. Deem and Ramdas Pophale) SiO2 
 PCOD9242028
Probable space group: P 21/C
;
_chemical_formula_sum "Si O2"
_cell_formula_units_Z 32
_cell_length_a 11.306228
_cell_length_b 15.796464
_cell_length_c 8.198584
_cell_angle_alpha 90.000000
_cell_angle_beta 67.261704
_cell_angle_gamma 90.000000
_cell_volume 1350.452266
_symmetry_space_group_name_H-M "P 21/C"
_symmetry_group_IT_number 14
_symmetry_cell_setting 'monoclinic'
loop_
_space_group_symop_operation_xyz
x,y,z
-x,1/2+y,1/2-z
-x,-y,-z
x,1/2-y,1/2+z
loop_
_atom_site_type_symbol
_atom_site_label
_atom_site_fract_x
_atom_site_fract_y
_atom_site_fract_z
Si Si1 0.228686 0.376851 0.393706
Si Si2 0.176365 0.213839 0.249041
Si Si3 0.194741 0.523241 0.195826
Si Si4 0.283307 0.695903 0.656628
Si Si5 0.572673 0.134464 0.430181
Si Si6 0.478553 0.584451 0.676691
Si Si7 0.664993 0.920868 0.639701
Si Si8 0.887736 0.315912 0.952394
O O1 0.227979 0.308532 0.246827
O O2 0.167359 0.322573 0.571677
O O3 0.156627 0.459762 0.361163
O O4 0.369086 0.403857 0.387262
O O5 0.274272 0.151605 0.285692
O O6 0.034642 0.206000 0.398792
O O7 0.335704 0.557529 0.169446
O O8 0.122645 0.607906 0.174979
O O9 0.222414 0.468586 0.018790
O O10 0.362071 0.780150 0.664472
O O11 0.399719 0.630149 0.573412
O O12 0.189917 0.733127 0.568271
O O13 0.186041 0.659308 0.843490
O O14 0.568077 0.130417 0.629112
O O15 0.434476 0.119322 0.433120
O O16 0.418817 0.490973 0.719759
#
# Coordination Sequence:
#
# PCOD9242028 Si02
#       8
#     4   4   4   4   4   4   4   4
#     4  12  25  45  67  98 136 177 222 284 356 398
#     4  12  29  44  64  97 136 185 233 277 329 406
#     4  10  20  43  72  93 132 180 219 279 350 398
#     4  11  21  40  68  96 129 176 223 271 332 399
#     4  10  19  38  67 102 134 168 210 278 344 408
#     4  11  21  39  69 104 132 167 218 276 354 406
#     4  11  20  43  67 102 135 168 217 282 343 411
#     4  11  25  47  64  96 136 185 239 270 324 407
#
# _framework density 23.695765999999999
#
# number of rings (size 3 to 8) (size 9 to 14) (size 15 to 20)
#    0.000    1.000    6.250    3.000    1.750    2.500 
#    6.750    0.000    0.000    0.000    0.000    0.000 
#    0.000    0.000    0.000    0.000    0.000    0.000 
#
# Total GULP energy -178798.975714 kJ/mol
# GULP energy per Si atom -5587.467991 kJ/mol
# Density = 2.364183 g / cm^3
# Si number density = 23.695766 Si / 1000 Ang^3
#
#
#
# Elastic Constant Matrix: (Units=GPa)
#
#
# Indices 1 2 3 4 5 6 
#
# 1 83.8782 43.9665 2.3481 0.0000 -6.0021 0.0000
# 2 43.9665 80.0718 19.8808 0.0000 2.6430 0.0000
# 3 2.3481 19.8808 21.3318 0.0000 -0.6968 0.0000
# 4 0.0000 0.0000 0.0000 33.8449 0.0000 0.5546
# 5 -6.0021 2.6430 -0.6968 0.0000 23.3437 0.0000
# 6 0.0000 0.0000 0.0000 0.5546 0.0000 14.0017
#
#
#
# Elastic Compliance Matrix: (Units=1/GPa)
#
#
# Indices 1 2 3 4 5 6 
#
# 1 0.019091 -0.013320 0.010532 0.000000 0.006731 0.000000
# 2 -0.013320 0.025665 -0.022682 0.000000 -0.007008 0.000000
# 3 0.010532 -0.022682 0.067096 0.000000 0.007279 0.000000
# 4 0.000000 0.000000 0.000000 0.029566 0.000000 -0.001171
# 5 0.006731 -0.007008 0.007279 0.000000 0.045579 0.000000
# 6 0.000000 0.000000 0.000000 -0.001171 0.000000 0.071466
#
#
# Mechanical properties :
#
#
# Convention : Reuss Voigt Hill
#
# Bulk Modulus (GPa) = 16.41700 35.29696 25.85698
# Shear Modulus (GPa) = 15.16493 22.17715 18.67104
#
# Velocity S-wave (km/s) = 2.53254 3.06259 2.81009
# Velocity P-wave (km/s) = 3.93636 5.23776 4.63298
#
# Compressibility (1/GPa) = 0.06091246
#
# Stress axis : x y z
#
# Youngs Moduli (GPa) = 52.38190 38.96286 14.90392
#
# Poissons Ratio (x) = 0.51897 -0.15697
# Poissons Ratio (y) = 0.69770 0.33806
# Poissons Ratio (z) = -0.55168 0.88377
#
# Static dielectric constant tensor:
#      x y z
#    x 1.838910 0.000000 0.025110 
#    y 0.000000 1.890510 0.000000 
#    z 0.025110 0.000000 2.002160 
# 
# From -- ./inp_files/13280.got.cif
#   From: 2010.05.17/outbox.cif.g08.bks.cpg/sg14_7_cif.got.tgz:13280.got - 2010.06.03 17:49:19.
