data_PCOD9242252
_publ_section_title
;
Structure prediction by ZEFSAII (Michael W. Deem and Ramdas Pophale) SiO2 
 PCOD9242252
Probable space group: P 21/C
;
_chemical_formula_sum "Si O2"
_cell_formula_units_Z 28
_cell_length_a 8.802758
_cell_length_b 9.101643
_cell_length_c 18.979324
_cell_angle_alpha 90.000000
_cell_angle_beta 61.941409
_cell_angle_gamma 90.000000
_cell_volume 1341.892718
_symmetry_space_group_name_H-M "P 21/C"
_symmetry_group_IT_number 14
_symmetry_cell_setting 'monoclinic'
loop_
_space_group_symop_operation_xyz
x,y,z
-x,1/2+y,1/2-z
-x,-y,-z
x,1/2-y,1/2+z
loop_
_atom_site_type_symbol
_atom_site_label
_atom_site_fract_x
_atom_site_fract_y
_atom_site_fract_z
Si Si1 0.328757 0.501860 0.257921
Si Si2 0.154067 0.193038 0.461267
Si Si3 0.510348 0.310379 0.326542
Si Si4 0.092808 0.166524 0.707042
Si Si5 0.127159 0.944927 0.576201
Si Si6 0.228366 0.663198 0.616115
Si Si7 0.037254 0.090778 0.103723
O O1 0.477862 0.423089 0.270044
O O2 0.391138 0.660188 0.216408
O O3 0.260945 0.388750 0.212658
O O4 0.156416 0.535413 0.341088
O O5 0.323200 0.263730 0.393414
O O6 0.053078 0.307495 0.532497
O O7 0.031911 0.135670 0.426278
O O8 0.200367 0.057122 0.502549
O O9 0.615458 0.380157 0.368001
O O10 0.094701 0.313888 0.660022
O O11 0.937680 0.178735 0.796201
O O12 0.061004 0.038409 0.656883
O O13 0.257177 0.820756 0.574286
O O14 0.169955 0.543610 0.572302
#
# Coordination Sequence:
#
# PCOD9242252 Si02
#       7
#     4   4   4   4   4   4   4
#     4  11  25  41  65  94 129 164 213 264 322 369
#     4  10  24  41  65  93 125 168 213 253 321 371
#     4  12  26  40  61 101 129 161 203 278 323 363
#     4  10  19  41  65  90 116 170 215 252 302 385
#     4  10  21  41  65  88 122 173 209 251 302 398
#     4  11  21  38  65  91 127 159 212 261 316 367
#     4  10  22  42  65  90 121 174 214 252 303 397
#
# _framework density 20.866047999999999
#
# number of rings (size 3 to 8) (size 9 to 14) (size 15 to 20)
#    0.000    1.429    2.857    2.571    4.000    4.571 
#    0.000    0.000    0.000    0.000    0.000    0.000 
#    0.000    0.000    0.000    0.000    0.000    0.000 
#
# Total GULP energy -156496.017558 kJ/mol
# GULP energy per Si atom -5589.143484 kJ/mol
# Density = 2.081856 g / cm^3
# Si number density = 20.866048 Si / 1000 Ang^3
#
#
#
# Elastic Constant Matrix: (Units=GPa)
#
#
# Indices 1 2 3 4 5 6 
#
# 1 47.2189 20.4561 8.9656 0.0000 22.8715 0.0000
# 2 20.4561 74.9088 -0.4175 0.0000 10.9977 0.0000
# 3 8.9656 -0.4175 28.2996 0.0000 11.4143 0.0000
# 4 0.0000 0.0000 0.0000 19.6260 0.0000 4.8279
# 5 22.8715 10.9977 11.4143 0.0000 29.4350 0.0000
# 6 0.0000 0.0000 0.0000 4.8279 0.0000 39.1446
#
#
#
# Elastic Compliance Matrix: (Units=1/GPa)
#
#
# Indices 1 2 3 4 5 6 
#
# 1 0.036482 -0.006228 -0.001369 0.000000 -0.025490 0.000000
# 2 -0.006228 0.015373 0.003040 0.000000 -0.002083 0.000000
# 3 -0.001369 0.003040 0.042489 0.000000 -0.016549 0.000000
# 4 0.000000 0.000000 0.000000 0.052547 0.000000 -0.006481
# 5 -0.025490 -0.002083 -0.016549 0.000000 0.060975 0.000000
# 6 0.000000 0.000000 0.000000 -0.006481 0.000000 0.026346
#
#
# Mechanical properties :
#
#
# Convention : Reuss Voigt Hill
#
# Bulk Modulus (GPa) = 11.73277 23.15952 17.44615
# Shear Modulus (GPa) = 18.40020 25.73601 22.06811
#
# Velocity S-wave (km/s) = 2.97278 3.51578 3.25562
# Velocity P-wave (km/s) = 4.17352 5.25397 4.74460
#
# Compressibility (1/GPa) = 0.08523135
#
# Stress axis : x y z
#
# Youngs Moduli (GPa) = 27.41046 65.04844 23.53528
#
# Poissons Ratio (x) = 0.40513 0.03222
# Poissons Ratio (y) = 0.17071 -0.07155
# Poissons Ratio (z) = 0.03753 -0.19776
#
# Static dielectric constant tensor:
#      x y z
#    x 1.726680 0.000000 0.030850 
#    y 0.000000 1.783850 0.000000 
#    z 0.030850 0.000000 1.725920 
# 
# From -- ./inp_files/64530.got.cif
#   From: 2010.05.17/outbox.cif.g08.bks.cpg/sg14_33_cif.got.tgz:64530.got - 2010.06.03 17:49:19.
