data_PCOD9242625
_publ_section_title
;
Structure prediction by ZEFSAII (Michael W. Deem and Ramdas Pophale) SiO2 
 PCOD9242625
Probable space group: P 21/C
;
_chemical_formula_sum "Si O2"
_cell_formula_units_Z 28
_cell_length_a 7.695596
_cell_length_b 15.637496
_cell_length_c 18.054846
_cell_angle_alpha 90.000000
_cell_angle_beta 143.556174
_cell_angle_gamma 90.000000
_cell_volume 1290.668893
_symmetry_space_group_name_H-M "P 21/C"
_symmetry_group_IT_number 14
_symmetry_cell_setting 'monoclinic'
loop_
_space_group_symop_operation_xyz
x,y,z
-x,1/2+y,1/2-z
-x,-y,-z
x,1/2-y,1/2+z
loop_
_atom_site_type_symbol
_atom_site_label
_atom_site_fract_x
_atom_site_fract_y
_atom_site_fract_z
Si Si1 0.399814 0.172542 0.197244
Si Si2 0.846078 0.066345 0.003207
Si Si3 0.241929 0.517239 0.144173
Si Si4 0.328271 0.683110 0.373796
Si Si5 0.905910 0.821096 0.161256
Si Si6 0.403455 0.647559 0.716331
Si Si7 0.759701 0.999247 0.180202
O O1 0.648971 0.115216 0.322101
O O2 0.486886 0.169687 0.139729
O O3 0.381122 0.272706 0.205456
O O4 0.110264 0.122950 0.121813
O O5 0.660205 0.132303 0.890738
O O6 0.591174 0.012205 0.953320
O O7 0.000000 0.000000 0.000000
O O8 0.482668 0.442715 0.213481
O O9 0.171144 0.503691 0.207645
O O10 0.000000 0.500000 0.000000
O O11 0.574629 0.700935 0.520898
O O12 0.171392 0.591515 0.330188
O O13 0.082103 0.754602 0.273872
O O14 0.904708 0.915421 0.196160
O O15 0.110616 0.825858 0.158602
#
# Coordination Sequence:
#
# PCOD9242625 Si02
#       7
#     4   4   4   4   4   4   4
#     4  10  20  34  62  88 114 158 200 252 297 369
#     4  11  17  38  61  86 115 149 210 246 294 360
#     4  10  22  40  58  90 126 154 197 258 310 358
#     4  10  21  39  65  87 124 162 209 244 308 371
#     4  11  22  40  61  93 118 165 206 250 301 377
#     4  10  21  35  61  86 114 160 201 244 304 368
#     4  10  22  40  64  87 123 162 203 255 299 369
#
# _framework density 21.694178000000001
#
# number of rings (size 3 to 8) (size 9 to 14) (size 15 to 20)
#    0.000    1.714    5.714    0.429    2.000    3.429 
#    5.143    2.857    0.000    0.000    0.000    0.000 
#    0.000    0.000    0.000    0.000    0.000    0.000 
#
# Total GULP energy -156136.278448 kJ/mol
# GULP energy per Si atom -5576.295659 kJ/mol
# Density = 2.164480 g / cm^3
# Si number density = 21.694178 Si / 1000 Ang^3
#
#
#
# Elastic Constant Matrix: (Units=GPa)
#
#
# Indices 1 2 3 4 5 6 
#
# 1 53.3946 25.3169 14.6850 0.0000 0.3689 0.0000
# 2 25.3169 138.8184 33.0304 0.0000 8.9981 0.0000
# 3 14.6850 33.0304 121.7749 0.0000 -9.5189 0.0000
# 4 0.0000 0.0000 0.0000 34.6766 0.0000 -0.7169
# 5 0.3689 8.9981 -9.5189 0.0000 18.6100 0.0000
# 6 0.0000 0.0000 0.0000 -0.7169 0.0000 30.6137
#
#
#
# Elastic Compliance Matrix: (Units=1/GPa)
#
#
# Indices 1 2 3 4 5 6 
#
# 1 0.020786 -0.003457 -0.001532 0.000000 0.000476 0.000000
# 2 -0.003457 0.008748 -0.002376 0.000000 -0.005377 0.000000
# 3 -0.001532 -0.002376 0.009514 0.000000 0.006045 0.000000
# 4 0.000000 0.000000 0.000000 0.028852 0.000000 0.000676
# 5 0.000476 -0.005377 0.006045 0.000000 0.059417 0.000000
# 6 0.000000 0.000000 0.000000 0.000676 0.000000 0.032681
#
#
# Mechanical properties :
#
#
# Convention : Reuss Voigt Hill
#
# Bulk Modulus (GPa) = 41.12294 51.11694 46.11994
# Shear Modulus (GPa) = 27.34735 32.84376 30.09556
#
# Velocity S-wave (km/s) = 3.55432 3.89516 3.72864
# Velocity P-wave (km/s) = 5.98675 6.62144 6.31208
#
# Compressibility (1/GPa) = 0.02431733
#
# Stress axis : x y z
#
# Youngs Moduli (GPa) = 48.11009 114.31092 105.11195
#
# Poissons Ratio (x) = 0.39520 0.16099
# Poissons Ratio (y) = 0.16633 0.24977
# Poissons Ratio (z) = 0.07369 0.27163
#
# Static dielectric constant tensor:
#      x y z
#    x 1.945140 0.000000 -0.007580 
#    y 0.000000 1.876310 0.000000 
#    z -0.007580 0.000000 1.817160 
# 
# From -- ./inp_files/65888.got.cif
#   From: 2010.05.17/outbox.cif.g08.bks.cpg/sg14_33_cif.got.tgz:65888.got - 2010.06.03 17:49:19.
