data_PCOD9242042
_publ_section_title
;
Structure prediction by ZEFSAII (Michael W. Deem and Ramdas Pophale) SiO2 
 PCOD9242042
Probable space group: P 21/C
;
_chemical_formula_sum "Si O2"
_cell_formula_units_Z 32
_cell_length_a 10.411160
_cell_length_b 8.996022
_cell_length_c 17.967301
_cell_angle_alpha 90.000000
_cell_angle_beta 125.135444
_cell_angle_gamma 90.000000
_cell_volume 1376.183402
_symmetry_space_group_name_H-M "P 21/C"
_symmetry_group_IT_number 14
_symmetry_cell_setting 'monoclinic'
loop_
_space_group_symop_operation_xyz
x,y,z
-x,1/2+y,1/2-z
-x,-y,-z
x,1/2-y,1/2+z
loop_
_atom_site_type_symbol
_atom_site_label
_atom_site_fract_x
_atom_site_fract_y
_atom_site_fract_z
Si Si1 0.938979 0.188783 0.822838
Si Si2 0.329659 0.134397 0.698708
Si Si3 0.513734 0.258059 0.536855
Si Si4 0.668590 0.958524 0.139711
Si Si5 0.199292 0.666568 0.965066
Si Si6 0.197674 0.166207 0.504558
Si Si7 0.657331 0.294887 0.830676
Si Si8 0.974250 0.114611 0.188269
O O1 0.784622 0.249772 0.811714
O O2 0.985524 0.290947 0.767581
O O3 0.905431 0.017767 0.788267
O O4 0.080888 0.217024 0.928002
O O5 0.272491 0.109928 0.763738
O O6 0.215887 0.198117 0.597968
O O7 0.492080 0.219929 0.760762
O O8 0.365267 0.970626 0.680030
O O9 0.433369 0.341688 0.440212
O O10 0.567381 0.389724 0.610990
O O11 0.664363 0.171256 0.553920
O O12 0.373893 0.170758 0.529492
O O13 0.817014 0.014582 0.143369
O O14 0.061106 0.768478 0.887721
O O15 0.141517 0.501227 0.966501
O O16 0.273388 0.737053 0.064273
#
# Coordination Sequence:
#
# PCOD9242042 Si02
#       8
#     4   4   4   4   4   4   4   4
#     4  12  26  47  67  99 137 180 225 276 341 402
#     4  11  23  43  67 100 134 179 222 277 335 397
#     4  10  19  38  69  95 131 173 230 286 329 389
#     4  10  19  39  70  93 126 180 228 278 336 386
#     4  10  23  41  67  99 133 174 226 279 329 402
#     4  11  24  40  65  99 137 176 222 274 342 400
#     4  11  25  45  68 100 138 173 223 276 339 402
#     4  11  24  46  69  93 133 179 226 280 332 405
#
# _framework density 23.252714000000001
#
# number of rings (size 3 to 8) (size 9 to 14) (size 15 to 20)
#    0.000    1.250    3.750    1.875    1.750    3.500 
#    9.000    0.000    0.000    0.000    0.000    0.000 
#    0.000    0.000    0.000    0.000    0.000    0.000 
#
# Total GULP energy -179024.189008 kJ/mol
# GULP energy per Si atom -5594.505907 kJ/mol
# Density = 2.319979 g / cm^3
# Si number density = 23.252714 Si / 1000 Ang^3
#
#
#
# Elastic Constant Matrix: (Units=GPa)
#
#
# Indices 1 2 3 4 5 6 
#
# 1 59.9150 19.7632 6.1000 0.0000 -10.5479 0.0000
# 2 19.7632 41.6368 28.5595 0.0000 -9.2211 0.0000
# 3 6.1000 28.5595 113.7295 0.0000 -21.3267 0.0000
# 4 0.0000 0.0000 0.0000 34.4362 0.0000 1.3911
# 5 -10.5479 -9.2211 -21.3267 0.0000 21.5902 0.0000
# 6 0.0000 0.0000 0.0000 1.3911 0.0000 12.5250
#
#
#
# Elastic Compliance Matrix: (Units=1/GPa)
#
#
# Indices 1 2 3 4 5 6 
#
# 1 0.021373 -0.010278 0.003154 0.000000 0.009168 0.000000
# 2 -0.010278 0.034691 -0.007761 0.000000 0.002129 0.000000
# 3 0.003154 -0.007761 0.012568 0.000000 0.010641 0.000000
# 4 0.000000 0.000000 0.000000 0.029170 0.000000 -0.003240
# 5 0.009168 0.002129 0.010641 0.000000 0.062216 0.000000
# 6 0.000000 0.000000 0.000000 -0.003240 0.000000 0.080200
#
#
# Mechanical properties :
#
#
# Convention : Reuss Voigt Hill
#
# Bulk Modulus (GPa) = 25.73248 36.01407 30.87328
# Shear Modulus (GPa) = 17.67145 24.43418 21.05282
#
# Velocity S-wave (km/s) = 2.75975 3.24514 3.01224
# Velocity P-wave (km/s) = 4.60928 5.43718 5.04026
#
# Compressibility (1/GPa) = 0.03886139
#
# Stress axis : x y z
#
# Youngs Moduli (GPa) = 46.78717 28.82632 79.56776
#
# Poissons Ratio (x) = 0.29627 -0.25093
# Poissons Ratio (y) = 0.48087 0.61752
# Poissons Ratio (z) = -0.14755 0.22372
#
# Static dielectric constant tensor:
#      x y z
#    x 1.897310 0.000000 -0.014020 
#    y 0.000000 1.914650 0.000000 
#    z -0.014020 0.000000 1.900230 
# 
# From -- ./inp_files/57301.got.cif
#   From: 2010.05.17/outbox.cif.g08.bks.cpg/sg14_29_cif.got.tgz:57301.got - 2010.06.03 17:49:19.
