data_PCOD9242529
_publ_section_title
;
Structure prediction by ZEFSAII (Michael W. Deem and Ramdas Pophale) SiO2 
 PCOD9242529
Probable space group: P 21/C
;
_chemical_formula_sum "Si O2"
_cell_formula_units_Z 32
_cell_length_a 10.078676
_cell_length_b 22.455404
_cell_length_c 8.670816
_cell_angle_alpha 90.000000
_cell_angle_beta 116.220823
_cell_angle_gamma 90.000000
_cell_volume 1760.451826
_symmetry_space_group_name_H-M "P 21/C"
_symmetry_group_IT_number 14
_symmetry_cell_setting 'monoclinic'
loop_
_space_group_symop_operation_xyz
x,y,z
-x,1/2+y,1/2-z
-x,-y,-z
x,1/2-y,1/2+z
loop_
_atom_site_type_symbol
_atom_site_label
_atom_site_fract_x
_atom_site_fract_y
_atom_site_fract_z
Si Si1 0.368919 0.649509 0.073207
Si Si2 0.767349 0.329062 0.504223
Si Si3 0.381993 0.243539 0.214637
Si Si4 0.670249 0.069052 0.150255
Si Si5 0.124489 0.717037 0.765272
Si Si6 0.522147 0.858442 0.344056
Si Si7 0.660776 0.932629 0.164892
Si Si8 0.208632 0.315611 0.384056
O O1 0.469526 0.705439 0.181337
O O2 0.338215 0.604358 0.194035
O O3 0.218513 0.673865 0.923139
O O4 0.454986 0.621702 0.971103
O O5 0.777161 0.393705 0.590312
O O6 0.801351 0.281108 0.656884
O O7 0.858208 0.305166 0.402784
O O8 0.605194 0.336875 0.342438
O O9 0.398246 0.295377 0.093909
O O10 0.318614 0.282231 0.322260
O O11 0.264568 0.197437 0.085079
O O12 0.713641 0.000325 0.189144
O O13 0.499836 0.069764 0.001684
O O14 0.953425 0.711311 0.719422
O O15 0.623043 0.907477 0.315494
O O16 0.771180 0.885246 0.144026
#
# Coordination Sequence:
#
# PCOD9242529 Si02
#       8
#     4   4   4   4   4   4   4   4
#     4  11  20  33  58  83 108 148 189 228 276 334
#     4  10  20  34  54  81 112 146 187 227 275 343
#     4  11  19  33  54  82 111 141 179 227 285 329
#     4  10  20  36  59  81 109 155 195 229 272 334
#     4  11  22  35  55  85 115 142 182 235 291 333
#     4   9  19  32  55  85 111 141 186 235 274 331
#     4   9  20  37  56  82 116 150 188 232 282 329
#     4  11  22  36  56  84 118 143 179 236 289 333
#
# _framework density 18.177153000000001
#
# number of rings (size 3 to 8) (size 9 to 14) (size 15 to 20)
#    0.000    1.750    3.750    1.500    1.750    0.500 
#    0.000    1.250    0.000    0.000    0.000    0.000 
#    0.000    0.000    0.000    0.000    0.000    0.000 
#
# Total GULP energy -178155.131729 kJ/mol
# GULP energy per Si atom -5567.347867 kJ/mol
# Density = 1.813578 g / cm^3
# Si number density = 18.177153 Si / 1000 Ang^3
#
#
#
# Elastic Constant Matrix: (Units=GPa)
#
#
# Indices 1 2 3 4 5 6 
#
# 1 38.9829 23.5882 12.0765 0.0000 -7.2741 0.0000
# 2 23.5882 134.2367 38.0785 0.0000 -23.4067 0.0000
# 3 12.0765 38.0785 58.5274 0.0000 -9.5855 0.0000
# 4 0.0000 0.0000 0.0000 18.3098 0.0000 -6.9810
# 5 -7.2741 -23.4067 -9.5855 0.0000 16.7567 0.0000
# 6 0.0000 0.0000 0.0000 -6.9810 0.0000 15.1298
#
#
#
# Elastic Compliance Matrix: (Units=1/GPa)
#
#
# Indices 1 2 3 4 5 6 
#
# 1 0.029771 -0.003221 -0.002943 0.000000 0.006740 0.000000
# 2 -0.003221 0.011453 -0.004850 0.000000 0.011826 0.000000
# 3 -0.002943 -0.004850 0.021549 0.000000 0.004274 0.000000
# 4 0.000000 0.000000 0.000000 0.066275 0.000000 0.030580
# 5 0.006740 0.011826 0.004274 0.000000 0.081568 0.000000
# 6 0.000000 0.000000 0.000000 0.030580 0.000000 0.080204
#
#
# Mechanical properties :
#
#
# Convention : Reuss Voigt Hill
#
# Bulk Modulus (GPa) = 24.54350 42.13704 33.34027
# Shear Modulus (GPa) = 15.31719 20.57285 17.94502
#
# Velocity S-wave (km/s) = 2.90601 3.36787 3.14543
# Velocity P-wave (km/s) = 4.97911 6.19314 5.61901
#
# Compressibility (1/GPa) = 0.04074399
#
# Stress axis : x y z
#
# Youngs Moduli (GPa) = 33.58982 87.30962 46.40596
#
# Poissons Ratio (x) = 0.28124 0.13659
# Poissons Ratio (y) = 0.10820 0.22508
# Poissons Ratio (z) = 0.09886 0.42347
#
# Static dielectric constant tensor:
#      x y z
#    x 1.628970 0.000000 -0.029160 
#    y 0.000000 1.638620 0.000000 
#    z -0.029160 0.000000 1.666730 
# 
# From -- ./inp_files/10220.got.cif
#   From: 2010.05.17/outbox.cif.g08.bks.cpg/sg14_6_cif.got.tgz:10220.got - 2010.06.03 17:49:19.
