data_PCOD9242817
_publ_section_title
;
Structure prediction by ZEFSAII (Michael W. Deem and Ramdas Pophale) SiO2 
 PCOD9242817
Probable space group: P 21/C
;
_chemical_formula_sum "Si O2"
_cell_formula_units_Z 32
_cell_length_a 14.288962
_cell_length_b 8.020652
_cell_length_c 24.579748
_cell_angle_alpha 90.000000
_cell_angle_beta 28.269211
_cell_angle_gamma 90.000000
_cell_volume 1334.176321
_symmetry_space_group_name_H-M "P 21/C"
_symmetry_group_IT_number 14
_symmetry_cell_setting 'monoclinic'
loop_
_space_group_symop_operation_xyz
x,y,z
-x,1/2+y,1/2-z
-x,-y,-z
x,1/2-y,1/2+z
loop_
_atom_site_type_symbol
_atom_site_label
_atom_site_fract_x
_atom_site_fract_y
_atom_site_fract_z
Si Si1 0.458957 0.546657 0.436641
Si Si2 0.228762 0.339888 0.245630
Si Si3 0.689997 0.863167 0.078451
Si Si4 0.755822 0.346380 0.342315
Si Si5 0.070068 0.866591 0.667117
Si Si6 0.916294 0.765420 0.061396
Si Si7 0.682804 0.419979 0.156597
Si Si8 0.402998 0.488340 0.919433
O O1 0.614279 0.687283 0.340303
O O2 0.309115 0.509798 0.465239
O O3 0.587554 0.379754 0.383879
O O4 0.347548 0.594944 0.548474
O O5 0.063369 0.288233 0.286213
O O6 0.131027 0.333322 0.355003
O O7 0.377980 0.497421 0.166861
O O8 0.849634 0.874306 0.044146
O O9 0.479061 0.869418 0.216825
O O10 0.695882 0.690579 0.042088
O O11 0.929638 0.473496 0.239022
O O12 0.850265 0.173754 0.313302
O O13 0.250520 0.908777 0.534657
O O14 0.783344 0.595846 0.121736
O O15 0.141182 0.710815 0.939062
O O16 0.583324 0.436283 0.148424
#
# Coordination Sequence:
#
# PCOD9242817 Si02
#       8
#     4   4   4   4   4   4   4   4
#     4  10  22  43  65  85 121 171 211 252 313 376
#     4  11  20  40  65  88 122 169 202 245 319 375
#     4  11  23  37  63  96 128 161 205 258 306 373
#     4  10  24  43  66  89 118 166 219 261 313 367
#     4  11  24  43  66  91 122 163 211 268 313 373
#     4  10  20  35  62  90 124 166 203 238 300 382
#     4  10  20  38  59  90 127 167 201 241 300 378
#     4  11  23  39  62  94 129 162 204 262 314 364
#
# _framework density 23.984833999999999
#
# number of rings (size 3 to 8) (size 9 to 14) (size 15 to 20)
#    0.000    1.500    5.000    0.000    1.750    1.000 
#    2.250    1.875    0.000    0.000    0.000    0.000 
#    0.000    0.000    0.000    0.000    0.000    0.000 
#
# Total GULP energy -179007.515699 kJ/mol
# GULP energy per Si atom -5593.984866 kJ/mol
# Density = 2.393024 g / cm^3
# Si number density = 23.984834 Si / 1000 Ang^3
#
#
#
# Elastic Constant Matrix: (Units=GPa)
#
#
# Indices 1 2 3 4 5 6 
#
# 1 104.1712 6.4485 8.7331 0.0000 -5.3636 0.0000
# 2 6.4485 38.7578 16.5770 0.0000 4.8741 0.0000
# 3 8.7331 16.5770 71.5984 0.0000 0.6952 0.0000
# 4 0.0000 0.0000 0.0000 18.4927 0.0000 1.1171
# 5 -5.3636 4.8741 0.6952 0.0000 20.5294 0.0000
# 6 0.0000 0.0000 0.0000 1.1171 0.0000 41.5025
#
#
#
# Elastic Compliance Matrix: (Units=1/GPa)
#
#
# Indices 1 2 3 4 5 6 
#
# 1 0.009930 -0.001666 -0.000855 0.000000 0.003019 0.000000
# 2 -0.001666 0.029833 -0.006633 0.000000 -0.007294 0.000000
# 3 -0.000855 -0.006633 0.015599 0.000000 0.000823 0.000000
# 4 0.000000 0.000000 0.000000 0.054164 0.000000 -0.001458
# 5 0.003019 -0.007294 0.000823 0.000000 0.051203 0.000000
# 6 0.000000 0.000000 0.000000 -0.001458 0.000000 0.024134
#
#
# Mechanical properties :
#
#
# Convention : Reuss Voigt Hill
#
# Bulk Modulus (GPa) = 26.98810 30.89385 28.94097
# Shear Modulus (GPa) = 23.19957 28.28950 25.74454
#
# Velocity S-wave (km/s) = 3.11345 3.43807 3.27978
# Velocity P-wave (km/s) = 4.91949 5.35434 5.14152
#
# Compressibility (1/GPa) = 0.03705337
#
# Stress axis : x y z
#
# Youngs Moduli (GPa) = 100.70683 33.52030 64.10753
#
# Poissons Ratio (x) = 0.05585 0.05479
# Poissons Ratio (y) = 0.16780 0.42523
# Poissons Ratio (z) = 0.08608 0.22234
#
# Static dielectric constant tensor:
#      x y z
#    x 1.902830 0.000000 -0.038560 
#    y 0.000000 1.995300 0.000000 
#    z -0.038560 0.000000 1.827520 
# 
# From -- ./inp_files/46302.got.cif
#   From: 2010.05.17/outbox.cif.g08.bks.cpg/sg14_24_cif.got.tgz:46302.got - 2010.06.03 17:49:19.
