data_PCOD9242508
_publ_section_title
;
Structure prediction by ZEFSAII (Michael W. Deem and Ramdas Pophale) SiO2 
 PCOD9242508
Probable space group: P 21/C
;
_chemical_formula_sum "Si O2"
_cell_formula_units_Z 32
_cell_length_a 15.202150
_cell_length_b 11.033265
_cell_length_c 21.968425
_cell_angle_alpha 90.000000
_cell_angle_beta 150.702828
_cell_angle_gamma 90.000000
_cell_volume 1803.093204
_symmetry_space_group_name_H-M "P 21/C"
_symmetry_group_IT_number 14
_symmetry_cell_setting 'monoclinic'
loop_
_space_group_symop_operation_xyz
x,y,z
-x,1/2+y,1/2-z
-x,-y,-z
x,1/2-y,1/2+z
loop_
_atom_site_type_symbol
_atom_site_label
_atom_site_fract_x
_atom_site_fract_y
_atom_site_fract_z
Si Si1 0.431256 0.082133 0.791909
Si Si2 0.831037 0.062047 0.278273
Si Si3 0.337369 0.036377 0.486581
Si Si4 0.360971 0.750535 0.997269
Si Si5 0.466930 0.756721 0.929786
Si Si6 0.058588 0.561201 0.293267
Si Si7 0.729073 0.613045 0.494100
Si Si8 0.780643 0.858226 0.457966
O O1 0.535227 0.196294 0.882760
O O2 0.328666 0.117561 0.669002
O O3 0.290960 0.030033 0.757164
O O4 0.584523 0.978639 0.877047
O O5 0.719068 0.187613 0.206564
O O6 0.872491 0.024407 0.233221
O O7 0.019650 0.087457 0.424346
O O8 0.502495 0.113801 0.559979
O O9 0.315058 0.074663 0.543310
O O10 0.154167 0.076516 0.341667
O O11 0.348952 0.892924 0.489792
O O12 0.468994 0.789372 0.001850
O O13 0.167251 0.816095 0.874884
O O14 0.621584 0.820970 0.984081
O O15 0.116127 0.463848 0.378906
O O16 0.789681 0.717475 0.484362
#
# Coordination Sequence:
#
# PCOD9242508 Si02
#       8
#     4   4   4   4   4   4   4   4
#     4  10  20  35  55  77 105 141 181 213 252 315
#     4   9  18  35  56  79 102 137 180 218 256 312
#     4  10  21  32  54  82 107 137 169 218 268 314
#     4  10  20  34  53  80 106 138 170 218 264 313
#     4   9  18  33  54  78 104 133 171 214 271 309
#     4   9  19  33  55  80 107 130 175 221 267 306
#     4   9  19  34  54  78 103 139 169 223 266 306
#     4  10  21  34  55  76 106 143 176 213 258 310
#
# _framework density 17.747278999999999
#
# number of rings (size 3 to 8) (size 9 to 14) (size 15 to 20)
#    0.000    2.500    0.000    1.500    8.750    3.000 
#    0.000    0.000    0.000    0.750    0.000    0.000 
#    0.000    0.000    0.000    0.000    0.000    0.000 
#
# Total GULP energy -178416.247168 kJ/mol
# GULP energy per Si atom -5575.507724 kJ/mol
# Density = 1.770689 g / cm^3
# Si number density = 17.747279 Si / 1000 Ang^3
#
#
#
# Elastic Constant Matrix: (Units=GPa)
#
#
# Indices 1 2 3 4 5 6 
#
# 1 30.0086 15.8670 31.8774 0.0000 -6.1686 0.0000
# 2 15.8670 89.1276 41.6059 0.0000 -13.2034 0.0000
# 3 31.8774 41.6059 118.4105 0.0000 -25.5524 0.0000
# 4 0.0000 0.0000 0.0000 12.6955 0.0000 -1.4387
# 5 -6.1686 -13.2034 -25.5524 0.0000 23.6294 0.0000
# 6 0.0000 0.0000 0.0000 -1.4387 0.0000 19.6864
#
#
#
# Elastic Compliance Matrix: (Units=1/GPa)
#
#
# Indices 1 2 3 4 5 6 
#
# 1 0.047435 -0.003117 -0.012233 0.000000 -0.002587 0.000000
# 2 -0.003117 0.013806 -0.003291 0.000000 0.003342 0.000000
# 3 -0.012233 -0.003291 0.015403 0.000000 0.011625 0.000000
# 4 0.000000 0.000000 0.000000 0.079426 0.000000 0.005804
# 5 -0.002587 0.003342 0.011625 0.000000 0.056083 0.000000
# 6 0.000000 0.000000 0.000000 0.005804 0.000000 0.051221
#
#
# Mechanical properties :
#
#
# Convention : Reuss Voigt Hill
#
# Bulk Modulus (GPa) = 25.40497 46.24969 35.82733
# Shear Modulus (GPa) = 15.93490 21.08201 18.50845
#
# Velocity S-wave (km/s) = 2.99971 3.45033 3.23288
# Velocity P-wave (km/s) = 5.13260 6.47995 5.84523
#
# Compressibility (1/GPa) = 0.03936238
#
# Stress axis : x y z
#
# Youngs Moduli (GPa) = 21.08145 72.43200 64.92174
#
# Poissons Ratio (x) = 0.22580 0.79419
# Poissons Ratio (y) = 0.06572 0.21363
# Poissons Ratio (z) = 0.25789 0.23834
#
# Static dielectric constant tensor:
#      x y z
#    x 1.603530 0.000000 0.010520 
#    y 0.000000 1.624190 0.000000 
#    z 0.010520 0.000000 1.582340 
# 
# From -- ./inp_files/68497.got.cif
#   From: 2010.05.17/outbox.cif.g08.bks.cpg/sg14_35_cif.got.tgz:68497.got - 2010.06.03 17:49:19.
