data_PCOD9242763
_publ_section_title
;
Structure prediction by ZEFSAII (Michael W. Deem and Ramdas Pophale) SiO2 
 PCOD9242763
Probable space group: P 21/C
;
_chemical_formula_sum "Si O2"
_cell_formula_units_Z 28
_cell_length_a 18.173792
_cell_length_b 13.852081
_cell_length_c 14.529060
_cell_angle_alpha 90.000000
_cell_angle_beta 159.913387
_cell_angle_gamma 90.000000
_cell_volume 1256.172576
_symmetry_space_group_name_H-M "P 21/C"
_symmetry_group_IT_number 14
_symmetry_cell_setting 'monoclinic'
loop_
_space_group_symop_operation_xyz
x,y,z
-x,1/2+y,1/2-z
-x,-y,-z
x,1/2-y,1/2+z
loop_
_atom_site_type_symbol
_atom_site_label
_atom_site_fract_x
_atom_site_fract_y
_atom_site_fract_z
Si Si1 0.968182 0.614980 0.120361
Si Si2 0.941922 0.630166 0.294886
Si Si3 0.762593 0.454837 0.705831
Si Si4 0.330980 0.574002 0.213125
Si Si5 0.191446 0.287489 0.680525
Si Si6 0.585719 0.395573 0.070449
Si Si7 0.797740 0.407868 0.133801
O O1 0.955835 0.662506 0.205925
O O2 0.203422 0.592817 0.354543
O O3 0.828851 0.518364 0.969540
O O4 0.864217 0.683353 0.922562
O O5 0.827588 0.700601 0.232457
O O6 0.834086 0.523800 0.175051
O O7 0.182145 0.617277 0.613080
O O8 0.569486 0.531555 0.479627
O O9 0.704701 0.385777 0.725110
O O10 0.000000 0.500000 0.000000
O O11 0.263297 0.627090 0.040341
O O12 0.421378 0.318897 0.916262
O O13 0.014709 0.358594 0.426122
O O14 0.500000 0.500000 0.000000
O O15 0.616779 0.388033 0.997231
#
# Coordination Sequence:
#
# PCOD9242763 Si02
#       7
#     4   4   4   4   4   4   4
#     4  10  23  37  58  83 121 159 184 239 303 350
#     4  10  21  38  57  86 113 152 198 241 289 352
#     4   9  19  38  59  81 112 153 195 234 282 339
#     4   9  20  37  61  87 111 152 204 236 282 361
#     4  11  22  38  55  88 123 147 194 244 296 352
#     4  11  19  34  63  86 108 150 195 248 295 336
#     4  10  20  35  59  87 112 143 199 246 287 354
#
# _framework density 22.289932
#
# number of rings (size 3 to 8) (size 9 to 14) (size 15 to 20)
#    0.000    2.000    2.857    0.857    2.000    4.571 
#    0.000    5.714    0.000    0.000    0.000    0.000 
#    0.000    0.000    0.000    0.000    0.000    0.000 
#
# Total GULP energy -156326.582562 kJ/mol
# GULP energy per Si atom -5583.092234 kJ/mol
# Density = 2.223920 g / cm^3
# Si number density = 22.289932 Si / 1000 Ang^3
#
#
#
# Elastic Constant Matrix: (Units=GPa)
#
#
# Indices 1 2 3 4 5 6 
#
# 1 214.9016 26.7835 51.8797 0.0000 12.8301 0.0000
# 2 26.7835 33.8645 -11.7823 0.0000 6.6135 0.0000
# 3 51.8797 -11.7823 53.7049 0.0000 21.7270 0.0000
# 4 0.0000 0.0000 0.0000 20.3857 0.0000 -1.3271
# 5 12.8301 6.6135 21.7270 0.0000 40.7780 0.0000
# 6 0.0000 0.0000 0.0000 -1.3271 0.0000 11.1046
#
#
#
# Elastic Compliance Matrix: (Units=1/GPa)
#
#
# Indices 1 2 3 4 5 6 
#
# 1 0.009924 -0.014966 -0.016048 0.000000 0.007856 0.000000
# 2 -0.014966 0.059294 0.037545 0.000000 -0.024912 0.000000
# 3 -0.016048 0.037545 0.054536 0.000000 -0.030097 0.000000
# 4 0.000000 0.000000 0.000000 0.049439 0.000000 0.005909
# 5 0.007856 -0.024912 -0.030097 0.000000 0.042128 0.000000
# 6 0.000000 0.000000 0.000000 0.005909 0.000000 0.090759
#
#
# Mechanical properties :
#
#
# Convention : Reuss Voigt Hill
#
# Bulk Modulus (GPa) = 7.30912 48.47030 27.88971
# Shear Modulus (GPa) = 14.76564 30.15969 22.46266
#
# Velocity S-wave (km/s) = 2.57657 3.68239 3.17795
# Velocity P-wave (km/s) = 3.48395 6.31447 5.09953
#
# Compressibility (1/GPa) = 0.13681534
#
# Stress axis : x y z
#
# Youngs Moduli (GPa) = 100.76813 16.86498 18.33642
#
# Poissons Ratio (x) = 0.25241 0.29426
# Poissons Ratio (y) = 1.50814 -0.68844
# Poissons Ratio (z) = 1.61713 -0.63319
#
# Static dielectric constant tensor:
#      x y z
#    x 1.927080 0.000000 -0.037640 
#    y 0.000000 1.974030 0.000000 
#    z -0.037640 0.000000 1.808230 
# 
# From -- ./inp_files/49253.got.cif
#   From: 2010.05.17/outbox.cif.g08.bks.cpg/sg14_25_cif.got.tgz:49253.got - 2010.06.03 17:49:19.
