data_PCOD9242329
_publ_section_title
;
Structure prediction by ZEFSAII (Michael W. Deem and Ramdas Pophale) SiO2 
 PCOD9242329
Probable space group: P 21/C
;
_chemical_formula_sum "Si O2"
_cell_formula_units_Z 30
_cell_length_a 5.382967
_cell_length_b 12.486506
_cell_length_c 17.257628
_cell_angle_alpha 90.000000
_cell_angle_beta 76.374838
_cell_angle_gamma 90.000000
_cell_volume 1127.317905
_symmetry_space_group_name_H-M "P 21/C"
_symmetry_group_IT_number 14
_symmetry_cell_setting 'monoclinic'
loop_
_space_group_symop_operation_xyz
x,y,z
-x,1/2+y,1/2-z
-x,-y,-z
x,1/2-y,1/2+z
loop_
_atom_site_type_symbol
_atom_site_label
_atom_site_fract_x
_atom_site_fract_y
_atom_site_fract_z
Si Si1 0.500000 0.000000 0.500000
Si Si2 0.358480 0.511320 0.656870
Si Si3 0.128542 0.708999 0.379734
Si Si4 0.182994 0.017921 0.790291
Si Si5 0.321634 0.706690 0.112036
Si Si6 0.948212 0.565793 0.869732
Si Si7 0.765123 0.630284 0.184576
Si Si8 0.445072 0.336091 0.534696
O O1 0.518241 0.814549 0.667594
O O2 0.746808 0.927170 0.452911
O O3 0.578170 0.571483 0.686450
O O4 0.284047 0.415480 0.725495
O O5 0.457150 0.452991 0.573592
O O6 0.087793 0.565844 0.666465
O O7 0.073150 0.820239 0.341650
O O8 0.858893 0.687136 0.444142
O O9 0.175419 0.603112 0.325243
O O10 0.372660 0.726430 0.417045
O O11 0.196091 0.026288 0.697282
O O12 0.424865 0.808389 0.055954
O O13 0.364509 0.605335 0.050961
O O14 0.024827 0.698135 0.158294
O O15 0.172885 0.479687 0.868444
#
# Coordination Sequence:
#
# PCOD9242329 Si02
#       8
#     2   4   4   4   4   4   4   4
#     4  10  20  28  46  70 104 140 162 194 252 328
#     4   9  17  34  50  64  94 141 177 215 255 296
#     4  10  20  33  51  69  99 139 179 214 257 305
#     4   9  19  33  49  70  94 136 176 219 252 301
#     4  11  21  31  44  72 104 135 177 201 252 317
#     4  10  20  33  51  73 107 143 176 208 264 315
#     4  10  21  31  47  69 100 140 172 208 254 313
#     4  10  20  33  48  70  99 142 178 214 250 312
#
# _framework density 26.611837000000001
#
# number of rings (size 3 to 8) (size 9 to 14) (size 15 to 20)
#    0.000    2.133    1.333    3.200    1.867    3.200 
#    0.000    0.000    0.000    0.000    0.000    0.000 
#    0.000    1.067    2.933  358.000    0.000    0.000 
#
# Total GULP energy -167402.057721 kJ/mol
# GULP energy per Si atom -5580.068591 kJ/mol
# Density = 2.655127 g / cm^3
# Si number density = 26.611837 Si / 1000 Ang^3
#
#
#
# Elastic Constant Matrix: (Units=GPa)
#
#
# Indices 1 2 3 4 5 6 
#
# 1 180.2264 12.0408 32.4459 0.0000 -29.6691 0.0000
# 2 12.0408 98.6509 16.7894 0.0000 -0.8562 0.0000
# 3 32.4459 16.7894 119.9449 0.0000 -23.1187 0.0000
# 4 0.0000 0.0000 0.0000 39.9181 0.0000 -1.0146
# 5 -29.6691 -0.8562 -23.1187 0.0000 32.1764 0.0000
# 6 0.0000 0.0000 0.0000 -1.0146 0.0000 9.1294
#
#
#
# Elastic Compliance Matrix: (Units=1/GPa)
#
#
# Indices 1 2 3 4 5 6 
#
# 1 0.006634 -0.000657 -0.000612 0.000000 0.005660 0.000000
# 2 -0.000657 0.010471 -0.001568 0.000000 -0.001454 0.000000
# 3 -0.000612 -0.001568 0.009989 0.000000 0.006571 0.000000
# 4 0.000000 0.000000 0.000000 0.025122 0.000000 0.002792
# 5 0.005660 -0.001454 0.006571 0.000000 0.040981 0.000000
# 6 0.000000 0.000000 0.000000 0.002792 0.000000 0.109846
#
#
# Mechanical properties :
#
#
# Convention : Reuss Voigt Hill
#
# Bulk Modulus (GPa) = 46.68276 57.93050 52.30663
# Shear Modulus (GPa) = 23.16351 38.74786 30.95568
#
# Velocity S-wave (km/s) = 2.95349 3.81995 3.41432
# Velocity P-wave (km/s) = 5.40472 6.42432 5.93645
#
# Compressibility (1/GPa) = 0.02142118
#
# Stress axis : x y z
#
# Youngs Moduli (GPa) = 150.72966 95.50025 100.11321
#
# Poissons Ratio (x) = 0.06270 0.06124
# Poissons Ratio (y) = 0.09896 0.15701
# Poissons Ratio (z) = 0.09221 0.14977
#
# Static dielectric constant tensor:
#      x y z
#    x 2.100520 0.000000 0.040600 
#    y 0.000000 2.210680 0.000000 
#    z 0.040600 0.000000 2.121110 
# 
# From -- ./inp_files/38224.got.cif
#   From: 2010.05.17/outbox.cif.g08.bks.cpg/sg14_20_cif.got.tgz:38224.got - 2010.06.03 17:49:19.
