data_PCOD9242958
_publ_section_title
;
Structure prediction by ZEFSAII (Michael W. Deem and Ramdas Pophale) SiO2 
 PCOD9242958
Probable space group: P 21/C
;
_chemical_formula_sum "Si O2"
_cell_formula_units_Z 30
_cell_length_a 11.334503
_cell_length_b 5.124297
_cell_length_c 22.553135
_cell_angle_alpha 90.000000
_cell_angle_beta 63.821196
_cell_angle_gamma 90.000000
_cell_volume 1175.547634
_symmetry_space_group_name_H-M "P 21/C"
_symmetry_group_IT_number 14
_symmetry_cell_setting 'monoclinic'
loop_
_space_group_symop_operation_xyz
x,y,z
-x,1/2+y,1/2-z
-x,-y,-z
x,1/2-y,1/2+z
loop_
_atom_site_type_symbol
_atom_site_label
_atom_site_fract_x
_atom_site_fract_y
_atom_site_fract_z
Si Si1 0.857262 0.352049 0.625173
Si Si2 0.061900 0.696092 0.263776
Si Si3 0.500000 0.500000 0.000000
Si Si4 0.426592 0.597054 0.250747
Si Si5 0.786817 0.707601 0.934526
Si Si6 0.821123 0.661747 0.059359
Si Si7 0.475401 0.445904 0.894729
Si Si8 0.742364 0.281256 0.372318
O O1 0.942299 0.286255 0.664451
O O2 0.712439 0.392104 0.686337
O O3 0.886688 0.622357 0.586202
O O4 0.852288 0.121719 0.578491
O O5 0.205550 0.773789 0.206232
O O6 0.030228 0.402790 0.249835
O O7 0.368034 0.326294 0.017589
O O8 0.544893 0.326784 0.053188
O O9 0.519325 0.392176 0.264809
O O10 0.440355 0.481593 0.181335
O O11 0.815814 0.446263 0.891678
O O12 0.786695 0.955243 0.892473
O O13 0.855184 0.712132 0.983159
O O14 0.660586 0.673228 0.097619
O O15 0.586594 0.295196 0.912119
#
# Coordination Sequence:
#
# PCOD9242958 Si02
#       8
#     4   4   2   4   4   4   4   4
#     4  12  23  42  63  93 125 168 205 260 327 378
#     4  12  27  47  71  95 121 160 216 282 335 376
#     4   8  20  34  54  88 132 176 210 236 280 362
#     4  12  22  36  57  92 130 169 202 247 307 379
#     4  10  22  39  61  95 131 178 213 250 305 370
#     4  11  23  38  65  95 137 168 204 246 302 391
#     4  10  20  36  58  94 132 172 205 244 297 372
#     4  11  23  41  66  92 131 171 218 263 313 374
#
# _framework density 25.520021
#
# number of rings (size 3 to 8) (size 9 to 14) (size 15 to 20)
#    0.000    1.067    4.000    2.400    0.000   10.133 
#    0.000    0.000    0.000   16.000    0.000    0.000 
#    0.000    0.000    0.000    0.000    0.000    0.000 
#
# Total GULP energy -167368.749293 kJ/mol
# GULP energy per Si atom -5578.958310 kJ/mol
# Density = 2.546194 g / cm^3
# Si number density = 25.520021 Si / 1000 Ang^3
#
#
#
# Elastic Constant Matrix: (Units=GPa)
#
#
# Indices 1 2 3 4 5 6 
#
# 1 83.8701 -3.9213 1.4673 0.0000 0.4302 0.0000
# 2 -3.9213 105.9863 8.1961 0.0000 12.7558 0.0000
# 3 1.4673 8.1961 108.2333 0.0000 28.3424 0.0000
# 4 0.0000 0.0000 0.0000 34.4715 0.0000 5.7552
# 5 0.4302 12.7558 28.3424 0.0000 37.6569 0.0000
# 6 0.0000 0.0000 0.0000 5.7552 0.0000 17.5946
#
#
#
# Elastic Compliance Matrix: (Units=1/GPa)
#
#
# Indices 1 2 3 4 5 6 
#
# 1 0.011949 0.000476 -0.000150 0.000000 -0.000185 0.000000
# 2 0.000476 0.009857 0.000153 0.000000 -0.003460 0.000000
# 3 -0.000150 0.000153 0.011512 0.000000 -0.008714 0.000000
# 4 0.000000 0.000000 0.000000 0.030685 0.000000 -0.010037
# 5 -0.000185 -0.003460 -0.008714 0.000000 0.034288 0.000000
# 6 0.000000 0.000000 0.000000 -0.010037 0.000000 0.060119
#
#
# Mechanical properties :
#
#
# Convention : Reuss Voigt Hill
#
# Bulk Modulus (GPa) = 29.17407 34.39710 31.78558
# Shear Modulus (GPa) = 29.60729 37.43446 33.52087
#
# Velocity S-wave (km/s) = 3.40981 3.83412 3.62817
# Velocity P-wave (km/s) = 5.19221 5.75399 5.48030
#
# Compressibility (1/GPa) = 0.03427701
#
# Stress axis : x y z
#
# Youngs Moduli (GPa) = 83.68885 101.44732 86.86792
#
# Poissons Ratio (x) = -0.04828 0.01299
# Poissons Ratio (y) = -0.03983 -0.01330
# Poissons Ratio (z) = 0.01251 -0.01553
#
# Static dielectric constant tensor:
#      x y z
#    x 2.108800 0.000000 0.011430 
#    y 0.000000 1.486350 0.000000 
#    z 0.011430 0.000000 1.565510 
# 
# From -- ./inp_files/66492.got.cif
#   From: 2010.05.17/outbox.cif.g08.bks.cpg/sg14_34_cif.got.tgz:66492.got - 2010.06.03 17:49:19.
