data_PCOD9242403
_publ_section_title
;
Structure prediction by ZEFSAII (Michael W. Deem and Ramdas Pophale) SiO2 
 PCOD9242403
Probable space group: P 21/C
;
_chemical_formula_sum "Si O2"
_cell_formula_units_Z 28
_cell_length_a 13.281223
_cell_length_b 9.657492
_cell_length_c 19.600269
_cell_angle_alpha 90.000000
_cell_angle_beta 155.055665
_cell_angle_gamma 90.000000
_cell_volume 1060.246210
_symmetry_space_group_name_H-M "P 21/C"
_symmetry_group_IT_number 14
_symmetry_cell_setting 'monoclinic'
loop_
_space_group_symop_operation_xyz
x,y,z
-x,1/2+y,1/2-z
-x,-y,-z
x,1/2-y,1/2+z
loop_
_atom_site_type_symbol
_atom_site_label
_atom_site_fract_x
_atom_site_fract_y
_atom_site_fract_z
Si Si1 0.290913 0.102253 0.974256
Si Si2 0.270901 0.775376 0.276915
Si Si3 0.933329 0.135232 0.630194
Si Si4 0.367477 0.825801 0.976974
Si Si5 0.410242 0.067719 0.338514
Si Si6 0.801722 0.198386 0.410289
Si Si7 0.335799 0.483389 0.644215
O O1 0.113185 0.102347 0.801229
O O2 0.459422 0.973549 0.055275
O O3 0.457348 0.234682 0.077465
O O4 0.196395 0.072944 0.992077
O O5 0.232257 0.693982 0.322781
O O6 0.120525 0.722955 0.119884
O O7 0.296929 0.938164 0.305902
O O8 0.827415 0.285546 0.586283
O O9 0.691150 0.044671 0.492610
O O10 0.982314 0.148014 0.580022
O O11 0.570156 0.707950 0.106323
O O12 0.278943 0.078038 0.184513
O O13 0.690508 0.350517 0.362588
O O14 0.596782 0.080121 0.287438
#
# Coordination Sequence:
#
# PCOD9242403 Si02
#       7
#     4   4   4   4   4   4   4
#     4  11  20  31  56  78 105 137 181 215 262 307
#     4  10  20  32  58  79 104 139 176 209 271 318
#     4   9  20  32  54  73 110 134 176 214 261 295
#     4  10  20  36  52  78 111 135 171 223 262 309
#     4   8  18  32  56  74 104 130 173 215 264 303
#     4   9  17  33  52  76 104 138 173 215 257 312
#     4   9  15  31  51  78  95 133 176 219 246 308
#
# _framework density 26.408958999999999
#
# number of rings (size 3 to 8) (size 9 to 14) (size 15 to 20)
#    0.857    1.714    1.429    0.857    2.000    0.000 
#    0.000    0.714    3.143    1.714    0.000    0.000 
#    0.000    0.000    0.000    0.000    0.000    0.000 
#
# Total GULP energy -156193.265575 kJ/mol
# GULP energy per Si atom -5578.330913 kJ/mol
# Density = 2.634885 g / cm^3
# Si number density = 26.408959 Si / 1000 Ang^3
#
#
#
# Elastic Constant Matrix: (Units=GPa)
#
#
# Indices 1 2 3 4 5 6 
#
# 1 44.0602 12.0997 27.7908 0.0000 -26.8133 0.0000
# 2 12.0997 70.4531 20.4001 0.0000 1.7047 0.0000
# 3 27.7908 20.4001 163.5493 0.0000 -32.4627 0.0000
# 4 0.0000 0.0000 0.0000 29.2341 0.0000 -16.7866
# 5 -26.8133 1.7047 -32.4627 0.0000 52.4587 0.0000
# 6 0.0000 0.0000 0.0000 -16.7866 0.0000 23.0459
#
#
#
# Elastic Compliance Matrix: (Units=1/GPa)
#
#
# Indices 1 2 3 4 5 6 
#
# 1 0.036256 -0.006096 -0.001918 0.000000 0.017542 0.000000
# 2 -0.006096 0.015908 -0.001903 0.000000 -0.004810 0.000000
# 3 -0.001918 -0.001903 0.007405 0.000000 0.003664 0.000000
# 4 0.000000 0.000000 0.000000 0.058800 0.000000 0.042830
# 5 0.017542 -0.004810 0.003664 0.000000 0.030453 0.000000
# 6 0.000000 0.000000 0.000000 0.042830 0.000000 0.074589
#
#
# Mechanical properties :
#
#
# Convention : Reuss Voigt Hill
#
# Bulk Modulus (GPa) = 25.16714 44.29378 34.73046
# Shear Modulus (GPa) = 19.49397 35.46587 27.47992
#
# Velocity S-wave (km/s) = 2.71985 3.66860 3.22926
# Velocity P-wave (km/s) = 4.40612 5.89521 5.20420
#
# Compressibility (1/GPa) = 0.03973435
#
# Stress axis : x y z
#
# Youngs Moduli (GPa) = 27.58173 62.86060 135.04487
#
# Poissons Ratio (x) = 0.38317 0.25907
# Poissons Ratio (y) = 0.16813 0.25703
# Poissons Ratio (z) = 0.05291 0.11964
#
# Static dielectric constant tensor:
#      x y z
#    x 2.071670 0.000000 0.013100 
#    y 0.000000 2.054820 0.000000 
#    z 0.013100 0.000000 2.127180 
# 
# From -- ./inp_files/69192.got.cif
#   From: 2010.05.17/outbox.cif.g08.bks.cpg/sg14_35_cif.got.tgz:69192.got - 2010.06.03 17:49:19.
