data_PCOD9242304
_publ_section_title
;
Structure prediction by ZEFSAII (Michael W. Deem and Ramdas Pophale) SiO2 
 PCOD9242304
Probable space group: P 21/C
;
_chemical_formula_sum "Si O2"
_cell_formula_units_Z 32
_cell_length_a 11.628249
_cell_length_b 8.039693
_cell_length_c 14.620231
_cell_angle_alpha 90.000000
_cell_angle_beta 78.371019
_cell_angle_gamma 90.000000
_cell_volume 1338.753675
_symmetry_space_group_name_H-M "P 21/C"
_symmetry_group_IT_number 14
_symmetry_cell_setting 'monoclinic'
loop_
_space_group_symop_operation_xyz
x,y,z
-x,1/2+y,1/2-z
-x,-y,-z
x,1/2-y,1/2+z
loop_
_atom_site_type_symbol
_atom_site_label
_atom_site_fract_x
_atom_site_fract_y
_atom_site_fract_z
Si Si1 0.317513 0.599825 0.806564
Si Si2 0.524577 0.309281 0.474413
Si Si3 0.900831 0.802919 0.879597
Si Si4 0.673321 0.866308 0.374577
Si Si5 0.024436 0.321487 0.947309
Si Si6 0.920622 0.468538 0.228752
Si Si7 0.235553 0.659843 0.017780
Si Si8 0.465406 0.883848 0.718310
O O1 0.208616 0.611067 0.755677
O O2 0.260410 0.577903 0.915129
O O3 0.391285 0.769969 0.797493
O O4 0.409926 0.454547 0.769648
O O5 0.500000 0.500000 0.500000
O O6 0.436300 0.194884 0.547383
O O7 0.658969 0.282820 0.480006
O O8 0.514480 0.235243 0.373370
O O9 0.770595 0.777238 0.858759
O O10 0.949994 0.968559 0.824853
O O11 0.985621 0.659326 0.826172
O O12 0.905111 0.785506 0.988870
O O13 0.746629 0.012870 0.412583
O O14 0.614068 0.957293 0.297925
O O15 0.078195 0.371681 0.840982
O O16 0.891295 0.258872 0.958061
O O17 0.000000 0.500000 0.000000
#
# Coordination Sequence:
#
# PCOD9242304 Si02
#       8
#     4   4   4   4   4   4   4   4
#     4  12  24  43  65  98 134 175 221 276 341 409
#     4  11  25  42  66  99 130 174 226 280 335 408
#     4  11  24  40  70  97 136 175 232 279 340 408
#     4  11  21  44  66  92 131 180 219 276 347 401
#     4  10  19  42  68  93 123 181 225 268 331 412
#     4  11  25  42  69  98 134 179 233 279 342 411
#     4  11  19  43  72  89 125 178 224 267 340 408
#     4  11  27  39  66  96 135 172 221 277 342 405
#
# _framework density 23.902828
#
# number of rings (size 3 to 8) (size 9 to 14) (size 15 to 20)
#    0.000    1.000    7.500    0.750    7.000    0.000 
#    0.000    1.875    0.000    0.000    0.000    0.000 
#    0.000    0.000    0.000    0.000    0.000    0.000 
#
# Total GULP energy -178979.464047 kJ/mol
# GULP energy per Si atom -5593.108251 kJ/mol
# Density = 2.384842 g / cm^3
# Si number density = 23.902828 Si / 1000 Ang^3
#
#
#
# Elastic Constant Matrix: (Units=GPa)
#
#
# Indices 1 2 3 4 5 6 
#
# 1 132.8589 22.6696 17.6388 0.0000 -1.6456 0.0000
# 2 22.6696 42.1916 5.2043 0.0000 -1.5787 0.0000
# 3 17.6388 5.2043 58.6923 0.0000 -0.5015 0.0000
# 4 0.0000 0.0000 0.0000 35.2861 0.0000 -5.5793
# 5 -1.6456 -1.5787 -0.5015 0.0000 27.2283 0.0000
# 6 0.0000 0.0000 0.0000 -5.5793 0.0000 21.2132
#
#
#
# Elastic Compliance Matrix: (Units=1/GPa)
#
#
# Indices 1 2 3 4 5 6 
#
# 1 0.008557 -0.004319 -0.002187 0.000000 0.000226 0.000000
# 2 -0.004319 0.026194 -0.001014 0.000000 0.001239 0.000000
# 3 -0.002187 -0.001014 0.017786 0.000000 0.000137 0.000000
# 4 0.000000 0.000000 0.000000 0.029569 0.000000 0.007777
# 5 0.000226 0.001239 0.000137 0.000000 0.036814 0.000000
# 6 0.000000 0.000000 0.000000 0.007777 0.000000 0.049186
#
#
# Mechanical properties :
#
#
# Convention : Reuss Voigt Hill
#
# Bulk Modulus (GPa) = 26.66893 36.08533 31.37713
# Shear Modulus (GPa) = 25.55641 29.29421 27.42531
#
# Velocity S-wave (km/s) = 3.27338 3.50459 3.39096
# Velocity P-wave (km/s) = 5.04660 5.61299 5.33731
#
# Compressibility (1/GPa) = 0.03749682
#
# Stress axis : x y z
#
# Youngs Moduli (GPa) = 116.86447 38.17718 56.22325
#
# Poissons Ratio (x) = 0.16490 0.12294
# Poissons Ratio (y) = 0.50479 0.05700
# Poissons Ratio (z) = 0.25554 0.03871
#
# Static dielectric constant tensor:
#      x y z
#    x 1.927350 0.000000 0.028980 
#    y 0.000000 2.012050 0.000000 
#    z 0.028980 0.000000 1.935450 
# 
# From -- ./inp_files/43750.got.cif
#   From: 2010.05.17/outbox.cif.g08.bks.cpg/sg14_22_cif.got.tgz:43750.got - 2010.06.03 17:49:19.
