data_PCOD9242921
_publ_section_title
;
Structure prediction by ZEFSAII (Michael W. Deem and Ramdas Pophale) SiO2 
 PCOD9242921
Probable space group: P 21/C
;
_chemical_formula_sum "Si O2"
_cell_formula_units_Z 30
_cell_length_a 21.126183
_cell_length_b 9.757699
_cell_length_c 8.316291
_cell_angle_alpha 90.000000
_cell_angle_beta 134.205925
_cell_angle_gamma 90.000000
_cell_volume 1228.908251
_symmetry_space_group_name_H-M "P 21/C"
_symmetry_group_IT_number 14
_symmetry_cell_setting 'monoclinic'
loop_
_space_group_symop_operation_xyz
x,y,z
-x,1/2+y,1/2-z
-x,-y,-z
x,1/2-y,1/2+z
loop_
_atom_site_type_symbol
_atom_site_label
_atom_site_fract_x
_atom_site_fract_y
_atom_site_fract_z
Si Si1 0.518246 0.868099 0.309638
Si Si2 0.115452 0.626101 0.177071
Si Si3 0.818129 0.377197 0.044989
Si Si4 0.062053 0.360636 0.276179
Si Si5 0.401259 0.409210 0.690811
Si Si6 0.678460 0.550917 0.926038
Si Si7 0.000000 0.500000 0.500000
Si Si8 0.256075 0.298475 0.634067
O O1 0.557455 0.893998 0.556404
O O2 0.545581 0.713178 0.308227
O O3 0.576560 0.956128 0.287534
O O4 0.423603 0.942988 0.153825
O O5 0.159821 0.719317 0.387024
O O6 0.086922 0.484695 0.203336
O O7 0.176564 0.600266 0.134132
O O8 0.026150 0.706601 0.955305
O O9 0.727338 0.413210 0.969879
O O10 0.895607 0.466570 0.263305
O O11 0.033474 0.423062 0.393953
O O12 0.151106 0.274569 0.443235
O O13 0.298866 0.381513 0.558319
O O14 0.722082 0.621533 0.162705
O O15 0.697102 0.652604 0.810044
#
# Coordination Sequence:
#
# PCOD9242921 Si02
#       8
#     4   4   4   4   4   4   2   4
#     4   9  19  39  61  91 121 158 195 245 302 361
#     4  10  24  38  58  79 123 151 206 246 297 348
#     4  11  22  39  56  85 115 158 195 251 292 354
#     4  10  21  40  58  86 111 162 198 248 297 356
#     4   9  19  38  62  88 124 155 196 244 300 363
#     4  10  22  38  61  88 120 153 198 247 296 355
#     4  10  20  36  58  80 110 150 196 238 300 336
#     4  10  21  37  61  85 118 155 198 245 295 357
#
# _framework density 24.411912000000001
#
# number of rings (size 3 to 8) (size 9 to 14) (size 15 to 20)
#    0.000    2.133    1.333    0.800    3.733    0.533 
#    4.800    1.333    0.000    0.000    0.000    0.000 
#    0.000    0.000    0.000    0.000    0.000    0.000 
#
# Total GULP energy -167112.834075 kJ/mol
# GULP energy per Si atom -5570.427803 kJ/mol
# Density = 2.435635 g / cm^3
# Si number density = 24.411912 Si / 1000 Ang^3
#
#
#
# Elastic Constant Matrix: (Units=GPa)
#
#
# Indices 1 2 3 4 5 6 
#
# 1 111.2561 31.4105 21.1575 0.0000 -21.7324 0.0000
# 2 31.4105 34.9311 12.2572 0.0000 -9.6340 0.0000
# 3 21.1575 12.2572 19.5663 0.0000 -11.0154 0.0000
# 4 0.0000 0.0000 0.0000 46.2643 0.0000 58.1601
# 5 -21.7324 -9.6340 -11.0154 0.0000 39.1481 0.0000
# 6 0.0000 0.0000 0.0000 58.1601 0.0000 167.2990
#
#
#
# Elastic Compliance Matrix: (Units=1/GPa)
#
#
# Indices 1 2 3 4 5 6 
#
# 1 0.013455 -0.008634 -0.007286 0.000000 0.003295 0.000000
# 2 -0.008634 0.042542 -0.016776 0.000000 0.000956 0.000000
# 3 -0.007286 -0.016776 0.077109 0.000000 0.013524 0.000000
# 4 0.000000 0.000000 0.000000 0.038394 0.000000 -0.013348
# 5 0.003295 0.000956 0.013524 0.000000 0.031413 0.000000
# 6 0.000000 0.000000 0.000000 -0.013348 0.000000 0.010617
#
#
# Mechanical properties :
#
#
# Convention : Reuss Voigt Hill
#
# Bulk Modulus (GPa) = 14.76786 32.82266 23.79526
# Shear Modulus (GPa) = 16.58409 57.27084 36.92746
#
# Velocity S-wave (km/s) = 2.60925 4.84883 3.89354
# Velocity P-wave (km/s) = 3.89104 6.69498 5.47553
#
# Compressibility (1/GPa) = 0.06771464
#
# Stress axis : x y z
#
# Youngs Moduli (GPa) = 74.32272 23.50640 12.96859
#
# Poissons Ratio (x) = 0.20294 0.09449
# Poissons Ratio (y) = 0.64167 0.21756
# Poissons Ratio (z) = 0.54150 0.39435
#
# Static dielectric constant tensor:
#      x y z
#    x 1.937870 0.000000 0.077480 
#    y 0.000000 2.021060 0.000000 
#    z 0.077480 0.000000 2.029270 
# 
# From -- ./inp_files/17860.got.cif
#   From: 2010.05.17/outbox.cif.g08.bks.cpg/sg14_9_cif.got.tgz:17860.got - 2010.06.03 17:49:19.
