data_PCOD9242330
_publ_section_title
;
Structure prediction by ZEFSAII (Michael W. Deem and Ramdas Pophale) SiO2 
 PCOD9242330
Probable space group: P 21/C
;
_chemical_formula_sum "Si O2"
_cell_formula_units_Z 30
_cell_length_a 11.157849
_cell_length_b 21.158701
_cell_length_c 10.171239
_cell_angle_alpha 90.000000
_cell_angle_beta 152.595404
_cell_angle_gamma 90.000000
_cell_volume 1105.240912
_symmetry_space_group_name_H-M "P 21/C"
_symmetry_group_IT_number 14
_symmetry_cell_setting 'monoclinic'
loop_
_space_group_symop_operation_xyz
x,y,z
-x,1/2+y,1/2-z
-x,-y,-z
x,1/2-y,1/2+z
loop_
_atom_site_type_symbol
_atom_site_label
_atom_site_fract_x
_atom_site_fract_y
_atom_site_fract_z
Si Si1 0.932496 0.062016 0.307404
Si Si2 0.679544 0.342652 0.880370
Si Si3 0.826668 0.829196 0.949363
Si Si4 0.577397 0.210018 0.756978
Si Si5 0.567621 0.485244 0.742534
Si Si6 0.889357 0.097038 0.964527
Si Si7 0.500000 0.500000 0.000000
Si Si8 0.054526 0.304536 0.918530
O O1 0.011197 0.129064 0.451961
O O2 0.957553 0.083192 0.179210
O O3 0.155361 0.010823 0.534741
O O4 0.652455 0.029027 0.038527
O O5 0.624175 0.279593 0.740658
O O6 0.587821 0.410174 0.736861
O O7 0.461163 0.330014 0.778134
O O8 0.961697 0.342478 0.227514
O O9 0.861117 0.882591 0.874559
O O10 0.885131 0.760154 0.945565
O O11 0.681212 0.154290 0.765843
O O12 0.295784 0.195641 0.547446
O O13 0.787327 0.207585 0.080228
O O14 0.518828 0.495964 0.850899
O O15 0.760317 0.040408 0.764580
#
# Coordination Sequence:
#
# PCOD9242330 Si02
#       8
#     4   4   4   4   4   4   2   4
#     4  10  21  31  48  69 101 128 166 193 244 300
#     4  10  20  35  47  71  96 135 170 205 236 293
#     4  10  20  31  52  68 100 127 171 203 243 286
#     4   9  19  33  51  64  97 131 174 201 236 286
#     4  11  21  31  47  70  99 136 159 193 247 299
#     4  10  20  33  49  77 102 139 160 201 250 299
#     4  10  20  28  46  70 108 126 152 190 244 308
#     4   9  17  34  48  68  90 133 165 210 235 283
#
# _framework density 27.143401999999998
#
# number of rings (size 3 to 8) (size 9 to 14) (size 15 to 20)
#    0.000    2.133    1.333    3.200    1.867    3.200 
#    0.000    0.000    0.000    0.000    0.000    1.867 
#    0.000    0.000    0.000    0.800    0.000    0.000 
#
# Total GULP energy -167567.876263 kJ/mol
# GULP energy per Si atom -5585.595875 kJ/mol
# Density = 2.708162 g / cm^3
# Si number density = 27.143402 Si / 1000 Ang^3
#
#
#
# Elastic Constant Matrix: (Units=GPa)
#
#
# Indices 1 2 3 4 5 6 
#
# 1 77.7202 2.5975 36.3002 0.0000 -2.5464 0.0000
# 2 2.5975 125.8151 27.5185 0.0000 14.8968 0.0000
# 3 36.3002 27.5185 116.5901 0.0000 24.9918 0.0000
# 4 0.0000 0.0000 0.0000 30.4584 0.0000 20.1143
# 5 -2.5464 14.8968 24.9918 0.0000 46.1275 0.0000
# 6 0.0000 0.0000 0.0000 20.1143 0.0000 31.7982
#
#
#
# Elastic Compliance Matrix: (Units=1/GPa)
#
#
# Indices 1 2 3 4 5 6 
#
# 1 0.015702 0.000494 -0.005835 0.000000 0.003868 0.000000
# 2 0.000494 0.008538 -0.001792 0.000000 -0.001759 0.000000
# 3 -0.005835 -0.001792 0.012176 0.000000 -0.006340 0.000000
# 4 0.000000 0.000000 0.000000 0.056386 0.000000 -0.035668
# 5 0.003868 -0.001759 -0.006340 0.000000 0.025896 0.000000
# 6 0.000000 0.000000 0.000000 -0.035668 0.000000 0.054010
#
#
# Mechanical properties :
#
#
# Convention : Reuss Voigt Hill
#
# Bulk Modulus (GPa) = 45.14535 50.32865 47.73700
# Shear Modulus (GPa) = 25.72591 38.59077 32.15834
#
# Velocity S-wave (km/s) = 3.08194 3.77468 3.44576
# Velocity P-wave (km/s) = 5.41597 6.13022 5.78413
#
# Compressibility (1/GPa) = 0.02215067
#
# Stress axis : x y z
#
# Youngs Moduli (GPa) = 63.68595 117.12057 82.13114
#
# Poissons Ratio (x) = -0.05785 0.47920
# Poissons Ratio (y) = -0.03146 0.14717
# Poissons Ratio (z) = 0.37158 0.20987
#
# Static dielectric constant tensor:
#      x y z
#    x 2.253690 0.000000 0.031180 
#    y 0.000000 1.948520 0.000000 
#    z 0.031180 0.000000 2.006450 
# 
# From -- ./inp_files/47617.got.cif
#   From: 2010.05.17/outbox.cif.g08.bks.cpg/sg14_24_cif.got.tgz:47617.got - 2010.06.03 17:49:19.
