data_PCOD9242904
_publ_section_title
;
Structure prediction by ZEFSAII (Michael W. Deem and Ramdas Pophale) SiO2 
 PCOD9242904
Probable space group: P 21/C
;
_chemical_formula_sum "Si O2"
_cell_formula_units_Z 32
_cell_length_a 15.389042
_cell_length_b 13.562953
_cell_length_c 12.223440
_cell_angle_alpha 90.000000
_cell_angle_beta 147.345823
_cell_angle_gamma 90.000000
_cell_volume 1376.590535
_symmetry_space_group_name_H-M "P 21/C"
_symmetry_group_IT_number 14
_symmetry_cell_setting 'monoclinic'
loop_
_space_group_symop_operation_xyz
x,y,z
-x,1/2+y,1/2-z
-x,-y,-z
x,1/2-y,1/2+z
loop_
_atom_site_type_symbol
_atom_site_label
_atom_site_fract_x
_atom_site_fract_y
_atom_site_fract_z
Si Si1 0.204022 0.197252 0.265295
Si Si2 0.300899 0.664926 0.871554
Si Si3 0.893734 0.110674 0.038898
Si Si4 0.637997 0.881496 0.365490
Si Si5 0.272956 0.881176 0.906108
Si Si6 0.170081 0.409731 0.293881
Si Si7 0.883056 0.053484 0.634895
Si Si8 0.327255 0.161292 0.175928
O O1 0.339875 0.142749 0.482030
O O2 0.222006 0.315570 0.278287
O O3 0.211255 0.148246 0.155488
O O4 0.036279 0.180961 0.148474
O O5 0.238620 0.612089 0.696340
O O6 0.204551 0.627778 0.876172
O O7 0.270950 0.782659 0.831749
O O8 0.488834 0.646063 0.093422
O O9 0.822380 0.138171 0.081352
O O10 0.988965 0.009440 0.158765
O O11 0.457684 0.899276 0.135903
O O12 0.691887 0.776512 0.374416
O O13 0.752490 0.972501 0.458234
O O14 0.200586 0.981509 0.779611
O O15 0.280868 0.400258 0.520567
O O16 0.988481 0.403006 0.148063
#
# Coordination Sequence:
#
# PCOD9242904 Si02
#       8
#     4   4   4   4   4   4   4   4
#     4  10  20  37  58  82 112 146 183 231 280 330
#     4  11  21  36  57  83 113 149 187 231 276 328
#     4  10  21  35  56  84 112 144 187 232 276 328
#     4   9  20  37  56  81 112 145 186 231 276 329
#     4  10  21  38  57  82 113 148 189 229 275 331
#     4  10  21  38  59  83 112 147 183 229 280 331
#     4  10  20  36  57  83 112 146 184 231 279 326
#     4  10  21  37  59  82 111 147 186 228 279 331
#
# _framework density 23.245836000000001
#
# number of rings (size 3 to 8) (size 9 to 14) (size 15 to 20)
#    0.000    2.000    0.000    3.375    0.000    7.000 
#    0.000   13.750    0.000    0.000    0.000    0.000 
#    0.000    0.000    0.000    0.000    0.000    0.000 
#
# Total GULP energy -178949.946776 kJ/mol
# GULP energy per Si atom -5592.185837 kJ/mol
# Density = 2.319293 g / cm^3
# Si number density = 23.245836 Si / 1000 Ang^3
#
#
#
# Elastic Constant Matrix: (Units=GPa)
#
#
# Indices 1 2 3 4 5 6 
#
# 1 35.8992 10.4216 21.6089 0.0000 -0.2705 0.0000
# 2 10.4216 82.0865 20.4896 0.0000 9.7564 0.0000
# 3 21.6089 20.4896 69.1883 0.0000 1.0317 0.0000
# 4 0.0000 0.0000 0.0000 22.9086 0.0000 4.7499
# 5 -0.2705 9.7564 1.0317 0.0000 21.0287 0.0000
# 6 0.0000 0.0000 0.0000 4.7499 0.0000 10.0475
#
#
#
# Elastic Compliance Matrix: (Units=1/GPa)
#
#
# Indices 1 2 3 4 5 6 
#
# 1 0.034629 -0.002069 -0.010231 0.000000 0.001907 0.000000
# 2 -0.002069 0.014057 -0.003422 0.000000 -0.006381 0.000000
# 3 -0.010231 -0.003422 0.018654 0.000000 0.000541 0.000000
# 4 0.000000 0.000000 0.000000 0.048395 0.000000 -0.022879
# 5 0.001907 -0.006381 0.000541 0.000000 0.050513 0.000000
# 6 0.000000 0.000000 0.000000 -0.022879 0.000000 0.110343
#
#
# Mechanical properties :
#
#
# Convention : Reuss Voigt Hill
#
# Bulk Modulus (GPa) = 27.85779 32.46825 30.16302
# Shear Modulus (GPa) = 15.62494 19.77388 17.69941
#
# Velocity S-wave (km/s) = 2.59542 2.91974 2.76234
# Velocity P-wave (km/s) = 4.58166 5.03629 4.81434
#
# Compressibility (1/GPa) = 0.03589660
#
# Stress axis : x y z
#
# Youngs Moduli (GPa) = 28.87729 71.13667 53.60811
#
# Poissons Ratio (x) = 0.14721 0.54847
# Poissons Ratio (y) = 0.05976 0.18342
# Poissons Ratio (z) = 0.29545 0.24340
#
# Static dielectric constant tensor:
#      x y z
#    x 1.851390 0.000000 -0.005650 
#    y 0.000000 1.883440 0.000000 
#    z -0.005650 0.000000 1.874430 
# 
# From -- ./inp_files/49048.got.cif
#   From: 2010.05.17/outbox.cif.g08.bks.cpg/sg14_25_cif.got.tgz:49048.got - 2010.06.03 17:49:19.
