data_PCOD9242943
_publ_section_title
;
Structure prediction by ZEFSAII (Michael W. Deem and Ramdas Pophale) SiO2 
 PCOD9242943
Probable space group: P 21/C
;
_chemical_formula_sum "Si O2"
_cell_formula_units_Z 32
_cell_length_a 12.433960
_cell_length_b 13.624199
_cell_length_c 8.656032
_cell_angle_alpha 90.000000
_cell_angle_beta 110.877692
_cell_angle_gamma 90.000000
_cell_volume 1370.079514
_symmetry_space_group_name_H-M "P 21/C"
_symmetry_group_IT_number 14
_symmetry_cell_setting 'monoclinic'
loop_
_space_group_symop_operation_xyz
x,y,z
-x,1/2+y,1/2-z
-x,-y,-z
x,1/2-y,1/2+z
loop_
_atom_site_type_symbol
_atom_site_label
_atom_site_fract_x
_atom_site_fract_y
_atom_site_fract_z
Si Si1 0.276013 0.115535 0.877994
Si Si2 0.385411 0.247706 0.174162
Si Si3 0.979632 0.116918 0.155630
Si Si4 0.688936 0.282568 0.242338
Si Si5 0.043962 0.713763 0.665536
Si Si6 0.300315 0.605182 0.445378
Si Si7 0.984817 0.939690 0.336690
Si Si8 0.513693 0.117280 0.483244
O O1 0.336102 0.176336 0.773176
O O2 0.146381 0.091950 0.759264
O O3 0.330829 0.008673 0.941952
O O4 0.289185 0.185435 0.033194
O O5 0.460986 0.165075 0.301878
O O6 0.452391 0.315800 0.084961
O O7 0.018109 0.187354 0.315380
O O8 0.840022 0.109011 0.106609
O O9 0.026125 0.010565 0.218888
O O10 0.013222 0.157243 0.006155
O O11 0.825875 0.274465 0.319273
O O12 0.657882 0.171646 0.176218
O O13 0.652535 0.338841 0.379348
O O14 0.646159 0.352194 0.080358
O O15 0.053030 0.658656 0.836271
O O16 0.000000 0.000000 0.500000
O O17 0.500000 0.000000 0.500000
#
# Coordination Sequence:
#
# PCOD9242943 Si02
#       8
#     4   4   4   4   4   4   4   4
#     4  10  23  44  62  87 126 164 209 260 304 371
#     4  10  24  43  64  89 122 170 215 255 316 370
#     4   9  19  35  54  82 116 151 193 239 294 365
#     4  10  20  36  60  91 122 157 200 257 320 372
#     4  10  20  36  58  85 119 153 190 243 303 364
#     4   9  19  36  60  86 120 157 196 252 316 370
#     4  11  23  38  60  89 118 157 203 247 305 372
#     4  11  23  40  63  93 124 161 214 263 309 372
#
# _framework density 23.356307999999999
#
# number of rings (size 3 to 8) (size 9 to 14) (size 15 to 20)
#    0.000    2.000    0.000    2.625    0.000    8.000 
#    0.000    8.125    0.000    0.000    0.000    0.000 
#    0.000    0.000    0.000    0.000    0.000    0.000 
#
# Total GULP energy -178535.251791 kJ/mol
# GULP energy per Si atom -5579.226618 kJ/mol
# Density = 2.330315 g / cm^3
# Si number density = 23.356308 Si / 1000 Ang^3
#
#
#
# Elastic Constant Matrix: (Units=GPa)
#
#
# Indices 1 2 3 4 5 6 
#
# 1 36.5746 25.1341 28.2120 0.0000 -5.9841 0.0000
# 2 25.1341 181.2693 53.5350 0.0000 -13.9605 0.0000
# 3 28.2120 53.5350 117.7229 0.0000 -9.1155 0.0000
# 4 0.0000 0.0000 0.0000 47.3464 0.0000 -3.4687
# 5 -5.9841 -13.9605 -9.1155 0.0000 27.9087 0.0000
# 6 0.0000 0.0000 0.0000 -3.4687 0.0000 26.4750
#
#
#
# Elastic Compliance Matrix: (Units=1/GPa)
#
#
# Indices 1 2 3 4 5 6 
#
# 1 0.035083 -0.002501 -0.006961 0.000000 0.003998 0.000000
# 2 -0.002501 0.006698 -0.002287 0.000000 0.002067 0.000000
# 3 -0.006961 -0.002287 0.011284 0.000000 0.001049 0.000000
# 4 0.000000 0.000000 0.000000 0.021326 0.000000 0.002794
# 5 0.003998 0.002067 0.001049 0.000000 0.038065 0.000000
# 6 0.000000 0.000000 0.000000 0.002794 0.000000 0.038138
#
#
# Mechanical properties :
#
#
# Convention : Reuss Voigt Hill
#
# Bulk Modulus (GPa) = 33.81962 61.03655 47.42809
# Shear Modulus (GPa) = 27.18192 35.59172 31.38682
#
# Velocity S-wave (km/s) = 3.41514 3.90790 3.66980
# Velocity P-wave (km/s) = 5.48290 6.82288 6.18926
#
# Compressibility (1/GPa) = 0.02956863
#
# Stress axis : x y z
#
# Youngs Moduli (GPa) = 28.50363 149.30016 88.62348
#
# Poissons Ratio (x) = 0.37338 0.61689
# Poissons Ratio (y) = 0.07128 0.20264
# Poissons Ratio (z) = 0.19841 0.34138
#
# Static dielectric constant tensor:
#      x y z
#    x 1.918160 0.000000 0.015330 
#    y 0.000000 1.927910 0.000000 
#    z 0.015330 0.000000 1.936800 
# 
# From -- ./inp_files/15843.got.cif
#   From: 2010.05.17/outbox.cif.g08.bks.cpg/sg14_8_cif.got.tgz:15843.got - 2010.06.03 17:49:19.
