data_PCOD9242688
_publ_section_title
;
Structure prediction by ZEFSAII (Michael W. Deem and Ramdas Pophale) SiO2 
 PCOD9242688
Probable space group: P 21/C
;
_chemical_formula_sum "Si O2"
_cell_formula_units_Z 28
_cell_length_a 9.694608
_cell_length_b 8.639603
_cell_length_c 18.176759
_cell_angle_alpha 90.000000
_cell_angle_beta 75.021295
_cell_angle_gamma 90.000000
_cell_volume 1470.711490
_symmetry_space_group_name_H-M "P 21/C"
_symmetry_group_IT_number 14
_symmetry_cell_setting 'monoclinic'
loop_
_space_group_symop_operation_xyz
x,y,z
-x,1/2+y,1/2-z
-x,-y,-z
x,1/2-y,1/2+z
loop_
_atom_site_type_symbol
_atom_site_label
_atom_site_fract_x
_atom_site_fract_y
_atom_site_fract_z
Si Si1 0.808565 0.804633 0.464455
Si Si2 0.713922 0.295645 0.606757
Si Si3 0.919898 0.118182 0.670982
Si Si4 0.957150 0.281519 0.820650
Si Si5 0.290859 0.852961 0.542104
Si Si6 0.900800 0.584760 0.574377
Si Si7 0.534118 0.836136 0.957700
O O1 0.830255 0.727311 0.540344
O O2 0.701623 0.694021 0.433880
O O3 0.960386 0.829758 0.404794
O O4 0.732825 0.970423 0.475991
O O5 0.768403 0.168286 0.656729
O O6 0.772691 0.244283 0.517907
O O7 0.784505 0.459021 0.615438
O O8 0.547051 0.316341 0.609188
O O9 0.948394 0.216039 0.740351
O O10 0.948479 0.937531 0.683600
O O11 0.799249 0.322010 0.872772
O O12 0.016995 0.150763 0.867107
O O13 0.452416 0.791513 0.519839
O O14 0.000000 0.500000 0.500000
O O15 0.500000 0.000000 0.000000
#
# Coordination Sequence:
#
# PCOD9242688 Si02
#       7
#     4   4   4   4   4   4   4
#     4  11  20  35  60  84 117 148 195 237 298 341
#     4  10  20  35  56  86 115 146 195 236 292 338
#     4  11  23  37  59  86 116 158 190 248 296 358
#     4  11  23  37  59  86 119 151 201 240 302 349
#     4   9  20  36  56  85 113 150 192 243 282 346
#     4  12  19  33  60  89 115 149 196 246 284 344
#     4  10  20  35  58  87 114 152 191 240 288 344
#
# _framework density 19.038405000000001
#
# number of rings (size 3 to 8) (size 9 to 14) (size 15 to 20)
#    0.857    0.571    4.286    2.143    0.000    2.286 
#    0.000    0.000    3.143    0.000    0.000    0.000 
#    0.000    0.000    0.000    0.000    0.000    0.000 
#
# Total GULP energy -156046.395769 kJ/mol
# GULP energy per Si atom -5573.085563 kJ/mol
# Density = 1.899507 g / cm^3
# Si number density = 19.038405 Si / 1000 Ang^3
#
#
#
# Elastic Constant Matrix: (Units=GPa)
#
#
# Indices 1 2 3 4 5 6 
#
# 1 50.2538 -4.9114 -2.0359 0.0000 18.0939 0.0000
# 2 -4.9114 58.9806 8.0251 0.0000 -4.2613 0.0000
# 3 -2.0359 8.0251 42.3491 0.0000 15.1150 0.0000
# 4 0.0000 0.0000 0.0000 31.0701 0.0000 7.3208
# 5 18.0939 -4.2613 15.1150 0.0000 18.7332 0.0000
# 6 0.0000 0.0000 0.0000 7.3208 0.0000 26.6058
#
#
#
# Elastic Compliance Matrix: (Units=1/GPa)
#
#
# Indices 1 2 3 4 5 6 
#
# 1 0.043421 -0.004474 0.025655 0.000000 -0.063657 0.000000
# 2 -0.004474 0.019099 -0.009729 0.000000 0.016516 0.000000
# 3 0.025655 -0.009729 0.051016 0.000000 -0.068156 0.000000
# 4 0.000000 0.000000 0.000000 0.034417 0.000000 -0.009470
# 5 -0.063657 0.016516 -0.068156 0.000000 0.173614 0.000000
# 6 0.000000 0.000000 0.000000 -0.009470 0.000000 0.040192
#
#
# Mechanical properties :
#
#
# Convention : Reuss Voigt Hill
#
# Bulk Modulus (GPa) = 7.32926 17.08214 12.20570
# Shear Modulus (GPa) = 13.00949 25.31552 19.16251
#
# Velocity S-wave (km/s) = 2.61689 3.65047 3.17601
# Velocity P-wave (km/s) = 3.60401 5.17299 4.45807
#
# Compressibility (1/GPa) = 0.13643943
#
# Stress axis : x y z
#
# Youngs Moduli (GPa) = 23.03054 52.35811 19.60168
#
# Poissons Ratio (x) = 0.23426 -0.50289
# Poissons Ratio (y) = 0.10304 0.19071
# Poissons Ratio (z) = -0.59085 0.50941
#
# Static dielectric constant tensor:
#      x y z
#    x 1.702460 0.000000 0.010340 
#    y 0.000000 1.697090 0.000000 
#    z 0.010340 0.000000 1.630610 
# 
# From -- ./inp_files/56826.got.cif
#   From: 2010.05.17/outbox.cif.g08.bks.cpg/sg14_29_cif.got.tgz:56826.got - 2010.06.03 17:49:19.
