data_PCOD9242471
_publ_section_title
;
Structure prediction by ZEFSAII (Michael W. Deem and Ramdas Pophale) SiO2 
 PCOD9242471
Probable space group: P 21/C
;
_chemical_formula_sum "Si O2"
_cell_formula_units_Z 24
_cell_length_a 5.324687
_cell_length_b 15.122358
_cell_length_c 14.158856
_cell_angle_alpha 90.000000
_cell_angle_beta 75.028175
_cell_angle_gamma 90.000000
_cell_volume 1101.394009
_symmetry_space_group_name_H-M "P 21/C"
_symmetry_group_IT_number 14
_symmetry_cell_setting 'monoclinic'
loop_
_space_group_symop_operation_xyz
x,y,z
-x,1/2+y,1/2-z
-x,-y,-z
x,1/2-y,1/2+z
loop_
_atom_site_type_symbol
_atom_site_label
_atom_site_fract_x
_atom_site_fract_y
_atom_site_fract_z
Si Si1 0.066176 0.943788 0.299724
Si Si2 0.911296 0.274525 0.532384
Si Si3 0.557274 0.814458 0.507277
Si Si4 0.094885 0.606071 0.290246
Si Si5 0.518776 0.014443 0.369264
Si Si6 0.168616 0.724426 0.668894
O O1 0.760297 0.947003 0.355053
O O2 0.245849 0.972336 0.369225
O O3 0.156689 0.853363 0.244611
O O4 0.082183 0.022628 0.219628
O O5 0.636728 0.222014 0.554714
O O6 0.911243 0.354799 0.605126
O O7 0.953951 0.303087 0.419479
O O8 0.144709 0.208935 0.535961
O O9 0.620518 0.428982 0.768337
O O10 0.454190 0.755463 0.607140
O O11 0.493743 0.586230 0.046284
O O12 0.037444 0.688123 0.225449
#
# Coordination Sequence:
#
# PCOD9242471 Si02
#       6
#     4   4   4   4   4   4
#     4  10  20  33  58  83 107 145 184 221 272 327
#     4  10  20  34  56  84 107 147 181 221 274 327
#     4   9  19  35  55  77 111 146 181 218 267 321
#     4   9  21  37  58  80 113 146 180 225 274 323
#     4   9  19  36  54  77 110 148 179 219 269 319
#     4   9  21  37  57  82 111 145 183 224 271 326
#
# _framework density 21.790564
#
# number of rings (size 3 to 8) (size 9 to 14) (size 15 to 20)
#    2.000    0.667    0.000    2.000    4.667    0.667 
#    0.000    1.667    0.000   11.000    0.000    0.000 
#    0.000    0.000    0.000    0.000    0.000    0.000 
#
# Total GULP energy -133735.388541 kJ/mol
# GULP energy per Si atom -5572.307856 kJ/mol
# Density = 2.174097 g / cm^3
# Si number density = 21.790564 Si / 1000 Ang^3
#
#
#
# Elastic Constant Matrix: (Units=GPa)
#
#
# Indices 1 2 3 4 5 6 
#
# 1 102.6522 1.0566 6.7712 0.0000 13.5112 0.0000
# 2 1.0566 77.9891 15.4741 0.0000 3.0575 0.0000
# 3 6.7712 15.4741 73.7875 0.0000 4.5402 0.0000
# 4 0.0000 0.0000 0.0000 47.4135 0.0000 4.6693
# 5 13.5112 3.0575 4.5402 0.0000 17.0273 0.0000
# 6 0.0000 0.0000 0.0000 4.6693 0.0000 15.9562
#
#
#
# Elastic Compliance Matrix: (Units=1/GPa)
#
#
# Indices 1 2 3 4 5 6 
#
# 1 0.010901 0.000294 -0.000535 0.000000 -0.008560 0.000000
# 2 0.000294 0.013434 -0.002726 0.000000 -0.001919 0.000000
# 3 -0.000535 -0.002726 0.014353 0.000000 -0.002913 0.000000
# 4 0.000000 0.000000 0.000000 0.021717 0.000000 -0.006355
# 5 -0.008560 -0.001919 -0.002913 0.000000 0.066643 0.000000
# 6 0.000000 0.000000 0.000000 -0.006355 0.000000 0.064531
#
#
# Mechanical properties :
#
#
# Convention : Reuss Voigt Hill
#
# Bulk Modulus (GPa) = 30.53193 33.44806 31.98999
# Shear Modulus (GPa) = 23.98878 31.48785 27.73832
#
# Velocity S-wave (km/s) = 3.32155 3.80547 3.57171
# Velocity P-wave (km/s) = 5.36211 5.88998 5.63223
#
# Compressibility (1/GPa) = 0.03275260
#
# Stress axis : x y z
#
# Youngs Moduli (GPa) = 91.73834 74.43529 69.67421
#
# Poissons Ratio (x) = -0.02189 0.03730
# Poissons Ratio (y) = -0.02698 0.18995
# Poissons Ratio (z) = 0.04911 0.20293
#
# Static dielectric constant tensor:
#      x y z
#    x 1.775770 0.000000 0.003290 
#    y 0.000000 1.802500 0.000000 
#    z 0.003290 0.000000 1.820810 
# 
# From -- ./inp_files/37298.got.cif
#   From: 2010.05.17/outbox.cif.g08.bks.cpg/sg14_19_cif.got.tgz:37298.got - 2010.06.03 17:49:19.
