data_PCOD9242265
_publ_section_title
;
Structure prediction by ZEFSAII (Michael W. Deem and Ramdas Pophale) SiO2 
 PCOD9242265
Probable space group: P 21/C
;
_chemical_formula_sum "Si O2"
_cell_formula_units_Z 16
_cell_length_a 8.049286
_cell_length_b 13.978343
_cell_length_c 5.601053
_cell_angle_alpha 90.000000
_cell_angle_beta 69.639966
_cell_angle_gamma 90.000000
_cell_volume 590.834092
_symmetry_space_group_name_H-M "P 21/C"
_symmetry_group_IT_number 14
_symmetry_cell_setting 'monoclinic'
loop_
_space_group_symop_operation_xyz
x,y,z
-x,1/2+y,1/2-z
-x,-y,-z
x,1/2-y,1/2+z
loop_
_atom_site_type_symbol
_atom_site_label
_atom_site_fract_x
_atom_site_fract_y
_atom_site_fract_z
Si Si1 0.061459 0.267206 0.719267
Si Si2 0.433585 0.871969 0.033212
Si Si3 0.434392 0.340347 0.032799
Si Si4 0.103020 0.487269 0.698491
O O1 0.963134 0.250001 0.518428
O O2 0.232502 0.197586 0.633744
O O3 0.137159 0.373780 0.681420
O O4 0.525846 0.894064 0.732382
O O5 0.443731 0.755729 0.028138
O O6 0.525847 0.894064 0.241780
O O7 0.254854 0.932732 0.122576
O O8 0.000000 0.500000 0.500000
O O9 0.000000 0.500000 0.000000
#
# Coordination Sequence:
#
# PCOD9242265 Si02
#       4
#     4   4   4   4
#     4  12  23  47  71 102 140 178 227 295 351 412
#     4  10  20  41  68  95 139 169 224 289 324 417
#     4  10  19  41  68 106 128 164 227 277 373 375
#     4  12  28  49  65 103 142 192 238 268 337 421
#
# _framework density 27.080358
#
# number of rings (size 3 to 8) (size 9 to 14) (size 15 to 20)
#    0.000    1.000    5.000    3.000    0.000    1.000 
#   27.000    2.500    0.000    0.000    0.000    0.000 
#    0.000    0.000    0.000    0.000    0.000    0.000 
#
# Total GULP energy -89588.892998 kJ/mol
# GULP energy per Si atom -5599.305812 kJ/mol
# Density = 2.701872 g / cm^3
# Si number density = 27.080358 Si / 1000 Ang^3
#
#
#
# Elastic Constant Matrix: (Units=GPa)
#
#
# Indices 1 2 3 4 5 6 
#
# 1 70.7543 11.8508 62.4325 0.0000 36.9988 0.0000
# 2 11.8508 131.8163 36.7988 0.0000 10.2698 0.0000
# 3 62.4325 36.7988 300.6227 0.0000 57.6068 0.0000
# 4 0.0000 0.0000 0.0000 34.9960 0.0000 -7.7711
# 5 36.9988 10.2698 57.6068 0.0000 57.5898 0.0000
# 6 0.0000 0.0000 0.0000 -7.7711 0.0000 53.8789
#
#
#
# Elastic Compliance Matrix: (Units=1/GPa)
#
#
# Indices 1 2 3 4 5 6 
#
# 1 0.022586 -0.000440 -0.002315 0.000000 -0.012116 0.000000
# 2 -0.000440 0.007877 -0.000814 0.000000 -0.000308 0.000000
# 3 -0.002315 -0.000814 0.004446 0.000000 -0.002815 0.000000
# 4 0.000000 0.000000 0.000000 0.029520 0.000000 0.004258
# 5 -0.012116 -0.000308 -0.002815 0.000000 0.028019 0.000000
# 6 0.000000 0.000000 0.000000 0.004258 0.000000 0.019174
#
#
# Mechanical properties :
#
#
# Convention : Reuss Voigt Hill
#
# Bulk Modulus (GPa) = 36.00893 80.59528 58.30211
# Shear Modulus (GPa) = 39.05718 55.43368 47.24543
#
# Velocity S-wave (km/s) = 3.80184 4.52929 4.18142
# Velocity P-wave (km/s) = 5.70946 7.56167 6.69988
#
# Compressibility (1/GPa) = 0.02777089
#
# Stress axis : x y z
#
# Youngs Moduli (GPa) = 44.27618 126.95081 224.90813
#
# Poissons Ratio (x) = 0.05590 0.52063
# Poissons Ratio (y) = 0.01950 0.18303
# Poissons Ratio (z) = 0.10249 0.10331
#
# Static dielectric constant tensor:
#      x y z
#    x 2.119710 0.000000 -0.004900 
#    y 0.000000 2.048260 0.000000 
#    z -0.004900 0.000000 2.107790 
# 
# From -- ./inp_files/935.got.cif
#   From: 2010.05.17/outbox.cif.g08.bks.cpg/sg14_1_cif.got.tgz:935.got - 2010.06.03 17:49:19.
