data_PCOD9242360
_publ_section_title
;
Structure prediction by ZEFSAII (Michael W. Deem and Ramdas Pophale) SiO2 
 PCOD9242360
Probable space group: P 21/C
;
_chemical_formula_sum "Si O2"
_cell_formula_units_Z 32
_cell_length_a 9.231547
_cell_length_b 6.988640
_cell_length_c 28.408008
_cell_angle_alpha 90.000000
_cell_angle_beta 130.535981
_cell_angle_gamma 90.000000
_cell_volume 1392.901381
_symmetry_space_group_name_H-M "P 21/C"
_symmetry_group_IT_number 14
_symmetry_cell_setting 'monoclinic'
loop_
_space_group_symop_operation_xyz
x,y,z
-x,1/2+y,1/2-z
-x,-y,-z
x,1/2-y,1/2+z
loop_
_atom_site_type_symbol
_atom_site_label
_atom_site_fract_x
_atom_site_fract_y
_atom_site_fract_z
Si Si1 0.732270 0.648145 0.578603
Si Si2 0.331192 0.572082 0.709885
Si Si3 0.183435 0.257348 0.052774
Si Si4 0.991650 0.072081 0.790114
Si Si5 0.472340 0.742651 0.947226
Si Si6 0.082144 0.851855 0.078603
Si Si7 0.924575 0.130682 0.668478
Si Si8 0.750661 0.630683 0.831521
O O1 0.611265 0.458181 0.564995
O O2 0.586491 0.786208 0.520269
O O3 0.843281 0.699176 0.650304
O O4 0.903476 0.607610 0.576738
O O5 0.210760 0.630909 0.730380
O O6 0.257936 0.699177 0.650304
O O7 0.551784 0.560599 0.768341
O O8 0.267433 0.359041 0.682229
O O9 0.372748 0.265610 0.061374
O O10 0.212983 0.383363 0.105372
O O11 0.148718 0.041818 0.064996
O O12 0.005416 0.286208 0.979731
O O13 0.978418 0.060599 0.731658
O O14 0.038516 0.859041 0.817771
O O15 0.291497 0.616636 0.894629
O O16 0.068682 0.057337 0.659341
#
# Coordination Sequence:
#
# PCOD9242360 Si02
#       8
#     4   4   4   4   4   4   4   4
#     4   8  15  27  43  66  93 118 150 192 231 270
#     4   9  18  32  48  68  95 123 152 189 231 274
#     4   9  15  25  44  67  91 120 151 187 232 274
#     4   9  18  32  48  68  95 123 152 189 231 274
#     4   9  15  25  44  67  91 120 151 187 232 274
#     4   8  15  27  43  66  93 118 150 192 231 270
#     4  10  20  32  47  70  97 123 155 193 230 274
#     4  10  20  32  47  70  97 123 155 193 230 274
#
# _framework density 22.973627
#
# number of rings (size 3 to 8) (size 9 to 14) (size 15 to 20)
#    0.000    3.000    0.000    3.000    0.000    6.000 
#    0.000    0.000    0.000    1.500    0.000    0.000 
#    0.000    0.000    0.000    0.000    0.000    0.000 
#
# Total GULP energy -178554.243821 kJ/mol
# GULP energy per Si atom -5579.820119 kJ/mol
# Density = 2.292134 g / cm^3
# Si number density = 22.973627 Si / 1000 Ang^3
#
#
#
# Elastic Constant Matrix: (Units=GPa)
#
#
# Indices 1 2 3 4 5 6 
#
# 1 103.4170 19.7704 109.3830 0.0000 -2.7497 0.0000
# 2 19.7704 51.3181 34.1276 0.0000 -0.4190 0.0000
# 3 109.3830 34.1276 226.6869 0.0000 -0.8470 0.0000
# 4 0.0000 0.0000 0.0000 45.4462 0.0000 -1.0136
# 5 -2.7497 -0.4190 -0.8470 0.0000 44.0822 0.0000
# 6 0.0000 0.0000 0.0000 -1.0136 0.0000 10.7106
#
#
#
# Elastic Compliance Matrix: (Units=1/GPa)
#
#
# Indices 1 2 3 4 5 6 
#
# 1 0.019889 -0.001416 -0.009380 0.000000 0.001047 0.000000
# 2 -0.001416 0.021756 -0.002592 0.000000 0.000069 0.000000
# 3 -0.009380 -0.002592 0.009326 0.000000 -0.000431 0.000000
# 4 0.000000 0.000000 0.000000 0.022051 0.000000 0.002087
# 5 0.001047 0.000069 -0.000431 0.000000 0.022743 0.000000
# 6 0.000000 0.000000 0.000000 0.002087 0.000000 0.093563
#
#
# Mechanical properties :
#
#
# Convention : Reuss Voigt Hill
#
# Bulk Modulus (GPa) = 41.32962 78.66485 59.99723
# Shear Modulus (GPa) = 22.30463 34.59054 28.44758
#
# Velocity S-wave (km/s) = 3.11927 3.88450 3.52273
# Velocity P-wave (km/s) = 5.56797 7.37799 6.53594
#
# Compressibility (1/GPa) = 0.02419572
#
# Stress axis : x y z
#
# Youngs Moduli (GPa) = 50.27820 45.96432 107.22545
#
# Poissons Ratio (x) = 0.06508 1.00579
# Poissons Ratio (y) = 0.07119 0.27792
# Poissons Ratio (z) = 0.47161 0.11913
#
# Static dielectric constant tensor:
#      x y z
#    x 1.795140 0.000000 -0.002930 
#    y 0.000000 1.962540 0.000000 
#    z -0.002930 0.000000 1.895410 
# 
# From -- ./inp_files/45526.got.cif
#   From: 2010.05.17/outbox.cif.g08.bks.cpg/sg14_23_cif.got.tgz:45526.got - 2010.06.03 17:49:19.
