data_PCOD9242469
_publ_section_title
;
Structure prediction by ZEFSAII (Michael W. Deem and Ramdas Pophale) SiO2 
 PCOD9242469
Probable space group: P 21/C
;
_chemical_formula_sum "Si O2"
_cell_formula_units_Z 24
_cell_length_a 18.075712
_cell_length_b 8.880112
_cell_length_c 14.700894
_cell_angle_alpha 90.000000
_cell_angle_beta 24.058121
_cell_angle_gamma 90.000000
_cell_volume 961.964498
_symmetry_space_group_name_H-M "P 21/C"
_symmetry_group_IT_number 14
_symmetry_cell_setting 'monoclinic'
loop_
_space_group_symop_operation_xyz
x,y,z
-x,1/2+y,1/2-z
-x,-y,-z
x,1/2-y,1/2+z
loop_
_atom_site_type_symbol
_atom_site_label
_atom_site_fract_x
_atom_site_fract_y
_atom_site_fract_z
Si Si1 0.913715 0.465745 0.466449
Si Si2 0.976915 0.310447 0.796765
Si Si3 0.422697 0.900197 0.949333
Si Si4 0.219652 0.494978 0.840066
Si Si5 0.379788 0.205007 0.899365
Si Si6 0.217726 0.174570 0.751824
O O1 0.033378 0.597106 0.284521
O O2 0.756667 0.550871 0.698196
O O3 0.864615 0.340092 0.446130
O O4 0.042578 0.379078 0.392177
O O5 0.187043 0.262860 0.568114
O O6 0.928525 0.429064 0.930279
O O7 0.465949 0.752803 0.843464
O O8 0.604728 0.960421 0.795164
O O9 0.379594 0.032353 0.927352
O O10 0.276544 0.894882 0.193632
O O11 0.175290 0.335375 0.844765
O O12 0.373565 0.296399 0.001957
#
# Coordination Sequence:
#
# PCOD9242469 Si02
#       6
#     4   4   4   4   4   4
#     4  10  20  33  57  88 120 151 191 250 297 339
#     4  11  22  38  61  91 120 156 203 250 296 356
#     4  10  22  40  61  87 123 162 197 247 305 359
#     4  10  21  40  64  88 120 160 202 246 300 357
#     4  10  22  38  59  86 122 161 201 248 298 356
#     4   9  19  37  58  85 119 154 194 244 294 348
#
# _framework density 24.948948000000001
#
# number of rings (size 3 to 8) (size 9 to 14) (size 15 to 20)
#    0.000    2.000    0.000    4.000    0.000    8.667 
#    0.000    5.000    0.000    8.000    0.000    0.000 
#    0.000    0.000    0.000    0.000    0.000    0.000 
#
# Total GULP energy -134235.758522 kJ/mol
# GULP energy per Si atom -5593.156605 kJ/mol
# Density = 2.489216 g / cm^3
# Si number density = 24.948948 Si / 1000 Ang^3
#
#
#
# Elastic Constant Matrix: (Units=GPa)
#
#
# Indices 1 2 3 4 5 6 
#
# 1 50.8456 35.2850 29.3967 0.0000 10.5941 0.0000
# 2 35.2850 45.7335 30.5039 0.0000 9.5894 0.0000
# 3 29.3967 30.5039 66.3534 0.0000 21.4913 0.0000
# 4 0.0000 0.0000 0.0000 47.1835 0.0000 17.2281
# 5 10.5941 9.5894 21.4913 0.0000 26.0922 0.0000
# 6 0.0000 0.0000 0.0000 17.2281 0.0000 32.1490
#
#
#
# Elastic Compliance Matrix: (Units=1/GPa)
#
#
# Indices 1 2 3 4 5 6 
#
# 1 0.043878 -0.030151 -0.004633 0.000000 -0.002918 0.000000
# 2 -0.030151 0.052259 -0.011471 0.000000 0.002484 0.000000
# 3 -0.004633 -0.011471 0.027853 0.000000 -0.016844 0.000000
# 4 0.000000 0.000000 0.000000 0.026350 0.000000 -0.014120
# 5 -0.002918 0.002484 -0.016844 0.000000 0.052472 0.000000
# 6 0.000000 0.000000 0.000000 -0.014120 0.000000 0.038672
#
#
# Mechanical properties :
#
#
# Convention : Reuss Voigt Hill
#
# Bulk Modulus (GPa) = 31.76758 39.25596 35.51177
# Shear Modulus (GPa) = 14.51439 25.60140 20.05789
#
# Velocity S-wave (km/s) = 2.41459 3.20683 2.83849
# Velocity P-wave (km/s) = 4.53149 5.42958 5.00074
#
# Compressibility (1/GPa) = 0.03147864
#
# Stress axis : x y z
#
# Youngs Moduli (GPa) = 22.79054 19.13558 35.90335
#
# Poissons Ratio (x) = 0.57696 0.16634
# Poissons Ratio (y) = 0.68716 0.41185
# Poissons Ratio (z) = 0.10559 0.21950
#
# Static dielectric constant tensor:
#      x y z
#    x 2.019450 0.000000 0.027170 
#    y 0.000000 1.977640 0.000000 
#    z 0.027170 0.000000 1.923360 
# 
# From -- ./inp_files/61673.got.cif
#   From: 2010.05.17/outbox.cif.g08.bks.cpg/sg14_31_cif.got.tgz:61673.got - 2010.06.03 17:49:19.
