data_PCOD9242277
_publ_section_title
;
Structure prediction by ZEFSAII (Michael W. Deem and Ramdas Pophale) SiO2 
 PCOD9242277
Probable space group: P 21/C
;
_chemical_formula_sum "Si O2"
_cell_formula_units_Z 20
_cell_length_a 9.801920
_cell_length_b 4.977451
_cell_length_c 15.811347
_cell_angle_alpha 90.000000
_cell_angle_beta 117.156493
_cell_angle_gamma 90.000000
_cell_volume 686.375007
_symmetry_space_group_name_H-M "P 21/C"
_symmetry_group_IT_number 14
_symmetry_cell_setting 'monoclinic'
loop_
_space_group_symop_operation_xyz
x,y,z
-x,1/2+y,1/2-z
-x,-y,-z
x,1/2-y,1/2+z
loop_
_atom_site_type_symbol
_atom_site_label
_atom_site_fract_x
_atom_site_fract_y
_atom_site_fract_z
Si Si1 0.407110 0.275198 0.460251
Si Si2 0.964899 0.370485 0.782189
Si Si3 0.847180 0.489201 0.011404
Si Si4 0.351687 0.481638 0.605080
Si Si5 0.326800 0.354316 0.255025
O O1 0.517793 0.517400 0.439893
O O2 0.500000 0.000000 0.500000
O O3 0.317570 0.214239 0.345103
O O4 0.270264 0.243530 0.501785
O O5 0.077785 0.536732 0.875690
O O6 0.984473 0.563424 0.706473
O O7 0.791296 0.399903 0.765040
O O8 0.746319 0.245302 0.949037
O O9 0.000000 0.500000 0.000000
O O10 0.496090 0.573237 0.708443
O O11 0.269852 0.297170 0.654933
#
# Coordination Sequence:
#
# PCOD9242277 Si02
#       5
#     4   4   4   4   4
#     4   8  17  37  66  95 145 193 241 308 386 465
#     4  12  25  44  73 106 145 195 250 308 380 464
#     4  10  19  41  70 101 150 188 259 318 384 452
#     4   9  21  37  67  99 140 191 249 311 375 466
#     4  11  20  42  66 100 149 191 250 304 391 459
#
# _framework density 29.138591000000002
#
# number of rings (size 3 to 8) (size 9 to 14) (size 15 to 20)
#    1.200    0.800    4.000    0.000    0.000    1.600 
#    0.000   11.000    0.000    0.000    0.000    0.000 
#    0.000    0.000    0.000    0.000    0.000    0.000 
#
# Total GULP energy -111663.619097 kJ/mol
# GULP energy per Si atom -5583.180955 kJ/mol
# Density = 2.907227 g / cm^3
# Si number density = 29.138591 Si / 1000 Ang^3
#
#
#
# Elastic Constant Matrix: (Units=GPa)
#
#
# Indices 1 2 3 4 5 6 
#
# 1 152.5436 65.5561 49.6538 0.0000 -2.6325 0.0000
# 2 65.5561 207.9263 54.6270 0.0000 6.0537 0.0000
# 3 49.6538 54.6270 129.3529 0.0000 -17.5091 0.0000
# 4 0.0000 0.0000 0.0000 55.3561 0.0000 4.7257
# 5 -2.6325 6.0537 -17.5091 0.0000 87.0093 0.0000
# 6 0.0000 0.0000 0.0000 4.7257 0.0000 54.7271
#
#
#
# Elastic Compliance Matrix: (Units=1/GPa)
#
#
# Indices 1 2 3 4 5 6 
#
# 1 0.008149 -0.001959 -0.002312 0.000000 -0.000082 0.000000
# 2 -0.001959 0.005944 -0.001873 0.000000 -0.000850 0.000000
# 3 -0.002312 -0.001873 0.009681 0.000000 0.002009 0.000000
# 4 0.000000 0.000000 0.000000 0.018199 0.000000 -0.001572
# 5 -0.000082 -0.000850 0.002009 0.000000 0.011954 0.000000
# 6 0.000000 0.000000 0.000000 -0.001572 0.000000 0.018408
#
#
# Mechanical properties :
#
#
# Convention : Reuss Voigt Hill
#
# Bulk Modulus (GPa) = 87.06702 92.16629 89.61666
# Shear Modulus (GPa) = 56.52823 60.75088 58.63955
#
# Velocity S-wave (km/s) = 4.40930 4.57102 4.49089
# Velocity P-wave (km/s) = 7.47447 7.71738 7.59690
#
# Compressibility (1/GPa) = 0.01148540
#
# Stress axis : x y z
#
# Youngs Moduli (GPa) = 122.72063 168.23635 103.29484
#
# Poissons Ratio (x) = 0.32965 0.23878
# Poissons Ratio (y) = 0.24046 0.19348
# Poissons Ratio (z) = 0.28368 0.31512
#
# Static dielectric constant tensor:
#      x y z
#    x 2.280030 0.000000 -0.075710 
#    y 0.000000 2.245510 0.000000 
#    z -0.075710 0.000000 2.462370 
# 
# From -- ./inp_files/71552.got.cif
#   From: 2010.05.17/outbox.cif.g08.bks.cpg/sg14_36_cif.got.tgz:71552.got - 2010.06.03 17:49:19.
