data_PCOD9242490
_publ_section_title
;
Structure prediction by ZEFSAII (Michael W. Deem and Ramdas Pophale) SiO2 
 PCOD9242490
Probable space group: P 21/C
;
_chemical_formula_sum "Si O2"
_cell_formula_units_Z 24
_cell_length_a 21.494895
_cell_length_b 8.285162
_cell_length_c 10.730023
_cell_angle_alpha 90.000000
_cell_angle_beta 148.540587
_cell_angle_gamma 90.000000
_cell_volume 997.285853
_symmetry_space_group_name_H-M "P 21/C"
_symmetry_group_IT_number 14
_symmetry_cell_setting 'monoclinic'
loop_
_space_group_symop_operation_xyz
x,y,z
-x,1/2+y,1/2-z
-x,-y,-z
x,1/2-y,1/2+z
loop_
_atom_site_type_symbol
_atom_site_label
_atom_site_fract_x
_atom_site_fract_y
_atom_site_fract_z
Si Si1 0.717012 0.864178 0.195781
Si Si2 0.607728 0.875280 0.722784
Si Si3 0.907482 0.426825 0.169789
Si Si4 0.247362 0.640076 0.612780
Si Si5 0.552510 0.382890 0.486222
Si Si6 0.170072 0.057294 0.195243
O O1 0.655894 0.747397 0.196699
O O2 0.774136 0.734302 0.200369
O O3 0.829388 0.967196 0.441059
O O4 0.617668 0.002631 0.998014
O O5 0.546373 0.750298 0.715461
O O6 0.500000 0.000000 0.500000
O O7 0.719488 0.997987 0.925382
O O8 0.864927 0.490034 0.231568
O O9 0.049537 0.438316 0.406862
O O10 0.873650 0.238407 0.105813
O O11 0.255598 0.562392 0.764881
O O12 0.344752 0.780378 0.771222
O O13 0.500000 0.500000 0.500000
#
# Coordination Sequence:
#
# PCOD9242490 Si02
#       6
#     4   4   4   4   4   4
#     4   9  17  31  53  75 103 139 172 212 263 316
#     4   8  14  27  51  76  99 135 170 207 264 312
#     4  10  20  34  52  76 106 139 178 221 263 311
#     4   9  17  31  53  75 103 139 172 212 263 316
#     4   8  14  27  51  76  99 135 170 207 264 312
#     4  10  20  34  52  76 106 139 178 221 263 311
#
# _framework density 24.065314999999998
#
# number of rings (size 3 to 8) (size 9 to 14) (size 15 to 20)
#    0.000    3.000    0.000    1.000    0.000    0.000 
#    0.000    6.667    0.000  118.000    0.000    0.000 
#    0.000    0.000    0.000    0.000    0.000    0.000 
#
# Total GULP energy -133802.590655 kJ/mol
# GULP energy per Si atom -5575.107944 kJ/mol
# Density = 2.401054 g / cm^3
# Si number density = 24.065315 Si / 1000 Ang^3
#
#
#
# Elastic Constant Matrix: (Units=GPa)
#
#
# Indices 1 2 3 4 5 6 
#
# 1 42.4203 25.3687 -4.9147 0.0000 4.2416 0.0000
# 2 25.3687 175.4669 32.5584 0.0000 10.0836 0.0000
# 3 -4.9147 32.5584 73.3762 0.0000 11.7677 0.0000
# 4 0.0000 0.0000 0.0000 43.5177 0.0000 16.2835
# 5 4.2416 10.0836 11.7677 0.0000 21.8759 0.0000
# 6 0.0000 0.0000 0.0000 16.2835 0.0000 48.4711
#
#
#
# Elastic Compliance Matrix: (Units=1/GPa)
#
#
# Indices 1 2 3 4 5 6 
#
# 1 0.027405 -0.004514 0.004768 0.000000 -0.005798 0.000000
# 2 -0.004514 0.007000 -0.003317 0.000000 -0.000567 0.000000
# 3 0.004768 -0.003317 0.016770 0.000000 -0.008416 0.000000
# 4 0.000000 0.000000 0.000000 0.026283 0.000000 -0.008830
# 5 -0.005798 -0.000567 -0.008416 0.000000 0.051625 0.000000
# 6 0.000000 0.000000 0.000000 -0.008830 0.000000 0.023597
#
#
# Mechanical properties :
#
#
# Convention : Reuss Voigt Hill
#
# Bulk Modulus (GPa) = 22.19815 44.14313 33.17064
# Shear Modulus (GPa) = 28.76513 38.65636 33.71075
#
# Velocity S-wave (km/s) = 3.46105 4.01223 3.74679
# Velocity P-wave (km/s) = 5.02155 6.31244 5.70363
#
# Compressibility (1/GPa) = 0.04504880
#
# Stress axis : x y z
#
# Youngs Moduli (GPa) = 36.48949 142.86136 59.63206
#
# Poissons Ratio (x) = 0.64484 -0.28434
# Poissons Ratio (y) = 0.16470 0.19782
# Poissons Ratio (z) = -0.17399 0.47392
#
# Static dielectric constant tensor:
#      x y z
#    x 2.010920 0.000000 -0.038130 
#    y 0.000000 1.950250 0.000000 
#    z -0.038130 0.000000 2.024740 
# 
# From -- ./inp_files/35767.got.cif
#   From: 2010.05.17/outbox.cif.g08.bks.cpg/sg14_18_cif.got.tgz:35767.got - 2010.06.03 17:49:19.
