data_PCOD9242742
_publ_section_title
;
Structure prediction by ZEFSAII (Michael W. Deem and Ramdas Pophale) SiO2 
 PCOD9242742
Probable space group: P 21/C
;
_chemical_formula_sum "Si O2"
_cell_formula_units_Z 20
_cell_length_a 12.016902
_cell_length_b 19.004786
_cell_length_c 5.027999
_cell_angle_alpha 90.000000
_cell_angle_beta 119.062645
_cell_angle_gamma 90.000000
_cell_volume 1003.705714
_symmetry_space_group_name_H-M "P 21/C"
_symmetry_group_IT_number 14
_symmetry_cell_setting 'monoclinic'
loop_
_space_group_symop_operation_xyz
x,y,z
-x,1/2+y,1/2-z
-x,-y,-z
x,1/2-y,1/2+z
loop_
_atom_site_type_symbol
_atom_site_label
_atom_site_fract_x
_atom_site_fract_y
_atom_site_fract_z
Si Si1 0.616935 0.451800 0.049937
Si Si2 0.022993 0.065938 0.825613
Si Si3 0.784610 0.019961 0.245440
Si Si4 0.645412 0.295671 0.101607
Si Si5 0.950782 0.294107 0.498397
O O1 0.288347 0.551949 0.588731
O O2 0.584194 0.370414 0.956130
O O3 0.500000 0.500000 0.000000
O O4 0.688818 0.485418 0.880790
O O5 0.901254 0.066971 0.488530
O O6 0.024353 0.136506 0.995013
O O7 0.146108 0.049123 0.790642
O O8 0.000000 0.000000 0.000000
O O9 0.613296 0.264416 0.351089
O O10 0.799115 0.306557 0.281045
O O11 0.979512 0.269220 0.827938
#
# Coordination Sequence:
#
# PCOD9242742 Si02
#       5
#     4   4   4   4   4
#     4  12  24  41  61  90 123 158 211 254 289 356
#     4  11  22  38  65  88 129 156 195 250 300 383
#     4  11  23  37  62  91 118 159 204 236 313 344
#     4  10  20  35  58  85 118 151 192 253 308 352
#     4  10  22  33  56  89 123 152 190 249 311 357
#
# _framework density 19.926161
#
# number of rings (size 3 to 8) (size 9 to 14) (size 15 to 20)
#    0.000    1.200    4.000    1.800   11.200    0.000 
#    0.000    0.000    0.000    7.200    0.000    0.000 
#    0.000    0.000    0.000    0.000    0.000    0.000 
#
# Total GULP energy -111768.957602 kJ/mol
# GULP energy per Si atom -5588.447880 kJ/mol
# Density = 1.988081 g / cm^3
# Si number density = 19.926161 Si / 1000 Ang^3
#
#
#
# Elastic Constant Matrix: (Units=GPa)
#
#
# Indices 1 2 3 4 5 6 
#
# 1 76.4628 45.6761 7.5654 0.0000 -26.4878 0.0000
# 2 45.6761 92.3167 1.9110 0.0000 -1.2130 0.0000
# 3 7.5654 1.9110 64.2533 0.0000 -18.6858 0.0000
# 4 0.0000 0.0000 0.0000 21.3987 0.0000 -15.6030
# 5 -26.4878 -1.2130 -18.6858 0.0000 25.8134 0.0000
# 6 0.0000 0.0000 0.0000 -15.6030 0.0000 30.6273
#
#
#
# Elastic Compliance Matrix: (Units=1/GPa)
#
#
# Indices 1 2 3 4 5 6 
#
# 1 0.040007 -0.019374 0.009550 0.000000 0.047055 0.000000
# 2 -0.019374 0.020224 -0.004845 0.000000 -0.022437 0.000000
# 3 0.009550 -0.004845 0.021997 0.000000 0.025495 0.000000
# 4 0.000000 0.000000 0.000000 0.074350 0.000000 0.037878
# 5 0.047055 -0.022437 0.025495 0.000000 0.104425 0.000000
# 6 0.000000 0.000000 0.000000 0.037878 0.000000 0.051947
#
#
# Mechanical properties :
#
#
# Convention : Reuss Voigt Hill
#
# Bulk Modulus (GPa) = 18.90746 38.14864 28.52805
# Shear Modulus (GPa) = 13.89200 27.42657 20.65929
#
# Velocity S-wave (km/s) = 2.64327 3.71403 3.22342
# Velocity P-wave (km/s) = 4.33880 6.13013 5.31054
#
# Compressibility (1/GPa) = 0.05288919
#
# Stress axis : x y z
#
# Youngs Moduli (GPa) = 24.99556 49.44740 45.45974
#
# Poissons Ratio (x) = 0.95799 -0.43414
# Poissons Ratio (y) = 0.48426 0.22027
# Poissons Ratio (z) = -0.23871 0.23959
#
# Static dielectric constant tensor:
#      x y z
#    x 1.696980 0.000000 -0.015380 
#    y 0.000000 1.729190 0.000000 
#    z -0.015380 0.000000 1.712240 
# 
# From -- ./inp_files/1050.got.cif
#   From: 2010.05.17/outbox.cif.g08.bks.cpg/sg14_1_cif.got.tgz:1050.got - 2010.06.03 17:49:19.
