data_PCOD9242758
_publ_section_title
;
Structure prediction by ZEFSAII (Michael W. Deem and Ramdas Pophale) SiO2 
 PCOD9242758
Probable space group: P 21/C
;
_chemical_formula_sum "Si O2"
_cell_formula_units_Z 20
_cell_length_a 27.299832
_cell_length_b 4.988283
_cell_length_c 14.278899
_cell_angle_alpha 90.000000
_cell_angle_beta 155.348790
_cell_angle_gamma 90.000000
_cell_volume 811.033847
_symmetry_space_group_name_H-M "P 21/C"
_symmetry_group_IT_number 14
_symmetry_cell_setting 'monoclinic'
loop_
_space_group_symop_operation_xyz
x,y,z
-x,1/2+y,1/2-z
-x,-y,-z
x,1/2-y,1/2+z
loop_
_atom_site_type_symbol
_atom_site_label
_atom_site_fract_x
_atom_site_fract_y
_atom_site_fract_z
Si Si1 0.810918 0.700254 0.061857
Si Si2 0.037950 0.815879 0.686365
Si Si3 0.850977 0.975500 0.945790
Si Si4 0.354838 0.843255 0.972292
Si Si5 0.598439 0.844046 0.326310
O O1 0.866166 0.409037 0.169612
O O2 0.912121 0.911886 0.271545
O O3 0.686455 0.718441 0.895894
O O4 0.792827 0.780302 0.921565
O O5 0.910500 0.679685 0.463052
O O6 0.049358 0.883001 0.817550
O O7 0.766060 0.214336 0.769399
O O8 0.458666 0.798785 0.076799
O O9 0.388285 0.651081 0.118166
O O10 0.358500 0.146269 0.015154
#
# Coordination Sequence:
#
# PCOD9242758 Si02
#       5
#     4   4   4   4   4
#     4  10  20  36  60  81 119 142 185 241 272 324
#     4  10  20  35  59  84 114 144 183 239 274 331
#     4  10  21  37  62  83 113 149 193 221 289 329
#     4  10  23  38  62  78 115 157 184 228 285 339
#     4  10  22  42  54  85 117 147 190 233 279 329
#
# _framework density 24.659882
#
# number of rings (size 3 to 8) (size 9 to 14) (size 15 to 20)
#    1.200    0.800    2.000    1.200    2.800    0.800 
#    0.000    7.000    0.000    0.000    0.000    0.000 
#    0.000    0.000    0.000    0.000    0.000    0.000 
#
# Total GULP energy -111687.406544 kJ/mol
# GULP energy per Si atom -5584.370327 kJ/mol
# Density = 2.460375 g / cm^3
# Si number density = 24.659882 Si / 1000 Ang^3
#
#
#
# Elastic Constant Matrix: (Units=GPa)
#
#
# Indices 1 2 3 4 5 6 
#
# 1 115.7751 14.4339 48.6472 0.0000 65.2891 0.0000
# 2 14.4339 112.7758 -6.2655 0.0000 1.6073 0.0000
# 3 48.6472 -6.2655 65.7793 0.0000 53.7906 0.0000
# 4 0.0000 0.0000 0.0000 26.9751 0.0000 13.7609
# 5 65.2891 1.6073 53.7906 0.0000 69.2979 0.0000
# 6 0.0000 0.0000 0.0000 13.7609 0.0000 23.8403
#
#
#
# Elastic Compliance Matrix: (Units=1/GPa)
#
#
# Indices 1 2 3 4 5 6 
#
# 1 0.018967 -0.002111 0.000944 0.000000 -0.018553 0.000000
# 2 -0.002111 0.009294 0.002728 0.000000 -0.000344 0.000000
# 3 0.000944 0.002728 0.042555 0.000000 -0.033984 0.000000
# 4 0.000000 0.000000 0.000000 0.052543 0.000000 -0.030328
# 5 -0.018553 -0.000344 -0.033984 0.000000 0.058298 0.000000
# 6 0.000000 0.000000 0.000000 -0.030328 0.000000 0.059452
#
#
# Mechanical properties :
#
#
# Convention : Reuss Voigt Hill
#
# Bulk Modulus (GPa) = 13.52503 45.32903 29.42703
# Shear Modulus (GPa) = 19.03814 39.85696 29.44755
#
# Velocity S-wave (km/s) = 2.78155 4.02464 3.45939
# Velocity P-wave (km/s) = 3.97651 6.32603 5.28352
#
# Compressibility (1/GPa) = 0.07393698
#
# Stress axis : x y z
#
# Youngs Moduli (GPa) = 52.72411 107.59937 23.49919
#
# Poissons Ratio (x) = 0.22710 -0.02218
# Poissons Ratio (y) = 0.11128 -0.06410
# Poissons Ratio (z) = -0.04976 -0.29350
#
# Static dielectric constant tensor:
#      x y z
#    x 1.977940 0.000000 -0.066380 
#    y 0.000000 1.957320 0.000000 
#    z -0.066380 0.000000 2.050000 
# 
# From -- ./inp_files/51012.got.cif
#   From: 2010.05.17/outbox.cif.g08.bks.cpg/sg14_26_cif.got.tgz:51012.got - 2010.06.03 17:49:19.
