data_PCOD9242586
_publ_section_title
;
Structure prediction by ZEFSAII (Michael W. Deem and Ramdas Pophale) SiO2 
 PCOD9242586
Probable space group: P 21/C
;
_chemical_formula_sum "Si O2"
_cell_formula_units_Z 12
_cell_length_a 14.212806
_cell_length_b 8.607973
_cell_length_c 5.475009
_cell_angle_alpha 90.000000
_cell_angle_beta 140.872649
_cell_angle_gamma 90.000000
_cell_volume 422.694613
_symmetry_space_group_name_H-M "P 21/C"
_symmetry_group_IT_number 14
_symmetry_cell_setting 'monoclinic'
loop_
_space_group_symop_operation_xyz
x,y,z
-x,1/2+y,1/2-z
-x,-y,-z
x,1/2-y,1/2+z
loop_
_atom_site_type_symbol
_atom_site_label
_atom_site_fract_x
_atom_site_fract_y
_atom_site_fract_z
Si Si1 0.936570 0.667958 0.306600
Si Si2 0.669854 0.175920 0.688802
Si Si3 0.615255 0.876396 0.345926
O O1 0.976353 0.781126 0.612886
O O2 0.000000 0.500000 0.500000
O O3 0.756133 0.658857 0.961500
O O4 0.732111 0.254501 0.566268
O O5 0.496837 0.234845 0.332149
O O6 0.679451 0.990187 0.690468
O O7 0.500000 0.000000 0.000000
#
# Coordination Sequence:
#
# PCOD9242586 Si02
#       3
#     4   4   4
#     4  12  28  51  76 107 149 199 253 310 371 444
#     4  10  20  34  57  91 130 170 215 274 342 412
#     4  10  22  41  68 102 140 181 232 296 363 434
#
# _framework density 28.389286999999999
#
# number of rings (size 3 to 8) (size 9 to 14) (size 15 to 20)
#    0.000    1.333    0.000    6.000    0.000   10.667 
#    0.000    0.000    0.000    0.000    0.000    0.000 
#    0.000    0.000    0.000    0.000    0.000    0.000 
#
# Total GULP energy -67260.245637 kJ/mol
# GULP energy per Si atom -5605.020470 kJ/mol
# Density = 2.832467 g / cm^3
# Si number density = 28.389287 Si / 1000 Ang^3
#
#
#
# Elastic Constant Matrix: (Units=GPa)
#
#
# Indices 1 2 3 4 5 6 
#
# 1 180.5389 15.9128 28.4373 0.0000 -13.3199 0.0000
# 2 15.9128 80.6459 -20.7306 0.0000 5.1751 0.0000
# 3 28.4373 -20.7306 126.7258 0.0000 -4.9715 0.0000
# 4 0.0000 0.0000 0.0000 44.0644 0.0000 -10.9347
# 5 -13.3199 5.1751 -4.9715 0.0000 57.3404 0.0000
# 6 0.0000 0.0000 0.0000 -10.9347 0.0000 65.6613
#
#
#
# Elastic Compliance Matrix: (Units=1/GPa)
#
#
# Indices 1 2 3 4 5 6 
#
# 1 0.006041 -0.001688 -0.001576 0.000000 0.001419 0.000000
# 2 -0.001688 0.013472 0.002528 0.000000 -0.001389 0.000000
# 3 -0.001576 0.002528 0.008664 0.000000 0.000157 0.000000
# 4 0.000000 0.000000 0.000000 0.023672 0.000000 0.003942
# 5 0.001419 -0.001389 0.000157 0.000000 0.017908 0.000000
# 6 0.000000 0.000000 0.000000 0.003942 0.000000 0.015886
#
#
# Mechanical properties :
#
#
# Convention : Reuss Voigt Hill
#
# Bulk Modulus (GPa) = 37.44591 48.34995 42.89793
# Shear Modulus (GPa) = 52.07382 57.69930 54.88656
#
# Velocity S-wave (km/s) = 4.28749 4.51314 4.40176
# Velocity P-wave (km/s) = 6.14239 6.65026 6.40136
#
# Compressibility (1/GPa) = 0.02670519
#
# Stress axis : x y z
#
# Youngs Moduli (GPa) = 165.54382 74.22811 115.41417
#
# Poissons Ratio (x) = 0.12531 0.18190
# Poissons Ratio (y) = 0.27946 -0.29179
# Poissons Ratio (z) = 0.26090 -0.18766
#
# Static dielectric constant tensor:
#      x y z
#    x 2.457730 0.000000 -0.149350 
#    y 0.000000 2.352130 0.000000 
#    z -0.149350 0.000000 2.376760 
# 
# From -- ./inp_files/784.got.cif
#   From: 2010.05.17/outbox.cif.g08.bks.cpg/sg14_1_cif.got.tgz:784.got - 2010.06.03 17:49:19.
