data_PCOD9242183
_publ_section_title
;
Structure prediction by ZEFSAII (Michael W. Deem and Ramdas Pophale) SiO2 
 PCOD9242183
Probable space group: P 21/C
;
_chemical_formula_sum "Si O2"
_cell_formula_units_Z 32
_cell_length_a 7.127235
_cell_length_b 13.966971
_cell_length_c 13.064825
_cell_angle_alpha 90.000000
_cell_angle_beta 92.299043
_cell_angle_gamma 90.000000
_cell_volume 1299.502704
_symmetry_space_group_name_H-M "P 21/C"
_symmetry_group_IT_number 14
_symmetry_cell_setting 'monoclinic'
loop_
_space_group_symop_operation_xyz
x,y,z
-x,1/2+y,1/2-z
-x,-y,-z
x,1/2-y,1/2+z
loop_
_atom_site_type_symbol
_atom_site_label
_atom_site_fract_x
_atom_site_fract_y
_atom_site_fract_z
Si Si1 0.474822 0.715166 0.951462
Si Si2 0.560387 0.465121 0.168006
Si Si3 0.008748 0.008192 0.360119
Si Si4 0.961041 0.856665 0.037747
Si Si5 0.868166 0.468542 0.634741
Si Si6 0.427322 0.648276 0.286673
Si Si7 0.959429 0.162411 0.530996
Si Si8 0.640569 0.183176 0.851217
O O1 0.525581 0.604327 0.923012
O O2 0.553883 0.782174 0.861073
O O3 0.242716 0.704676 0.940383
O O4 0.489034 0.769027 0.061807
O O5 0.767423 0.495531 0.134946
O O6 0.480729 0.566022 0.206832
O O7 0.569769 0.397853 0.270465
O O8 0.936790 0.082793 0.442194
O O9 0.945027 0.898936 0.378126
O O10 0.943518 0.040703 0.249499
O O11 0.917255 0.748254 0.010045
O O12 0.834670 0.921549 0.106604
O O13 0.982742 0.918315 0.935494
O O14 0.166900 0.855098 0.095338
O O15 0.680052 0.408889 0.627256
O O16 0.311545 0.725901 0.219424
#
# Coordination Sequence:
#
# PCOD9242183 Si02
#       8
#     4   4   4   4   4   4   4   4
#     4   9  19  39  61  82 114 164 200 232 292 373
#     4  10  22  38  59  90 121 151 203 245 294 359
#     4  10  20  35  62  87 116 150 197 254 295 339
#     4  10  20  35  59  88 115 151 202 239 288 354
#     4  11  20  34  60  91 111 148 203 246 282 351
#     4  11  22  37  64  87 117 161 201 235 299 372
#     4   9  18  36  58  83 113 158 196 231 302 351
#     4  10  19  40  63  80 116 166 191 239 306 348
#
# _framework density 24.624803
#
# number of rings (size 3 to 8) (size 9 to 14) (size 15 to 20)
#    0.000    2.000    3.750    1.500    0.000    2.000 
#    4.500    0.000    0.000    0.000    0.000    0.000 
#    0.000    0.000    0.000    0.000    0.000    0.000 
#
# Total GULP energy -178446.885076 kJ/mol
# GULP energy per Si atom -5576.465159 kJ/mol
# Density = 2.456876 g / cm^3
# Si number density = 24.624803 Si / 1000 Ang^3
#
#
#
# Elastic Constant Matrix: (Units=GPa)
#
#
# Indices 1 2 3 4 5 6 
#
# 1 48.0389 15.3041 3.5763 0.0000 -15.2008 0.0000
# 2 15.3041 164.9489 31.7685 0.0000 -6.0622 0.0000
# 3 3.5763 31.7685 103.1407 0.0000 -6.7665 0.0000
# 4 0.0000 0.0000 0.0000 206.5819 0.0000 -4.6329
# 5 -15.2008 -6.0622 -6.7665 0.0000 23.7305 0.0000
# 6 0.0000 0.0000 0.0000 -4.6329 0.0000 29.8437
#
#
#
# Elastic Compliance Matrix: (Units=1/GPa)
#
#
# Indices 1 2 3 4 5 6 
#
# 1 0.026725 -0.002015 0.000798 0.000000 0.016832 0.000000
# 2 -0.002015 0.006625 -0.001981 0.000000 -0.000163 0.000000
# 3 0.000798 -0.001981 0.010474 0.000000 0.002992 0.000000
# 4 0.000000 0.000000 0.000000 0.004858 0.000000 0.000754
# 5 0.016832 -0.000163 0.002992 0.000000 0.053733 0.000000
# 6 0.000000 0.000000 0.000000 0.000754 0.000000 0.033625
#
#
# Mechanical properties :
#
#
# Convention : Reuss Voigt Hill
#
# Bulk Modulus (GPa) = 26.71773 46.38070 36.54921
# Shear Modulus (GPa) = 32.27644 69.72987 51.00315
#
# Velocity S-wave (km/s) = 3.62433 5.32714 4.55599
# Velocity P-wave (km/s) = 5.32802 7.53085 6.52309
#
# Compressibility (1/GPa) = 0.03742833
#
# Stress axis : x y z
#
# Youngs Moduli (GPa) = 37.41837 150.94285 95.47094
#
# Poissons Ratio (x) = 0.30410 -0.07620
# Poissons Ratio (y) = 0.07539 0.18917
# Poissons Ratio (z) = -0.02986 0.29908
#
# Static dielectric constant tensor:
#      x y z
#    x 2.034540 0.000000 -0.037170 
#    y 0.000000 1.981650 0.000000 
#    z -0.037170 0.000000 1.997610 
# 
# From -- ./inp_files/25263.got.cif
#   From: 2010.05.17/outbox.cif.g08.bks.cpg/sg14_13_cif.got.tgz:25263.got - 2010.06.03 17:49:19.
