data_PCOD9242344
_publ_section_title
;
Structure prediction by ZEFSAII (Michael W. Deem and Ramdas Pophale) SiO2 
 PCOD9242344
Probable space group: P 21/C
;
_chemical_formula_sum "Si O2"
_cell_formula_units_Z 32
_cell_length_a 14.652787
_cell_length_b 6.923409
_cell_length_c 15.921387
_cell_angle_alpha 90.000000
_cell_angle_beta 138.320671
_cell_angle_gamma 90.000000
_cell_volume 1074.032097
_symmetry_space_group_name_H-M "P 21/C"
_symmetry_group_IT_number 14
_symmetry_cell_setting 'monoclinic'
loop_
_space_group_symop_operation_xyz
x,y,z
-x,1/2+y,1/2-z
-x,-y,-z
x,1/2-y,1/2+z
loop_
_atom_site_type_symbol
_atom_site_label
_atom_site_fract_x
_atom_site_fract_y
_atom_site_fract_z
Si Si1 0.364610 0.308562 0.067947
Si Si2 0.194586 0.200272 0.289906
Si Si3 0.689385 0.139739 0.935627
Si Si4 0.107235 0.352716 0.982740
Si Si5 0.945704 0.199021 0.018996
Si Si6 0.383884 0.734501 0.349764
Si Si7 0.439463 0.211177 0.855538
Si Si8 0.859048 0.342296 0.713722
O O1 0.277451 0.375066 0.926771
O O2 0.270101 0.367190 0.081013
O O3 0.348744 0.077508 0.065502
O O4 0.521717 0.351061 0.151462
O O5 0.299824 0.181292 0.283712
O O6 0.172935 0.430264 0.293086
O O7 0.046276 0.124711 0.161980
O O8 0.787525 0.139019 0.922582
O O9 0.793762 0.211733 0.080217
O O10 0.544503 0.249412 0.850329
O O11 0.067857 0.569053 0.979388
O O12 0.019691 0.309322 0.838120
O O13 0.043484 0.197776 0.003879
O O14 0.467915 0.738430 0.496127
O O15 0.394857 0.513585 0.325907
O O16 0.228343 0.763199 0.272724
#
# Coordination Sequence:
#
# PCOD9242344 Si02
#       8
#     4   4   4   4   4   4   4   4
#     4   9  16  28  49  70  83 103 142 188 219 239
#     4   8  14  27  47  67  85 109 143 177 209 251
#     4   9  16  28  49  70  83 103 142 188 219 239
#     4  10  20  31  42  60  90 123 145 165 205 261
#     4  10  20  31  42  60  90 123 145 165 205 261
#     4   7  11  22  43  68  85 100 134 181 217 244
#     4   7  11  22  43  68  85 100 134 181 217 244
#     4   8  14  27  47  67  85 109 143 177 209 251
#
# _framework density 29.794270999999998
#
# number of rings (size 3 to 8) (size 9 to 14) (size 15 to 20)
#    0.000    3.500    0.000    3.750    0.000    0.500 
#    0.000    1.250    0.000    8.250    0.000    0.000 
#    0.000    0.000    0.000    0.000    0.000    0.000 
#
# Total GULP energy -179079.783663 kJ/mol
# GULP energy per Si atom -5596.243239 kJ/mol
# Density = 2.972646 g / cm^3
# Si number density = 29.794271 Si / 1000 Ang^3
#
#
#
# Elastic Constant Matrix: (Units=GPa)
#
#
# Indices 1 2 3 4 5 6 
#
# 1 190.4225 22.0407 58.0611 0.0000 36.5139 0.0000
# 2 22.0407 95.2081 11.1247 0.0000 4.4525 0.0000
# 3 58.0611 11.1247 137.9458 0.0000 39.9483 0.0000
# 4 0.0000 0.0000 0.0000 19.2544 0.0000 11.2586
# 5 36.5139 4.4525 39.9483 0.0000 64.3120 0.0000
# 6 0.0000 0.0000 0.0000 11.2586 0.0000 45.9150
#
#
#
# Elastic Compliance Matrix: (Units=1/GPa)
#
#
# Indices 1 2 3 4 5 6 
#
# 1 0.006427 -0.001152 -0.001925 0.000000 -0.002374 0.000000
# 2 -0.001152 0.010813 -0.000439 0.000000 0.000178 0.000000
# 3 -0.001925 -0.000439 0.009474 0.000000 -0.004762 0.000000
# 4 0.000000 0.000000 0.000000 0.060629 0.000000 -0.014867
# 5 -0.002374 0.000178 -0.004762 0.000000 0.019842 0.000000
# 6 0.000000 0.000000 0.000000 -0.014867 0.000000 0.025425
#
#
# Mechanical properties :
#
#
# Convention : Reuss Voigt Hill
#
# Bulk Modulus (GPa) = 50.80623 67.33659 59.07141
# Shear Modulus (GPa) = 34.19946 48.05293 41.12619
#
# Velocity S-wave (km/s) = 3.39167 4.02036 3.71932
# Velocity P-wave (km/s) = 5.69450 6.64835 6.18983
#
# Compressibility (1/GPa) = 0.01968262
#
# Stress axis : x y z
#
# Youngs Moduli (GPa) = 155.59800 92.48199 105.55608
#
# Poissons Ratio (x) = 0.10653 0.20317
# Poissons Ratio (y) = 0.17923 0.04631
# Poissons Ratio (z) = 0.29949 0.04057
#
# Static dielectric constant tensor:
#      x y z
#    x 2.397820 0.000000 -0.054950 
#    y 0.000000 2.332000 0.000000 
#    z -0.054950 0.000000 2.242860 
# 
# From -- ./inp_files/57585.got.cif
#   From: 2010.05.17/outbox.cif.g08.bks.cpg/sg14_29_cif.got.tgz:57585.got - 2010.06.03 17:49:19.
