data_PCOD9242952
_publ_section_title
;
Structure prediction by ZEFSAII (Michael W. Deem and Ramdas Pophale) SiO2 
 PCOD9242952
Probable space group: P 21/C
;
_chemical_formula_sum "Si O2"
_cell_formula_units_Z 20
_cell_length_a 10.812503
_cell_length_b 9.438523
_cell_length_c 13.889663
_cell_angle_alpha 90.000000
_cell_angle_beta 39.848477
_cell_angle_gamma 90.000000
_cell_volume 908.274337
_symmetry_space_group_name_H-M "P 21/C"
_symmetry_group_IT_number 14
_symmetry_cell_setting 'monoclinic'
loop_
_space_group_symop_operation_xyz
x,y,z
-x,1/2+y,1/2-z
-x,-y,-z
x,1/2-y,1/2+z
loop_
_atom_site_type_symbol
_atom_site_label
_atom_site_fract_x
_atom_site_fract_y
_atom_site_fract_z
Si Si1 0.374309 0.327561 0.665434
Si Si2 0.948403 0.663572 0.533925
Si Si3 0.193069 0.798397 0.126469
Si Si4 0.184122 0.910301 0.351770
Si Si5 0.863645 0.605935 0.375451
O O1 0.218603 0.214241 0.795025
O O2 0.589598 0.270522 0.535044
O O3 0.350143 0.468796 0.747165
O O4 0.311973 0.367232 0.593136
O O5 0.856583 0.686626 0.481019
O O6 0.000000 0.500000 0.500000
O O7 0.139996 0.761995 0.432209
O O8 0.189011 0.854634 0.239249
O O9 0.052971 0.664765 0.207901
O O10 0.118380 0.938678 0.117781
O O11 0.000000 0.000000 0.500000
#
# Coordination Sequence:
#
# PCOD9242952 Si02
#       5
#     4   4   4   4   4
#     4  10  20  39  61  82 115 160 199 230 287 370
#     4  10  20  36  58  89 120 147 191 252 296 333
#     4  10  20  37  60  84 113 154 199 240 287 353
#     4   8  16  32  56  79 110 153 184 223 285 346
#     4  10  20  38  59  84 119 154 188 241 298 342
#
# _framework density 22.019779
#
# number of rings (size 3 to 8) (size 9 to 14) (size 15 to 20)
#    0.000    2.400    0.000    3.600    0.000    0.000 
#    0.000   37.000    0.000    0.000    0.000    0.000 
#    0.000    0.000    0.000    0.000    0.000    0.000 
#
# Total GULP energy -111383.825168 kJ/mol
# GULP energy per Si atom -5569.191258 kJ/mol
# Density = 2.196966 g / cm^3
# Si number density = 22.019779 Si / 1000 Ang^3
#
#
#
# Elastic Constant Matrix: (Units=GPa)
#
#
# Indices 1 2 3 4 5 6 
#
# 1 58.3967 14.4679 33.3209 0.0000 -5.7880 0.0000
# 2 14.4679 97.5599 12.9158 0.0000 -8.9199 0.0000
# 3 33.3209 12.9158 99.4396 0.0000 -2.5440 0.0000
# 4 0.0000 0.0000 0.0000 27.9707 0.0000 0.6340
# 5 -5.7880 -8.9199 -2.5440 0.0000 30.5243 0.0000
# 6 0.0000 0.0000 0.0000 0.6340 0.0000 25.1385
#
#
#
# Elastic Compliance Matrix: (Units=1/GPa)
#
#
# Indices 1 2 3 4 5 6 
#
# 1 0.021924 -0.002052 -0.007004 0.000000 0.002974 0.000000
# 2 -0.002052 0.010892 -0.000657 0.000000 0.002739 0.000000
# 3 -0.007004 -0.000657 0.012476 0.000000 -0.000480 0.000000
# 4 0.000000 0.000000 0.000000 0.035772 0.000000 -0.000902
# 5 0.002974 0.002739 -0.000480 0.000000 0.034085 0.000000
# 6 0.000000 0.000000 0.000000 -0.000902 0.000000 0.039802
#
#
# Mechanical properties :
#
#
# Convention : Reuss Voigt Hill
#
# Bulk Modulus (GPa) = 38.66060 41.86729 40.26395
# Shear Modulus (GPa) = 27.32252 29.70611 28.51431
#
# Velocity S-wave (km/s) = 3.52634 3.67695 3.60243
# Velocity P-wave (km/s) = 5.84598 6.08945 5.96895
#
# Compressibility (1/GPa) = 0.02586612
#
# Stress axis : x y z
#
# Youngs Moduli (GPa) = 45.61271 91.81189 80.15223
#
# Poissons Ratio (x) = 0.18841 0.56136
# Poissons Ratio (y) = 0.09360 0.05266
# Poissons Ratio (z) = 0.31946 0.06032
#
# Static dielectric constant tensor:
#      x y z
#    x 1.950090 0.000000 0.076500 
#    y 0.000000 1.839360 0.000000 
#    z 0.076500 0.000000 1.793630 
# 
# From -- ./inp_files/39475.got.cif
#   From: 2010.05.17/outbox.cif.g08.bks.cpg/sg14_20_cif.got.tgz:39475.got - 2010.06.03 17:49:19.
