data_PCOD9242893
_publ_section_title
;
Structure prediction by ZEFSAII (Michael W. Deem and Ramdas Pophale) SiO2 
 PCOD9242893
Probable space group: P 21/C
;
_chemical_formula_sum "Si O2"
_cell_formula_units_Z 24
_cell_length_a 11.155334
_cell_length_b 19.708787
_cell_length_c 5.348001
_cell_angle_alpha 90.000000
_cell_angle_beta 100.342682
_cell_angle_gamma 90.000000
_cell_volume 1156.696419
_symmetry_space_group_name_H-M "P 21/C"
_symmetry_group_IT_number 14
_symmetry_cell_setting 'monoclinic'
loop_
_space_group_symop_operation_xyz
x,y,z
-x,1/2+y,1/2-z
-x,-y,-z
x,1/2-y,1/2+z
loop_
_atom_site_type_symbol
_atom_site_label
_atom_site_fract_x
_atom_site_fract_y
_atom_site_fract_z
Si Si1 0.899208 0.529035 0.769473
Si Si2 0.501710 0.207333 0.020116
Si Si3 0.207205 0.711188 0.343548
Si Si4 0.698497 0.476667 0.033813
Si Si5 0.099043 0.907018 0.107130
Si Si6 0.460134 0.440214 0.669406
O O1 0.891759 0.477227 0.539175
O O2 0.966644 0.595751 0.687799
O O3 0.770347 0.522404 0.858057
O O4 0.000000 0.500000 0.000000
O O5 0.472174 0.244707 0.747793
O O6 0.648544 0.196181 0.078421
O O7 0.444404 0.132823 0.037261
O O8 0.182310 0.732355 0.049626
O O9 0.128638 0.649257 0.415848
O O10 0.791137 0.417935 0.156505
O O11 0.654199 0.530038 0.224853
O O12 0.576965 0.438281 0.898081
O O13 0.500000 0.500000 0.500000
#
# Coordination Sequence:
#
# PCOD9242893 Si02
#       6
#     4   4   4   4   4   4
#     4   9  19  34  58  82 109 146 181 246 284 342
#     4  10  23  38  57  83 121 161 199 242 304 363
#     4  10  22  34  56  83 117 155 186 237 288 353
#     4  10  21  34  58  87 115 149 195 247 295 342
#     4  10  20  36  56  86 115 145 193 236 295 347
#     4  11  23  36  59  87 120 155 200 252 295 353
#
# _framework density 20.748747000000002
#
# number of rings (size 3 to 8) (size 9 to 14) (size 15 to 20)
#    0.000    2.000    0.000    3.000   16.333    0.000 
#    0.000    0.000    0.000    2.000    0.000    0.000 
#    0.000    0.000    0.000    0.000    0.000    0.000 
#
# Total GULP energy -133875.597930 kJ/mol
# GULP energy per Si atom -5578.149914 kJ/mol
# Density = 2.070152 g / cm^3
# Si number density = 20.748747 Si / 1000 Ang^3
#
#
#
# Elastic Constant Matrix: (Units=GPa)
#
#
# Indices 1 2 3 4 5 6 
#
# 1 70.8590 26.3134 17.6068 0.0000 -34.4553 0.0000
# 2 26.3134 98.5556 24.2165 0.0000 -27.9691 0.0000
# 3 17.6068 24.2165 69.2322 0.0000 -29.8586 0.0000
# 4 0.0000 0.0000 0.0000 35.4558 0.0000 -19.7013
# 5 -34.4553 -27.9691 -29.8586 0.0000 50.1548 0.0000
# 6 0.0000 0.0000 0.0000 -19.7013 0.0000 26.3888
#
#
#
# Elastic Compliance Matrix: (Units=1/GPa)
#
#
# Indices 1 2 3 4 5 6 
#
# 1 0.021583 -0.001985 0.001510 0.000000 0.014620 0.000000
# 2 -0.001985 0.012401 -0.001935 0.000000 0.004400 0.000000
# 3 0.001510 -0.001935 0.019804 0.000000 0.011748 0.000000
# 4 0.000000 0.000000 0.000000 0.048199 0.000000 0.035984
# 5 0.014620 0.004400 0.011748 0.000000 0.039429 0.000000
# 6 0.000000 0.000000 0.000000 0.035984 0.000000 0.064760
#
#
# Mechanical properties :
#
#
# Convention : Reuss Voigt Hill
#
# Bulk Modulus (GPa) = 20.42146 41.65782 31.03964
# Shear Modulus (GPa) = 21.99569 33.76722 27.88145
#
# Velocity S-wave (km/s) = 3.25945 4.03852 3.66972
# Velocity P-wave (km/s) = 4.90193 6.47048 5.74004
#
# Compressibility (1/GPa) = 0.04896811
#
# Stress axis : x y z
#
# Youngs Moduli (GPa) = 46.33270 80.64148 50.49558
#
# Poissons Ratio (x) = 0.16005 -0.07627
# Poissons Ratio (y) = 0.09196 0.09773
# Poissons Ratio (z) = -0.06998 0.15607
#
# Static dielectric constant tensor:
#      x y z
#    x 1.784870 0.000000 0.048750 
#    y 0.000000 1.918190 0.000000 
#    z 0.048750 0.000000 1.870600 
# 
# From -- ./inp_files/2692.got.cif
#   From: 2010.05.17/outbox.cif.g08.bks.cpg/sg14_2_cif.got.tgz:2692.got - 2010.06.03 17:49:19.
