data_PCOD9242177
_publ_section_title
;
Structure prediction by ZEFSAII (Michael W. Deem and Ramdas Pophale) SiO2 
 PCOD9242177
Probable space group: P 21/C
;
_chemical_formula_sum "Si O2"
_cell_formula_units_Z 28
_cell_length_a 10.088618
_cell_length_b 13.387985
_cell_length_c 18.645064
_cell_angle_alpha 90.000000
_cell_angle_beta 141.862961
_cell_angle_gamma 90.000000
_cell_volume 1555.174065
_symmetry_space_group_name_H-M "P 21/C"
_symmetry_group_IT_number 14
_symmetry_cell_setting 'monoclinic'
loop_
_space_group_symop_operation_xyz
x,y,z
-x,1/2+y,1/2-z
-x,-y,-z
x,1/2-y,1/2+z
loop_
_atom_site_type_symbol
_atom_site_label
_atom_site_fract_x
_atom_site_fract_y
_atom_site_fract_z
Si Si1 0.925094 0.196880 0.050382
Si Si2 0.684869 0.757235 0.878589
Si Si3 0.308350 0.584085 0.226514
Si Si4 0.548436 0.865360 0.178852
Si Si5 0.269937 0.323126 0.813635
Si Si6 0.283789 0.588553 0.046381
Si Si7 0.843299 0.620710 0.073796
O O1 0.092983 0.196160 0.056244
O O2 0.057748 0.160933 0.175692
O O3 0.706772 0.138219 0.942176
O O4 0.853343 0.312545 0.029812
O O5 0.509245 0.841917 0.817165
O O6 0.600012 0.687583 0.777172
O O7 0.730537 0.691326 0.967411
O O8 0.362274 0.476434 0.281962
O O9 0.258863 0.569885 0.120667
O O10 0.099089 0.630699 0.173932
O O11 0.660110 0.792295 0.168599
O O12 0.468999 0.385186 0.865441
O O13 0.232502 0.352094 0.879270
O O14 0.211051 0.493069 0.970886
#
# Coordination Sequence:
#
# PCOD9242177 Si02
#       7
#     4   4   4   4   4   4   4
#     4  10  19  40  62  86 125 163 193 249 309 351
#     4  11  20  37  61  92 120 152 209 253 292 356
#     4  12  22  38  65  96 115 155 216 244 297 364
#     4  10  21  39  64  87 122 163 197 251 302 359
#     4  10  23  40  58  89 127 159 199 245 314 354
#     4  11  20  39  66  90 116 159 210 247 292 368
#     4  12  23  38  62  92 121 159 201 258 292 360
#
# _framework density 18.004417
#
# number of rings (size 3 to 8) (size 9 to 14) (size 15 to 20)
#    0.000    1.143    7.143    2.571    0.000    2.857 
#    0.000    5.714    0.000    0.000    0.000    0.000 
#    0.000    0.000    0.000    0.000    0.000    0.000 
#
# Total GULP energy -156430.562493 kJ/mol
# GULP energy per Si atom -5586.805803 kJ/mol
# Density = 1.796344 g / cm^3
# Si number density = 18.004417 Si / 1000 Ang^3
#
#
#
# Elastic Constant Matrix: (Units=GPa)
#
#
# Indices 1 2 3 4 5 6 
#
# 1 76.7256 5.7004 20.9705 0.0000 2.4254 0.0000
# 2 5.7004 51.3411 -4.9662 0.0000 2.5779 0.0000
# 3 20.9705 -4.9662 66.4018 0.0000 19.0182 0.0000
# 4 0.0000 0.0000 0.0000 29.6985 0.0000 -1.9355
# 5 2.4254 2.5779 19.0182 0.0000 27.5043 0.0000
# 6 0.0000 0.0000 0.0000 -1.9355 0.0000 13.0436
#
#
#
# Elastic Compliance Matrix: (Units=1/GPa)
#
#
# Indices 1 2 3 4 5 6 
#
# 1 0.014647 -0.002308 -0.005599 0.000000 0.002796 0.000000
# 2 -0.002308 0.020267 0.003405 0.000000 -0.004050 0.000000
# 3 -0.005599 0.003405 0.021239 0.000000 -0.014511 0.000000
# 4 0.000000 0.000000 0.000000 0.034001 0.000000 0.005045
# 5 0.002796 -0.004050 -0.014511 0.000000 0.046525 0.000000
# 6 0.000000 0.000000 0.000000 0.005045 0.000000 0.077415
#
#
# Mechanical properties :
#
#
# Convention : Reuss Voigt Hill
#
# Bulk Modulus (GPa) = 21.21027 26.43089 23.82058
# Shear Modulus (GPa) = 20.93681 25.56687 23.25184
#
# Velocity S-wave (km/s) = 3.41379 3.77242 3.59758
# Velocity P-wave (km/s) = 5.22922 5.80405 5.52412
#
# Compressibility (1/GPa) = 0.04714698
#
# Stress axis : x y z
#
# Youngs Moduli (GPa) = 68.27373 49.34231 47.08321
#
# Poissons Ratio (x) = 0.11390 0.26363
# Poissons Ratio (y) = 0.15759 -0.16031
# Poissons Ratio (z) = 0.38228 -0.16800
#
# Static dielectric constant tensor:
#      x y z
#    x 1.598130 0.000000 0.017180 
#    y 0.000000 1.606860 0.000000 
#    z 0.017180 0.000000 1.619040 
# 
# From -- ./inp_files/29753.got.cif
#   From: 2010.05.17/outbox.cif.g08.bks.cpg/sg14_15_cif.got.tgz:29753.got - 2010.06.03 17:49:19.
