data_PCOD9242310
_publ_section_title
;
Structure prediction by ZEFSAII (Michael W. Deem and Ramdas Pophale) SiO2 
 PCOD9242310
Probable space group: P 21/C
;
_chemical_formula_sum "Si O2"
_cell_formula_units_Z 32
_cell_length_a 9.744183
_cell_length_b 17.920116
_cell_length_c 13.466715
_cell_angle_alpha 90.000000
_cell_angle_beta 43.333569
_cell_angle_gamma 90.000000
_cell_volume 1613.715149
_symmetry_space_group_name_H-M "P 21/C"
_symmetry_group_IT_number 14
_symmetry_cell_setting 'monoclinic'
loop_
_space_group_symop_operation_xyz
x,y,z
-x,1/2+y,1/2-z
-x,-y,-z
x,1/2-y,1/2+z
loop_
_atom_site_type_symbol
_atom_site_label
_atom_site_fract_x
_atom_site_fract_y
_atom_site_fract_z
Si Si1 0.645655 0.341980 0.223816
Si Si2 0.921906 0.280500 0.470919
Si Si3 0.813856 0.479539 0.027093
Si Si4 0.869670 0.121043 0.300253
Si Si5 0.815063 0.680275 0.488517
Si Si6 0.297528 0.710589 0.588847
Si Si7 0.540329 0.926311 0.541736
Si Si8 0.277025 0.221152 0.634801
O O1 0.681759 0.423251 0.161485
O O2 0.407172 0.329015 0.352548
O O3 0.723614 0.330046 0.295223
O O4 0.771964 0.283494 0.090401
O O5 0.797311 0.328591 0.456748
O O6 0.018041 0.317895 0.515492
O O7 0.121014 0.261081 0.302800
O O8 0.683838 0.549851 0.056435
O O9 0.866638 0.431222 0.899551
O O10 0.000000 0.500000 0.000000
O O11 0.806778 0.207249 0.355236
O O12 0.688010 0.099972 0.320506
O O13 0.091739 0.121116 0.137895
O O14 0.807511 0.756565 0.428823
O O15 0.529822 0.727516 0.451883
O O16 0.647005 0.863566 0.417297
O O17 0.500000 0.000000 0.500000
#
# Coordination Sequence:
#
# PCOD9242310 Si02
#       8
#     4   4   4   4   4   4   4   4
#     4  11  23  40  58  96 127 152 214 253 330 373
#     4  12  20  34  63  91 121 156 202 256 327 369
#     4  11  24  40  67  89 123 174 210 258 303 381
#     4  10  19  43  59  87 125 158 209 252 316 362
#     4  11  23  37  65  91 125 162 195 280 322 370
#     4  10  20  36  57  89 125 152 191 275 303 374
#     4   9  22  39  63  85 124 170 216 247 298 385
#     4  10  21  37  60  90 124 158 208 256 327 366
#
# _framework density 19.830017000000002
#
# number of rings (size 3 to 8) (size 9 to 14) (size 15 to 20)
#    0.000    1.500    3.750    0.750    7.000    0.000 
#    0.000    2.500    0.000    0.000    0.000    0.000 
#    0.000    0.000    0.000    0.000    0.000    0.000 
#
# Total GULP energy -178190.015271 kJ/mol
# GULP energy per Si atom -5568.437977 kJ/mol
# Density = 1.978488 g / cm^3
# Si number density = 19.830017 Si / 1000 Ang^3
#
#
#
# Elastic Constant Matrix: (Units=GPa)
#
#
# Indices 1 2 3 4 5 6 
#
# 1 122.4168 7.0614 40.1682 0.0000 2.4581 0.0000
# 2 7.0614 31.8470 32.4743 0.0000 -8.2405 0.0000
# 3 40.1682 32.4743 132.8133 0.0000 -18.4326 0.0000
# 4 0.0000 0.0000 0.0000 18.3569 0.0000 -0.8810
# 5 2.4581 -8.2405 -18.4326 0.0000 34.6835 0.0000
# 6 0.0000 0.0000 0.0000 -0.8810 0.0000 24.4510
#
#
#
# Elastic Compliance Matrix: (Units=1/GPa)
#
#
# Indices 1 2 3 4 5 6 
#
# 1 0.009249 0.000720 -0.003283 0.000000 -0.002229 0.000000
# 2 0.000720 0.042658 -0.009985 0.000000 0.004778 0.000000
# 3 -0.003283 -0.009985 0.011516 0.000000 0.003981 0.000000
# 4 0.000000 0.000000 0.000000 0.054570 0.000000 0.001966
# 5 -0.002229 0.004778 0.003981 0.000000 0.032241 0.000000
# 6 0.000000 0.000000 0.000000 0.001966 0.000000 0.040969
#
#
# Mechanical properties :
#
#
# Convention : Reuss Voigt Hill
#
# Bulk Modulus (GPa) = 26.09075 49.60945 37.85010
# Shear Modulus (GPa) = 21.82688 29.32317 25.57503
#
# Velocity S-wave (km/s) = 3.32128 3.84959 3.59515
# Velocity P-wave (km/s) = 5.28144 6.69558 6.03011
#
# Compressibility (1/GPa) = 0.03832776
#
# Stress axis : x y z
#
# Youngs Moduli (GPa) = 108.11752 23.44199 86.83505
#
# Poissons Ratio (x) = -0.01687 0.28505
# Poissons Ratio (y) = -0.07782 0.86705
# Poissons Ratio (z) = 0.35492 0.23407
#
# Static dielectric constant tensor:
#      x y z
#    x 1.799230 0.000000 0.005340 
#    y 0.000000 1.709280 0.000000 
#    z 0.005340 0.000000 1.742810 
# 
# From -- ./inp_files/26787.got.cif
#   From: 2010.05.17/outbox.cif.g08.bks.cpg/sg14_14_cif.got.tgz:26787.got - 2010.06.03 17:49:19.
