data_PCOD9242237
_publ_section_title
;
Structure prediction by ZEFSAII (Michael W. Deem and Ramdas Pophale) SiO2 
 PCOD9242237
Probable space group: P 21/C
;
_chemical_formula_sum "Si O2"
_cell_formula_units_Z 24
_cell_length_a 9.242388
_cell_length_b 11.797432
_cell_length_c 11.424589
_cell_angle_alpha 90.000000
_cell_angle_beta 109.484200
_cell_angle_gamma 90.000000
_cell_volume 1174.359884
_symmetry_space_group_name_H-M "P 21/C"
_symmetry_group_IT_number 14
_symmetry_cell_setting 'monoclinic'
loop_
_space_group_symop_operation_xyz
x,y,z
-x,1/2+y,1/2-z
-x,-y,-z
x,1/2-y,1/2+z
loop_
_atom_site_type_symbol
_atom_site_label
_atom_site_fract_x
_atom_site_fract_y
_atom_site_fract_z
Si Si1 0.359708 0.548131 0.701626
Si Si2 0.855843 0.669124 0.361969
Si Si3 0.628894 0.480095 0.633442
Si Si4 0.437048 0.872509 0.468143
Si Si5 0.217741 0.699499 0.462181
Si Si6 0.735331 0.719749 0.590751
O O1 0.228642 0.452413 0.671904
O O2 0.523816 0.487986 0.719560
O O3 0.389596 0.625013 0.820682
O O4 0.304030 0.631091 0.586029
O O5 0.794979 0.720012 0.471328
O O6 0.818909 0.722550 0.224191
O O7 0.038498 0.677002 0.423074
O O8 0.500000 0.500000 0.500000
O O9 0.719514 0.364795 0.637387
O O10 0.731345 0.589722 0.634574
O O11 0.281047 0.827389 0.486262
O O12 0.570042 0.782875 0.537001
O O13 0.500000 0.000000 0.500000
#
# Coordination Sequence:
#
# PCOD9242237 Si02
#       6
#     4   4   4   4   4   4
#     4  11  22  44  72  98 138 188 238 291 351 426
#     4  12  26  43  72 104 149 182 230 297 363 424
#     4  10  19  40  72  96 124 179 244 277 330 422
#     4  12  25  43  69 102 139 182 242 295 347 414
#     4  11  25  43  70 103 135 187 236 287 352 437
#     4  12  24  46  68 105 138 189 232 293 353 421
#
# _framework density 20.436665000000001
#
# number of rings (size 3 to 8) (size 9 to 14) (size 15 to 20)
#    0.000    0.667    8.333    1.500    2.333    1.333 
#    0.000    0.833    0.000    0.000    0.000    0.000 
#    0.000    0.000    0.000    0.000    0.000    0.000 
#
# Total GULP energy -133603.560879 kJ/mol
# GULP energy per Si atom -5566.815037 kJ/mol
# Density = 2.039015 g / cm^3
# Si number density = 20.436665 Si / 1000 Ang^3
#
#
#
# Elastic Constant Matrix: (Units=GPa)
#
#
# Indices 1 2 3 4 5 6 
#
# 1 108.7177 28.4547 35.0825 0.0000 1.6431 0.0000
# 2 28.4547 96.1891 24.8008 0.0000 -5.2557 0.0000
# 3 35.0825 24.8008 95.8162 0.0000 8.2092 0.0000
# 4 0.0000 0.0000 0.0000 27.8626 0.0000 -22.2891
# 5 1.6431 -5.2557 8.2092 0.0000 6.3166 0.0000
# 6 0.0000 0.0000 0.0000 -22.2891 0.0000 0.5907
#
#
#
# Elastic Compliance Matrix: (Units=1/GPa)
#
#
# Indices 1 2 3 4 5 6 
#
# 1 0.010907 -0.002395 -0.003331 0.000000 -0.000502 0.000000
# 2 -0.002395 0.013016 -0.003908 0.000000 0.016532 0.000000
# 3 -0.003331 -0.003908 0.014485 0.000000 -0.021211 0.000000
# 4 0.000000 0.000000 0.000000 -0.001230 0.000000 -0.046402
# 5 -0.000502 0.016532 -0.021211 0.000000 0.199766 0.000000
# 6 0.000000 0.000000 0.000000 -0.046402 0.000000 -0.058005
#
#
# Mechanical properties :
#
#
# Convention : Reuss Voigt Hill
#
# Bulk Modulus (GPa) = 52.24794 53.04436 52.64615
# Shear Modulus (GPa) = 24.43937 21.11297 22.77617
#
# Velocity S-wave (km/s) = 3.46187 3.21766 3.34200
# Velocity P-wave (km/s) = 6.44986 6.31002 6.38032
#
# Compressibility (1/GPa) = 0.01913951
#
# Stress axis : x y z
#
# Youngs Moduli (GPa) = 91.68058 76.82964 69.03635
#
# Poissons Ratio (x) = 0.18403 0.22994
# Poissons Ratio (y) = 0.21960 0.26982
# Poissons Ratio (z) = 0.30536 0.30028
#
# Static dielectric constant tensor:
#      x y z
#    x 1.457560 0.000000 0.092190 
#    y 0.000000 1.823620 0.000000 
#    z 0.092190 0.000000 1.728540 
# 
# From -- ./inp_files/24258.got.cif
#   From: 2010.05.17/outbox.cif.g08.bks.cpg/sg14_13_cif.got.tgz:24258.got - 2010.06.03 17:49:19.
