data_PCOD9242795
_publ_section_title
;
Structure prediction by ZEFSAII (Michael W. Deem and Ramdas Pophale) SiO2 
 PCOD9242795
Probable space group: P 21/C
;
_chemical_formula_sum "Si O2"
_cell_formula_units_Z 32
_cell_length_a 13.484514
_cell_length_b 22.076606
_cell_length_c 11.594762
_cell_angle_alpha 90.000000
_cell_angle_beta 28.854285
_cell_angle_gamma 90.000000
_cell_volume 1665.720411
_symmetry_space_group_name_H-M "P 21/C"
_symmetry_group_IT_number 14
_symmetry_cell_setting 'monoclinic'
loop_
_space_group_symop_operation_xyz
x,y,z
-x,1/2+y,1/2-z
-x,-y,-z
x,1/2-y,1/2+z
loop_
_atom_site_type_symbol
_atom_site_label
_atom_site_fract_x
_atom_site_fract_y
_atom_site_fract_z
Si Si1 0.127070 0.161181 0.708050
Si Si2 0.861637 0.719812 0.182641
Si Si3 0.824124 0.227299 0.838341
Si Si4 0.478878 0.857046 0.992909
Si Si5 0.809087 0.156369 0.494574
Si Si6 0.541986 0.567407 0.224458
Si Si7 0.831121 0.058345 0.071373
Si Si8 0.816867 0.464294 0.842755
O O1 0.223718 0.218517 0.675019
O O2 0.301892 0.120758 0.472199
O O3 0.966317 0.189592 0.781231
O O4 0.988157 0.114872 0.923698
O O5 0.692380 0.676311 0.300896
O O6 0.987239 0.681032 0.148845
O O7 0.025701 0.742260 0.920919
O O8 0.648000 0.185760 0.964996
O O9 0.739374 0.286670 0.987875
O O10 0.352622 0.859986 0.240423
O O11 0.499541 0.919744 0.902158
O O12 0.848529 0.098745 0.374867
O O13 0.339900 0.570548 0.350786
O O14 0.658644 0.505405 0.075780
O O15 0.738578 0.045465 0.291545
O O16 0.971919 0.001994 0.887444
#
# Coordination Sequence:
#
# PCOD9242795 Si02
#       8
#     4   4   4   4   4   4   4   4
#     4  10  20  35  61  88 114 155 198 246 303 352
#     4  10  22  37  59  90 123 157 198 246 303 369
#     4  10  20  39  60  85 121 158 196 247 302 360
#     4  11  23  38  61  92 123 159 199 245 306 366
#     4  10  24  39  59  90 126 158 199 251 302 361
#     4  11  22  38  65  88 121 159 204 247 300 363
#     4  10  21  41  65  86 118 158 205 256 298 352
#     4  10  23  41  60  90 119 160 208 250 298 352
#
# _framework density 19.210906999999999
#
# number of rings (size 3 to 8) (size 9 to 14) (size 15 to 20)
#    0.000    1.750    2.500    1.125    1.750    3.500 
#    0.000    1.250    0.000    0.000    0.000    0.000 
#    0.000    0.000    0.000    0.000    0.000    0.000 
#
# Total GULP energy -178639.780113 kJ/mol
# GULP energy per Si atom -5582.493129 kJ/mol
# Density = 1.916718 g / cm^3
# Si number density = 19.210907 Si / 1000 Ang^3
#
#
#
# Elastic Constant Matrix: (Units=GPa)
#
#
# Indices 1 2 3 4 5 6 
#
# 1 51.8125 18.8539 21.1354 0.0000 13.4275 0.0000
# 2 18.8539 79.7479 30.4635 0.0000 21.7567 0.0000
# 3 21.1354 30.4635 48.8121 0.0000 7.7376 0.0000
# 4 0.0000 0.0000 0.0000 26.1640 0.0000 12.5673
# 5 13.4275 21.7567 7.7376 0.0000 22.9634 0.0000
# 6 0.0000 0.0000 0.0000 12.5673 0.0000 33.6368
#
#
#
# Elastic Compliance Matrix: (Units=1/GPa)
#
#
# Indices 1 2 3 4 5 6 
#
# 1 0.026393 0.001212 -0.010095 0.000000 -0.013180 0.000000
# 2 0.001212 0.021085 -0.010992 0.000000 -0.016982 0.000000
# 3 -0.010095 -0.010992 0.030775 0.000000 0.005948 0.000000
# 4 0.000000 0.000000 0.000000 0.046580 0.000000 -0.017403
# 5 -0.013180 -0.016982 0.005948 0.000000 0.065340 0.000000
# 6 0.000000 0.000000 0.000000 -0.017403 0.000000 0.036231
#
#
# Mechanical properties :
#
#
# Convention : Reuss Voigt Hill
#
# Bulk Modulus (GPa) = 25.97205 35.69756 30.83480
# Shear Modulus (GPa) = 17.92191 23.88081 20.90136
#
# Velocity S-wave (km/s) = 3.05766 3.52957 3.30205
# Velocity P-wave (km/s) = 5.10044 5.93572 5.53386
#
# Compressibility (1/GPa) = 0.03850293
#
# Stress axis : x y z
#
# Youngs Moduli (GPa) = 37.88892 47.42754 32.49370
#
# Poissons Ratio (x) = -0.05750 0.32804
# Poissons Ratio (y) = -0.04593 0.35717
# Poissons Ratio (z) = 0.38250 0.52132
#
# Static dielectric constant tensor:
#      x y z
#    x 1.650850 0.000000 0.028650 
#    y 0.000000 1.656650 0.000000 
#    z 0.028650 0.000000 1.688060 
# 
# From -- ./inp_files/33120.got.cif
#   From: 2010.05.17/outbox.cif.g08.bks.cpg/sg14_17_cif.got.tgz:33120.got - 2010.06.03 17:49:19.
