data_PCOD9242997
_publ_section_title
;
Structure prediction by ZEFSAII (Michael W. Deem and Ramdas Pophale) SiO2 
 PCOD9242997
Probable space group: P 21/C
;
_chemical_formula_sum "Si O2"
_cell_formula_units_Z 24
_cell_length_a 11.309605
_cell_length_b 5.650646
_cell_length_c 24.992511
_cell_angle_alpha 90.000000
_cell_angle_beta 50.046604
_cell_angle_gamma 90.000000
_cell_volume 1224.349942
_symmetry_space_group_name_H-M "P 21/C"
_symmetry_group_IT_number 14
_symmetry_cell_setting 'monoclinic'
loop_
_space_group_symop_operation_xyz
x,y,z
-x,1/2+y,1/2-z
-x,-y,-z
x,1/2-y,1/2+z
loop_
_atom_site_type_symbol
_atom_site_label
_atom_site_fract_x
_atom_site_fract_y
_atom_site_fract_z
Si Si1 0.311811 0.536080 0.992660
Si Si2 0.887472 0.043097 0.229458
Si Si3 0.605444 0.688638 0.439446
Si Si4 0.133514 0.196490 0.460643
Si Si5 0.821456 0.957663 0.782446
Si Si6 0.962538 0.082242 0.923334
O O1 0.305760 0.342899 0.041932
O O2 0.175778 0.727466 0.042906
O O3 0.481837 0.643779 0.946146
O O4 0.282273 0.426404 0.942680
O O5 0.798485 0.292795 0.259117
O O6 0.001290 0.041236 0.248012
O O7 0.800045 0.790949 0.257723
O O8 0.988463 0.032433 0.146394
O O9 0.500000 0.500000 0.500000
O O10 0.714447 0.561518 0.365554
O O11 0.094127 0.394777 0.516218
O O12 0.114583 0.303011 0.407227
O O13 0.000000 0.000000 0.500000
#
# Coordination Sequence:
#
# PCOD9242997 Si02
#       6
#     4   4   4   4   4   4
#     4  10  21  34  60  87 121 157 196 257 299 363
#     4  10  22  36  58  83 125 153 194 245 297 371
#     4  11  23  36  58  87 122 159 199 245 301 367
#     4   9  19  34  58  89 114 147 200 250 302 345
#     4  10  23  36  55  87 120 161 191 239 304 363
#     4  10  20  36  59  91 115 154 198 255 303 351
#
# _framework density 19.602239000000001
#
# number of rings (size 3 to 8) (size 9 to 14) (size 15 to 20)
#    0.000    2.000    0.000    3.000   16.333    0.000 
#    0.000    0.000    0.000    0.000   17.333    0.000 
#    0.000    0.000    0.000    0.000    0.000    0.000 
#
# Total GULP energy -133788.971077 kJ/mol
# GULP energy per Si atom -5574.540462 kJ/mol
# Density = 1.955762 g / cm^3
# Si number density = 19.602239 Si / 1000 Ang^3
#
#
#
# Elastic Constant Matrix: (Units=GPa)
#
#
# Indices 1 2 3 4 5 6 
#
# 1 95.5085 29.2136 -3.4061 0.0000 11.5120 0.0000
# 2 29.2136 146.5514 39.4772 0.0000 3.6512 0.0000
# 3 -3.4061 39.4772 54.4183 0.0000 -0.3420 0.0000
# 4 0.0000 0.0000 0.0000 30.2906 0.0000 3.9440
# 5 11.5120 3.6512 -0.3420 0.0000 13.3376 0.0000
# 6 0.0000 0.0000 0.0000 3.9440 0.0000 37.4321
#
#
#
# Elastic Compliance Matrix: (Units=1/GPa)
#
#
# Indices 1 2 3 4 5 6 
#
# 1 0.012735 -0.003089 0.002975 0.000000 -0.010070 0.000000
# 2 -0.003089 0.009313 -0.006950 0.000000 -0.000061 0.000000
# 3 0.002975 -0.006950 0.023604 0.000000 -0.000060 0.000000
# 4 0.000000 0.000000 0.000000 0.033473 0.000000 -0.003527
# 5 -0.010070 -0.000061 -0.000060 0.000000 0.083683 0.000000
# 6 0.000000 0.000000 0.000000 -0.003527 0.000000 0.027087
#
#
# Mechanical properties :
#
#
# Convention : Reuss Voigt Hill
#
# Bulk Modulus (GPa) = 31.72239 47.44973 39.58606
# Shear Modulus (GPa) = 23.30682 31.62497 27.46590
#
# Velocity S-wave (km/s) = 3.45191 4.02099 3.74727
# Velocity P-wave (km/s) = 5.66619 6.76880 6.24189
#
# Compressibility (1/GPa) = 0.03152348
#
# Stress axis : x y z
#
# Youngs Moduli (GPa) = 78.52384 107.37781 42.36646
#
# Poissons Ratio (x) = 0.33169 -0.12603
# Poissons Ratio (y) = 0.24256 0.29443
# Poissons Ratio (z) = -0.23359 0.74624
#
# Static dielectric constant tensor:
#      x y z
#    x 1.721460 0.000000 0.008780 
#    y 0.000000 1.787930 0.000000 
#    z 0.008780 0.000000 1.645300 
# 
# From -- ./inp_files/69556.got.cif
#   From: 2010.05.17/outbox.cif.g08.bks.cpg/sg14_35_cif.got.tgz:69556.got - 2010.06.03 17:49:19.
