data_PCOD9242470
_publ_section_title
;
Structure prediction by ZEFSAII (Michael W. Deem and Ramdas Pophale) SiO2 
 PCOD9242470
Probable space group: P 21/C
;
_chemical_formula_sum "Si O2"
_cell_formula_units_Z 28
_cell_length_a 15.212784
_cell_length_b 13.819344
_cell_length_c 8.632004
_cell_angle_alpha 90.000000
_cell_angle_beta 53.952732
_cell_angle_gamma 90.000000
_cell_volume 1467.252536
_symmetry_space_group_name_H-M "P 21/C"
_symmetry_group_IT_number 14
_symmetry_cell_setting 'monoclinic'
loop_
_space_group_symop_operation_xyz
x,y,z
-x,1/2+y,1/2-z
-x,-y,-z
x,1/2-y,1/2+z
loop_
_atom_site_type_symbol
_atom_site_label
_atom_site_fract_x
_atom_site_fract_y
_atom_site_fract_z
Si Si1 0.058071 0.462565 0.282702
Si Si2 0.675544 0.577312 0.432388
Si Si3 0.077083 0.103933 0.249826
Si Si4 0.506688 0.929638 0.347408
Si Si5 0.905031 0.720148 0.572879
Si Si6 0.348700 0.204639 0.611231
Si Si7 0.695989 0.520326 0.056832
O O1 0.065978 0.348592 0.310629
O O2 0.000000 0.500000 0.500000
O O3 0.990875 0.507203 0.210021
O O4 0.182104 0.496645 0.130411
O O5 0.794807 0.579856 0.384385
O O6 0.588824 0.527170 0.633920
O O7 0.629957 0.686821 0.464816
O O8 0.690082 0.534900 0.246602
O O9 0.061554 0.171409 0.416461
O O10 0.050650 0.171941 0.128618
O O11 0.563305 0.833810 0.357469
O O12 0.500000 0.000000 0.500000
O O13 0.385917 0.934362 0.404446
O O14 0.773807 0.714411 0.693883
O O15 0.340647 0.122086 0.486506
#
# Coordination Sequence:
#
# PCOD9242470 Si02
#       7
#     4   4   4   4   4   4   4
#     4   9  20  37  56  79 114 152 184 226 284 335
#     4  11  20  33  57  88 111 134 191 235 278 321
#     4  10  20  33  58  81 114 143 185 241 277 325
#     4  10  20  35  55  79 113 145 173 223 287 333
#     4   9  18  33  54  83 108 143 186 229 283 324
#     4   9  18  33  56  83 107 141 181 235 280 322
#     4  10  21  34  56  82 112 149 184 225 276 341
#
# _framework density 19.083288
#
# number of rings (size 3 to 8) (size 9 to 14) (size 15 to 20)
#    0.000    2.286    1.429    1.286   12.000    0.571 
#    0.000    0.000    6.286    1.714    0.000    0.000 
#    0.000    0.000    0.000    0.000    0.000    0.000 
#
# Total GULP energy -155979.765038 kJ/mol
# GULP energy per Si atom -5570.705894 kJ/mol
# Density = 1.903985 g / cm^3
# Si number density = 19.083288 Si / 1000 Ang^3
#
#
#
# Elastic Constant Matrix: (Units=GPa)
#
#
# Indices 1 2 3 4 5 6 
#
# 1 113.9442 47.7218 45.3557 0.0000 -3.1086 0.0000
# 2 47.7218 64.0161 21.6302 0.0000 -8.9181 0.0000
# 3 45.3557 21.6302 103.3704 0.0000 0.1209 0.0000
# 4 0.0000 0.0000 0.0000 22.0852 0.0000 9.4715
# 5 -3.1086 -8.9181 0.1209 0.0000 22.1168 0.0000
# 6 0.0000 0.0000 0.0000 9.4715 0.0000 24.9748
#
#
#
# Elastic Compliance Matrix: (Units=1/GPa)
#
#
# Indices 1 2 3 4 5 6 
#
# 1 0.014461 -0.009564 -0.004342 0.000000 -0.001800 0.000000
# 2 -0.009564 0.024223 -0.000882 0.000000 0.008428 0.000000
# 3 -0.004342 -0.000882 0.011765 0.000000 -0.001030 0.000000
# 4 0.000000 0.000000 0.000000 0.054074 0.000000 -0.020507
# 5 -0.001800 0.008428 -0.001030 0.000000 0.048366 0.000000
# 6 0.000000 0.000000 0.000000 -0.020507 0.000000 0.047817
#
#
# Mechanical properties :
#
#
# Convention : Reuss Voigt Hill
#
# Bulk Modulus (GPa) = 47.90864 56.74958 52.32911
# Shear Modulus (GPa) = 21.07591 24.94357 23.00974
#
# Velocity S-wave (km/s) = 3.32688 3.61929 3.47616
# Velocity P-wave (km/s) = 6.31799 6.87518 6.60247
#
# Compressibility (1/GPa) = 0.02087306
#
# Stress axis : x y z
#
# Youngs Moduli (GPa) = 69.15242 41.28354 85.00000
#
# Poissons Ratio (x) = 0.39483 0.36904
# Poissons Ratio (y) = 0.66136 0.07498
# Poissons Ratio (z) = 0.30023 0.03642
#
# Static dielectric constant tensor:
#      x y z
#    x 1.699740 0.000000 0.036690 
#    y 0.000000 1.693010 0.000000 
#    z 0.036690 0.000000 1.693340 
# 
# From -- ./inp_files/12868.got.cif
#   From: 2010.05.17/outbox.cif.g08.bks.cpg/sg14_7_cif.got.tgz:12868.got - 2010.06.03 17:49:19.
