data_PCOD9242733
_publ_section_title
;
Structure prediction by ZEFSAII (Michael W. Deem and Ramdas Pophale) SiO2 
 PCOD9242733
Probable space group: P 21/C
;
_chemical_formula_sum "Si O2"
_cell_formula_units_Z 24
_cell_length_a 6.928249
_cell_length_b 13.275354
_cell_length_c 14.168181
_cell_angle_alpha 90.000000
_cell_angle_beta 117.301559
_cell_angle_gamma 90.000000
_cell_volume 1157.956718
_symmetry_space_group_name_H-M "P 21/C"
_symmetry_group_IT_number 14
_symmetry_cell_setting 'monoclinic'
loop_
_space_group_symop_operation_xyz
x,y,z
-x,1/2+y,1/2-z
-x,-y,-z
x,1/2-y,1/2+z
loop_
_atom_site_type_symbol
_atom_site_label
_atom_site_fract_x
_atom_site_fract_y
_atom_site_fract_z
Si Si1 0.401672 0.676474 0.630710
Si Si2 0.263236 0.550163 0.436344
Si Si3 0.762953 0.261562 0.711734
Si Si4 0.128258 0.105917 0.773766
Si Si5 0.150050 0.003366 0.444550
Si Si6 0.513588 0.658023 0.005580
O O1 0.236799 0.607785 0.530657
O O2 0.299288 0.741014 0.692979
O O3 0.622988 0.616056 0.707163
O O4 0.496868 0.751685 0.573855
O O5 0.500000 0.500000 0.500000
O O6 0.249736 0.631259 0.346370
O O7 0.123026 0.454378 0.371833
O O8 0.585405 0.194747 0.615212
O O9 0.998849 0.211069 0.748733
O O10 0.987845 0.037649 0.672606
O O11 0.352712 0.928978 0.505988
O O12 0.248802 0.112846 0.449901
O O13 0.000000 0.000000 0.500000
#
# Coordination Sequence:
#
# PCOD9242733 Si02
#       6
#     4   4   4   4   4   4
#     4  10  21  39  61  85 123 162 193 252 312 354
#     4   9  21  42  60  90 128 159 207 260 305 374
#     4  10  21  40  62  87 124 159 204 252 311 367
#     4  10  22  37  60  91 119 158 210 247 295 383
#     4  10  20  35  58  83 117 153 197 246 301 351
#     4   9  21  37  54  88 117 147 199 249 290 368
#
# _framework density 20.726163
#
# number of rings (size 3 to 8) (size 9 to 14) (size 15 to 20)
#    0.000    2.333    0.000    1.000    4.667    0.667 
#    6.000   10.000    0.000    0.000    0.000    0.000 
#    0.000    0.000    0.000    0.000    0.000    0.000 
#
# Total GULP energy -133717.163782 kJ/mol
# GULP energy per Si atom -5571.548491 kJ/mol
# Density = 2.067899 g / cm^3
# Si number density = 20.726163 Si / 1000 Ang^3
#
#
#
# Elastic Constant Matrix: (Units=GPa)
#
#
# Indices 1 2 3 4 5 6 
#
# 1 49.0536 0.4328 30.3658 0.0000 -8.7625 0.0000
# 2 0.4328 70.6786 24.5553 0.0000 2.9570 0.0000
# 3 30.3658 24.5553 81.1916 0.0000 -0.5593 0.0000
# 4 0.0000 0.0000 0.0000 53.5858 0.0000 10.8863
# 5 -8.7625 2.9570 -0.5593 0.0000 28.1560 0.0000
# 6 0.0000 0.0000 0.0000 10.8863 0.0000 15.5889
#
#
#
# Elastic Compliance Matrix: (Units=1/GPa)
#
#
# Indices 1 2 3 4 5 6 
#
# 1 0.029299 0.003634 -0.011998 0.000000 0.008498 0.000000
# 2 0.003634 0.016348 -0.006308 0.000000 -0.000711 0.000000
# 3 -0.011998 -0.006308 0.018693 0.000000 -0.002700 0.000000
# 4 0.000000 0.000000 0.000000 0.021747 0.000000 -0.015187
# 5 0.008498 -0.000711 -0.002700 0.000000 0.038182 0.000000
# 6 0.000000 0.000000 0.000000 -0.015187 0.000000 0.074754
#
#
# Mechanical properties :
#
#
# Convention : Reuss Voigt Hill
#
# Bulk Modulus (GPa) = 28.57600 34.62575 31.60088
# Shear Modulus (GPa) = 20.83045 29.17079 25.00062
#
# Velocity S-wave (km/s) = 3.17366 3.75565 3.47686
# Velocity P-wave (km/s) = 5.21985 5.96231 5.60339
#
# Compressibility (1/GPa) = 0.03499440
#
# Stress axis : x y z
#
# Youngs Moduli (GPa) = 34.13057 61.17110 53.49561
#
# Poissons Ratio (x) = -0.22227 0.64186
# Poissons Ratio (y) = -0.12402 0.33745
# Poissons Ratio (z) = 0.40951 0.38587
#
# Static dielectric constant tensor:
#      x y z
#    x 1.710010 0.000000 0.012300 
#    y 0.000000 1.788640 0.000000 
#    z 0.012300 0.000000 1.740340 
# 
# From -- ./inp_files/37395.got.cif
#   From: 2010.05.17/outbox.cif.g08.bks.cpg/sg14_19_cif.got.tgz:37395.got - 2010.06.03 17:49:19.
