data_PCOD9242650
_publ_section_title
;
Structure prediction by ZEFSAII (Michael W. Deem and Ramdas Pophale) SiO2 
 PCOD9242650
Probable space group: P 21/C
;
_chemical_formula_sum "Si O2"
_cell_formula_units_Z 20
_cell_length_a 17.399406
_cell_length_b 13.148556
_cell_length_c 9.004037
_cell_angle_alpha 90.000000
_cell_angle_beta 155.168692
_cell_angle_gamma 90.000000
_cell_volume 865.058200
_symmetry_space_group_name_H-M "P 21/C"
_symmetry_group_IT_number 14
_symmetry_cell_setting 'monoclinic'
loop_
_space_group_symop_operation_xyz
x,y,z
-x,1/2+y,1/2-z
-x,-y,-z
x,1/2-y,1/2+z
loop_
_atom_site_type_symbol
_atom_site_label
_atom_site_fract_x
_atom_site_fract_y
_atom_site_fract_z
Si Si1 0.076448 0.557249 0.275193
Si Si2 0.684907 0.588903 0.094101
Si Si3 0.969339 0.612685 0.377918
Si Si4 0.574123 0.306112 0.123823
Si Si5 0.390138 0.625169 0.136087
O O1 0.187524 0.472825 0.564782
O O2 0.223253 0.645390 0.499127
O O3 0.926308 0.600723 0.128250
O O4 0.000000 0.500000 0.000000
O O5 0.813764 0.655639 0.211985
O O6 0.544036 0.644860 0.952106
O O7 0.597658 0.496447 0.845174
O O8 0.000000 0.500000 0.500000
O O9 0.173658 0.656459 0.741594
O O10 0.555983 0.186393 0.123396
O O11 0.521710 0.337328 0.864532
#
# Coordination Sequence:
#
# PCOD9242650 Si02
#       5
#     4   4   4   4   4
#     4   9  17  32  55  78 102 137 175 214 266 318
#     4   9  18  37  57  76 105 141 178 223 265 310
#     4   7  15  32  53  72  98 132 170 213 257 308
#     4  10  20  35  55  77 108 142 175 222 268 314
#     4   9  18  34  53  77 104 140 177 212 264 318
#
# _framework density 23.119831000000001
#
# number of rings (size 3 to 8) (size 9 to 14) (size 15 to 20)
#    0.000    4.000    0.000    2.400    0.000    4.800 
#    0.000   14.000    0.000    0.000    0.000    0.000 
#    0.000    0.000    0.000    0.000    0.000    0.000 
#
# Total GULP energy -111413.319067 kJ/mol
# GULP energy per Si atom -5570.665953 kJ/mol
# Density = 2.306721 g / cm^3
# Si number density = 23.119831 Si / 1000 Ang^3
#
#
#
# Elastic Constant Matrix: (Units=GPa)
#
#
# Indices 1 2 3 4 5 6 
#
# 1 192.2926 34.4301 19.9114 0.0000 27.1716 0.0000
# 2 34.4301 40.2717 17.0659 0.0000 -1.1607 0.0000
# 3 19.9114 17.0659 26.0885 0.0000 -8.4999 0.0000
# 4 0.0000 0.0000 0.0000 19.6813 0.0000 -12.1040
# 5 27.1716 -1.1607 -8.4999 0.0000 21.5141 0.0000
# 6 0.0000 0.0000 0.0000 -12.1040 0.0000 20.1697
#
#
#
# Elastic Compliance Matrix: (Units=1/GPa)
#
#
# Indices 1 2 3 4 5 6 
#
# 1 0.009078 -0.004367 -0.009049 0.000000 -0.015276 0.000000
# 2 -0.004367 0.037719 -0.021671 0.000000 -0.001012 0.000000
# 3 -0.009049 -0.021671 0.072028 0.000000 0.038717 0.000000
# 4 0.000000 0.000000 0.000000 0.080531 0.000000 0.048327
# 5 -0.015276 -0.001012 0.038717 0.000000 0.081016 0.000000
# 6 0.000000 0.000000 0.000000 0.048327 0.000000 0.078581
#
#
# Mechanical properties :
#
#
# Convention : Reuss Voigt Hill
#
# Bulk Modulus (GPa) = 20.55435 44.60752 32.58093
# Shear Modulus (GPa) = 11.22731 24.75605 17.99168
#
# Velocity S-wave (km/s) = 2.20606 3.27581 2.79264
# Velocity P-wave (km/s) = 3.92410 5.80033 4.95189
#
# Compressibility (1/GPa) = 0.04865150
#
# Stress axis : x y z
#
# Youngs Moduli (GPa) = 110.15975 26.51194 13.88348
#
# Poissons Ratio (x) = 0.11577 0.12563
# Poissons Ratio (y) = 0.48102 0.30087
# Poissons Ratio (z) = 0.99682 0.57454
#
# Static dielectric constant tensor:
#      x y z
#    x 1.922210 0.000000 0.041000 
#    y 0.000000 1.919380 0.000000 
#    z 0.041000 0.000000 1.957250 
# 
# From -- ./inp_files/18084.got.cif
#   From: 2010.05.17/outbox.cif.g08.bks.cpg/sg14_10_cif.got.tgz:18084.got - 2010.06.03 17:49:19.
