data_PCOD9242387
_publ_section_title
;
Structure prediction by ZEFSAII (Michael W. Deem and Ramdas Pophale) SiO2 
 PCOD9242387
Probable space group: P 21/C
;
_chemical_formula_sum "Si O2"
_cell_formula_units_Z 28
_cell_length_a 11.675266
_cell_length_b 23.243830
_cell_length_c 5.323915
_cell_angle_alpha 90.000000
_cell_angle_beta 94.532719
_cell_angle_gamma 90.000000
_cell_volume 1440.274080
_symmetry_space_group_name_H-M "P 21/C"
_symmetry_group_IT_number 14
_symmetry_cell_setting 'monoclinic'
loop_
_space_group_symop_operation_xyz
x,y,z
-x,1/2+y,1/2-z
-x,-y,-z
x,1/2-y,1/2+z
loop_
_atom_site_type_symbol
_atom_site_label
_atom_site_fract_x
_atom_site_fract_y
_atom_site_fract_z
Si Si1 0.091051 0.551918 0.980360
Si Si2 0.228351 0.019593 0.150486
Si Si3 0.122163 0.282797 0.721650
Si Si4 0.394848 0.503776 0.289976
Si Si5 0.565220 0.913081 0.588426
Si Si6 0.006741 0.097948 0.043637
Si Si7 0.399786 0.216576 0.290100
O O1 0.203868 0.520234 0.888229
O O2 0.049723 0.591833 0.740031
O O3 0.080282 0.584398 0.242545
O O4 0.000000 0.500000 0.000000
O O5 0.327371 0.066081 0.222253
O O6 0.109673 0.050683 0.064266
O O7 0.281275 0.984565 0.928812
O O8 0.090746 0.236779 0.498365
O O9 0.260721 0.288507 0.755039
O O10 0.065535 0.341846 0.621501
O O11 0.500000 0.500000 0.500000
O O12 0.445668 0.553182 0.117727
O O13 0.391588 0.440657 0.164454
O O14 0.552970 0.845708 0.623401
O O15 0.432482 0.260695 0.519341
#
# Coordination Sequence:
#
# PCOD9242387 Si02
#       7
#     4   4   4   4   4   4   4
#     4  10  22  34  50  81 112 146 189 213 277 336
#     4  10  20  32  54  77 113 150 173 230 273 333
#     4  10  20  34  52  79 107 146 190 220 272 329
#     4   9  21  34  54  81 109 149 188 225 287 342
#     4  10  20  36  55  81 115 149 185 229 283 339
#     4  11  21  35  53  80 115 150 178 230 270 330
#     4  10  22  35  55  82 111 149 188 223 274 337
#
# _framework density 19.440742
#
# number of rings (size 3 to 8) (size 9 to 14) (size 15 to 20)
#    0.000    2.000    1.429    2.571   10.000    1.143 
#    0.000    0.000    0.000    0.000    0.000    6.000 
#    0.000    0.000    0.000    0.000    0.000    0.000 
#
# Total GULP energy -156026.456973 kJ/mol
# GULP energy per Si atom -5572.373463 kJ/mol
# Density = 1.939649 g / cm^3
# Si number density = 19.440742 Si / 1000 Ang^3
#
#
#
# Elastic Constant Matrix: (Units=GPa)
#
#
# Indices 1 2 3 4 5 6 
#
# 1 58.4745 28.1042 26.0912 0.0000 -19.1487 0.0000
# 2 28.1042 80.2218 30.8969 0.0000 4.4940 0.0000
# 3 26.0912 30.8969 122.0352 0.0000 -12.0959 0.0000
# 4 0.0000 0.0000 0.0000 31.3893 0.0000 12.5052
# 5 -19.1487 4.4940 -12.0959 0.0000 32.7403 0.0000
# 6 0.0000 0.0000 0.0000 12.5052 0.0000 23.0608
#
#
#
# Elastic Compliance Matrix: (Units=1/GPa)
#
#
# Indices 1 2 3 4 5 6 
#
# 1 0.028562 -0.010304 -0.001766 0.000000 0.017467 0.000000
# 2 -0.010304 0.017884 -0.003286 0.000000 -0.009695 0.000000
# 3 -0.001766 -0.003286 0.009701 0.000000 0.003002 0.000000
# 4 0.000000 0.000000 0.000000 0.040637 0.000000 -0.022036
# 5 0.017467 -0.009695 0.003002 0.000000 0.043199 0.000000
# 6 0.000000 0.000000 0.000000 -0.022036 0.000000 0.055313
#
#
# Mechanical properties :
#
#
# Convention : Reuss Voigt Hill
#
# Bulk Modulus (GPa) = 39.31685 47.87956 43.59821
# Shear Modulus (GPa) = 21.32306 29.14737 25.23521
#
# Velocity S-wave (km/s) = 3.31543 3.87627 3.60677
# Velocity P-wave (km/s) = 5.90965 6.68699 6.31030
#
# Compressibility (1/GPa) = 0.02543438
#
# Stress axis : x y z
#
# Youngs Moduli (GPa) = 35.01153 55.91594 103.07703
#
# Poissons Ratio (x) = 0.57617 0.18208
# Poissons Ratio (y) = 0.36077 0.33869
# Poissons Ratio (z) = 0.06185 0.18373
#
# Static dielectric constant tensor:
#      x y z
#    x 1.721690 0.000000 0.013530 
#    y 0.000000 1.683610 0.000000 
#    z 0.013530 0.000000 1.776010 
# 
# From -- ./inp_files/2882.got.cif
#   From: 2010.05.17/outbox.cif.g08.bks.cpg/sg14_2_cif.got.tgz:2882.got - 2010.06.03 17:49:19.
