data_PCOD9242664
_publ_section_title
;
Structure prediction by ZEFSAII (Michael W. Deem and Ramdas Pophale) SiO2 
 PCOD9242664
Probable space group: P 21/C
;
_chemical_formula_sum "Si O2"
_cell_formula_units_Z 28
_cell_length_a 17.017595
_cell_length_b 9.822678
_cell_length_c 8.310227
_cell_angle_alpha 90.000000
_cell_angle_beta 82.141286
_cell_angle_gamma 90.000000
_cell_volume 1376.077573
_symmetry_space_group_name_H-M "P 21/C"
_symmetry_group_IT_number 14
_symmetry_cell_setting 'monoclinic'
loop_
_space_group_symop_operation_xyz
x,y,z
-x,1/2+y,1/2-z
-x,-y,-z
x,1/2-y,1/2+z
loop_
_atom_site_type_symbol
_atom_site_label
_atom_site_fract_x
_atom_site_fract_y
_atom_site_fract_z
Si Si1 0.925000 0.176722 0.716668
Si Si2 0.420642 0.187097 0.583713
Si Si3 0.484259 0.887115 0.139136
Si Si4 0.164347 0.442878 0.887553
Si Si5 0.346634 0.443732 0.795081
Si Si6 0.909416 0.451712 0.551376
Si Si7 0.113032 0.183134 0.722824
O O1 0.906245 0.332124 0.683255
O O2 0.020262 0.166214 0.702736
O O3 0.890283 0.076376 0.591747
O O4 0.886646 0.118786 0.890763
O O5 0.494454 0.247413 0.458205
O O6 0.455853 0.106804 0.726066
O O7 0.372116 0.315759 0.672669
O O8 0.370362 0.102060 0.469455
O O9 0.397979 0.924954 0.229683
O O10 0.500000 0.000000 0.000000
O O11 0.253897 0.471757 0.812549
O O12 0.126633 0.336924 0.771701
O O13 0.162761 0.366677 0.058121
O O14 0.867204 0.584419 0.632584
O O15 0.000000 0.500000 0.500000
#
# Coordination Sequence:
#
# PCOD9242664 Si02
#       7
#     4   4   4   4   4   4   4
#     4  11  21  38  58  82 112 153 200 246 296 357
#     4   9  18  35  60  84 117 155 191 230 280 358
#     4   9  18  34  59  87 114 152 192 229 277 348
#     4  12  23  36  59  88 121 154 195 258 303 347
#     4  10  20  35  55  88 118 148 192 241 296 342
#     4  10  21  37  59  81 105 142 194 246 289 348
#     4  11  21  37  57  84 114 156 201 240 300 364
#
# _framework density 20.347691000000001
#
# number of rings (size 3 to 8) (size 9 to 14) (size 15 to 20)
#    0.000    1.714    0.000    6.857    0.000    0.000 
#    0.000    4.286    0.000    3.429    0.000    0.000 
#    0.000    0.000    0.000    0.000    0.000    0.000 
#
# Total GULP energy -156297.226192 kJ/mol
# GULP energy per Si atom -5582.043793 kJ/mol
# Density = 2.030138 g / cm^3
# Si number density = 20.347691 Si / 1000 Ang^3
#
#
#
# Elastic Constant Matrix: (Units=GPa)
#
#
# Indices 1 2 3 4 5 6 
#
# 1 85.1522 28.3995 18.3712 0.0000 -7.8969 0.0000
# 2 28.3995 76.8533 9.9836 0.0000 16.4693 0.0000
# 3 18.3712 9.9836 86.0184 0.0000 13.5841 0.0000
# 4 0.0000 0.0000 0.0000 40.6181 0.0000 4.4527
# 5 -7.8969 16.4693 13.5841 0.0000 14.0190 0.0000
# 6 0.0000 0.0000 0.0000 4.4527 0.0000 19.5436
#
#
#
# Elastic Compliance Matrix: (Units=1/GPa)
#
#
# Indices 1 2 3 4 5 6 
#
# 1 0.022930 -0.016011 -0.009503 0.000000 0.040934 0.000000
# 2 -0.016011 0.028719 0.008074 0.000000 -0.050581 0.000000
# 3 -0.009503 0.008074 0.017782 0.000000 -0.032069 0.000000
# 4 0.000000 0.000000 0.000000 0.025250 0.000000 -0.005753
# 5 0.040934 -0.050581 -0.032069 0.000000 0.184886 0.000000
# 6 0.000000 0.000000 0.000000 -0.005753 0.000000 0.052478
#
#
# Mechanical properties :
#
#
# Convention : Reuss Voigt Hill
#
# Bulk Modulus (GPa) = 28.94294 40.17027 34.55660
# Shear Modulus (GPa) = 13.21204 27.58743 20.39974
#
# Velocity S-wave (km/s) = 2.55093 3.68612 3.16975
# Velocity P-wave (km/s) = 4.78867 6.15641 5.51511
#
# Compressibility (1/GPa) = 0.03455074
#
# Stress axis : x y z
#
# Youngs Moduli (GPa) = 43.61095 34.82069 56.23544
#
# Poissons Ratio (x) = 0.55751 0.53442
# Poissons Ratio (y) = 0.69825 -0.45405
# Poissons Ratio (z) = 0.41445 -0.28114
#
# Static dielectric constant tensor:
#      x y z
#    x 1.697980 0.000000 0.020740 
#    y 0.000000 1.793360 0.000000 
#    z 0.020740 0.000000 1.788640 
# 
# From -- ./inp_files/17542.got.cif
#   From: 2010.05.17/outbox.cif.g08.bks.cpg/sg14_9_cif.got.tgz:17542.got - 2010.06.03 17:49:19.
