data_PCOD9242930
_publ_section_title
;
Structure prediction by ZEFSAII (Michael W. Deem and Ramdas Pophale) SiO2 
 PCOD9242930
Probable space group: P 21/C
;
_chemical_formula_sum "Si O2"
_cell_formula_units_Z 24
_cell_length_a 11.857472
_cell_length_b 12.290298
_cell_length_c 13.162885
_cell_angle_alpha 90.000000
_cell_angle_beta 32.473459
_cell_angle_gamma 90.000000
_cell_volume 1029.926388
_symmetry_space_group_name_H-M "P 21/C"
_symmetry_group_IT_number 14
_symmetry_cell_setting 'monoclinic'
loop_
_space_group_symop_operation_xyz
x,y,z
-x,1/2+y,1/2-z
-x,-y,-z
x,1/2-y,1/2+z
loop_
_atom_site_type_symbol
_atom_site_label
_atom_site_fract_x
_atom_site_fract_y
_atom_site_fract_z
Si Si1 0.920574 0.248996 0.173420
Si Si2 0.026379 0.511597 0.856929
Si Si3 0.494340 0.246523 0.619281
Si Si4 0.187720 0.435517 0.413621
Si Si5 0.437901 0.513059 0.409937
Si Si6 0.739086 0.333869 0.116123
O O1 0.022228 0.362673 0.132283
O O2 0.690684 0.233139 0.394593
O O3 0.885185 0.264823 0.079152
O O4 0.071113 0.149046 0.076798
O O5 0.248765 0.498371 0.632806
O O6 0.000000 0.500000 0.000000
O O7 0.868293 0.416424 0.945894
O O8 0.328032 0.147622 0.737783
O O9 0.439007 0.374645 0.659552
O O10 0.590967 0.235063 0.658058
O O11 0.336123 0.508553 0.373339
O O12 0.000000 0.500000 0.500000
O O13 0.591258 0.410480 0.296590
#
# Coordination Sequence:
#
# PCOD9242930 Si02
#       6
#     4   4   4   4   4   4
#     4  10  21  36  57  86 113 148 190 232 284 337
#     4   9  19  34  58  86 115 148 191 239 284 337
#     4  10  22  39  58  82 114 148 191 235 281 341
#     4  11  23  39  59  84 117 150 186 232 284 339
#     4  10  21  38  59  84 113 151 192 234 286 341
#     4  10  20  36  58  82 114 152 191 237 287 339
#
# _framework density 23.302637000000001
#
# number of rings (size 3 to 8) (size 9 to 14) (size 15 to 20)
#    0.000    2.000    0.000    3.000    0.000    9.333 
#    0.000    8.333    0.000    0.000    0.000    0.000 
#    0.000    0.000    0.000    0.000    0.000    0.000 
#
# Total GULP energy -133912.596289 kJ/mol
# GULP energy per Si atom -5579.691512 kJ/mol
# Density = 2.324960 g / cm^3
# Si number density = 23.302637 Si / 1000 Ang^3
#
#
#
# Elastic Constant Matrix: (Units=GPa)
#
#
# Indices 1 2 3 4 5 6 
#
# 1 55.5076 15.9481 -12.4427 0.0000 -4.8356 0.0000
# 2 15.9481 119.7479 42.9105 0.0000 -2.8394 0.0000
# 3 -12.4427 42.9105 130.8207 0.0000 -2.3787 0.0000
# 4 0.0000 0.0000 0.0000 38.2760 0.0000 -18.8112
# 5 -4.8356 -2.8394 -2.3787 0.0000 22.2075 0.0000
# 6 0.0000 0.0000 0.0000 -18.8112 0.0000 31.3673
#
#
#
# Elastic Compliance Matrix: (Units=1/GPa)
#
#
# Indices 1 2 3 4 5 6 
#
# 1 0.020185 -0.003743 0.003225 0.000000 0.004262 0.000000
# 2 -0.003743 0.010174 -0.003692 0.000000 0.000090 0.000000
# 3 0.003225 -0.003692 0.009184 0.000000 0.001214 0.000000
# 4 0.000000 0.000000 0.000000 0.037044 0.000000 0.022216
# 5 0.004262 0.000090 0.001214 0.000000 0.046099 0.000000
# 6 0.000000 0.000000 0.000000 0.022216 0.000000 0.045203
#
#
# Mechanical properties :
#
#
# Convention : Reuss Voigt Hill
#
# Bulk Modulus (GPa) = 32.12913 44.32311 38.22612
# Shear Modulus (GPa) = 26.78323 35.68085 31.23204
#
# Velocity S-wave (km/s) = 3.39391 3.91729 3.66495
# Velocity P-wave (km/s) = 5.40147 6.28667 5.86080
#
# Compressibility (1/GPa) = 0.03112441
#
# Stress axis : x y z
#
# Youngs Moduli (GPa) = 49.54123 98.28610 108.88771
#
# Poissons Ratio (x) = 0.36788 -0.35117
# Poissons Ratio (y) = 0.18543 0.40198
# Poissons Ratio (z) = -0.15977 0.36284
#
# Static dielectric constant tensor:
#      x y z
#    x 1.944570 0.000000 -0.007770 
#    y 0.000000 1.905170 0.000000 
#    z -0.007770 0.000000 1.898650 
# 
# From -- ./inp_files/47066.got.cif
#   From: 2010.05.17/outbox.cif.g08.bks.cpg/sg14_24_cif.got.tgz:47066.got - 2010.06.03 17:49:19.
