data_PCOD9242444
_publ_section_title
;
Structure prediction by ZEFSAII (Michael W. Deem and Ramdas Pophale) SiO2 
 PCOD9242444
Probable space group: P 21/C
;
_chemical_formula_sum "Si O2"
_cell_formula_units_Z 24
_cell_length_a 19.894014
_cell_length_b 6.640698
_cell_length_c 14.472429
_cell_angle_alpha 90.000000
_cell_angle_beta 25.339533
_cell_angle_gamma 90.000000
_cell_volume 818.281318
_symmetry_space_group_name_H-M "P 21/C"
_symmetry_group_IT_number 14
_symmetry_cell_setting 'monoclinic'
loop_
_space_group_symop_operation_xyz
x,y,z
-x,1/2+y,1/2-z
-x,-y,-z
x,1/2-y,1/2+z
loop_
_atom_site_type_symbol
_atom_site_label
_atom_site_fract_x
_atom_site_fract_y
_atom_site_fract_z
Si Si1 0.205259 0.624852 0.470989
Si Si2 0.870531 0.727438 0.670381
Si Si3 0.456283 0.125168 0.421726
Si Si4 0.460471 0.411704 0.694528
Si Si5 0.204920 0.803163 0.269416
Si Si6 0.862045 0.525509 0.876968
O O1 0.377555 0.527481 0.256887
O O2 0.191138 0.751441 0.394271
O O3 0.042413 0.505865 0.685320
O O4 0.199670 0.796104 0.557688
O O5 0.866611 0.668493 0.782646
O O6 0.050358 0.696850 0.416089
O O7 0.831087 0.961718 0.705676
O O8 0.720478 0.604337 0.817790
O O9 0.492136 0.363168 0.395695
O O10 0.449572 0.094205 0.319521
O O11 0.611209 0.275147 0.483901
O O12 0.280677 0.381762 0.884642
#
# Coordination Sequence:
#
# PCOD9242444 Si02
#       6
#     4   4   4   4   4   4
#     4  10  20  33  54  78 101 129 173 214 247 287
#     4   8  16  31  49  70 100 128 162 202 247 296
#     4   9  18  31  51  76 100 132 167 205 249 305
#     4   9  18  33  52  73 101 132 168 204 251 305
#     4   9  17  31  54  78  98 130 170 210 246 295
#     4   9  19  33  50  75 104 135 166 204 250 305
#
# _framework density 29.329764999999998
#
# number of rings (size 3 to 8) (size 9 to 14) (size 15 to 20)
#    0.000    3.000    0.000    0.000    0.000   14.000 
#    0.000    0.000    0.000   51.000    0.000    0.000 
#    0.000    0.000    0.000    0.000    0.000    0.000 
#
# Total GULP energy -134193.308695 kJ/mol
# GULP energy per Si atom -5591.387862 kJ/mol
# Density = 2.926301 g / cm^3
# Si number density = 29.329765 Si / 1000 Ang^3
#
#
#
# Elastic Constant Matrix: (Units=GPa)
#
#
# Indices 1 2 3 4 5 6 
#
# 1 79.8107 19.4247 78.8191 0.0000 -17.2931 0.0000
# 2 19.4247 86.0501 56.0065 0.0000 -16.4239 0.0000
# 3 78.8191 56.0065 355.0427 0.0000 -85.3985 0.0000
# 4 0.0000 0.0000 0.0000 59.3649 0.0000 -9.4392
# 5 -17.2931 -16.4239 -85.3985 0.0000 71.8147 0.0000
# 6 0.0000 0.0000 0.0000 -9.4392 0.0000 42.1569
#
#
#
# Elastic Compliance Matrix: (Units=1/GPa)
#
#
# Indices 1 2 3 4 5 6 
#
# 1 0.016232 -0.001493 -0.003515 0.000000 -0.000613 0.000000
# 2 -0.001493 0.013117 -0.001544 0.000000 0.000804 0.000000
# 3 -0.003515 -0.001544 0.004975 0.000000 0.004716 0.000000
# 4 0.000000 0.000000 0.000000 0.017467 0.000000 0.003911
# 5 -0.000613 0.000804 0.004716 0.000000 0.019569 0.000000
# 6 0.000000 0.000000 0.000000 0.003911 0.000000 0.024597
#
#
# Mechanical properties :
#
#
# Convention : Reuss Voigt Hill
#
# Bulk Modulus (GPa) = 47.12981 92.15600 69.64290
# Shear Modulus (GPa) = 43.05343 59.11086 51.08215
#
# Velocity S-wave (km/s) = 3.83549 4.49418 4.17783
# Velocity P-wave (km/s) = 5.97649 7.64323 6.86067
#
# Compressibility (1/GPa) = 0.02121799
#
# Stress axis : x y z
#
# Youngs Moduli (GPa) = 61.60692 76.23847 201.00465
#
# Poissons Ratio (x) = 0.11383 0.70662
# Poissons Ratio (y) = 0.09199 0.31041
# Poissons Ratio (z) = 0.21657 0.11773
#
# Static dielectric constant tensor:
#      x y z
#    x 2.276610 0.000000 -0.061080 
#    y 0.000000 2.367130 0.000000 
#    z -0.061080 0.000000 2.309500 
# 
# From -- ./inp_files/39808.got.cif
#   From: 2010.05.17/outbox.cif.g08.bks.cpg/sg14_20_cif.got.tgz:39808.got - 2010.06.03 17:49:19.
