data_PCOD9242112
_publ_section_title
;
Structure prediction by ZEFSAII (Michael W. Deem and Ramdas Pophale) SiO2 
 PCOD9242112
Probable space group: P 21/C
;
_chemical_formula_sum "Si O2"
_cell_formula_units_Z 32
_cell_length_a 6.902127
_cell_length_b 14.298539
_cell_length_c 17.227355
_cell_angle_alpha 90.000000
_cell_angle_beta 106.616695
_cell_angle_gamma 90.000000
_cell_volume 1629.172937
_symmetry_space_group_name_H-M "P 21/C"
_symmetry_group_IT_number 14
_symmetry_cell_setting 'monoclinic'
loop_
_space_group_symop_operation_xyz
x,y,z
-x,1/2+y,1/2-z
-x,-y,-z
x,1/2-y,1/2+z
loop_
_atom_site_type_symbol
_atom_site_label
_atom_site_fract_x
_atom_site_fract_y
_atom_site_fract_z
Si Si1 0.416905 0.008882 0.859511
Si Si2 0.361763 0.684848 0.304078
Si Si3 0.005886 0.220394 0.649352
Si Si4 0.794565 0.968603 0.014564
Si Si5 0.416289 0.372794 0.938666
Si Si6 0.406460 0.279165 0.300459
Si Si7 0.837745 0.042474 0.544048
Si Si8 0.263932 0.272402 0.540794
O O1 0.244954 0.991711 0.904965
O O2 0.425432 0.113821 0.829512
O O3 0.377248 0.927094 0.792491
O O4 0.620023 0.996055 0.933637
O O5 0.165166 0.722909 0.324894
O O6 0.410886 0.745128 0.233877
O O7 0.545329 0.701789 0.384668
O O8 0.936905 0.117346 0.614049
O O9 0.202906 0.222195 0.725985
O O10 0.072610 0.265378 0.575195
O O11 0.778559 0.856921 0.022058
O O12 0.000000 0.000000 0.000000
O O13 0.399294 0.296942 0.868465
O O14 0.270328 0.462284 0.916753
O O15 0.647659 0.406774 0.978499
O O16 0.328821 0.320790 0.004777
O O17 0.000000 0.000000 0.500000
#
# Coordination Sequence:
#
# PCOD9242112 Si02
#       8
#     4   4   4   4   4   4   4   4
#     4  10  22  40  60  90 125 165 209 259 326 382
#     4  10  23  42  61  89 129 173 204 268 329 395
#     4  11  23  41  64  94 130 175 215 266 334 397
#     4  10  20  35  64  94 122 158 212 268 316 381
#     4  11  23  42  66  99 128 169 227 282 324 392
#     4  11  26  41  64  95 135 168 212 273 333 399
#     4  11  24  41  70  98 129 175 227 279 327 400
#     4  10  19  39  65  89 127 162 218 267 321 379
#
# _framework density 19.641867000000001
#
# number of rings (size 3 to 8) (size 9 to 14) (size 15 to 20)
#    0.000    1.500    3.750    0.750    0.000    6.000 
#    0.000    0.000    0.000    0.000    0.000    0.000 
#    0.000    0.000    0.000    0.000    0.000    0.000 
#
# Total GULP energy -178481.073379 kJ/mol
# GULP energy per Si atom -5577.533543 kJ/mol
# Density = 1.959716 g / cm^3
# Si number density = 19.641867 Si / 1000 Ang^3
#
#
#
# Elastic Constant Matrix: (Units=GPa)
#
#
# Indices 1 2 3 4 5 6 
#
# 1 113.2546 47.1930 34.4829 0.0000 -29.1243 0.0000
# 2 47.1930 127.7894 44.7023 0.0000 -1.7365 0.0000
# 3 34.4829 44.7023 61.1680 0.0000 -15.3585 0.0000
# 4 0.0000 0.0000 0.0000 32.1929 0.0000 -6.3573
# 5 -29.1243 -1.7365 -15.3585 0.0000 18.6147 0.0000
# 6 0.0000 0.0000 0.0000 -6.3573 0.0000 24.7867
#
#
#
# Elastic Compliance Matrix: (Units=1/GPa)
#
#
# Indices 1 2 3 4 5 6 
#
# 1 0.019397 -0.007659 0.002652 0.000000 0.031822 0.000000
# 2 -0.007659 0.014257 -0.011070 0.000000 -0.019786 0.000000
# 3 0.002652 -0.011070 0.029925 0.000000 0.027808 0.000000
# 4 0.000000 0.000000 0.000000 0.032720 0.000000 0.008392
# 5 0.031822 -0.019786 0.027808 0.000000 0.124607 0.000000
# 6 0.000000 0.000000 0.000000 0.008392 0.000000 0.042496
#
#
# Mechanical properties :
#
#
# Convention : Reuss Voigt Hill
#
# Bulk Modulus (GPa) = 31.81981 61.66317 46.74149
# Shear Modulus (GPa) = 16.33821 26.84111 21.58966
#
# Velocity S-wave (km/s) = 2.88723 3.70066 3.31896
# Velocity P-wave (km/s) = 5.22972 7.05137 6.20773
#
# Compressibility (1/GPa) = 0.03142696
#
# Stress axis : x y z
#
# Youngs Moduli (GPa) = 51.55535 70.13964 33.41635
#
# Poissons Ratio (x) = 0.53717 -0.08863
# Poissons Ratio (y) = 0.39484 0.36992
# Poissons Ratio (z) = -0.13675 0.77644
#
# Static dielectric constant tensor:
#      x y z
#    x 1.689660 0.000000 -0.021440 
#    y 0.000000 1.893510 0.000000 
#    z -0.021440 0.000000 1.683790 
# 
# From -- ./inp_files/53486.got.cif
#   From: 2010.05.17/outbox.cif.g08.bks.cpg/sg14_27_cif.got.tgz:53486.got - 2010.06.03 17:49:19.
