data_PCOD9242128
_publ_section_title
;
Structure prediction by ZEFSAII (Michael W. Deem and Ramdas Pophale) SiO2 
 PCOD9242128
Probable space group: P 21/C
;
_chemical_formula_sum "Si O2"
_cell_formula_units_Z 28
_cell_length_a 8.381797
_cell_length_b 16.308701
_cell_length_c 12.938485
_cell_angle_alpha 90.000000
_cell_angle_beta 133.854364
_cell_angle_gamma 90.000000
_cell_volume 1275.373369
_symmetry_space_group_name_H-M "P 21/C"
_symmetry_group_IT_number 14
_symmetry_cell_setting 'monoclinic'
loop_
_space_group_symop_operation_xyz
x,y,z
-x,1/2+y,1/2-z
-x,-y,-z
x,1/2-y,1/2+z
loop_
_atom_site_type_symbol
_atom_site_label
_atom_site_fract_x
_atom_site_fract_y
_atom_site_fract_z
Si Si1 0.434956 0.541709 0.315261
Si Si2 0.276447 0.572884 0.952872
Si Si3 0.299328 0.489526 0.759594
Si Si4 0.908641 0.805180 0.365675
Si Si5 0.949365 0.364009 0.635674
Si Si6 0.430447 0.381222 0.433156
Si Si7 0.046197 0.399941 0.910731
O O1 0.586987 0.499220 0.298831
O O2 0.354251 0.469947 0.355695
O O3 0.569095 0.608156 0.442924
O O4 0.208487 0.580291 0.171886
O O5 0.286622 0.564474 0.833245
O O6 0.122729 0.646585 0.918123
O O7 0.170617 0.486337 0.946171
O O8 0.525860 0.573574 0.107260
O O9 0.062656 0.447159 0.647709
O O10 0.719569 0.818045 0.195048
O O11 0.966585 0.710219 0.396186
O O12 0.852042 0.847771 0.449929
O O13 0.686090 0.368019 0.519992
O O14 0.026398 0.355957 0.790620
#
# Coordination Sequence:
#
# PCOD9242128 Si02
#       7
#     4   4   4   4   4   4   4
#     4  10  19  39  66  89 121 159 200 256 303 354
#     4  10  20  37  66  95 111 154 218 258 283 352
#     4  10  21  38  62  90 122 153 202 261 296 340
#     4  12  22  39  68  86 122 164 207 242 304 371
#     4  10  26  41  56  90 132 156 195 252 312 363
#     4  10  23  39  61  91 120 161 205 243 306 372
#     4  10  20  42  66  88 117 167 208 244 297 367
#
# _framework density 21.954355
#
# number of rings (size 3 to 8) (size 9 to 14) (size 15 to 20)
#    0.000    1.714    2.857    1.286    4.000    1.714 
#    2.571    1.429    0.000    0.000    0.000    0.000 
#    0.000    0.000    0.000    0.000    0.000    0.000 
#
# Total GULP energy -156406.338702 kJ/mol
# GULP energy per Si atom -5585.940668 kJ/mol
# Density = 2.190439 g / cm^3
# Si number density = 21.954355 Si / 1000 Ang^3
#
#
#
# Elastic Constant Matrix: (Units=GPa)
#
#
# Indices 1 2 3 4 5 6 
#
# 1 71.2889 -15.7385 8.0857 0.0000 -14.6674 0.0000
# 2 -15.7385 20.6965 5.7810 0.0000 -5.5628 0.0000
# 3 8.0857 5.7810 84.9689 0.0000 2.6954 0.0000
# 4 0.0000 0.0000 0.0000 16.8914 0.0000 -0.9601
# 5 -14.6674 -5.5628 2.6954 0.0000 30.3265 0.0000
# 6 0.0000 0.0000 0.0000 -0.9601 0.0000 19.6090
#
#
#
# Elastic Compliance Matrix: (Units=1/GPa)
#
#
# Indices 1 2 3 4 5 6 
#
# 1 0.022667 0.022564 -0.004183 0.000000 0.015474 0.000000
# 2 0.022564 0.074515 -0.008019 0.000000 0.025294 0.000000
# 3 -0.004183 -0.008019 0.012860 0.000000 -0.004637 0.000000
# 4 0.000000 0.000000 0.000000 0.059367 0.000000 0.002907
# 5 0.015474 0.025294 -0.004637 0.000000 0.045510 0.000000
# 6 0.000000 0.000000 0.000000 0.002907 0.000000 0.051139
#
#
# Mechanical properties :
#
#
# Convention : Reuss Voigt Hill
#
# Bulk Modulus (GPa) = 7.64727 19.24562 13.44645
# Shear Modulus (GPa) = 17.30567 25.28711 21.29639
#
# Velocity S-wave (km/s) = 2.81064 3.39751 3.11791
# Velocity P-wave (km/s) = 3.74483 4.91690 4.37034
#
# Compressibility (1/GPa) = 0.13076557
#
# Stress axis : x y z
#
# Youngs Moduli (GPa) = 44.11682 13.42017 77.76183
#
# Poissons Ratio (x) = -0.30282 0.32528
# Poissons Ratio (y) = -0.99547 0.62360
# Poissons Ratio (z) = 0.18454 0.10762
#
# Static dielectric constant tensor:
#      x y z
#    x 1.832520 0.000000 -0.041010 
#    y 0.000000 1.774840 0.000000 
#    z -0.041010 0.000000 1.854160 
# 
# From -- ./inp_files/41807.got.cif
#   From: 2010.05.17/outbox.cif.g08.bks.cpg/sg14_21_cif.got.tgz:41807.got - 2010.06.03 17:49:19.
