data_PCOD9242612
_publ_section_title
;
Structure prediction by ZEFSAII (Michael W. Deem and Ramdas Pophale) SiO2 
 PCOD9242612
Probable space group: P 21/C
;
_chemical_formula_sum "Si O2"
_cell_formula_units_Z 32
_cell_length_a 11.184821
_cell_length_b 17.537181
_cell_length_c 21.094361
_cell_angle_alpha 90.000000
_cell_angle_beta 156.634112
_cell_angle_gamma 90.000000
_cell_volume 1641.003325
_symmetry_space_group_name_H-M "P 21/C"
_symmetry_group_IT_number 14
_symmetry_cell_setting 'monoclinic'
loop_
_space_group_symop_operation_xyz
x,y,z
-x,1/2+y,1/2-z
-x,-y,-z
x,1/2-y,1/2+z
loop_
_atom_site_type_symbol
_atom_site_label
_atom_site_fract_x
_atom_site_fract_y
_atom_site_fract_z
Si Si1 0.755701 0.695132 0.848144
Si Si2 0.255231 0.587192 0.441015
Si Si3 0.912654 0.401491 0.092421
Si Si4 0.262977 0.163781 0.256506
Si Si5 0.394798 0.184245 0.064462
Si Si6 0.179884 0.719190 0.643418
Si Si7 0.770315 0.460872 0.710801
Si Si8 0.751367 0.795344 0.151785
O O1 0.862930 0.630767 0.852059
O O2 0.750809 0.774686 0.806306
O O3 0.422559 0.682221 0.713841
O O4 0.009575 0.710760 0.024937
O O5 0.499220 0.522464 0.574428
O O6 0.129376 0.563469 0.310943
O O7 0.440172 0.665521 0.522834
O O8 0.003656 0.602695 0.370405
O O9 0.967130 0.490947 0.128590
O O10 0.998908 0.353377 0.198141
O O11 0.580151 0.377858 0.911407
O O12 0.224665 0.214742 0.301837
O O13 0.604669 0.249837 0.196005
O O14 0.615565 0.112063 0.166562
O O15 0.268050 0.205515 0.933241
O O16 0.101654 0.171990 0.966032
#
# Coordination Sequence:
#
# PCOD9242612 Si02
#       8
#     4   4   4   4   4   4   4   4
#     4  10  20  39  58  87 114 140 201 244 279 318
#     4   9  19  35  55  84 122 155 176 230 292 344
#     4  10  20  34  60  86 115 154 177 242 287 334
#     4  11  20  31  61  92 113 142 194 244 280 327
#     4  10  22  39  59  83 113 150 188 234 289 348
#     4  10  22  38  61  79 111 151 190 244 281 318
#     4   9  20  39  54  80 123 152 183 218 292 362
#     4   9  19  33  56  89 118 142 188 235 296 338
#
# _framework density 19.500264000000001
#
# number of rings (size 3 to 8) (size 9 to 14) (size 15 to 20)
#    0.000    2.250    1.250    2.250    8.750    0.500 
#    0.000    3.750    0.000    0.000    0.000    0.000 
#    0.000    0.000    0.000    0.000    0.000    0.000 
#
# Total GULP energy -178449.293273 kJ/mol
# GULP energy per Si atom -5576.540415 kJ/mol
# Density = 1.945588 g / cm^3
# Si number density = 19.500264 Si / 1000 Ang^3
#
#
#
# Elastic Constant Matrix: (Units=GPa)
#
#
# Indices 1 2 3 4 5 6 
#
# 1 55.9841 2.8869 17.0857 0.0000 0.0787 0.0000
# 2 2.8869 28.3038 -15.9130 0.0000 5.9271 0.0000
# 3 17.0857 -15.9130 44.6505 0.0000 9.2263 0.0000
# 4 0.0000 0.0000 0.0000 9.2175 0.0000 -0.3502
# 5 0.0787 5.9271 9.2263 0.0000 31.7582 0.0000
# 6 0.0000 0.0000 0.0000 -0.3502 0.0000 15.9869
#
#
#
# Elastic Compliance Matrix: (Units=1/GPa)
#
#
# Indices 1 2 3 4 5 6 
#
# 1 0.022752 -0.011546 -0.014101 0.000000 0.006195 0.000000
# 2 -0.011546 0.056395 0.028390 0.000000 -0.018744 0.000000
# 3 -0.014101 0.028390 0.041488 0.000000 -0.017317 0.000000
# 4 0.000000 0.000000 0.000000 0.108579 0.000000 0.002378
# 5 0.006195 -0.018744 -0.017317 0.000000 0.040002 0.000000
# 6 0.000000 0.000000 0.000000 0.002378 0.000000 0.062603
#
#
# Mechanical properties :
#
#
# Convention : Reuss Voigt Hill
#
# Bulk Modulus (GPa) = 7.92887 15.22862 11.57874
# Shear Modulus (GPa) = 13.57309 19.71776 16.64543
#
# Velocity S-wave (km/s) = 2.64113 3.18331 2.92481
# Velocity P-wave (km/s) = 3.65727 4.61928 4.16613
#
# Compressibility (1/GPa) = 0.12612142
#
# Stress axis : x y z
#
# Youngs Moduli (GPa) = 43.95123 17.73197 24.10317
#
# Poissons Ratio (x) = 0.20473 0.33989
# Poissons Ratio (y) = 0.50746 -0.68429
# Poissons Ratio (z) = 0.61977 -0.50341
#
# Static dielectric constant tensor:
#      x y z
#    x 1.710500 0.000000 -0.019530 
#    y 0.000000 1.676200 0.000000 
#    z -0.019530 0.000000 1.709220 
# 
# From -- ./inp_files/13742.got.cif
#   From: 2010.05.17/outbox.cif.g08.bks.cpg/sg14_7_cif.got.tgz:13742.got - 2010.06.03 17:49:19.
