data_PCOD9242987
_publ_section_title
;
Structure prediction by ZEFSAII (Michael W. Deem and Ramdas Pophale) SiO2 
 PCOD9242987
Probable space group: P 21/C
;
_chemical_formula_sum "Si O2"
_cell_formula_units_Z 28
_cell_length_a 9.680015
_cell_length_b 16.749814
_cell_length_c 11.246370
_cell_angle_alpha 90.000000
_cell_angle_beta 141.440405
_cell_angle_gamma 90.000000
_cell_volume 1136.619861
_symmetry_space_group_name_H-M "P 21/C"
_symmetry_group_IT_number 14
_symmetry_cell_setting 'monoclinic'
loop_
_space_group_symop_operation_xyz
x,y,z
-x,1/2+y,1/2-z
-x,-y,-z
x,1/2-y,1/2+z
loop_
_atom_site_type_symbol
_atom_site_label
_atom_site_fract_x
_atom_site_fract_y
_atom_site_fract_z
Si Si1 0.243263 0.464206 0.704134
Si Si2 0.724764 0.186787 0.032106
Si Si3 0.876156 0.032785 0.634523
Si Si4 0.372470 0.298632 0.916697
Si Si5 0.159492 0.368082 0.974843
Si Si6 0.376039 0.511195 0.543226
Si Si7 0.008848 0.804830 0.397126
O O1 0.274051 0.370689 0.765939
O O2 0.398127 0.474190 0.691780
O O3 0.000000 0.500000 0.500000
O O4 0.268294 0.514431 0.844786
O O5 0.938463 0.154525 0.249271
O O6 0.600035 0.105823 0.920810
O O7 0.819336 0.232425 0.981393
O O8 0.584681 0.252603 0.009978
O O9 0.867208 0.119707 0.573709
O O10 0.837503 0.963078 0.513121
O O11 0.129962 0.019192 0.844793
O O12 0.193034 0.227922 0.817033
O O13 0.372401 0.340180 0.044409
O O14 0.113078 0.325582 0.065013
O O15 0.500000 0.500000 0.500000
#
# Coordination Sequence:
#
# PCOD9242987 Si02
#       7
#     4   4   4   4   4   4   4
#     4   9  19  38  60  82 118 161 195 240 302 363
#     4  10  23  39  56  89 122 151 200 253 303 358
#     4   9  19  37  57  81 115 157 199 236 295 363
#     4  10  22  39  59  89 119 156 204 247 299 360
#     4   9  21  39  58  82 121 159 193 243 304 362
#     4  10  20  36  59  86 116 156 200 241 294 364
#     4  11  21  36  62  89 117 156 201 256 301 348
#
# _framework density 24.634446000000001
#
# number of rings (size 3 to 8) (size 9 to 14) (size 15 to 20)
#    0.000    2.286    0.000    3.857    0.000   11.429 
#    0.000    5.714    0.000    0.000    0.000    0.000 
#    0.000    0.000    0.000    0.000    0.000    0.000 
#
# Total GULP energy -156144.171164 kJ/mol
# GULP energy per Si atom -5576.577542 kJ/mol
# Density = 2.457838 g / cm^3
# Si number density = 24.634446 Si / 1000 Ang^3
#
#
#
# Elastic Constant Matrix: (Units=GPa)
#
#
# Indices 1 2 3 4 5 6 
#
# 1 163.6539 63.9083 18.3583 0.0000 -9.6973 0.0000
# 2 63.9083 162.0052 19.1080 0.0000 -9.3558 0.0000
# 3 18.3583 19.1080 23.5219 0.0000 6.3998 0.0000
# 4 0.0000 0.0000 0.0000 17.6020 0.0000 5.8013
# 5 -9.6973 -9.3558 6.3998 0.0000 42.9576 0.0000
# 6 0.0000 0.0000 0.0000 5.8013 0.0000 45.7564
#
#
#
# Elastic Compliance Matrix: (Units=1/GPa)
#
#
# Indices 1 2 3 4 5 6 
#
# 1 0.007662 -0.002375 -0.004566 0.000000 0.001893 0.000000
# 2 -0.002375 0.007811 -0.005012 0.000000 0.001912 0.000000
# 3 -0.004566 -0.005012 0.052869 0.000000 -0.009999 0.000000
# 4 0.000000 0.000000 0.000000 0.059289 0.000000 -0.007517
# 5 0.001893 0.001912 -0.009999 0.000000 0.025612 0.000000
# 6 0.000000 0.000000 0.000000 -0.007517 0.000000 0.022808
#
#
# Mechanical properties :
#
#
# Convention : Reuss Voigt Hill
#
# Bulk Modulus (GPa) = 22.50387 61.32558 41.91472
# Shear Modulus (GPa) = 23.28083 37.78364 30.53223
#
# Velocity S-wave (km/s) = 3.07750 3.92059 3.52435
# Velocity P-wave (km/s) = 4.66723 6.74114 5.79767
#
# Compressibility (1/GPa) = 0.04443681
#
# Stress axis : x y z
#
# Youngs Moduli (GPa) = 130.51141 128.02478 18.91467
#
# Poissons Ratio (x) = 0.30403 0.08636
# Poissons Ratio (y) = 0.30993 0.09480
# Poissons Ratio (z) = 0.59591 0.64166
#
# Static dielectric constant tensor:
#      x y z
#    x 1.969860 0.000000 0.046560 
#    y 0.000000 1.970110 0.000000 
#    z 0.046560 0.000000 2.064510 
# 
# From -- ./inp_files/25375.got.cif
#   From: 2010.05.17/outbox.cif.g08.bks.cpg/sg14_13_cif.got.tgz:25375.got - 2010.06.03 17:49:19.
