data_PCOD9242936
_publ_section_title
;
Structure prediction by ZEFSAII (Michael W. Deem and Ramdas Pophale) SiO2 
 PCOD9242936
Probable space group: P 21/C
;
_chemical_formula_sum "Si O2"
_cell_formula_units_Z 20
_cell_length_a 18.225254
_cell_length_b 9.970145
_cell_length_c 12.554943
_cell_angle_alpha 90.000000
_cell_angle_beta 158.502360
_cell_angle_gamma 90.000000
_cell_volume 836.026082
_symmetry_space_group_name_H-M "P 21/C"
_symmetry_group_IT_number 14
_symmetry_cell_setting 'monoclinic'
loop_
_space_group_symop_operation_xyz
x,y,z
-x,1/2+y,1/2-z
-x,-y,-z
x,1/2-y,1/2+z
loop_
_atom_site_type_symbol
_atom_site_label
_atom_site_fract_x
_atom_site_fract_y
_atom_site_fract_z
Si Si1 0.228950 0.026225 0.092069
Si Si2 0.670068 0.249996 0.351044
Si Si3 0.319888 0.249995 0.050570
Si Si4 0.228956 0.026235 0.592078
Si Si5 0.088748 0.250004 0.548124
O O1 0.331081 0.881851 0.224572
O O2 0.324763 0.120320 0.131348
O O3 0.204476 0.116831 0.163718
O O4 0.999995 0.999993 0.749998
O O5 0.493694 0.249996 0.198672
O O6 0.668918 0.118140 0.275428
O O7 0.874319 0.249996 0.699520
O O8 0.324778 0.379665 0.131374
O O9 0.106984 0.250004 0.699501
O O10 0.204472 0.116836 0.663714
#
# Coordination Sequence:
#
# PCOD9242936 Si02
#       5
#     4   4   4   4   4
#     4   9  20  39  56  80 116 144 179 229 273 323
#     4  10  20  36  58  84 112 142 184 230 266 322
#     4  11  21  37  60  82 108 147 187 223 272 326
#     4   9  20  39  56  80 116 144 179 229 273 323
#     4   9  21  39  58  80 112 149 179 221 278 326
#
# _framework density 23.922699999999999
#
# number of rings (size 3 to 8) (size 9 to 14) (size 15 to 20)
#    0.000    2.400    0.000    2.400    0.000    8.000 
#    0.000   18.000    0.000    0.000    0.000    0.000 
#    0.000    0.000    0.000    0.000    0.000    0.000 
#
# Total GULP energy -111858.578739 kJ/mol
# GULP energy per Si atom -5592.928937 kJ/mol
# Density = 2.386825 g / cm^3
# Si number density = 23.922700 Si / 1000 Ang^3
#
#
#
# Elastic Constant Matrix: (Units=GPa)
#
#
# Indices 1 2 3 4 5 6 
#
# 1 54.8193 44.4017 17.7274 0.0000 0.3395 0.0000
# 2 44.4017 210.3962 10.8220 0.0000 2.5906 0.0000
# 3 17.7274 10.8220 103.5903 0.0000 -0.3990 0.0000
# 4 0.0000 0.0000 0.0000 2.8908 0.0000 9.0369
# 5 0.3395 2.5906 -0.3990 0.0000 49.7499 0.0000
# 6 0.0000 0.0000 0.0000 9.0369 0.0000 -1.6777
#
#
#
# Elastic Compliance Matrix: (Units=1/GPa)
#
#
# Indices 1 2 3 4 5 6 
#
# 1 0.023184 -0.004715 -0.003475 0.000000 0.000059 0.000000
# 2 -0.004715 0.005741 0.000206 0.000000 -0.000265 0.000000
# 3 -0.003475 0.000206 0.010227 0.000000 0.000095 0.000000
# 4 0.000000 0.000000 0.000000 0.019392 0.000000 0.104454
# 5 0.000059 -0.000265 0.000095 0.000000 0.020115 0.000000
# 6 0.000000 0.000000 0.000000 0.104454 0.000000 -0.033413
#
#
# Mechanical properties :
#
#
# Convention : Reuss Voigt Hill
#
# Bulk Modulus (GPa) = 43.13189 57.18975 50.16082
# Shear Modulus (GPa) = 72.52784 29.91624 51.22204
#
# Velocity S-wave (km/s) = 5.51211 3.54013 4.63227
# Velocity P-wave (km/s) = 7.65376 6.37715 7.04443
#
# Compressibility (1/GPa) = 0.02318470
#
# Stress axis : x y z
#
# Youngs Moduli (GPa) = 43.13366 174.19845 97.78164
#
# Poissons Ratio (x) = 0.82129 0.33976
# Poissons Ratio (y) = 0.20336 -0.02015
# Poissons Ratio (z) = 0.14987 -0.03590
#
# Static dielectric constant tensor:
#      x y z
#    x 1.831170 0.000000 0.002900 
#    y 0.000000 1.907610 0.000000 
#    z 0.002900 0.000000 1.974530 
# 
# From -- ./inp_files/36844.got.cif
#   From: 2010.05.17/outbox.cif.g08.bks.cpg/sg14_19_cif.got.tgz:36844.got - 2010.06.03 17:49:19.
