data_PCOD9242709
_publ_section_title
;
Structure prediction by ZEFSAII (Michael W. Deem and Ramdas Pophale) SiO2 
 PCOD9242709
Probable space group: P 21/C
;
_chemical_formula_sum "Si O2"
_cell_formula_units_Z 32
_cell_length_a 18.018385
_cell_length_b 9.988620
_cell_length_c 8.552102
_cell_angle_alpha 90.000000
_cell_angle_beta 66.859417
_cell_angle_gamma 90.000000
_cell_volume 1415.358456
_symmetry_space_group_name_H-M "P 21/C"
_symmetry_group_IT_number 14
_symmetry_cell_setting 'monoclinic'
loop_
_space_group_symop_operation_xyz
x,y,z
-x,1/2+y,1/2-z
-x,-y,-z
x,1/2-y,1/2+z
loop_
_atom_site_type_symbol
_atom_site_label
_atom_site_fract_x
_atom_site_fract_y
_atom_site_fract_z
Si Si1 0.952298 0.891629 0.343324
Si Si2 0.803408 0.360665 0.682297
Si Si3 0.047692 0.804054 0.558609
Si Si4 0.587459 0.162465 0.921590
Si Si5 0.204132 0.142216 0.706351
Si Si6 0.696750 0.202526 0.559025
Si Si7 0.418084 0.379269 0.468873
Si Si8 0.687591 0.701038 0.155541
O O1 0.871466 0.827435 0.340865
O O2 0.977401 0.841227 0.493771
O O3 0.021605 0.825528 0.179329
O O4 0.943104 0.054131 0.355979
O O5 0.871635 0.248804 0.594772
O O6 0.824477 0.516504 0.665708
O O7 0.734325 0.334411 0.610432
O O8 0.767889 0.342614 0.885894
O O9 0.660092 0.129031 0.740204
O O10 0.569195 0.037389 0.048747
O O11 0.622521 0.275845 0.003523
O O12 0.505091 0.191876 0.898633
O O13 0.277236 0.117499 0.520276
O O14 0.239046 0.252956 0.793770
O O15 0.357266 0.325544 0.389908
O O16 0.378068 0.355554 0.671313
#
# Coordination Sequence:
#
# PCOD9242709 Si02
#       8
#     4   4   4   4   4   4   4   4
#     4  11  24  43  65  94 125 163 206 255 306 369
#     4  11  22  40  62  87 118 157 197 250 301 361
#     4  11  25  43  66  93 126 162 205 252 310 367
#     4  10  20  35  57  84 114 155 195 243 294 354
#     4  11  22  38  60  84 117 155 200 246 305 361
#     4  10  21  36  58  86 114 147 197 241 292 349
#     4  10  20  36  56  81 118 154 195 241 297 353
#     4  10  22  37  56  86 118 157 199 250 303 364
#
# _framework density 22.609114000000002
#
# number of rings (size 3 to 8) (size 9 to 14) (size 15 to 20)
#    0.000    1.500    0.000    5.250    0.000    4.000 
#    0.000    3.750    0.000   12.000    0.000    0.000 
#    0.000    0.000    0.000    0.000    0.000    0.000 
#
# Total GULP energy -178380.151310 kJ/mol
# GULP energy per Si atom -5574.379728 kJ/mol
# Density = 2.255766 g / cm^3
# Si number density = 22.609114 Si / 1000 Ang^3
#
#
#
# Elastic Constant Matrix: (Units=GPa)
#
#
# Indices 1 2 3 4 5 6 
#
# 1 100.8941 9.2031 4.8991 0.0000 -3.6949 0.0000
# 2 9.2031 69.2816 30.8862 0.0000 -8.7598 0.0000
# 3 4.8991 30.8862 87.4634 0.0000 -10.2073 0.0000
# 4 0.0000 0.0000 0.0000 23.4441 0.0000 -5.3812
# 5 -3.6949 -8.7598 -10.2073 0.0000 23.4315 0.0000
# 6 0.0000 0.0000 0.0000 -5.3812 0.0000 20.3822
#
#
#
# Elastic Compliance Matrix: (Units=1/GPa)
#
#
# Indices 1 2 3 4 5 6 
#
# 1 0.010062 -0.001188 -0.000011 0.000000 0.001138 0.000000
# 2 -0.001188 0.017629 -0.005701 0.000000 0.003920 0.000000
# 3 -0.000011 -0.005701 0.013905 0.000000 0.003924 0.000000
# 4 0.000000 0.000000 0.000000 0.045406 0.000000 0.011988
# 5 0.001138 0.003920 0.003924 0.000000 0.046032 0.000000
# 6 0.000000 0.000000 0.000000 0.011988 0.000000 0.052228
#
#
# Mechanical properties :
#
#
# Convention : Reuss Voigt Hill
#
# Bulk Modulus (GPa) = 35.97742 38.62399 37.30071
# Shear Modulus (GPa) = 24.00063 27.62826 25.81445
#
# Velocity S-wave (km/s) = 3.26167 3.49950 3.38268
# Velocity P-wave (km/s) = 5.48926 5.78352 5.63831
#
# Compressibility (1/GPa) = 0.02779521
#
# Stress axis : x y z
#
# Youngs Moduli (GPa) = 99.38452 56.72499 71.91493
#
# Poissons Ratio (x) = 0.06737 0.00082
# Poissons Ratio (y) = 0.11803 0.41002
# Poissons Ratio (z) = 0.00114 0.32341
#
# Static dielectric constant tensor:
#      x y z
#    x 1.863830 0.000000 -0.024820 
#    y 0.000000 1.887320 0.000000 
#    z -0.024820 0.000000 1.852470 
# 
# From -- ./inp_files/17842.got.cif
#   From: 2010.05.17/outbox.cif.g08.bks.cpg/sg14_9_cif.got.tgz:17842.got - 2010.06.03 17:49:19.
