data_PCOD9242122
_publ_section_title
;
Structure prediction by ZEFSAII (Michael W. Deem and Ramdas Pophale) SiO2 
 PCOD9242122
Probable space group: P 21/C
;
_chemical_formula_sum "Si O2"
_cell_formula_units_Z 24
_cell_length_a 7.486450
_cell_length_b 10.572937
_cell_length_c 14.193827
_cell_angle_alpha 90.000000
_cell_angle_beta 75.340853
_cell_angle_gamma 90.000000
_cell_volume 1086.923327
_symmetry_space_group_name_H-M "P 21/C"
_symmetry_group_IT_number 14
_symmetry_cell_setting 'monoclinic'
loop_
_space_group_symop_operation_xyz
x,y,z
-x,1/2+y,1/2-z
-x,-y,-z
x,1/2-y,1/2+z
loop_
_atom_site_type_symbol
_atom_site_label
_atom_site_fract_x
_atom_site_fract_y
_atom_site_fract_z
Si Si1 0.608593 0.547310 0.282357
Si Si2 0.227773 0.031099 0.795840
Si Si3 0.240221 0.706581 0.649023
Si Si4 0.466089 0.965263 0.611584
Si Si5 0.934930 0.814485 0.823471
Si Si6 0.028938 0.351114 0.473315
O O1 0.386386 0.559819 0.320202
O O2 0.657393 0.418802 0.330589
O O3 0.632608 0.532165 0.165678
O O4 0.735889 0.655299 0.307442
O O5 0.190649 0.143039 0.873718
O O6 0.318071 0.058756 0.682673
O O7 0.044583 0.949786 0.804203
O O8 0.373509 0.827030 0.631126
O O9 0.068530 0.727346 0.743958
O O10 0.150449 0.695554 0.557819
O O11 0.500000 0.000000 0.500000
O O12 0.928243 0.782506 0.934981
O O13 0.000000 0.500000 0.500000
#
# Coordination Sequence:
#
# PCOD9242122 Si02
#       6
#     4   4   4   4   4   4
#     4  10  21  41  67  89 135 169 217 271 315 395
#     4   8  19  38  61  89 131 155 214 276 298 386
#     4  11  22  40  68  94 134 176 212 271 340 381
#     4   9  22  42  63  96 139 168 222 273 323 393
#     4  10  21  41  61  96 129 167 216 278 319 390
#     4  10  19  39  65  95 128 168 220 273 324 395
#
# _framework density 22.080673000000001
#
# number of rings (size 3 to 8) (size 9 to 14) (size 15 to 20)
#    1.000    1.333    3.333    0.000    2.333    2.000 
#    0.000    6.667    0.000    0.000    0.000    0.000 
#    0.000    0.000    0.000    0.000    0.000    0.000 
#
# Total GULP energy -133731.005947 kJ/mol
# GULP energy per Si atom -5572.125248 kJ/mol
# Density = 2.203042 g / cm^3
# Si number density = 22.080673 Si / 1000 Ang^3
#
#
#
# Elastic Constant Matrix: (Units=GPa)
#
#
# Indices 1 2 3 4 5 6 
#
# 1 85.9154 13.6791 20.2846 0.0000 24.9630 0.0000
# 2 13.6791 70.0493 14.2945 0.0000 6.4006 0.0000
# 3 20.2846 14.2945 158.8179 0.0000 21.4234 0.0000
# 4 0.0000 0.0000 0.0000 21.0249 0.0000 9.2027
# 5 24.9630 6.4006 21.4234 0.0000 41.0676 0.0000
# 6 0.0000 0.0000 0.0000 9.2027 0.0000 13.8224
#
#
#
# Elastic Compliance Matrix: (Units=1/GPa)
#
#
# Indices 1 2 3 4 5 6 
#
# 1 0.014465 -0.001961 -0.000566 0.000000 -0.008192 0.000000
# 2 -0.001961 0.014920 -0.001011 0.000000 -0.000606 0.000000
# 3 -0.000566 -0.001011 0.006876 0.000000 -0.003085 0.000000
# 4 0.000000 0.000000 0.000000 0.067123 0.000000 -0.044690
# 5 -0.008192 -0.000606 -0.003085 0.000000 0.031034 0.000000
# 6 0.000000 0.000000 0.000000 -0.044690 0.000000 0.102100
#
#
# Mechanical properties :
#
#
# Convention : Reuss Voigt Hill
#
# Bulk Modulus (GPa) = 34.26227 45.69989 39.98108
# Shear Modulus (GPa) = 19.73768 32.95125 26.34447
#
# Velocity S-wave (km/s) = 2.99304 3.86724 3.45788
# Velocity P-wave (km/s) = 5.24356 6.37828 5.83855
#
# Compressibility (1/GPa) = 0.02918662
#
# Stress axis : x y z
#
# Youngs Moduli (GPa) = 69.13051 67.02324 145.43391
#
# Poissons Ratio (x) = 0.13142 0.08232
# Poissons Ratio (y) = 0.13555 0.14699
# Poissons Ratio (z) = 0.03913 0.06774
#
# Static dielectric constant tensor:
#      x y z
#    x 1.830330 0.000000 -0.024160 
#    y 0.000000 1.872320 0.000000 
#    z -0.024160 0.000000 1.899750 
# 
# From -- ./inp_files/39298.got.cif
#   From: 2010.05.17/outbox.cif.g08.bks.cpg/sg14_20_cif.got.tgz:39298.got - 2010.06.03 17:49:19.
