data_PCOD9242638
_publ_section_title
;
Structure prediction by ZEFSAII (Michael W. Deem and Ramdas Pophale) SiO2 
 PCOD9242638
Probable space group: P 21/C
;
_chemical_formula_sum "Si O2"
_cell_formula_units_Z 32
_cell_length_a 18.317957
_cell_length_b 12.134948
_cell_length_c 9.020756
_cell_angle_alpha 90.000000
_cell_angle_beta 36.446639
_cell_angle_gamma 90.000000
_cell_volume 1191.237472
_symmetry_space_group_name_H-M "P 21/C"
_symmetry_group_IT_number 14
_symmetry_cell_setting 'monoclinic'
loop_
_space_group_symop_operation_xyz
x,y,z
-x,1/2+y,1/2-z
-x,-y,-z
x,1/2-y,1/2+z
loop_
_atom_site_type_symbol
_atom_site_label
_atom_site_fract_x
_atom_site_fract_y
_atom_site_fract_z
Si Si1 0.121587 0.647604 0.075541
Si Si2 0.867186 0.543878 0.168649
Si Si3 0.105770 0.263971 0.065185
Si Si4 0.373976 0.681982 0.652035
Si Si5 0.605406 0.984566 0.102795
Si Si6 0.083691 0.911361 0.947630
Si Si7 0.343307 0.983479 0.486433
Si Si8 0.633657 0.682163 0.276681
O O1 0.156288 0.529838 0.945800
O O2 0.116833 0.669393 0.258325
O O3 0.977127 0.657968 0.278852
O O4 0.236853 0.726299 0.842466
O O5 0.876126 0.674091 0.120730
O O6 0.738359 0.521173 0.463852
O O7 0.000000 0.500000 0.000000
O O8 0.006630 0.350001 0.295890
O O9 0.241816 0.252147 0.903850
O O10 0.399411 0.602350 0.471986
O O11 0.357300 0.605132 0.826756
O O12 0.503426 0.743051 0.465182
O O13 0.617756 0.892913 0.950388
O O14 0.465196 0.972336 0.386589
O O15 0.213071 0.965517 0.776670
O O16 0.000000 0.000000 0.000000
O O17 0.342157 0.099657 0.400573
#
# Coordination Sequence:
#
# PCOD9242638 Si02
#       8
#     4   4   4   4   4   4   4   4
#     4  10  21  34  52  77 104 134 172 212 255 304
#     4  10  20  35  53  76 106 137 171 210 251 310
#     4  11  21  32  54  80 103 137 167 209 264 305
#     4   7  12  25  46  69  96 123 163 215 243 283
#     4   7  12  24  46  73  93 123 171 203 245 292
#     4  11  18  33  53  77 105 128 168 217 260 296
#     4   8  12  23  48  75  94 122 163 215 248 288
#     4   8  12  24  47  74  96 121 167 211 246 287
#
# _framework density 26.862822000000001
#
# number of rings (size 3 to 8) (size 9 to 14) (size 15 to 20)
#    0.000    3.000    2.500    3.000    1.750    0.000 
#    0.000    0.000    2.750    3.750    0.000    0.000 
#    0.000    0.000    0.000    0.000    0.000    0.000 
#
# Total GULP energy -178211.997262 kJ/mol
# GULP energy per Si atom -5569.124914 kJ/mol
# Density = 2.680168 g / cm^3
# Si number density = 26.862822 Si / 1000 Ang^3
#
#
#
# Elastic Constant Matrix: (Units=GPa)
#
#
# Indices 1 2 3 4 5 6 
#
# 1 87.4104 13.0123 59.4136 0.0000 -33.4805 0.0000
# 2 13.0123 25.9830 16.1780 0.0000 -13.6141 0.0000
# 3 59.4136 16.1780 204.1283 0.0000 -88.8287 0.0000
# 4 0.0000 0.0000 0.0000 27.4454 0.0000 -4.2934
# 5 -33.4805 -13.6141 -88.8287 0.0000 69.3936 0.0000
# 6 0.0000 0.0000 0.0000 -4.2934 0.0000 23.4728
#
#
#
# Elastic Compliance Matrix: (Units=1/GPa)
#
#
# Indices 1 2 3 4 5 6 
#
# 1 0.015080 -0.004319 -0.002821 0.000000 0.002817 0.000000
# 2 -0.004319 0.044165 0.001401 0.000000 0.008374 0.000000
# 3 -0.002821 0.001401 0.011595 0.000000 0.013757 0.000000
# 4 0.000000 0.000000 0.000000 0.037509 0.000000 0.006861
# 5 0.002817 0.008374 0.013757 0.000000 0.035022 0.000000
# 6 0.000000 0.000000 0.000000 0.006861 0.000000 0.043857
#
#
# Mechanical properties :
#
#
# Convention : Reuss Voigt Hill
#
# Bulk Modulus (GPa) = 16.84587 54.96994 35.90790
# Shear Modulus (GPa) = 22.88386 39.32354 31.10370
#
# Velocity S-wave (km/s) = 2.92186 3.83020 3.40644
# Velocity P-wave (km/s) = 4.20330 6.32994 5.37289
#
# Compressibility (1/GPa) = 0.05936175
#
# Stress axis : x y z
#
# Youngs Moduli (GPa) = 66.31424 22.64221 86.24265
#
# Poissons Ratio (x) = 0.09780 0.24327
# Poissons Ratio (y) = 0.28644 -0.12083
# Poissons Ratio (z) = 0.18706 -0.03172
#
# Static dielectric constant tensor:
#      x y z
#    x 2.257120 0.000000 -0.080980 
#    y 0.000000 2.275400 0.000000 
#    z -0.080980 0.000000 2.178400 
# 
# From -- ./inp_files/35323.got.cif
#   From: 2010.05.17/outbox.cif.g08.bks.cpg/sg14_18_cif.got.tgz:35323.got - 2010.06.03 17:49:19.
