data_PCOD9242417
_publ_section_title
;
Structure prediction by ZEFSAII (Michael W. Deem and Ramdas Pophale) SiO2 
 PCOD9242417
Probable space group: P 21/C
;
_chemical_formula_sum "Si O2"
_cell_formula_units_Z 28
_cell_length_a 9.917099
_cell_length_b 22.342619
_cell_length_c 16.092712
_cell_angle_alpha 90.000000
_cell_angle_beta 24.410044
_cell_angle_gamma 90.000000
_cell_volume 1473.586428
_symmetry_space_group_name_H-M "P 21/C"
_symmetry_group_IT_number 14
_symmetry_cell_setting 'monoclinic'
loop_
_space_group_symop_operation_xyz
x,y,z
-x,1/2+y,1/2-z
-x,-y,-z
x,1/2-y,1/2+z
loop_
_atom_site_type_symbol
_atom_site_label
_atom_site_fract_x
_atom_site_fract_y
_atom_site_fract_z
Si Si1 0.665984 0.954193 0.841170
Si Si2 0.067855 0.323148 0.030782
Si Si3 0.980855 0.836607 0.104522
Si Si4 0.550336 0.230119 0.702282
Si Si5 0.683406 0.508390 0.985282
Si Si6 0.462023 0.565435 0.273341
Si Si7 0.886672 0.375449 0.296983
O O1 0.571441 0.967308 0.797756
O O2 0.474510 0.892880 0.968869
O O3 0.053589 0.956781 0.638889
O O4 0.500000 0.000000 0.000000
O O5 0.808768 0.309585 0.105339
O O6 0.888496 0.332512 0.218038
O O7 0.309075 0.266501 0.898724
O O8 0.272194 0.382314 0.893011
O O9 0.251930 0.783957 0.951969
O O10 0.133467 0.896394 0.976375
O O11 0.915130 0.851049 0.236396
O O12 0.671414 0.810414 0.231450
O O13 0.918479 0.565494 0.840222
O O14 0.500000 0.500000 0.000000
O O15 0.463334 0.524161 0.189947
#
# Coordination Sequence:
#
# PCOD9242417 Si02
#       7
#     4   4   4   4   4   4   4
#     4   9  18  34  51  69  95 128 163 196 239 289
#     4   9  18  32  50  71  97 127 159 195 241 286
#     4   9  18  33  50  72  99 126 159 197 240 285
#     4   9  18  32  50  72  96 126 160 194 237 290
#     4  10  20  33  50  74  98 125 164 205 242 285
#     4   9  18  34  52  69  98 132 159 198 244 287
#     4   9  19  34  49  69  98 128 159 199 240 286
#
# _framework density 19.001259999999998
#
# number of rings (size 3 to 8) (size 9 to 14) (size 15 to 20)
#    0.000    2.857    0.000    0.429    0.000    3.429 
#    0.000    6.429    0.000    0.000    0.000    0.000 
#    0.000    0.000    0.000    0.000    0.000    0.000 
#
# Total GULP energy -155923.708821 kJ/mol
# GULP energy per Si atom -5568.703886 kJ/mol
# Density = 1.895801 g / cm^3
# Si number density = 19.001260 Si / 1000 Ang^3
#
#
#
# Elastic Constant Matrix: (Units=GPa)
#
#
# Indices 1 2 3 4 5 6 
#
# 1 49.4709 12.1557 6.6816 0.0000 17.8361 0.0000
# 2 12.1557 21.7189 -3.9867 0.0000 0.5004 0.0000
# 3 6.6816 -3.9867 17.4001 0.0000 5.9963 0.0000
# 4 0.0000 0.0000 0.0000 6.0254 0.0000 7.7016
# 5 17.8361 0.5004 5.9963 0.0000 36.3766 0.0000
# 6 0.0000 0.0000 0.0000 7.7016 0.0000 36.6726
#
#
#
# Elastic Compliance Matrix: (Units=1/GPa)
#
#
# Indices 1 2 3 4 5 6 
#
# 1 0.031336 -0.019432 -0.011962 0.000000 -0.013126 0.000000
# 2 -0.019432 0.060352 0.019394 0.000000 0.005501 0.000000
# 3 -0.011962 0.019394 0.068468 0.000000 -0.005688 0.000000
# 4 0.000000 0.000000 0.000000 0.226864 0.000000 -0.047644
# 5 -0.013126 0.005501 -0.005688 0.000000 0.034788 0.000000
# 6 0.000000 0.000000 0.000000 -0.047644 0.000000 0.037274
#
#
# Mechanical properties :
#
#
# Convention : Reuss Voigt Hill
#
# Bulk Modulus (GPa) = 7.34448 13.14345 10.24396
# Shear Modulus (GPa) = 9.46132 20.73086 15.09609
#
# Velocity S-wave (km/s) = 2.23386 3.30665 2.82171
# Velocity P-wave (km/s) = 3.24456 4.63797 4.00237
#
# Compressibility (1/GPa) = 0.13615677
#
# Stress axis : x y z
#
# Youngs Moduli (GPa) = 31.91173 16.56956 14.60531
#
# Poissons Ratio (x) = 0.32198 0.17471
# Poissons Ratio (y) = 0.62010 -0.28326
# Poissons Ratio (z) = 0.38173 -0.32135
#
# Static dielectric constant tensor:
#      x y z
#    x 1.678370 0.000000 0.009260 
#    y 0.000000 1.719710 0.000000 
#    z 0.009260 0.000000 1.698480 
# 
# From -- ./inp_files/10882.got.cif
#   From: 2010.05.17/outbox.cif.g08.bks.cpg/sg14_6_cif.got.tgz:10882.got - 2010.06.03 17:49:19.
