data_PCOD9242989
_publ_section_title
;
Structure prediction by ZEFSAII (Michael W. Deem and Ramdas Pophale) SiO2 
 PCOD9242989
Probable space group: P 21/C
;
_chemical_formula_sum "Si O2"
_cell_formula_units_Z 28
_cell_length_a 10.836811
_cell_length_b 7.857603
_cell_length_c 14.580089
_cell_angle_alpha 90.000000
_cell_angle_beta 114.971748
_cell_angle_gamma 90.000000
_cell_volume 1125.452738
_symmetry_space_group_name_H-M "P 21/C"
_symmetry_group_IT_number 14
_symmetry_cell_setting 'monoclinic'
loop_
_space_group_symop_operation_xyz
x,y,z
-x,1/2+y,1/2-z
-x,-y,-z
x,1/2-y,1/2+z
loop_
_atom_site_type_symbol
_atom_site_label
_atom_site_fract_x
_atom_site_fract_y
_atom_site_fract_z
Si Si1 0.968795 0.801976 0.503633
Si Si2 0.251168 0.829817 0.134494
Si Si3 0.789271 0.898359 0.610058
Si Si4 0.586262 0.681094 0.904215
Si Si5 0.267230 0.742198 0.828857
Si Si6 0.640933 0.461699 0.496134
Si Si7 0.267024 0.290717 0.710468
O O1 0.903667 0.805820 0.585597
O O2 0.869057 0.755332 0.388599
O O3 0.101778 0.684026 0.544379
O O4 0.000000 0.000000 0.500000
O O5 0.246743 0.700684 0.217684
O O6 0.356029 0.822091 0.083817
O O7 0.284486 0.007275 0.195714
O O8 0.670269 0.939976 0.497881
O O9 0.741082 0.785088 0.681884
O O10 0.822564 0.083613 0.664003
O O11 0.428245 0.688140 0.879090
O O12 0.617141 0.678434 0.805198
O O13 0.662217 0.858369 0.954995
O O14 0.255358 0.895805 0.895769
O O15 0.500000 0.500000 0.500000
#
# Coordination Sequence:
#
# PCOD9242989 Si02
#       7
#     4   4   4   4   4   4   4
#     4  11  23  38  57  85 115 147 198 250 288 345
#     4  10  21  38  58  82 115 155 195 239 293 352
#     4  10  21  37  58  83 115 155 190 234 295 348
#     4   9  19  36  57  84 115 147 190 239 287 348
#     4  10  20  36  59  87 116 150 190 236 293 351
#     4   9  19  36  56  81 113 147 187 233 284 344
#     4   9  21  39  57  80 113 155 195 237 294 352
#
# _framework density 24.878876999999999
#
# number of rings (size 3 to 8) (size 9 to 14) (size 15 to 20)
#    0.000    2.286    0.000    1.714    0.000    6.857 
#    0.000   14.286    0.000    0.000    0.000    0.000 
#    0.000    0.000    0.000    0.000    0.000    0.000 
#
# Total GULP energy -156120.770671 kJ/mol
# GULP energy per Si atom -5575.741810 kJ/mol
# Density = 2.482225 g / cm^3
# Si number density = 24.878877 Si / 1000 Ang^3
#
#
#
# Elastic Constant Matrix: (Units=GPa)
#
#
# Indices 1 2 3 4 5 6 
#
# 1 90.9844 -5.2905 44.6684 0.0000 -31.6212 0.0000
# 2 -5.2905 43.9010 32.6401 0.0000 -15.4086 0.0000
# 3 44.6684 32.6401 115.9654 0.0000 -33.7205 0.0000
# 4 0.0000 0.0000 0.0000 35.7633 0.0000 0.4176
# 5 -31.6212 -15.4086 -33.7205 0.0000 42.6774 0.0000
# 6 0.0000 0.0000 0.0000 0.4176 0.0000 25.8729
#
#
#
# Elastic Compliance Matrix: (Units=1/GPa)
#
#
# Indices 1 2 3 4 5 6 
#
# 1 0.020065 0.012652 -0.007320 0.000000 0.013651 0.000000
# 2 0.012652 0.037696 -0.011425 0.000000 0.013957 0.000000
# 3 -0.007320 -0.011425 0.015426 0.000000 0.002640 0.000000
# 4 0.000000 0.000000 0.000000 0.027967 0.000000 -0.000451
# 5 0.013651 0.013957 0.002640 0.000000 0.040671 0.000000
# 6 0.000000 0.000000 0.000000 -0.000451 0.000000 0.038658
#
#
# Mechanical properties :
#
#
# Convention : Reuss Voigt Hill
#
# Bulk Modulus (GPa) = 16.39344 43.87631 30.13488
# Shear Modulus (GPa) = 23.47384 32.78490 28.12937
#
# Velocity S-wave (km/s) = 3.07502 3.63406 3.36617
# Velocity P-wave (km/s) = 4.38306 5.93993 5.21987
#
# Compressibility (1/GPa) = 0.06099999
#
# Stress axis : x y z
#
# Youngs Moduli (GPa) = 49.83901 26.52786 64.82442
#
# Poissons Ratio (x) = -0.33562 0.47453
# Poissons Ratio (y) = -0.63055 0.74061
# Poissons Ratio (z) = 0.36484 0.30308
#
# Static dielectric constant tensor:
#      x y z
#    x 2.040170 0.000000 -0.092530 
#    y 0.000000 2.078120 0.000000 
#    z -0.092530 0.000000 2.128720 
# 
# From -- ./inp_files/43456.got.cif
#   From: 2010.05.17/outbox.cif.g08.bks.cpg/sg14_22_cif.got.tgz:43456.got - 2010.06.03 17:49:19.
