data_PCOD9242815
_publ_section_title
;
Structure prediction by ZEFSAII (Michael W. Deem and Ramdas Pophale) SiO2 
 PCOD9242815
Probable space group: P 21/C
;
_chemical_formula_sum "Si O2"
_cell_formula_units_Z 32
_cell_length_a 8.949791
_cell_length_b 20.302176
_cell_length_c 12.163923
_cell_angle_alpha 90.000000
_cell_angle_beta 130.158855
_cell_angle_gamma 90.000000
_cell_volume 1689.156552
_symmetry_space_group_name_H-M "P 21/C"
_symmetry_group_IT_number 14
_symmetry_cell_setting 'monoclinic'
loop_
_space_group_symop_operation_xyz
x,y,z
-x,1/2+y,1/2-z
-x,-y,-z
x,1/2-y,1/2+z
loop_
_atom_site_type_symbol
_atom_site_label
_atom_site_fract_x
_atom_site_fract_y
_atom_site_fract_z
Si Si1 0.562496 0.490502 0.181171
Si Si2 0.001931 0.488404 0.371390
Si Si3 0.879227 0.838306 0.051590
Si Si4 0.516596 0.385046 0.984891
Si Si5 0.791076 0.791434 0.768785
Si Si6 0.828818 0.271583 0.165048
Si Si7 0.603716 0.042742 0.956138
Si Si8 0.466380 0.313854 0.442404
O O1 0.456188 0.556485 0.091155
O O2 0.572710 0.484456 0.317544
O O3 0.780317 0.498539 0.232642
O O4 0.492401 0.423357 0.089373
O O5 0.067344 0.412881 0.389546
O O6 0.166191 0.537490 0.406030
O O7 0.000000 0.500000 0.500000
O O8 0.695652 0.818929 0.039389
O O9 0.062123 0.792484 0.171426
O O10 0.828444 0.828633 0.900603
O O11 0.322346 0.342549 0.865155
O O12 0.705112 0.336811 0.071210
O O13 0.631727 0.732353 0.697055
O O14 0.993894 0.758189 0.824427
O O15 0.659886 0.217607 0.086140
O O16 0.521758 0.115698 0.921870
O O17 0.500000 0.000000 0.000000
#
# Coordination Sequence:
#
# PCOD9242815 Si02
#       8
#     4   4   4   4   4   4   4   4
#     4  10  22  38  68  88 125 169 202 263 304 376
#     4  10  20  35  62  89 114 159 202 250 301 363
#     4  11  21  42  60  87 126 156 204 255 309 365
#     4  10  21  41  62  97 124 159 214 250 318 366
#     4  10  23  39  64  88 122 164 207 253 306 376
#     4  10  23  39  61  89 122 159 208 254 304 369
#     4  11  22  38  62  93 124 157 209 256 312 361
#     4  10  24  39  59  90 123 160 201 260 309 364
#
# _framework density 18.944365000000001
#
# number of rings (size 3 to 8) (size 9 to 14) (size 15 to 20)
#    0.000    1.750    2.500    1.500    5.250    5.000 
#    0.000    0.000    0.000    6.000    0.000    0.000 
#    0.000    0.000    0.000    0.000    0.000    0.000 
#
# Total GULP energy -178332.459751 kJ/mol
# GULP energy per Si atom -5572.889367 kJ/mol
# Density = 1.890125 g / cm^3
# Si number density = 18.944365 Si / 1000 Ang^3
#
#
#
# Elastic Constant Matrix: (Units=GPa)
#
#
# Indices 1 2 3 4 5 6 
#
# 1 74.4176 28.9339 41.3790 0.0000 15.7072 0.0000
# 2 28.9339 90.5748 25.2392 0.0000 4.8987 0.0000
# 3 41.3790 25.2392 92.7474 0.0000 9.4465 0.0000
# 4 0.0000 0.0000 0.0000 31.4019 0.0000 5.1554
# 5 15.7072 4.8987 9.4465 0.0000 28.4598 0.0000
# 6 0.0000 0.0000 0.0000 5.1554 0.0000 30.1939
#
#
#
# Elastic Compliance Matrix: (Units=1/GPa)
#
#
# Indices 1 2 3 4 5 6 
#
# 1 0.020915 -0.004183 -0.007339 0.000000 -0.008387 0.000000
# 2 -0.004183 0.012811 -0.001688 0.000000 0.000663 0.000000
# 3 -0.007339 -0.001688 0.014566 0.000000 -0.000494 0.000000
# 4 0.000000 0.000000 0.000000 0.032764 0.000000 -0.005594
# 5 -0.008387 0.000663 -0.000494 0.000000 0.039816 0.000000
# 6 0.000000 0.000000 0.000000 -0.005594 0.000000 0.034074
#
#
# Mechanical properties :
#
#
# Convention : Reuss Voigt Hill
#
# Bulk Modulus (GPa) = 45.71726 49.87154 47.79440
# Shear Modulus (GPa) = 26.50345 28.82363 27.66354
#
# Velocity S-wave (km/s) = 3.74440 3.90486 3.82547
# Velocity P-wave (km/s) = 6.54819 6.83469 6.69297
#
# Compressibility (1/GPa) = 0.02187358
#
# Stress axis : x y z
#
# Youngs Moduli (GPa) = 47.81329 78.05706 68.65456
#
# Poissons Ratio (x) = 0.32648 0.50383
# Poissons Ratio (y) = 0.19998 0.11588
# Poissons Ratio (z) = 0.35088 0.13174
#
# Static dielectric constant tensor:
#      x y z
#    x 1.673370 0.000000 0.042550 
#    y 0.000000 1.687140 0.000000 
#    z 0.042550 0.000000 1.684670 
# 
# From -- ./inp_files/26829.got.cif
#   From: 2010.05.17/outbox.cif.g08.bks.cpg/sg14_14_cif.got.tgz:26829.got - 2010.06.03 17:49:19.
