data_PCOD9242606
_publ_section_title
;
Structure prediction by ZEFSAII (Michael W. Deem and Ramdas Pophale) SiO2 
 PCOD9242606
Probable space group: P 21/C
;
_chemical_formula_sum "Si O2"
_cell_formula_units_Z 28
_cell_length_a 7.540876
_cell_length_b 11.561937
_cell_length_c 15.349455
_cell_angle_alpha 90.000000
_cell_angle_beta 132.054439
_cell_angle_gamma 90.000000
_cell_volume 993.680844
_symmetry_space_group_name_H-M "P 21/C"
_symmetry_group_IT_number 14
_symmetry_cell_setting 'monoclinic'
loop_
_space_group_symop_operation_xyz
x,y,z
-x,1/2+y,1/2-z
-x,-y,-z
x,1/2-y,1/2+z
loop_
_atom_site_type_symbol
_atom_site_label
_atom_site_fract_x
_atom_site_fract_y
_atom_site_fract_z
Si Si1 0.475098 0.361759 0.109908
Si Si2 0.277779 0.107046 0.084688
Si Si3 0.693802 0.934900 0.162242
Si Si4 0.650787 0.263749 0.000007
Si Si5 0.184410 0.785774 0.132805
Si Si6 0.941936 0.911163 0.808438
Si Si7 0.938981 0.556923 0.118585
O O1 0.372235 0.232129 0.087068
O O2 0.609593 0.358109 0.061176
O O3 0.251800 0.446478 0.021563
O O4 0.641641 0.360983 0.248837
O O5 0.464942 0.014098 0.110091
O O6 0.002533 0.119911 0.964851
O O7 0.251090 0.097949 0.179801
O O8 0.584111 0.817252 0.090957
O O9 0.862852 0.986532 0.142624
O O10 0.872731 0.952464 0.303873
O O11 0.717288 0.277817 0.920975
O O12 0.875240 0.193640 0.114785
O O13 0.083730 0.677826 0.154192
O O14 0.819501 0.919090 0.673930
#
# Coordination Sequence:
#
# PCOD9242606 Si02
#       7
#     4   4   4   4   4   4   4
#     4  11  20  38  58  88 127 159 196 252 298 374
#     4  10  20  34  59  87 120 151 196 253 302 350
#     4  10  20  39  59  94 119 154 202 258 300 359
#     4  11  21  36  63  91 123 154 204 259 305 341
#     4  10  21  35  55  92 117 159 203 240 304 366
#     4   9  19  34  56  88 115 152 196 240 307 343
#     4   9  20  36  57  85 125 158 200 240 306 362
#
# _framework density 28.178062000000001
#
# number of rings (size 3 to 8) (size 9 to 14) (size 15 to 20)
#    0.857    1.143    4.286    0.429    2.000    2.286 
#    2.571    0.714    0.000    0.000    0.000   13.000 
#    0.000    0.143    0.000    0.000    0.000    0.000 
#
# Total GULP energy -156619.703488 kJ/mol
# GULP energy per Si atom -5593.560839 kJ/mol
# Density = 2.811393 g / cm^3
# Si number density = 28.178062 Si / 1000 Ang^3
#
#
#
# Elastic Constant Matrix: (Units=GPa)
#
#
# Indices 1 2 3 4 5 6 
#
# 1 107.3207 28.4899 29.7905 0.0000 -29.2628 0.0000
# 2 28.4899 107.8581 43.5954 0.0000 5.3020 0.0000
# 3 29.7905 43.5954 208.0602 0.0000 7.9611 0.0000
# 4 0.0000 0.0000 0.0000 30.9237 0.0000 8.0388
# 5 -29.2628 5.3020 7.9611 0.0000 58.6153 0.0000
# 6 0.0000 0.0000 0.0000 8.0388 0.0000 21.2365
#
#
#
# Elastic Compliance Matrix: (Units=1/GPa)
#
#
# Indices 1 2 3 4 5 6 
#
# 1 0.012302 -0.003015 -0.001382 0.000000 0.006602 0.000000
# 2 -0.003015 0.010892 -0.001764 0.000000 -0.002251 0.000000
# 3 -0.001382 -0.001764 0.005422 0.000000 -0.001267 0.000000
# 4 0.000000 0.000000 0.000000 0.035867 0.000000 -0.013577
# 5 0.006602 -0.002251 -0.001267 0.000000 0.020732 0.000000
# 6 0.000000 0.000000 0.000000 -0.013577 0.000000 0.052228
#
#
# Mechanical properties :
#
#
# Convention : Reuss Voigt Hill
#
# Bulk Modulus (GPa) = 61.37819 69.66562 65.52190
# Shear Modulus (GPa) = 32.21687 43.57932 37.89810
#
# Velocity S-wave (km/s) = 3.38499 3.93691 3.67134
# Velocity P-wave (km/s) = 6.09156 6.74112 6.42455
#
# Compressibility (1/GPa) = 0.01629243
#
# Stress axis : x y z
#
# Youngs Moduli (GPa) = 81.28602 91.81312 184.42122
#
# Poissons Ratio (x) = 0.27685 0.25492
# Poissons Ratio (y) = 0.24511 0.32537
# Poissons Ratio (z) = 0.11236 0.16198
#
# Static dielectric constant tensor:
#      x y z
#    x 2.206810 0.000000 0.043620 
#    y 0.000000 2.212570 0.000000 
#    z 0.043620 0.000000 2.269720 
# 
# From -- ./inp_files/41558.got.cif
#   From: 2010.05.17/outbox.cif.g08.bks.cpg/sg14_21_cif.got.tgz:41558.got - 2010.06.03 17:49:19.
