data_PCOD9242333
_publ_section_title
;
Structure prediction by ZEFSAII (Michael W. Deem and Ramdas Pophale) SiO2 
 PCOD9242333
Probable space group: P 21/C
;
_chemical_formula_sum "Si O2"
_cell_formula_units_Z 24
_cell_length_a 5.745520
_cell_length_b 19.038151
_cell_length_c 8.615970
_cell_angle_alpha 90.000000
_cell_angle_beta 85.436189
_cell_angle_gamma 90.000000
_cell_volume 939.461735
_symmetry_space_group_name_H-M "P 21/C"
_symmetry_group_IT_number 14
_symmetry_cell_setting 'monoclinic'
loop_
_space_group_symop_operation_xyz
x,y,z
-x,1/2+y,1/2-z
-x,-y,-z
x,1/2-y,1/2+z
loop_
_atom_site_type_symbol
_atom_site_label
_atom_site_fract_x
_atom_site_fract_y
_atom_site_fract_z
Si Si1 0.978903 0.027353 0.678304
Si Si2 0.363111 0.178401 0.868946
Si Si3 0.480251 0.472657 0.177672
Si Si4 0.995489 0.708982 0.186047
Si Si5 0.326706 0.774472 0.419181
Si Si6 0.712946 0.588161 0.344131
O O1 0.727594 0.064183 0.705142
O O2 0.934646 0.962336 0.798462
O O3 0.225640 0.061823 0.700980
O O4 0.000000 0.000000 0.500000
O O5 0.115850 0.217107 0.860369
O O6 0.491225 0.184729 0.697334
O O7 0.523434 0.228202 0.970130
O O8 0.338629 0.109878 0.978338
O O9 0.502715 0.543455 0.280938
O O10 0.500000 0.500000 0.000000
O O11 0.785096 0.658143 0.246521
O O12 0.167772 0.724788 0.318897
O O13 0.147665 0.680844 0.034395
#
# Coordination Sequence:
#
# PCOD9242333 Si02
#       6
#     4   4   4   4   4   4
#     4   8  16  29  46  73 105 128 171 226 271 309
#     4  11  20  35  47  79 106 148 179 220 259 326
#     4   8  16  29  46  73 105 128 171 226 271 309
#     4  11  20  35  47  79 106 148 179 220 259 326
#     4  10  22  32  53  66 116 143 182 220 262 308
#     4  10  20  28  55  74 108 143 176 218 280 312
#
# _framework density 25.546543
#
# number of rings (size 3 to 8) (size 9 to 14) (size 15 to 20)
#    1.000    1.333    3.333    0.000    2.333    0.000 
#    0.000    0.000    0.000    0.000    0.000    2.333 
#    0.000    0.000    0.000    0.000    0.000    0.000 
#
# Total GULP energy -134009.627525 kJ/mol
# GULP energy per Si atom -5583.734480 kJ/mol
# Density = 2.548840 g / cm^3
# Si number density = 25.546543 Si / 1000 Ang^3
#
#
#
# Elastic Constant Matrix: (Units=GPa)
#
#
# Indices 1 2 3 4 5 6 
#
# 1 168.0044 7.0585 23.7693 0.0000 -8.6208 0.0000
# 2 7.0585 40.9261 3.2256 0.0000 -0.7654 0.0000
# 3 23.7693 3.2256 129.8840 0.0000 -11.1136 0.0000
# 4 0.0000 0.0000 0.0000 37.1203 0.0000 -10.0969
# 5 -8.6208 -0.7654 -11.1136 0.0000 42.2915 0.0000
# 6 0.0000 0.0000 0.0000 -10.0969 0.0000 40.3412
#
#
#
# Elastic Compliance Matrix: (Units=1/GPa)
#
#
# Indices 1 2 3 4 5 6 
#
# 1 0.006188 -0.000968 -0.001025 0.000000 0.000974 0.000000
# 2 -0.000968 0.024637 -0.000423 0.000000 0.000137 0.000000
# 3 -0.001025 -0.000423 0.008060 0.000000 0.001901 0.000000
# 4 0.000000 0.000000 0.000000 0.028907 0.000000 0.007235
# 5 0.000974 0.000137 0.001901 0.000000 0.024346 0.000000
# 6 0.000000 0.000000 0.000000 0.007235 0.000000 0.026599
#
#
# Mechanical properties :
#
#
# Convention : Reuss Voigt Hill
#
# Bulk Modulus (GPa) = 29.36613 45.21348 37.28981
# Shear Modulus (GPa) = 37.05862 44.26800 40.66331
#
# Velocity S-wave (km/s) = 3.81285 4.16725 3.99398
# Velocity P-wave (km/s) = 5.55912 6.39465 5.99147
#
# Compressibility (1/GPa) = 0.03405283
#
# Stress axis : x y z
#
# Youngs Moduli (GPa) = 161.60515 40.58906 124.07012
#
# Poissons Ratio (x) = 0.03930 0.12717
# Poissons Ratio (y) = 0.15647 0.05247
# Poissons Ratio (z) = 0.16564 0.01717
#
# Static dielectric constant tensor:
#      x y z
#    x 2.066840 0.000000 -0.031970 
#    y 0.000000 2.068730 0.000000 
#    z -0.031970 0.000000 1.996120 
# 
# From -- ./inp_files/6629.got.cif
#   From: 2010.05.17/outbox.cif.g08.bks.cpg/sg14_4_cif.got.tgz:6629.got - 2010.06.03 17:49:19.
