data_PCOD9242504
_publ_section_title
;
Structure prediction by ZEFSAII (Michael W. Deem and Ramdas Pophale) SiO2 
 PCOD9242504
Probable space group: P 21/C
;
_chemical_formula_sum "Si O2"
_cell_formula_units_Z 16
_cell_length_a 12.256546
_cell_length_b 7.826939
_cell_length_c 14.591204
_cell_angle_alpha 90.000000
_cell_angle_beta 154.224225
_cell_angle_gamma 90.000000
_cell_volume 608.682831
_symmetry_space_group_name_H-M "P 21/C"
_symmetry_group_IT_number 14
_symmetry_cell_setting 'monoclinic'
loop_
_space_group_symop_operation_xyz
x,y,z
-x,1/2+y,1/2-z
-x,-y,-z
x,1/2-y,1/2+z
loop_
_atom_site_type_symbol
_atom_site_label
_atom_site_fract_x
_atom_site_fract_y
_atom_site_fract_z
Si Si1 0.579069 0.716785 0.079327
Si Si2 0.902281 0.628989 0.062930
Si Si3 0.065103 0.516779 0.716540
Si Si4 0.362020 0.567241 0.274294
O O1 0.343496 0.603118 0.932058
O O2 0.538446 0.778711 0.942589
O O3 0.855934 0.633165 0.294039
O O4 0.560062 0.886876 0.123371
O O5 0.997683 0.565202 0.233597
O O6 0.872069 0.835096 0.043643
O O7 0.113489 0.612991 0.144492
O O8 0.696283 0.491094 0.873012
#
# Coordination Sequence:
#
# PCOD9242504 Si02
#       4
#     4   4   4   4
#     4   9  19  36  54  76 108 142 181 228 275 324
#     4  10  20  34  54  79 107 142 183 225 272 327
#     4  10  20  34  53  78 109 143 181 226 273 324
#     4   9  19  36  55  76 106 143 183 228 274 323
#
# _framework density 26.286269000000001
#
# number of rings (size 3 to 8) (size 9 to 14) (size 15 to 20)
#    0.000    2.500    0.000    1.500    0.000    3.000 
#    0.000    5.000    0.000    0.000    0.000    0.000 
#    0.000    0.000    0.000    0.000    0.000    0.000 
#
# Total GULP energy -89231.086984 kJ/mol
# GULP energy per Si atom -5576.942937 kJ/mol
# Density = 2.622644 g / cm^3
# Si number density = 26.286269 Si / 1000 Ang^3
#
#
#
# Elastic Constant Matrix: (Units=GPa)
#
#
# Indices 1 2 3 4 5 6 
#
# 1 89.4664 32.0671 28.6508 0.0000 0.9105 0.0000
# 2 32.0671 112.7608 22.3650 0.0000 0.0453 0.0000
# 3 28.6508 22.3650 33.9910 0.0000 -5.1528 0.0000
# 4 0.0000 0.0000 0.0000 42.9333 0.0000 7.8484
# 5 0.9105 0.0453 -5.1528 0.0000 25.8262 0.0000
# 6 0.0000 0.0000 0.0000 7.8484 0.0000 30.6339
#
#
#
# Elastic Compliance Matrix: (Units=1/GPa)
#
#
# Indices 1 2 3 4 5 6 
#
# 1 0.015971 -0.002045 -0.012581 0.000000 -0.003070 0.000000
# 2 -0.002045 0.010511 -0.005345 0.000000 -0.001013 0.000000
# 3 -0.012581 -0.005345 0.044970 0.000000 0.009425 0.000000
# 4 0.000000 0.000000 0.000000 0.024436 0.000000 -0.006261
# 5 -0.003070 -0.001013 0.009425 0.000000 0.040711 0.000000
# 6 0.000000 0.000000 0.000000 -0.006261 0.000000 0.034248
#
#
# Mechanical properties :
#
#
# Convention : Reuss Voigt Hill
#
# Bulk Modulus (GPa) = 31.73810 44.70932 38.22371
# Shear Modulus (GPa) = 22.59453 30.08768 26.34111
#
# Velocity S-wave (km/s) = 2.93500 3.38689 3.16901
# Velocity P-wave (km/s) = 4.85653 5.68685 5.28801
#
# Compressibility (1/GPa) = 0.03150787
#
# Stress axis : x y z
#
# Youngs Moduli (GPa) = 62.61453 95.14278 22.23697
#
# Poissons Ratio (x) = 0.19458 0.27977
# Poissons Ratio (y) = 0.12806 0.11886
# Poissons Ratio (z) = 0.78778 0.50856
#
# Static dielectric constant tensor:
#      x y z
#    x 2.071340 0.000000 0.004500 
#    y 0.000000 2.242050 0.000000 
#    z 0.004500 0.000000 2.238030 
# 
# From -- ./inp_files/22701.got.cif
#   From: 2010.05.17/outbox.cif.g08.bks.cpg/sg14_12_cif.got.tgz:22701.got - 2010.06.03 17:49:19.
