data_PCOD9242861
_publ_section_title
;
Structure prediction by ZEFSAII (Michael W. Deem and Ramdas Pophale) SiO2 
 PCOD9242861
Probable space group: P 21/C
;
_chemical_formula_sum "Si O2"
_cell_formula_units_Z 32
_cell_length_a 16.699534
_cell_length_b 13.380828
_cell_length_c 9.126665
_cell_angle_alpha 90.000000
_cell_angle_beta 54.752204
_cell_angle_gamma 90.000000
_cell_volume 1665.492694
_symmetry_space_group_name_H-M "P 21/C"
_symmetry_group_IT_number 14
_symmetry_cell_setting 'monoclinic'
loop_
_space_group_symop_operation_xyz
x,y,z
-x,1/2+y,1/2-z
-x,-y,-z
x,1/2-y,1/2+z
loop_
_atom_site_type_symbol
_atom_site_label
_atom_site_fract_x
_atom_site_fract_y
_atom_site_fract_z
Si Si1 0.757579 0.831149 0.053576
Si Si2 0.765177 0.366338 0.707797
Si Si3 0.044167 0.635370 0.914878
Si Si4 0.858071 0.291266 0.900387
Si Si5 0.835428 0.556078 0.195644
Si Si6 0.746490 0.595534 0.006894
Si Si7 0.614200 0.524236 0.887886
Si Si8 0.893511 0.549146 0.597277
O O1 0.778695 0.879256 0.874036
O O2 0.739617 0.713028 0.055286
O O3 0.667513 0.891680 0.227202
O O4 0.858376 0.856612 0.037334
O O5 0.792838 0.347423 0.848583
O O6 0.789019 0.274174 0.579376
O O7 0.660707 0.415988 0.803863
O O8 0.835157 0.457132 0.588583
O O9 0.073562 0.724750 0.777442
O O10 0.112003 0.542131 0.797268
O O11 0.074004 0.651991 0.054156
O O12 0.929407 0.614585 0.031985
O O13 0.762549 0.534605 0.138832
O O14 0.656014 0.558835 0.002723
O O15 0.843356 0.575490 0.805280
O O16 0.500000 0.500000 0.000000
O O17 0.000000 0.500000 0.500000
#
# Coordination Sequence:
#
# PCOD9242861 Si02
#       8
#     4   4   4   4   4   4   4   4
#     4  10  22  39  62  90 120 158 202 253 297 360
#     4   9  20  36  58  84 114 155 186 251 296 352
#     4  10  22  32  51  82 117 166 192 234 265 343
#     4  10  20  36  54  82 120 148 210 230 282 342
#     4  11  22  34  54  83 125 151 197 231 291 323
#     4  10  22  39  62  90 120 158 202 253 297 360
#     4  10  22  46  68  83 114 152 196 248 331 377
#     4  10  22  36  58  82 130 174 206 225 293 356
#
# _framework density 19.213533999999999
#
# number of rings (size 3 to 8) (size 9 to 14) (size 15 to 20)
#    0.000    2.250    0.000    4.500    8.750    2.000 
#    2.250    0.625    0.000    0.000    0.000    0.000 
#    0.000    0.000    0.000    0.000    0.000    0.000 
#
# Total GULP energy -178328.311516 kJ/mol
# GULP energy per Si atom -5572.759735 kJ/mol
# Density = 1.916980 g / cm^3
# Si number density = 19.213534 Si / 1000 Ang^3
#
#
#
# Elastic Constant Matrix: (Units=GPa)
#
#
# Indices 1 2 3 4 5 6 
#
# 1 109.4238 22.6555 57.7293 0.0000 -22.0968 0.0000
# 2 22.6555 63.6154 15.1353 0.0000 -9.5391 0.0000
# 3 57.7293 15.1353 68.3212 0.0000 8.6585 0.0000
# 4 0.0000 0.0000 0.0000 29.1101 0.0000 4.9674
# 5 -22.0968 -9.5391 8.6585 0.0000 36.8362 0.0000
# 6 0.0000 0.0000 0.0000 4.9674 0.0000 27.0987
#
#
#
# Elastic Compliance Matrix: (Units=1/GPa)
#
#
# Indices 1 2 3 4 5 6 
#
# 1 0.027447 -0.000212 -0.025999 0.000000 0.022521 0.000000
# 2 -0.000212 0.017673 -0.004432 0.000000 0.005491 0.000000
# 3 -0.025999 -0.004432 0.040928 0.000000 -0.026364 0.000000
# 4 0.000000 0.000000 0.000000 0.035462 0.000000 -0.006500
# 5 0.022521 0.005491 -0.026364 0.000000 0.048275 0.000000
# 6 0.000000 0.000000 0.000000 -0.006500 0.000000 0.038094
#
#
# Mechanical properties :
#
#
# Convention : Reuss Voigt Hill
#
# Bulk Modulus (GPa) = 40.38425 48.04449 44.21437
# Shear Modulus (GPa) = 18.02340 28.33167 23.17753
#
# Velocity S-wave (km/s) = 3.06609 3.84418 3.47697
# Velocity P-wave (km/s) = 5.79645 6.69055 6.25948
#
# Compressibility (1/GPa) = 0.02476213
#
# Stress axis : x y z
#
# Youngs Moduli (GPa) = 36.43417 56.58423 24.43330
#
# Poissons Ratio (x) = 0.01200 0.63524
# Poissons Ratio (y) = 0.00773 0.10828
# Poissons Ratio (z) = 0.94724 0.25076
#
# Static dielectric constant tensor:
#      x y z
#    x 1.727230 0.000000 0.006660 
#    y 0.000000 1.787350 0.000000 
#    z 0.006660 0.000000 1.702470 
# 
# From -- ./inp_files/16234.got.cif
#   From: 2010.05.17/outbox.cif.g08.bks.cpg/sg14_9_cif.got.tgz:16234.got - 2010.06.03 17:49:19.
