data_PCOD9242487
_publ_section_title
;
Structure prediction by ZEFSAII (Michael W. Deem and Ramdas Pophale) SiO2 
 PCOD9242487
Probable space group: P 21/C
;
_chemical_formula_sum "Si O2"
_cell_formula_units_Z 32
_cell_length_a 28.959873
_cell_length_b 8.674500
_cell_length_c 16.401345
_cell_angle_alpha 90.000000
_cell_angle_beta 23.739606
_cell_angle_gamma 90.000000
_cell_volume 1658.721413
_symmetry_space_group_name_H-M "P 21/C"
_symmetry_group_IT_number 14
_symmetry_cell_setting 'monoclinic'
loop_
_space_group_symop_operation_xyz
x,y,z
-x,1/2+y,1/2-z
-x,-y,-z
x,1/2-y,1/2+z
loop_
_atom_site_type_symbol
_atom_site_label
_atom_site_fract_x
_atom_site_fract_y
_atom_site_fract_z
Si Si1 0.446538 0.754226 0.601561
Si Si2 0.085169 0.856399 0.356669
Si Si3 0.920078 0.732618 0.497351
Si Si4 0.339343 0.433713 0.318392
Si Si5 0.009944 0.923474 0.072512
Si Si6 0.278028 0.423958 0.592263
Si Si7 0.393325 0.478874 0.576564
Si Si8 0.818939 0.688985 0.993639
O O1 0.557470 0.852761 0.396728
O O2 0.408159 0.651052 0.586705
O O3 0.493620 0.625423 0.589149
O O4 0.356819 0.882648 0.777922
O O5 0.040993 0.776686 0.344736
O O6 0.064265 0.741315 0.465632
O O7 0.208713 0.929300 0.168893
O O8 0.000000 0.000000 0.500000
O O9 0.817254 0.801540 0.720212
O O10 0.902583 0.798124 0.435987
O O11 0.915983 0.547800 0.498561
O O12 0.345832 0.376465 0.401777
O O13 0.224288 0.355754 0.468048
O O14 0.887836 0.895890 0.311351
O O15 0.000000 0.000000 0.000000
O O16 0.355209 0.466603 0.544657
O O17 0.290987 0.404254 0.796194
#
# Coordination Sequence:
#
# PCOD9242487 Si02
#       8
#     4   4   4   4   4   4   4   4
#     4   9  20  38  56  77 106 138 172 228 283 333
#     4   9  18  33  50  73 107 140 175 217 257 303
#     4   9  20  35  51  76 112 147 182 220 262 313
#     4  10  20  35  56  79 106 137 177 223 278 328
#     4  10  20  34  52  75 108 146 180 215 262 313
#     4  10  20  35  56  80 107 142 181 226 268 324
#     4   9  20  38  56  78 106 136 179 225 279 332
#     4  10  20  34  54  79 107 144 182 222 262 318
#
# _framework density 19.291968000000001
#
# number of rings (size 3 to 8) (size 9 to 14) (size 15 to 20)
#    0.000    2.500    0.000    2.250    0.000    8.000 
#    0.000    1.250    0.000    0.000    0.000    0.000 
#    0.000    0.000    0.000    0.000    0.000    0.000 
#
# Total GULP energy -178151.558301 kJ/mol
# GULP energy per Si atom -5567.236197 kJ/mol
# Density = 1.924806 g / cm^3
# Si number density = 19.291968 Si / 1000 Ang^3
#
#
#
# Elastic Constant Matrix: (Units=GPa)
#
#
# Indices 1 2 3 4 5 6 
#
# 1 79.0784 19.3198 8.2538 0.0000 0.4754 0.0000
# 2 19.3198 98.9711 13.1594 0.0000 -1.1784 0.0000
# 3 8.2538 13.1594 23.0558 0.0000 15.8309 0.0000
# 4 0.0000 0.0000 0.0000 16.9288 0.0000 -1.0657
# 5 0.4754 -1.1784 15.8309 0.0000 22.7722 0.0000
# 6 0.0000 0.0000 0.0000 -1.0657 0.0000 24.8254
#
#
#
# Elastic Compliance Matrix: (Units=1/GPa)
#
#
# Indices 1 2 3 4 5 6 
#
# 1 0.013772 -0.001691 -0.007094 0.000000 0.004556 0.000000
# 2 -0.001691 0.012300 -0.013157 0.000000 0.009818 0.000000
# 3 -0.007094 -0.013157 0.102910 0.000000 -0.072074 0.000000
# 4 0.000000 0.000000 0.000000 0.059231 0.000000 0.002543
# 5 0.004556 0.009818 -0.072074 0.000000 0.094431 0.000000
# 6 0.000000 0.000000 0.000000 0.002543 0.000000 0.040390
#
#
# Mechanical properties :
#
#
# Convention : Reuss Voigt Hill
#
# Bulk Modulus (GPa) = 11.75090 31.39680 21.57385
# Shear Modulus (GPa) = 12.64917 23.59677 18.12297
#
# Velocity S-wave (km/s) = 2.56338 3.50114 3.06830
# Velocity P-wave (km/s) = 3.85559 5.71435 4.87439
#
# Compressibility (1/GPa) = 0.08509989
#
# Stress axis : x y z
#
# Youngs Moduli (GPa) = 72.61226 81.29914 9.71724
#
# Poissons Ratio (x) = 0.13747 0.06893
# Poissons Ratio (y) = 0.12278 0.12785
# Poissons Ratio (z) = 0.51508 1.06961
#
# Static dielectric constant tensor:
#      x y z
#    x 1.650210 0.000000 0.010850 
#    y 0.000000 1.736910 0.000000 
#    z 0.010850 0.000000 1.704890 
# 
# From -- ./inp_files/51903.got.cif
#   From: 2010.05.17/outbox.cif.g08.bks.cpg/sg14_26_cif.got.tgz:51903.got - 2010.06.03 17:49:19.
