data_PCOD9242974
_publ_section_title
;
Structure prediction by ZEFSAII (Michael W. Deem and Ramdas Pophale) SiO2 
 PCOD9242974
Probable space group: P 21/C
;
_chemical_formula_sum "Si O2"
_cell_formula_units_Z 24
_cell_length_a 12.082840
_cell_length_b 7.789638
_cell_length_c 16.140686
_cell_angle_alpha 90.000000
_cell_angle_beta 35.679870
_cell_angle_gamma 90.000000
_cell_volume 886.068712
_symmetry_space_group_name_H-M "P 21/C"
_symmetry_group_IT_number 14
_symmetry_cell_setting 'monoclinic'
loop_
_space_group_symop_operation_xyz
x,y,z
-x,1/2+y,1/2-z
-x,-y,-z
x,1/2-y,1/2+z
loop_
_atom_site_type_symbol
_atom_site_label
_atom_site_fract_x
_atom_site_fract_y
_atom_site_fract_z
Si Si1 0.830337 0.192404 0.485064
Si Si2 0.645217 0.431582 0.251480
Si Si3 0.722796 0.565040 0.621794
Si Si4 0.533836 0.800807 0.391938
Si Si5 0.850234 0.862318 0.302951
Si Si6 0.050469 0.774852 0.837939
O O1 0.781328 0.057761 0.587085
O O2 0.767299 0.373164 0.565589
O O3 0.685534 0.173006 0.495751
O O4 0.038320 0.222237 0.322500
O O5 0.446096 0.363657 0.334388
O O6 0.588495 0.610651 0.327548
O O7 0.761687 0.319035 0.245738
O O8 0.643777 0.573580 0.761920
O O9 0.911361 0.676102 0.497840
O O10 0.627392 0.830620 0.424053
O O11 0.931412 0.837099 0.344807
O O12 0.912852 0.043722 0.228267
#
# Coordination Sequence:
#
# PCOD9242974 Si02
#       6
#     4   4   4   4   4   4
#     4   9  20  38  58  80 109 144 178 218 270 322
#     4  10  20  36  59  84 108 138 180 225 267 316
#     4   9  20  38  58  80 109 144 178 218 270 322
#     4  10  20  36  59  84 108 138 180 225 267 316
#     4  11  23  38  55  78 111 147 181 219 268 322
#     4  11  23  38  55  78 111 147 181 219 268 322
#
# _framework density 27.085934000000002
#
# number of rings (size 3 to 8) (size 9 to 14) (size 15 to 20)
#    0.000    2.000    0.000    3.000    0.000    9.333 
#    0.000    6.667    0.000    0.000    0.000    0.000 
#    0.000    0.000    0.000    0.000    0.000    0.000 
#
# Total GULP energy -134648.721041 kJ/mol
# GULP energy per Si atom -5610.363377 kJ/mol
# Density = 2.702429 g / cm^3
# Si number density = 27.085934 Si / 1000 Ang^3
#
#
#
# Elastic Constant Matrix: (Units=GPa)
#
#
# Indices 1 2 3 4 5 6 
#
# 1 183.8961 31.0781 14.4131 0.0000 -44.1819 0.0000
# 2 31.0781 86.2391 12.4649 0.0000 -13.3383 0.0000
# 3 14.4131 12.4649 89.1663 0.0000 -14.7771 0.0000
# 4 0.0000 0.0000 0.0000 30.5512 0.0000 -2.7781
# 5 -44.1819 -13.3383 -14.7771 0.0000 43.4846 0.0000
# 6 0.0000 0.0000 0.0000 -2.7781 0.0000 51.9311
#
#
#
# Elastic Compliance Matrix: (Units=1/GPa)
#
#
# Indices 1 2 3 4 5 6 
#
# 1 0.007396 -0.001598 0.000203 0.000000 0.007094 0.000000
# 2 -0.001598 0.012630 -0.001202 0.000000 0.001842 0.000000
# 3 0.000203 -0.001202 0.011999 0.000000 0.003916 0.000000
# 4 0.000000 0.000000 0.000000 0.032892 0.000000 0.001760
# 5 0.007094 0.001842 0.003916 0.000000 0.032100 0.000000
# 6 0.000000 0.000000 0.000000 0.001760 0.000000 0.019350
#
#
# Mechanical properties :
#
#
# Convention : Reuss Voigt Hill
#
# Bulk Modulus (GPa) = 37.26753 52.80150 45.03451
# Shear Modulus (GPa) = 38.31283 45.28308 41.79795
#
# Velocity S-wave (km/s) = 3.76505 4.09324 3.93257
# Velocity P-wave (km/s) = 5.71749 6.47115 6.10596
#
# Compressibility (1/GPa) = 0.02683301
#
# Stress axis : x y z
#
# Youngs Moduli (GPa) = 135.20359 79.17596 83.33989
#
# Poissons Ratio (x) = 0.12649 -0.01695
# Poissons Ratio (y) = 0.21600 0.10018
# Poissons Ratio (z) = -0.02751 0.09517
#
# Static dielectric constant tensor:
#      x y z
#    x 2.097010 0.000000 0.021290 
#    y 0.000000 2.110480 0.000000 
#    z 0.021290 0.000000 2.072440 
# 
# From -- ./inp_files/66748.got.cif
#   From: 2010.05.17/outbox.cif.g08.bks.cpg/sg14_34_cif.got.tgz:66748.got - 2010.06.03 17:49:19.
