data_PCOD9243835
_publ_section_title
;
Structure prediction by ZEFSAII (Michael W. Deem and Ramdas Pophale) SiO2 
 PCOD9243835
Probable space group: P 21/C
;
_chemical_formula_sum "Si O2"
_cell_formula_units_Z 22
_cell_length_a 8.523400
_cell_length_b 15.324625
_cell_length_c 9.918750
_cell_angle_alpha 90.000000
_cell_angle_beta 49.036782
_cell_angle_gamma 90.000000
_cell_volume 978.321810
_symmetry_space_group_name_H-M "P 21/C"
_symmetry_group_IT_number 14
_symmetry_cell_setting 'monoclinic'
loop_
_space_group_symop_operation_xyz
x,y,z
-x,1/2+y,1/2-z
-x,-y,-z
x,1/2-y,1/2+z
loop_
_atom_site_type_symbol
_atom_site_label
_atom_site_fract_x
_atom_site_fract_y
_atom_site_fract_z
Si Si1 0.723786 0.726769 0.090327
Si Si2 0.687989 0.366722 0.609082
Si Si3 0.500000 0.000000 0.000000
Si Si4 0.881071 0.828287 0.225253
Si Si5 0.742903 0.021900 0.337677
Si Si6 0.936140 0.573929 0.142595
O O1 0.489405 0.692828 0.225113
O O2 0.747183 0.813224 0.165640
O O3 0.861993 0.656943 0.096972
O O4 0.802839 0.730137 0.893398
O O5 0.588923 0.422194 0.545536
O O6 0.762477 0.433755 0.681770
O O7 0.881127 0.313015 0.445196
O O8 0.258689 0.038129 0.162378
O O9 0.854053 0.928422 0.283160
O O10 0.500000 0.000000 0.500000
O O11 0.859903 0.083560 0.378835
O O12 0.000000 0.500000 0.000000
#
# Coordination Sequence:
#
# PCOD9243835 Si02
#       6
#     4   4   2   4   4   4
#     4  11  27  45  68 102 144 186 231 293 359 433
#     4  11  24  44  72 102 136 185 243 288 356 421
#     4  10  20  38  68  98 128 172 230 282 334 410
#     4  12  26  45  69 103 144 183 234 293 367 420
#     4  12  23  43  75 104 136 182 247 299 346 430
#     4  11  21  43  69  98 137 177 234 287 347 413
#
# _framework density 22.487487999999999
#
# number of rings (size 3 to 8) (size 9 to 14) (size 15 to 20)
#    0.000    0.727    5.455    1.636    2.545    4.364 
#    0.000    0.000    0.000    0.000    0.000    0.000 
#    0.000    0.000    0.000    0.000    0.000    0.000 
#
# Total GULP energy -122577.849235 kJ/mol
# GULP energy per Si atom -5571.720420 kJ/mol
# Density = 2.243631 g / cm^3
# Si number density = 22.487488 Si / 1000 Ang^3
#
#
#
# Elastic Constant Matrix: (Units=GPa)
#
#
# Indices 1 2 3 4 5 6 
#
# 1 86.1361 1.9799 44.7579 0.0000 -24.0523 0.0000
# 2 1.9799 23.0761 6.5787 0.0000 6.4852 0.0000
# 3 44.7579 6.5787 135.9010 0.0000 -5.7455 0.0000
# 4 0.0000 0.0000 0.0000 11.1902 0.0000 12.4768
# 5 -24.0523 6.4852 -5.7455 0.0000 21.1956 0.0000
# 6 0.0000 0.0000 0.0000 12.4768 0.0000 31.8561
#
#
#
# Elastic Compliance Matrix: (Units=1/GPa)
#
#
# Indices 1 2 3 4 5 6 
#
# 1 0.021930 -0.007425 -0.005781 0.000000 0.025591 0.000000
# 2 -0.007425 0.051118 -0.001059 0.000000 -0.024354 0.000000
# 3 -0.005781 -0.001059 0.009155 0.000000 -0.003755 0.000000
# 4 0.000000 0.000000 0.000000 0.158643 0.000000 -0.062134
# 5 0.025591 -0.024354 -0.003755 0.000000 0.082653 0.000000
# 6 0.000000 0.000000 0.000000 -0.062134 0.000000 0.055727
#
#
# Mechanical properties :
#
#
# Convention : Reuss Voigt Hill
#
# Bulk Modulus (GPa) = 18.63147 39.08292 28.85719
# Shear Modulus (GPa) = 11.74684 25.63480 18.69082
#
# Velocity S-wave (km/s) = 2.28803 3.37999 2.88612
# Velocity P-wave (km/s) = 3.90939 5.71402 4.89558
#
# Compressibility (1/GPa) = 0.05367263
#
# Stress axis : x y z
#
# Youngs Moduli (GPa) = 45.59965 19.56256 109.23261
#
# Poissons Ratio (x) = 0.14526 0.63149
# Poissons Ratio (y) = 0.33859 0.11564
# Poissons Ratio (z) = 0.26362 0.02071
#
# Static dielectric constant tensor:
#      x y z
#    x 1.870750 0.000000 0.007130 
#    y 0.000000 1.501980 0.000000 
#    z 0.007130 0.000000 1.826520 
# 
# From -- ./inp_files/9341.got.cif
#   From: 2010.05.17/outbox.cif.g08.bks.cpg/sg14_5_cif.got.tgz:9341.got - 2010.06.03 17:49:19.
