data_PCOD9243283
_publ_section_title
;
Structure prediction by ZEFSAII (Michael W. Deem and Ramdas Pophale) SiO2 
 PCOD9243283
Probable space group: P 21/C
;
_chemical_formula_sum "Si O2"
_cell_formula_units_Z 24
_cell_length_a 7.614068
_cell_length_b 29.607861
_cell_length_c 7.331339
_cell_angle_alpha 90.000000
_cell_angle_beta 142.333810
_cell_angle_gamma 90.000000
_cell_volume 1009.929289
_symmetry_space_group_name_H-M "P 21/C"
_symmetry_group_IT_number 14
_symmetry_cell_setting 'monoclinic'
loop_
_space_group_symop_operation_xyz
x,y,z
-x,1/2+y,1/2-z
-x,-y,-z
x,1/2-y,1/2+z
loop_
_atom_site_type_symbol
_atom_site_label
_atom_site_fract_x
_atom_site_fract_y
_atom_site_fract_z
Si Si1 0.830200 0.704743 0.732788
Si Si2 0.163145 0.372474 0.996811
Si Si3 0.241334 0.034142 0.436879
Si Si4 0.765625 0.352259 0.344799
Si Si5 0.572009 0.277202 0.913341
Si Si6 0.848874 0.445642 0.287485
O O1 0.611702 0.734011 0.676212
O O2 0.645104 0.696385 0.399026
O O3 0.927297 0.659238 0.912628
O O4 0.121286 0.732186 0.929595
O O5 0.112510 0.426411 0.957448
O O6 0.031917 0.352026 0.701779
O O7 0.504218 0.366854 0.259803
O O8 0.583367 0.039299 0.701134
O O9 0.157164 0.981573 0.381725
O O10 0.128716 0.047816 0.141679
O O11 0.809479 0.392360 0.232822
O O12 0.667563 0.307926 0.160613
#
# Coordination Sequence:
#
# PCOD9243283 Si02
#       6
#     4   4   4   4   4   4
#     4  12  26  43  62  85 116 154 199 246 298 354
#     4  10  20  37  60  86 116 150 192 239 287 339
#     4   8  14  26  49  81 112 143 183 229 273 327
#     4  10  20  37  60  86 116 150 192 239 287 339
#     4  12  26  43  62  85 116 154 199 246 298 354
#     4   8  14  26  49  81 112 143 183 229 273 327
#
# _framework density 23.764037999999999
#
# number of rings (size 3 to 8) (size 9 to 14) (size 15 to 20)
#    0.000    2.000    0.000    4.000    0.000    2.667 
#    0.000    0.000    0.000    2.000    0.000    0.000 
#    0.000    0.000    0.000    0.000    0.000    0.333 
#
# Total GULP energy -133993.664234 kJ/mol
# GULP energy per Si atom -5583.069343 kJ/mol
# Density = 2.370995 g / cm^3
# Si number density = 23.764038 Si / 1000 Ang^3
#
#
#
# Elastic Constant Matrix: (Units=GPa)
#
#
# Indices 1 2 3 4 5 6 
#
# 1 61.8878 20.7443 15.0133 0.0000 12.0136 0.0000
# 2 20.7443 37.5376 2.2063 0.0000 -6.7188 0.0000
# 3 15.0133 2.2063 87.2811 0.0000 11.2894 0.0000
# 4 0.0000 0.0000 0.0000 31.9318 0.0000 2.9172
# 5 12.0136 -6.7188 11.2894 0.0000 31.4797 0.0000
# 6 0.0000 0.0000 0.0000 2.9172 0.0000 6.7447
#
#
#
# Elastic Compliance Matrix: (Units=1/GPa)
#
#
# Indices 1 2 3 4 5 6 
#
# 1 0.024077 -0.015257 -0.002251 0.000000 -0.011638 0.000000
# 2 -0.015257 0.037563 -0.000121 0.000000 0.013883 0.000000
# 3 -0.002251 -0.000121 0.012311 0.000000 -0.003582 0.000000
# 4 0.000000 0.000000 0.000000 0.032605 0.000000 -0.014102
# 5 -0.011638 0.013883 -0.003582 0.000000 0.040455 0.000000
# 6 0.000000 0.000000 0.000000 -0.014102 0.000000 0.154363
#
#
# Mechanical properties :
#
#
# Convention : Reuss Voigt Hill
#
# Bulk Modulus (GPa) = 25.84311 29.18159 27.51235
# Shear Modulus (GPa) = 14.30494 23.94742 19.12618
#
# Velocity S-wave (km/s) = 2.45614 3.17790 2.84004
# Velocity P-wave (km/s) = 4.35224 5.07659 4.72831
#
# Compressibility (1/GPa) = 0.03869503
#
# Stress axis : x y z
#
# Youngs Moduli (GPa) = 41.53296 26.62179 81.23007
#
# Poissons Ratio (x) = 0.40616 0.18282
# Poissons Ratio (y) = 0.63365 0.00982
# Poissons Ratio (z) = 0.09347 0.00322
#
# Static dielectric constant tensor:
#      x y z
#    x 1.956100 0.000000 -0.015370 
#    y 0.000000 1.994180 0.000000 
#    z -0.015370 0.000000 1.834950 
# 
# From -- ./inp_files/11354.got.cif
#   From: 2010.05.17/outbox.cif.g08.bks.cpg/sg14_6_cif.got.tgz:11354.got - 2010.06.03 17:49:19.
