data_PCOD9243885
_publ_section_title
;
Structure prediction by ZEFSAII (Michael W. Deem and Ramdas Pophale) SiO2 
 PCOD9243885
Probable space group: P 21/C
;
_chemical_formula_sum "Si O2"
_cell_formula_units_Z 20
_cell_length_a 15.155160
_cell_length_b 13.633719
_cell_length_c 9.110472
_cell_angle_alpha 90.000000
_cell_angle_beta 31.166160
_cell_angle_gamma 90.000000
_cell_volume 974.191481
_symmetry_space_group_name_H-M "P 21/C"
_symmetry_group_IT_number 14
_symmetry_cell_setting 'monoclinic'
loop_
_space_group_symop_operation_xyz
x,y,z
-x,1/2+y,1/2-z
-x,-y,-z
x,1/2-y,1/2+z
loop_
_atom_site_type_symbol
_atom_site_label
_atom_site_fract_x
_atom_site_fract_y
_atom_site_fract_z
Si Si1 0.361657 0.056696 0.102335
Si Si2 0.647424 0.450817 0.695781
Si Si3 0.372962 0.716192 0.786972
Si Si4 0.868632 0.262519 0.129177
Si Si5 0.002980 0.115531 0.712874
O O1 0.182738 0.064676 0.439431
O O2 0.447273 0.163490 0.959424
O O3 0.500000 0.000000 0.000000
O O4 0.345717 0.003407 0.970206
O O5 0.609532 0.334252 0.738411
O O6 0.841857 0.453842 0.478239
O O7 0.500000 0.500000 0.000000
O O8 0.263750 0.688933 0.797476
O O9 0.252292 0.693742 0.097822
O O10 0.958606 0.334587 0.117055
O O11 0.995901 0.200157 0.846654
#
# Coordination Sequence:
#
# PCOD9243885 Si02
#       5
#     4   4   4   4   4
#     4  12  24  38  60  91 124 159 200 249 302 360
#     4  10  22  41  63  87 121 164 204 250 303 358
#     4  10  20  39  60  87 120 155 201 253 301 359
#     4   8  18  38  62  84 115 158 199 248 301 354
#     4  10  21  38  61  91 120 156 203 248 300 361
#
# _framework density 20.529845000000002
#
# number of rings (size 3 to 8) (size 9 to 14) (size 15 to 20)
#    0.000    2.400    0.000    5.400    0.000    4.800 
#    0.000   10.000    0.000    0.000    0.000    0.000 
#    0.000    0.000    0.000    0.000    0.000    0.000 
#
# Total GULP energy -111633.744829 kJ/mol
# GULP energy per Si atom -5581.687241 kJ/mol
# Density = 2.048312 g / cm^3
# Si number density = 20.529845 Si / 1000 Ang^3
#
#
#
# Elastic Constant Matrix: (Units=GPa)
#
#
# Indices 1 2 3 4 5 6 
#
# 1 63.3416 10.9425 46.1525 0.0000 7.7195 0.0000
# 2 10.9425 70.8452 61.2117 0.0000 -11.8902 0.0000
# 3 46.1525 61.2117 170.6610 0.0000 -15.4462 0.0000
# 4 0.0000 0.0000 0.0000 40.1595 0.0000 -3.9316
# 5 7.7195 -11.8902 -15.4462 0.0000 38.1388 0.0000
# 6 0.0000 0.0000 0.0000 -3.9316 0.0000 23.6739
#
#
#
# Elastic Compliance Matrix: (Units=1/GPa)
#
#
# Indices 1 2 3 4 5 6 
#
# 1 0.021393 0.001591 -0.006958 0.000000 -0.006652 0.000000
# 2 0.001591 0.021042 -0.007695 0.000000 0.003122 0.000000
# 3 -0.006958 -0.007695 0.010808 0.000000 0.003387 0.000000
# 4 0.000000 0.000000 0.000000 0.025312 0.000000 0.004204
# 5 -0.006652 0.003122 0.003387 0.000000 0.029911 0.000000
# 6 0.000000 0.000000 0.000000 0.004204 0.000000 0.042939
#
#
# Mechanical properties :
#
#
# Convention : Reuss Voigt Hill
#
# Bulk Modulus (GPa) = 36.87440 60.16234 48.51837
# Shear Modulus (GPa) = 26.79974 32.83053 29.81513
#
# Velocity S-wave (km/s) = 3.61696 4.00329 3.81502
# Velocity P-wave (km/s) = 5.95345 7.12298 6.56431
#
# Compressibility (1/GPa) = 0.02711908
#
# Stress axis : x y z
#
# Youngs Moduli (GPa) = 46.74387 47.52384 92.52534
#
# Poissons Ratio (x) = -0.07563 0.64382
# Poissons Ratio (y) = -0.07439 0.71199
# Poissons Ratio (z) = 0.32526 0.36570
#
# Static dielectric constant tensor:
#      x y z
#    x 1.747940 0.000000 0.007190 
#    y 0.000000 1.793800 0.000000 
#    z 0.007190 0.000000 1.735140 
# 
# From -- ./inp_files/9244.got.cif
#   From: 2010.05.17/outbox.cif.g08.bks.cpg/sg14_5_cif.got.tgz:9244.got - 2010.06.03 17:49:19.
