data_PCOD9243668
_publ_section_title
;
Structure prediction by ZEFSAII (Michael W. Deem and Ramdas Pophale) SiO2 
 PCOD9243668
Probable space group: P 21/C
;
_chemical_formula_sum "Si O2"
_cell_formula_units_Z 20
_cell_length_a 10.570230
_cell_length_b 12.688535
_cell_length_c 8.288703
_cell_angle_alpha 90.000000
_cell_angle_beta 131.522444
_cell_angle_gamma 90.000000
_cell_volume 832.315666
_symmetry_space_group_name_H-M "P 21/C"
_symmetry_group_IT_number 14
_symmetry_cell_setting 'monoclinic'
loop_
_space_group_symop_operation_xyz
x,y,z
-x,1/2+y,1/2-z
-x,-y,-z
x,1/2-y,1/2+z
loop_
_atom_site_type_symbol
_atom_site_label
_atom_site_fract_x
_atom_site_fract_y
_atom_site_fract_z
Si Si1 0.395884 0.592363 0.813543
Si Si2 0.814772 0.100189 0.589934
Si Si3 0.382410 0.432094 0.284274
Si Si4 0.025007 0.596222 0.366461
Si Si5 0.932552 0.799752 0.441461
O O1 0.524361 0.628937 0.784309
O O2 0.223813 0.574267 0.563461
O O3 0.500000 0.500000 0.000000
O O4 0.312603 0.656592 0.892532
O O5 0.933108 0.169422 0.580918
O O6 0.714798 0.027058 0.383294
O O7 0.924342 0.012626 0.775462
O O8 0.500000 0.500000 0.500000
O O9 0.248173 0.352506 0.248840
O O10 0.938597 0.674422 0.425132
O O11 0.990709 0.650789 0.161339
#
# Coordination Sequence:
#
# PCOD9243668 Si02
#       5
#     4   4   4   4   4
#     4  10  21  38  63  93 127 169 219 280 337 391
#     4  10  21  40  65  92 130 178 226 276 340 411
#     4  10  20  38  62  92 128 170 220 279 337 391
#     4  11  22  40  64  97 134 179 231 275 336 420
#     4  11  23  40  66  96 132 184 228 276 340 415
#
# _framework density 24.029343999999998
#
# number of rings (size 3 to 8) (size 9 to 14) (size 15 to 20)
#    0.000    1.600    0.000    6.600    0.000    1.600 
#    0.000   20.000    0.000    2.400    0.000    0.000 
#    0.000    0.000    0.000    0.000    0.000    0.000 
#
# Total GULP energy -111536.323554 kJ/mol
# GULP energy per Si atom -5576.816178 kJ/mol
# Density = 2.397465 g / cm^3
# Si number density = 24.029344 Si / 1000 Ang^3
#
#
#
# Elastic Constant Matrix: (Units=GPa)
#
#
# Indices 1 2 3 4 5 6 
#
# 1 136.6864 29.8698 10.2749 0.0000 -12.9016 0.0000
# 2 29.8698 77.7101 45.2857 0.0000 -10.1518 0.0000
# 3 10.2749 45.2857 137.7019 0.0000 22.8249 0.0000
# 4 0.0000 0.0000 0.0000 20.0504 0.0000 -14.1930
# 5 -12.9016 -10.1518 22.8249 0.0000 39.1620 0.0000
# 6 0.0000 0.0000 0.0000 -14.1930 0.0000 32.4352
#
#
#
# Elastic Compliance Matrix: (Units=1/GPa)
#
#
# Indices 1 2 3 4 5 6 
#
# 1 0.008126 -0.002889 0.000027 0.000000 0.001912 0.000000
# 2 -0.002889 0.019545 -0.007631 0.000000 0.008562 0.000000
# 3 0.000027 -0.007631 0.011176 0.000000 -0.008483 0.000000
# 4 0.000000 0.000000 0.000000 0.072255 0.000000 0.031617
# 5 0.001912 0.008562 -0.008483 0.000000 0.033329 0.000000
# 6 0.000000 0.000000 0.000000 0.031617 0.000000 0.044666
#
#
# Mechanical properties :
#
#
# Convention : Reuss Voigt Hill
#
# Bulk Modulus (GPa) = 55.99395 58.10658 57.05026
# Shear Modulus (GPa) = 23.14426 36.10739 29.62583
#
# Velocity S-wave (km/s) = 3.10686 3.88059 3.51508
# Velocity P-wave (km/s) = 6.01856 6.65678 6.34569
#
# Compressibility (1/GPa) = 0.01785907
#
# Stress axis : x y z
#
# Youngs Moduli (GPa) = 123.06361 51.16505 89.47859
#
# Poissons Ratio (x) = 0.14783 -0.00240
# Poissons Ratio (y) = 0.35555 0.68284
# Poissons Ratio (z) = -0.00330 0.39045
#
# Static dielectric constant tensor:
#      x y z
#    x 2.045470 0.000000 0.051120 
#    y 0.000000 1.982680 0.000000 
#    z 0.051120 0.000000 2.169170 
# 
# From -- ./inp_files/12703.got.cif
#   From: 2010.05.17/outbox.cif.g08.bks.cpg/sg14_7_cif.got.tgz:12703.got - 2010.06.03 17:49:19.
