data_PCOD9243707
_publ_section_title
;
Structure prediction by ZEFSAII (Michael W. Deem and Ramdas Pophale) SiO2 
 PCOD9243707
Probable space group: P 21/C
;
_chemical_formula_sum "Si O2"
_cell_formula_units_Z 20
_cell_length_a 11.304150
_cell_length_b 8.574271
_cell_length_c 26.493310
_cell_angle_alpha 90.000000
_cell_angle_beta 19.918243
_cell_angle_gamma 90.000000
_cell_volume 874.815767
_symmetry_space_group_name_H-M "P 21/C"
_symmetry_group_IT_number 14
_symmetry_cell_setting 'monoclinic'
loop_
_space_group_symop_operation_xyz
x,y,z
-x,1/2+y,1/2-z
-x,-y,-z
x,1/2-y,1/2+z
loop_
_atom_site_type_symbol
_atom_site_label
_atom_site_fract_x
_atom_site_fract_y
_atom_site_fract_z
Si Si1 0.120343 0.506130 0.127191
Si Si2 0.110337 0.553549 0.510891
Si Si3 0.746181 0.792893 0.244778
Si Si4 0.367989 0.216670 0.980699
Si Si5 0.017784 0.059074 0.209101
O O1 0.101359 0.362898 0.096252
O O2 0.888125 0.516085 0.271290
O O3 0.051349 0.665135 0.126285
O O4 0.500000 0.500000 0.000000
O O5 0.399878 0.690148 0.389529
O O6 0.255573 0.401562 0.482262
O O7 0.000000 0.500000 0.500000
O O8 0.797906 0.618487 0.671162
O O9 0.829122 0.917377 0.255636
O O10 0.322594 0.128644 0.052451
O O11 0.732034 0.303007 0.827109
#
# Coordination Sequence:
#
# PCOD9243707 Si02
#       5
#     4   4   4   4   4
#     4  10  20  38  63  95 131 168 201 254 320 386
#     4  11  26  45  67  93 125 173 222 274 322 366
#     4  11  24  43  66  98 132 166 219 266 318 391
#     4  10  21  38  61  90 124 164 213 254 309 380
#     4  10  21  38  63  96 132 167 201 256 321 389
#
# _framework density 22.861955999999999
#
# number of rings (size 3 to 8) (size 9 to 14) (size 15 to 20)
#    0.000    1.600    0.000    4.800    0.000    8.000 
#    0.000   15.000    0.000    0.000    0.000    0.000 
#    0.000    0.000    0.000    0.000    0.000    0.000 
#
# Total GULP energy -111838.672667 kJ/mol
# GULP energy per Si atom -5591.933633 kJ/mol
# Density = 2.280992 g / cm^3
# Si number density = 22.861956 Si / 1000 Ang^3
#
#
#
# Elastic Constant Matrix: (Units=GPa)
#
#
# Indices 1 2 3 4 5 6 
#
# 1 139.5363 71.5241 39.7722 0.0000 33.4392 0.0000
# 2 71.5241 182.8235 39.5544 0.0000 13.4116 0.0000
# 3 39.7722 39.5544 96.8574 0.0000 19.2046 0.0000
# 4 0.0000 0.0000 0.0000 51.7953 0.0000 4.2205
# 5 33.4392 13.4116 19.2046 0.0000 28.0042 0.0000
# 6 0.0000 0.0000 0.0000 4.2205 0.0000 33.4477
#
#
#
# Elastic Compliance Matrix: (Units=1/GPa)
#
#
# Indices 1 2 3 4 5 6 
#
# 1 0.012276 -0.003667 -0.001140 0.000000 -0.012120 0.000000
# 2 -0.003667 0.007142 -0.001853 0.000000 0.002229 0.000000
# 3 -0.001140 -0.001853 0.012851 0.000000 -0.006564 0.000000
# 4 0.000000 0.000000 0.000000 0.019507 0.000000 -0.002461
# 5 -0.012120 0.002229 -0.006564 0.000000 0.053615 0.000000
# 6 0.000000 0.000000 0.000000 -0.002461 0.000000 0.030208
#
#
# Mechanical properties :
#
#
# Convention : Reuss Voigt Hill
#
# Bulk Modulus (GPa) = 52.77381 80.10205 66.43793
# Shear Modulus (GPa) = 32.20949 40.54055 36.37502
#
# Velocity S-wave (km/s) = 3.75756 4.21560 3.99315
# Velocity P-wave (km/s) = 6.47761 7.66866 7.09816
#
# Compressibility (1/GPa) = 0.01894879
#
# Stress axis : x y z
#
# Youngs Moduli (GPa) = 81.46283 140.02517 77.81653
#
# Poissons Ratio (x) = 0.51342 0.08872
# Poissons Ratio (y) = 0.29870 0.14417
# Poissons Ratio (z) = 0.09288 0.25943
#
# Static dielectric constant tensor:
#      x y z
#    x 1.773240 0.000000 0.025240 
#    y 0.000000 1.927050 0.000000 
#    z 0.025240 0.000000 2.000910 
# 
# From -- ./inp_files/73690.got.cif
#   From: 2010.05.17/outbox.cif.g08.bks.cpg/sg14_37_cif.got.tgz:73690.got - 2010.06.03 17:49:19.
