data_PCOD9243539
_publ_section_title
;
Structure prediction by ZEFSAII (Michael W. Deem and Ramdas Pophale) SiO2 
 PCOD9243539
Probable space group: P 21/C
;
_chemical_formula_sum "Si O2"
_cell_formula_units_Z 20
_cell_length_a 7.217400
_cell_length_b 6.965545
_cell_length_c 18.013037
_cell_angle_alpha 90.000000
_cell_angle_beta 51.776397
_cell_angle_gamma 90.000000
_cell_volume 711.418967
_symmetry_space_group_name_H-M "P 21/C"
_symmetry_group_IT_number 14
_symmetry_cell_setting 'monoclinic'
loop_
_space_group_symop_operation_xyz
x,y,z
-x,1/2+y,1/2-z
-x,-y,-z
x,1/2-y,1/2+z
loop_
_atom_site_type_symbol
_atom_site_label
_atom_site_fract_x
_atom_site_fract_y
_atom_site_fract_z
Si Si1 0.475775 0.974942 0.792369
Si Si2 0.536797 0.578048 0.862967
Si Si3 0.007055 0.026576 0.314539
Si Si4 0.325555 0.285060 0.460493
Si Si5 0.838529 0.436024 0.385568
O O1 0.477400 0.786577 0.844907
O O2 0.381983 0.965887 0.732081
O O3 0.748052 0.045764 0.712123
O O4 0.338272 0.128897 0.875122
O O5 0.752566 0.575564 0.868488
O O6 0.331484 0.445255 0.949400
O O7 0.974559 0.236011 0.357055
O O8 0.084945 0.036613 0.209225
O O9 0.574246 0.350803 0.436415
O O10 0.143445 0.409861 0.553288
#
# Coordination Sequence:
#
# PCOD9243539 Si02
#       5
#     4   4   4   4   4
#     4  11  21  37  61  88 118 158 196 242 295 353
#     4  11  21  37  61  88 118 158 196 242 295 353
#     4  10  20  38  60  84 112 156 202 238 296 348
#     4   9  20  37  57  88 123 149 200 246 294 348
#     4   9  18  37  59  85 117 154 197 249 289 352
#
# _framework density 28.112832000000001
#
# number of rings (size 3 to 8) (size 9 to 14) (size 15 to 20)
#    0.000    2.000    4.000    0.000    0.000    0.000 
#    3.600    8.000    0.000    2.400    0.000    0.000 
#    0.000    0.000    0.000    0.000    0.000    0.000 
#
# Total GULP energy -111828.850961 kJ/mol
# GULP energy per Si atom -5591.442548 kJ/mol
# Density = 2.804885 g / cm^3
# Si number density = 28.112832 Si / 1000 Ang^3
#
#
#
# Elastic Constant Matrix: (Units=GPa)
#
#
# Indices 1 2 3 4 5 6 
#
# 1 134.6481 26.7327 -3.0294 0.0000 6.8433 0.0000
# 2 26.7327 148.0480 16.2238 0.0000 3.4266 0.0000
# 3 -3.0294 16.2238 66.5805 0.0000 10.7602 0.0000
# 4 0.0000 0.0000 0.0000-3281.6707 0.0000 8297.2033
# 5 6.8433 3.4266 10.7602 0.0000 25.7747 0.0000
# 6 0.0000 0.0000 0.0000 8297.2033 0.0000**********
#
#
#
# Elastic Compliance Matrix: (Units=1/GPa)
#
#
# Indices 1 2 3 4 5 6 
#
# 1 0.007866 -0.001487 0.001100 0.000000 -0.002350 0.000000
# 2 -0.001487 0.007222 -0.001862 0.000000 0.000212 0.000000
# 3 0.001100 -0.001862 0.016654 0.000000 -0.006997 0.000000
# 4 0.000000 0.000000 0.000000 0.017488 0.000000 0.007037
# 5 -0.002350 0.000212 -0.006997 0.000000 0.042315 0.000000
# 6 0.000000 0.000000 0.000000 0.007037 0.000000 0.002783
#
#
# Mechanical properties :
#
#
# Convention : Reuss Voigt Hill
#
# Bulk Modulus (GPa) = 36.70321 47.68118 42.19219
# Shear Modulus (GPa) = 46.33627 -4754.34376 -2354.00375
#
# Velocity S-wave (km/s) = 4.06424 -41.16839 -28.96824
# Velocity P-wave (km/s) = 5.92521 47.35804 33.22406
#
# Compressibility (1/GPa) = 0.02724558
#
# Stress axis : x y z
#
# Youngs Moduli (GPa) = 127.12813 138.46410 60.04595
#
# Poissons Ratio (x) = 0.20583 -0.06605
# Poissons Ratio (y) = 0.18898 0.11179
# Poissons Ratio (z) = -0.13983 0.25778
#
# Static dielectric constant tensor:
#      x y z
#    x 2.222100 0.000000 -0.106430 
#    y 0.000000 2.223180 0.000000 
#    z -0.106430 0.000000 2.193000 
# 
# From -- ./inp_files/54356.got.cif
#   From: 2010.05.17/outbox.cif.g08.bks.cpg/sg14_28_cif.got.tgz:54356.got - 2010.06.03 17:49:19.
