data_PCOD9243503
_publ_section_title
;
Structure prediction by ZEFSAII (Michael W. Deem and Ramdas Pophale) SiO2 
 PCOD9243503
Probable space group: P 21/C
;
_chemical_formula_sum "Si O2"
_cell_formula_units_Z 32
_cell_length_a 19.402361
_cell_length_b 7.586140
_cell_length_c 12.997068
_cell_angle_alpha 90.000000
_cell_angle_beta 139.178489
_cell_angle_gamma 90.000000
_cell_volume 1250.554070
_symmetry_space_group_name_H-M "P 21/C"
_symmetry_group_IT_number 14
_symmetry_cell_setting 'monoclinic'
loop_
_space_group_symop_operation_xyz
x,y,z
-x,1/2+y,1/2-z
-x,-y,-z
x,1/2-y,1/2+z
loop_
_atom_site_type_symbol
_atom_site_label
_atom_site_fract_x
_atom_site_fract_y
_atom_site_fract_z
Si Si1 0.410021 0.499336 0.120798
Si Si2 0.886139 0.780090 0.234853
Si Si3 0.963880 0.412313 0.235246
Si Si4 0.204298 0.714931 0.818950
Si Si5 0.287075 0.247753 0.616026
Si Si6 0.505899 0.229472 0.101767
Si Si7 0.320009 0.977165 0.813954
Si Si8 0.155158 0.423706 0.610784
O O1 0.386273 0.332170 0.168981
O O2 0.477517 0.427967 0.101529
O O3 0.462443 0.635271 0.256363
O O4 0.301159 0.587325 0.960370
O O5 0.916273 0.600173 0.208067
O O6 0.862368 0.725305 0.322991
O O7 0.987809 0.896409 0.323576
O O8 0.780392 0.824449 0.054682
O O9 0.875256 0.275172 0.174455
O O10 0.064471 0.400028 0.424652
O O11 0.247403 0.894516 0.819777
O O12 0.147526 0.607509 0.662375
O O13 0.266783 0.395637 0.679642
O O14 0.257782 0.069246 0.649223
O O15 0.604157 0.182581 0.139298
O O16 0.402638 0.127517 0.943191
#
# Coordination Sequence:
#
# PCOD9243503 Si02
#       8
#     4   4   4   4   4   4   4   4
#     4  11  21  40  64  84 124 157 201 251 304 365
#     4  10  20  38  58  85 123 160 199 246 296 349
#     4  10  22  38  58  89 123 161 199 248 294 352
#     4  11  21  39  61  88 122 159 201 250 297 360
#     4  10  21  38  62  87 120 160 201 244 296 357
#     4  10  23  41  60  89 122 156 196 258 308 357
#     4  10  23  39  60  90 121 154 202 254 304 361
#     4  10  21  39  61  88 124 163 201 244 299 349
#
# _framework density 25.588657000000001
#
# number of rings (size 3 to 8) (size 9 to 14) (size 15 to 20)
#    0.000    1.750    2.500    3.000    0.000    4.500 
#    2.250    2.500    0.000    0.000    0.000    0.000 
#    0.000    0.000    0.000    0.000    0.000    0.000 
#
# Total GULP energy -178765.293584 kJ/mol
# GULP energy per Si atom -5586.415425 kJ/mol
# Density = 2.553042 g / cm^3
# Si number density = 25.588657 Si / 1000 Ang^3
#
#
#
# Elastic Constant Matrix: (Units=GPa)
#
#
# Indices 1 2 3 4 5 6 
#
# 1 73.5672 15.9379 12.0096 0.0000 1.9757 0.0000
# 2 15.9379 36.5723 3.4593 0.0000 5.5577 0.0000
# 3 12.0096 3.4593 74.8693 0.0000 -5.2548 0.0000
# 4 0.0000 0.0000 0.0000 13.9769 0.0000 2.2633
# 5 1.9757 5.5577 -5.2548 0.0000 22.8828 0.0000
# 6 0.0000 0.0000 0.0000 2.2633 0.0000 44.7377
#
#
#
# Elastic Compliance Matrix: (Units=1/GPa)
#
#
# Indices 1 2 3 4 5 6 
#
# 1 0.015353 -0.006444 -0.002183 0.000000 -0.000262 0.000000
# 2 -0.006444 0.031344 -0.000925 0.000000 -0.007269 0.000000
# 3 -0.002183 -0.000925 0.014004 0.000000 0.003629 0.000000
# 4 0.000000 0.000000 0.000000 0.072137 0.000000 -0.003649
# 5 -0.000262 -0.007269 0.003629 0.000000 0.046322 0.000000
# 6 0.000000 0.000000 0.000000 -0.003649 0.000000 0.022537
#
#
# Mechanical properties :
#
#
# Convention : Reuss Voigt Hill
#
# Bulk Modulus (GPa) = 24.04079 27.53581 25.78830
# Shear Modulus (GPa) = 21.30680 26.55963 23.93322
#
# Velocity S-wave (km/s) = 2.88873 3.22521 3.06159
# Velocity P-wave (km/s) = 4.53231 4.96524 4.75371
#
# Compressibility (1/GPa) = 0.04159597
#
# Stress axis : x y z
#
# Youngs Moduli (GPa) = 65.13571 31.90453 71.40685
#
# Poissons Ratio (x) = 0.20560 0.15590
# Poissons Ratio (y) = 0.41975 0.06603
# Poissons Ratio (z) = 0.14221 0.02950
#
# Static dielectric constant tensor:
#      x y z
#    x 2.067290 0.000000 0.057670 
#    y 0.000000 2.102980 0.000000 
#    z 0.057670 0.000000 2.078100 
# 
# From -- ./inp_files/50096.got.cif
#   From: 2010.05.17/outbox.cif.g08.bks.cpg/sg14_26_cif.got.tgz:50096.got - 2010.06.03 17:49:19.
