data_PCOD9243909
_publ_section_title
;
Structure prediction by ZEFSAII (Michael W. Deem and Ramdas Pophale) SiO2 
 PCOD9243909
Probable space group: P 21/C
;
_chemical_formula_sum "Si O2"
_cell_formula_units_Z 20
_cell_length_a 21.256937
_cell_length_b 8.971675
_cell_length_c 7.874370
_cell_angle_alpha 90.000000
_cell_angle_beta 143.506014
_cell_angle_gamma 90.000000
_cell_volume 893.132764
_symmetry_space_group_name_H-M "P 21/C"
_symmetry_group_IT_number 14
_symmetry_cell_setting 'monoclinic'
loop_
_space_group_symop_operation_xyz
x,y,z
-x,1/2+y,1/2-z
-x,-y,-z
x,1/2-y,1/2+z
loop_
_atom_site_type_symbol
_atom_site_label
_atom_site_fract_x
_atom_site_fract_y
_atom_site_fract_z
Si Si1 0.885515 0.049802 0.192544
Si Si2 0.651686 0.140322 0.058419
Si Si3 0.443797 0.370524 0.272466
Si Si4 0.197685 0.648657 0.826609
Si Si5 0.331374 0.094397 0.185523
O O1 0.866673 0.217644 0.222910
O O2 0.870125 0.054620 0.954422
O O3 0.000000 0.000000 0.500000
O O4 0.793030 0.945300 0.070282
O O5 0.732662 0.073553 0.374539
O O6 0.716120 0.266615 0.101626
O O7 0.547077 0.207993 0.914759
O O8 0.623567 0.015219 0.860763
O O9 0.500000 0.500000 0.500000
O O10 0.369932 0.258368 0.215870
O O11 0.377326 0.432744 0.971405
#
# Coordination Sequence:
#
# PCOD9243909 Si02
#       5
#     4   4   4   4   4
#     4  10  22  42  66  92 126 171 223 284 331 374
#     4  10  20  39  61  87 125 170 206 254 318 393
#     4  12  24  40  62  93 133 166 203 264 322 389
#     4   9  20  40  64  90 124 167 220 268 324 387
#     4  11  25  41  62  94 126 172 222 254 321 405
#
# _framework density 22.393087000000001
#
# number of rings (size 3 to 8) (size 9 to 14) (size 15 to 20)
#    0.000    1.600    0.000    4.200    0.000    8.000 
#    0.000    9.000    0.000    0.000    0.000    0.000 
#    0.000    0.000    0.000    0.000    0.000    0.000 
#
# Total GULP energy -111871.727038 kJ/mol
# GULP energy per Si atom -5593.586352 kJ/mol
# Density = 2.234212 g / cm^3
# Si number density = 22.393087 Si / 1000 Ang^3
#
#
#
# Elastic Constant Matrix: (Units=GPa)
#
#
# Indices 1 2 3 4 5 6 
#
# 1 72.5641 36.7019 62.0245 0.0000 -14.3594 0.0000
# 2 36.7019 98.3218 58.2136 0.0000 -11.1251 0.0000
# 3 62.0245 58.2136 180.2673 0.0000 -8.7028 0.0000
# 4 0.0000 0.0000 0.0000 35.7301 0.0000 -4.2510
# 5 -14.3594 -11.1251 -8.7028 0.0000 46.0441 0.0000
# 6 0.0000 0.0000 0.0000 -4.2510 0.0000 30.9410
#
#
#
# Elastic Compliance Matrix: (Units=1/GPa)
#
#
# Indices 1 2 3 4 5 6 
#
# 1 0.021901 -0.004099 -0.005984 0.000000 0.004709 0.000000
# 2 -0.004099 0.013587 -0.002907 0.000000 0.001455 0.000000
# 3 -0.005984 -0.002907 0.008499 0.000000 -0.000962 0.000000
# 4 0.000000 0.000000 0.000000 0.028453 0.000000 0.003909
# 5 0.004709 0.001455 -0.000962 0.000000 0.023356 0.000000
# 6 0.000000 0.000000 0.000000 0.003909 0.000000 0.032857
#
#
# Mechanical properties :
#
#
# Convention : Reuss Voigt Hill
#
# Bulk Modulus (GPa) = 55.53939 73.89258 64.71599
# Shear Modulus (GPa) = 31.12641 35.49059 33.30850
#
# Velocity S-wave (km/s) = 3.73232 3.98539 3.86093
# Velocity P-wave (km/s) = 6.59010 7.36528 6.98845
#
# Compressibility (1/GPa) = 0.01800524
#
# Stress axis : x y z
#
# Youngs Moduli (GPa) = 45.65929 73.60205 117.66630
#
# Poissons Ratio (x) = 0.30173 0.70417
# Poissons Ratio (y) = 0.18718 0.34203
# Poissons Ratio (z) = 0.27325 0.21394
#
# Static dielectric constant tensor:
#      x y z
#    x 1.885740 0.000000 -0.047990 
#    y 0.000000 1.877040 0.000000 
#    z -0.047990 0.000000 1.848400 
# 
# From -- ./inp_files/19385.got.cif
#   From: 2010.05.17/outbox.cif.g08.bks.cpg/sg14_10_cif.got.tgz:19385.got - 2010.06.03 17:49:19.
