data_PCOD9243112
_publ_section_title
;
Structure prediction by ZEFSAII (Michael W. Deem and Ramdas Pophale) SiO2 
 PCOD9243112
Probable space group: P 21/C
;
_chemical_formula_sum "Si O2"
_cell_formula_units_Z 32
_cell_length_a 16.275184
_cell_length_b 21.037670
_cell_length_c 8.778094
_cell_angle_alpha 90.000000
_cell_angle_beta 30.048533
_cell_angle_gamma 90.000000
_cell_volume 1504.978621
_symmetry_space_group_name_H-M "P 21/C"
_symmetry_group_IT_number 14
_symmetry_cell_setting 'monoclinic'
loop_
_space_group_symop_operation_xyz
x,y,z
-x,1/2+y,1/2-z
-x,-y,-z
x,1/2-y,1/2+z
loop_
_atom_site_type_symbol
_atom_site_label
_atom_site_fract_x
_atom_site_fract_y
_atom_site_fract_z
Si Si1 0.437682 0.330905 0.122734
Si Si2 0.066214 0.792697 0.912172
Si Si3 0.710442 0.259412 0.210811
Si Si4 0.397008 0.955854 0.279670
Si Si5 0.966372 0.432255 0.632038
Si Si6 0.741069 0.730542 0.299641
Si Si7 0.677329 0.563385 0.882769
Si Si8 0.584580 0.853303 0.826167
O O1 0.367207 0.288227 0.095162
O O2 0.337774 0.306933 0.430947
O O3 0.420286 0.403130 0.096213
O O4 0.624145 0.309038 0.843142
O O5 0.227789 0.784111 0.548989
O O6 0.123390 0.750644 0.962405
O O7 0.040075 0.868814 0.961886
O O8 0.910508 0.760012 0.083236
O O9 0.562823 0.306985 0.493974
O O10 0.215071 0.939963 0.507613
O O11 0.368776 0.992522 0.484902
O O12 0.502979 0.892440 0.096575
O O13 0.500000 0.000000 0.000000
O O14 0.000000 0.500000 0.500000
O O15 0.131065 0.426322 0.467221
O O16 0.735205 0.684042 0.162225
O O17 0.644158 0.602768 0.092988
#
# Coordination Sequence:
#
# PCOD9243112 Si02
#       8
#     4   4   4   4   4   4   4   4
#     4  11  21  39  55  88 118 162 195 250 305 363
#     4  12  23  37  58  91 119 157 198 248 304 364
#     4  11  23  35  59  86 123 153 197 247 304 359
#     4   9  19  37  63  91 117 163 210 251 295 364
#     4  10  21  37  60  88 118 158 209 250 292 362
#     4  11  23  35  59  83 125 154 197 245 315 360
#     4  10  20  36  64  87 118 160 209 249 298 363
#     4  10  20  40  60  90 120 159 200 252 302 365
#
# _framework density 21.26276
#
# number of rings (size 3 to 8) (size 9 to 14) (size 15 to 20)
#    0.000    1.500    2.500    4.500    1.750    0.000 
#    0.000    0.625    0.000    0.000    0.000    9.625 
#    0.000    0.000    0.000    0.000    0.000    0.000 
#
# Total GULP energy -178245.920339 kJ/mol
# GULP energy per Si atom -5570.185011 kJ/mol
# Density = 2.121436 g / cm^3
# Si number density = 21.262760 Si / 1000 Ang^3
#
#
#
# Elastic Constant Matrix: (Units=GPa)
#
#
# Indices 1 2 3 4 5 6 
#
# 1 73.7057 27.5692 21.7591 0.0000 -11.8978 0.0000
# 2 27.5692 82.9738 22.5920 0.0000 -8.9734 0.0000
# 3 21.7591 22.5920 94.0978 0.0000 -4.3836 0.0000
# 4 0.0000 0.0000 0.0000 34.0757 0.0000 -0.9213
# 5 -11.8978 -8.9734 -4.3836 0.0000 34.6185 0.0000
# 6 0.0000 0.0000 0.0000 -0.9213 0.0000 27.6170
#
#
#
# Elastic Compliance Matrix: (Units=1/GPa)
#
#
# Indices 1 2 3 4 5 6 
#
# 1 0.016657 -0.004364 -0.002605 0.000000 0.004264 0.000000
# 2 -0.004364 0.014349 -0.002346 0.000000 0.001922 0.000000
# 3 -0.002605 -0.002346 0.011793 0.000000 -0.000010 0.000000
# 4 0.000000 0.000000 0.000000 0.029373 0.000000 0.000980
# 5 0.004264 0.001922 -0.000010 0.000000 0.030849 0.000000
# 6 0.000000 0.000000 0.000000 0.000980 0.000000 0.036242
#
#
# Mechanical properties :
#
#
# Convention : Reuss Voigt Hill
#
# Bulk Modulus (GPa) = 41.37880 43.84643 42.61262
# Shear Modulus (GPa) = 30.12961 31.18604 30.65782
#
# Velocity S-wave (km/s) = 3.76841 3.83390 3.80130
# Velocity P-wave (km/s) = 6.19980 6.34543 6.27303
#
# Compressibility (1/GPa) = 0.02416696
#
# Stress axis : x y z
#
# Youngs Moduli (GPa) = 60.03387 69.69228 84.79930
#
# Poissons Ratio (x) = 0.30415 0.22094
# Poissons Ratio (y) = 0.26200 0.19897
# Poissons Ratio (z) = 0.15641 0.16352
#
# Static dielectric constant tensor:
#      x y z
#    x 1.785570 0.000000 0.013660 
#    y 0.000000 1.864910 0.000000 
#    z 0.013660 0.000000 1.790370 
# 
# From -- ./inp_files/17027.got.cif
#   From: 2010.05.17/outbox.cif.g08.bks.cpg/sg14_9_cif.got.tgz:17027.got - 2010.06.03 17:49:19.
