data_PCOD9243934
_publ_section_title
;
Structure prediction by ZEFSAII (Michael W. Deem and Ramdas Pophale) SiO2 
 PCOD9243934
Probable space group: P 21/C
;
_chemical_formula_sum "Si O2"
_cell_formula_units_Z 32
_cell_length_a 7.260811
_cell_length_b 11.400758
_cell_length_c 20.571642
_cell_angle_alpha 90.000000
_cell_angle_beta 122.743294
_cell_angle_gamma 90.000000
_cell_volume 1432.308766
_symmetry_space_group_name_H-M "P 21/C"
_symmetry_group_IT_number 14
_symmetry_cell_setting 'monoclinic'
loop_
_space_group_symop_operation_xyz
x,y,z
-x,1/2+y,1/2-z
-x,-y,-z
x,1/2-y,1/2+z
loop_
_atom_site_type_symbol
_atom_site_label
_atom_site_fract_x
_atom_site_fract_y
_atom_site_fract_z
Si Si1 0.888147 0.716566 0.329960
Si Si2 0.733039 0.025373 0.392269
Si Si3 0.153487 0.046492 0.725683
Si Si4 0.325982 0.857438 0.849941
Si Si5 0.747116 0.573446 0.489384
Si Si6 0.700330 0.392165 0.213187
Si Si7 0.011946 0.306163 0.013799
Si Si8 0.164068 0.977082 0.129345
O O1 0.074630 0.667835 0.319242
O O2 0.013625 0.771900 0.415868
O O3 0.760125 0.605123 0.331420
O O4 0.758151 0.822799 0.273040
O O5 0.482579 0.991248 0.333148
O O6 0.827489 0.918829 0.454486
O O7 0.855438 0.017094 0.345968
O O8 0.794030 0.147245 0.437714
O O9 0.309335 0.968791 0.799644
O O10 0.919131 0.070664 0.715131
O O11 0.494175 0.889152 0.939943
O O12 0.390496 0.733415 0.828758
O O13 0.770816 0.480688 0.434033
O O14 0.874984 0.694595 0.497082
O O15 0.896801 0.525260 0.576013
O O16 0.758382 0.388427 0.300891
#
# Coordination Sequence:
#
# PCOD9243934 Si02
#       8
#     4   4   4   4   4   4   4   4
#     4   9  20  40  58  84 130 158 198 262 305 360
#     4  10  20  39  62  88 123 164 205 258 314 361
#     4  10  22  39  62  91 123 161 210 259 306 371
#     4  11  21  39  62  91 122 166 206 257 313 373
#     4  10  21  38  62  89 120 166 211 251 312 381
#     4  11  22  40  62  93 123 164 205 263 316 368
#     4   9  19  39  59  88 123 161 204 256 305 374
#     4  10  21  40  60  84 127 162 202 262 311 365
#
# _framework density 22.341552
#
# number of rings (size 3 to 8) (size 9 to 14) (size 15 to 20)
#    0.000    2.000    2.500    0.750    1.750    0.500 
#    2.250    5.000    0.000    0.000    0.000    0.000 
#    0.000    0.000    0.000    0.000    0.000    0.000 
#
# Total GULP energy -178465.420433 kJ/mol
# GULP energy per Si atom -5577.044389 kJ/mol
# Density = 2.229070 g / cm^3
# Si number density = 22.341552 Si / 1000 Ang^3
#
#
#
# Elastic Constant Matrix: (Units=GPa)
#
#
# Indices 1 2 3 4 5 6 
#
# 1 57.2448 10.0914 15.5607 0.0000 14.7225 0.0000
# 2 10.0914 72.6058 27.6857 0.0000 6.6427 0.0000
# 3 15.5607 27.6857 68.6071 0.0000 21.7586 0.0000
# 4 0.0000 0.0000 0.0000 46.7014 0.0000 1.2815
# 5 14.7225 6.6427 21.7586 0.0000 25.8934 0.0000
# 6 0.0000 0.0000 0.0000 1.2815 0.0000 21.7274
#
#
#
# Elastic Compliance Matrix: (Units=1/GPa)
#
#
# Indices 1 2 3 4 5 6 
#
# 1 0.020714 -0.001663 -0.000582 0.000000 -0.010862 0.000000
# 2 -0.001663 0.016475 -0.007131 0.000000 0.002711 0.000000
# 3 -0.000582 -0.007131 0.023041 0.000000 -0.017201 0.000000
# 4 0.000000 0.000000 0.000000 0.021447 0.000000 -0.001265
# 5 -0.010862 0.002711 -0.017201 0.000000 0.058554 0.000000
# 6 0.000000 0.000000 0.000000 -0.001265 0.000000 0.046099
#
#
# Mechanical properties :
#
#
# Convention : Reuss Voigt Hill
#
# Bulk Modulus (GPa) = 24.10992 33.90370 29.00681
# Shear Modulus (GPa) = 22.84051 28.53911 25.68981
#
# Velocity S-wave (km/s) = 3.20086 3.57795 3.39465
# Velocity P-wave (km/s) = 4.94729 5.68129 5.32695
#
# Compressibility (1/GPa) = 0.04147671
#
# Stress axis : x y z
#
# Youngs Moduli (GPa) = 48.27713 60.69690 43.40141
#
# Poissons Ratio (x) = 0.10096 0.02526
# Poissons Ratio (y) = 0.08030 0.30950
# Poissons Ratio (z) = 0.02810 0.43284
#
# Static dielectric constant tensor:
#      x y z
#    x 1.869900 0.000000 -0.005720 
#    y 0.000000 1.856430 0.000000 
#    z -0.005720 0.000000 1.849540 
# 
# From -- ./inp_files/72288.got.cif
#   From: 2010.05.17/outbox.cif.g08.bks.cpg/sg14_37_cif.got.tgz:72288.got - 2010.06.03 17:49:19.
