data_PCOD9243942
_publ_section_title
;
Structure prediction by ZEFSAII (Michael W. Deem and Ramdas Pophale) SiO2 
 PCOD9243942
Probable space group: P 21/C
;
_chemical_formula_sum "Si O2"
_cell_formula_units_Z 28
_cell_length_a 8.108312
_cell_length_b 12.986967
_cell_length_c 13.394018
_cell_angle_alpha 90.000000
_cell_angle_beta 72.001674
_cell_angle_gamma 90.000000
_cell_volume 1341.403746
_symmetry_space_group_name_H-M "P 21/C"
_symmetry_group_IT_number 14
_symmetry_cell_setting 'monoclinic'
loop_
_space_group_symop_operation_xyz
x,y,z
-x,1/2+y,1/2-z
-x,-y,-z
x,1/2-y,1/2+z
loop_
_atom_site_type_symbol
_atom_site_label
_atom_site_fract_x
_atom_site_fract_y
_atom_site_fract_z
Si Si1 0.586701 0.825772 0.675079
Si Si2 0.278618 0.431399 0.660084
Si Si3 0.529906 0.899828 0.188572
Si Si4 0.033681 0.333562 0.981442
Si Si5 0.116483 0.398210 0.478117
Si Si6 0.032546 0.486642 0.153773
Si Si7 0.579225 0.516178 0.875960
O O1 0.503445 0.717596 0.665608
O O2 0.757632 0.845969 0.575396
O O3 0.658842 0.842628 0.774149
O O4 0.444083 0.909836 0.678409
O O5 0.427807 0.517960 0.641184
O O6 0.224373 0.392082 0.561976
O O7 0.109622 0.487819 0.737404
O O8 0.483481 0.910322 0.314652
O O9 0.736199 0.911821 0.133400
O O10 0.951061 0.405814 0.911369
O O11 0.013117 0.209950 0.983609
O O12 0.977026 0.393031 0.091876
O O13 0.000000 0.500000 0.500000
O O14 0.221559 0.455979 0.153947
O O15 0.500000 0.500000 0.000000
#
# Coordination Sequence:
#
# PCOD9243942 Si02
#       7
#     4   4   4   4   4   4   4
#     4   9  20  39  60  91 118 158 204 247 311 353
#     4  10  22  40  60  87 126 161 202 252 302 367
#     4  10  23  40  60  88 126 164 203 253 300 369
#     4   9  20  38  62  85 123 156 199 258 298 362
#     4  11  23  42  61  91 124 167 204 244 314 369
#     4  10  20  39  62  91 118 156 208 255 306 349
#     4  11  21  37  63  91 119 156 206 255 299 361
#
# _framework density 20.873654999999999
#
# number of rings (size 3 to 8) (size 9 to 14) (size 15 to 20)
#    0.000    2.000    1.429    1.286    4.000    1.143 
#   10.286    0.000    0.000    0.000    0.000    0.000 
#    0.000    0.000    0.000    0.000    0.000    0.000 
#
# Total GULP energy -156087.177028 kJ/mol
# GULP energy per Si atom -5574.542037 kJ/mol
# Density = 2.082615 g / cm^3
# Si number density = 20.873655 Si / 1000 Ang^3
#
#
#
# Elastic Constant Matrix: (Units=GPa)
#
#
# Indices 1 2 3 4 5 6 
#
# 1 27.8336 8.3034 1.1631 0.0000 7.8683 0.0000
# 2 8.3034 82.1808 4.0419 0.0000 2.6075 0.0000
# 3 1.1631 4.0419 86.5791 0.0000 10.6216 0.0000
# 4 0.0000 0.0000 0.0000 9.7251 0.0000 -12.1645
# 5 7.8683 2.6075 10.6216 0.0000 21.7092 0.0000
# 6 0.0000 0.0000 0.0000 -12.1645 0.0000 26.0247
#
#
#
# Elastic Compliance Matrix: (Units=1/GPa)
#
#
# Indices 1 2 3 4 5 6 
#
# 1 0.041298 -0.003762 0.001491 0.000000 -0.015246 0.000000
# 2 -0.003762 0.012572 -0.000551 0.000000 0.000123 0.000000
# 3 0.001491 -0.000551 0.012356 0.000000 -0.006519 0.000000
# 4 0.000000 0.000000 0.000000 0.247580 0.000000 0.115724
# 5 -0.015246 0.000123 -0.006519 0.000000 0.054764 0.000000
# 6 0.000000 0.000000 0.000000 0.115724 0.000000 0.092517
#
#
# Mechanical properties :
#
#
# Convention : Reuss Voigt Hill
#
# Bulk Modulus (GPa) = 16.50715 24.84558 20.67637
# Shear Modulus (GPa) = 10.26854 23.69748 16.98301
#
# Velocity S-wave (km/s) = 2.22037 3.37305 2.85548
# Velocity P-wave (km/s) = 3.80772 5.20563 4.56056
#
# Compressibility (1/GPa) = 0.06057981
#
# Stress axis : x y z
#
# Youngs Moduli (GPa) = 24.21446 79.54418 80.93462
#
# Poissons Ratio (x) = 0.29926 -0.12069
# Poissons Ratio (y) = 0.09110 0.04463
# Poissons Ratio (z) = -0.03611 0.04387
#
# Static dielectric constant tensor:
#      x y z
#    x 1.749620 0.000000 0.018150 
#    y 0.000000 1.767790 0.000000 
#    z 0.018150 0.000000 1.810500 
# 
# From -- ./inp_files/40023.got.cif
#   From: 2010.05.17/outbox.cif.g08.bks.cpg/sg14_21_cif.got.tgz:40023.got - 2010.06.03 17:49:19.
