data_PCOD9243640
_publ_section_title
;
Structure prediction by ZEFSAII (Michael W. Deem and Ramdas Pophale) SiO2 
 PCOD9243640
Probable space group: P 21/C
;
_chemical_formula_sum "Si O2"
_cell_formula_units_Z 30
_cell_length_a 16.967151
_cell_length_b 10.338494
_cell_length_c 10.110850
_cell_angle_alpha 90.000000
_cell_angle_beta 48.011015
_cell_angle_gamma 90.000000
_cell_volume 1318.264305
_symmetry_space_group_name_H-M "P 21/C"
_symmetry_group_IT_number 14
_symmetry_cell_setting 'monoclinic'
loop_
_space_group_symop_operation_xyz
x,y,z
-x,1/2+y,1/2-z
-x,-y,-z
x,1/2-y,1/2+z
loop_
_atom_site_type_symbol
_atom_site_label
_atom_site_fract_x
_atom_site_fract_y
_atom_site_fract_z
Si Si1 0.500000 0.000000 0.500000
Si Si2 0.173464 0.200440 0.451324
Si Si3 0.937324 0.830719 0.164775
Si Si4 0.842629 0.099715 0.173067
Si Si5 0.471706 0.700307 0.606306
Si Si6 0.327421 0.027459 0.154264
Si Si7 0.287113 0.457153 0.404033
Si Si8 0.619038 0.137377 0.517766
O O1 0.405663 0.029627 0.719517
O O2 0.593521 0.986928 0.525651
O O3 0.133644 0.242685 0.351641
O O4 0.079163 0.195165 0.662618
O O5 0.239646 0.069807 0.357830
O O6 0.249708 0.310967 0.423064
O O7 0.894015 0.976675 0.189758
O O8 0.057644 0.815297 0.981237
O O9 0.743232 0.161155 0.362592
O O10 0.788192 0.045480 0.101398
O O11 0.588988 0.645475 0.459246
O O12 0.393816 0.594680 0.628552
O O13 0.432585 0.707716 0.800637
O O14 0.450042 0.827646 0.541311
O O15 0.279913 0.003029 0.064116
#
# Coordination Sequence:
#
# PCOD9243640 Si02
#       8
#     2   4   4   4   4   4   4   4
#     4  10  20  38  62  86 126 158 212 240 324 372
#     4  11  21  39  67  91 123 160 215 262 314 373
#     4  10  21  41  63  92 118 161 209 267 314 369
#     4   9  22  40  65  85 126 161 210 253 324 373
#     4  11  26  38  60  90 131 160 206 249 318 375
#     4  11  23  41  59  95 126 159 210 261 304 385
#     4  10  20  39  64  95 120 167 202 262 317 382
#     4  11  23  40  61  90 120 172 197 258 309 383
#
# _framework density 22.757196
#
# number of rings (size 3 to 8) (size 9 to 14) (size 15 to 20)
#    0.000    1.600    2.667    1.600    3.733    1.067 
#    0.000    2.000    0.000    0.000    0.000    0.000 
#    0.000    0.000    0.000    0.000    0.000    0.000 
#
# Total GULP energy -167410.996404 kJ/mol
# GULP energy per Si atom -5580.366547 kJ/mol
# Density = 2.270540 g / cm^3
# Si number density = 22.757196 Si / 1000 Ang^3
#
#
#
# Elastic Constant Matrix: (Units=GPa)
#
#
# Indices 1 2 3 4 5 6 
#
# 1 47.7063 7.6509 36.5583 0.0000 -2.4174 0.0000
# 2 7.6509 53.8908 17.6420 0.0000 0.0199 0.0000
# 3 36.5583 17.6420 130.3280 0.0000 -3.8420 0.0000
# 4 0.0000 0.0000 0.0000 27.4132 0.0000 -2.2602
# 5 -2.4174 0.0199 -3.8420 0.0000 43.5769 0.0000
# 6 0.0000 0.0000 0.0000 -2.2602 0.0000 9.2634
#
#
#
# Elastic Compliance Matrix: (Units=1/GPa)
#
#
# Indices 1 2 3 4 5 6 
#
# 1 0.026834 -0.001417 -0.007310 0.000000 0.000845 0.000000
# 2 -0.001417 0.019494 -0.002250 0.000000 -0.000286 0.000000
# 3 -0.007310 -0.002250 0.010042 0.000000 0.000481 0.000000
# 4 0.000000 0.000000 0.000000 0.037228 0.000000 0.009083
# 5 0.000845 -0.000286 0.000481 0.000000 0.023037 0.000000
# 6 0.000000 0.000000 0.000000 0.009083 0.000000 0.110168
#
#
# Mechanical properties :
#
#
# Convention : Reuss Voigt Hill
#
# Bulk Modulus (GPa) = 29.05636 39.51417 34.28526
# Shear Modulus (GPa) = 19.21387 27.38897 23.30142
#
# Velocity S-wave (km/s) = 2.90883 3.47296 3.20334
# Velocity P-wave (km/s) = 4.90688 5.78645 5.36472
#
# Compressibility (1/GPa) = 0.03441587
#
# Stress axis : x y z
#
# Youngs Moduli (GPa) = 37.26654 51.29838 99.57855
#
# Poissons Ratio (x) = 0.07268 0.72796
# Poissons Ratio (y) = 0.05280 0.22403
# Poissons Ratio (z) = 0.27244 0.11541
#
# Static dielectric constant tensor:
#      x y z
#    x 1.874980 0.000000 0.012520 
#    y 0.000000 1.957920 0.000000 
#    z 0.012520 0.000000 1.875690 
# 
# From -- ./inp_files/15728.got.cif
#   From: 2010.05.17/outbox.cif.g08.bks.cpg/sg14_8_cif.got.tgz:15728.got - 2010.06.03 17:49:19.
