data_PCOD9243925
_publ_section_title
;
Structure prediction by ZEFSAII (Michael W. Deem and Ramdas Pophale) SiO2 
 PCOD9243925
Probable space group: P 21/C
;
_chemical_formula_sum "Si O2"
_cell_formula_units_Z 20
_cell_length_a 7.319188
_cell_length_b 12.944705
_cell_length_c 9.415839
_cell_angle_alpha 90.000000
_cell_angle_beta 105.359881
_cell_angle_gamma 90.000000
_cell_volume 860.236260
_symmetry_space_group_name_H-M "P 21/C"
_symmetry_group_IT_number 14
_symmetry_cell_setting 'monoclinic'
loop_
_space_group_symop_operation_xyz
x,y,z
-x,1/2+y,1/2-z
-x,-y,-z
x,1/2-y,1/2+z
loop_
_atom_site_type_symbol
_atom_site_label
_atom_site_fract_x
_atom_site_fract_y
_atom_site_fract_z
Si Si1 0.084863 0.625901 0.951084
Si Si2 0.462261 0.365161 0.663866
Si Si3 0.638496 0.203996 0.922315
Si Si4 0.809739 0.505297 0.761200
Si Si5 0.834061 0.486124 0.307389
O O1 0.195193 0.549559 0.864196
O O2 0.868873 0.612273 0.851379
O O3 0.190141 0.733708 0.966090
O O4 0.105358 0.580945 0.112862
O O5 0.546131 0.279695 0.787339
O O6 0.483874 0.325377 0.508541
O O7 0.599277 0.466942 0.698211
O O8 0.261654 0.406533 0.673689
O O9 0.737750 0.106340 0.872109
O O10 0.936990 0.507352 0.645862
#
# Coordination Sequence:
#
# PCOD9243925 Si02
#       5
#     4   4   4   4   4
#     4   8  17  39  59  81 120 156 190 238 300 346
#     4  11  22  39  64  84 125 156 196 244 296 352
#     4  11  21  39  60  91 121 157 195 248 295 339
#     4   8  18  37  60  82 110 158 197 231 302 347
#     4  10  20  39  62  85 120 160 195 245 291 349
#
# _framework density 23.249426
#
# number of rings (size 3 to 8) (size 9 to 14) (size 15 to 20)
#    1.200    1.200    2.000    0.600    0.000    4.000 
#    0.000   10.000    0.000    0.000    0.000    0.000 
#    0.000    0.000    0.000    0.000    0.000    0.000 
#
# Total GULP energy -111523.428173 kJ/mol
# GULP energy per Si atom -5576.171409 kJ/mol
# Density = 2.319651 g / cm^3
# Si number density = 23.249426 Si / 1000 Ang^3
#
#
#
# Elastic Constant Matrix: (Units=GPa)
#
#
# Indices 1 2 3 4 5 6 
#
# 1 50.0636 18.1603 17.9649 0.0000 -3.3989 0.0000
# 2 18.1603 73.1628 36.7764 0.0000 -4.3150 0.0000
# 3 17.9649 36.7764 96.7636 0.0000 -17.1400 0.0000
# 4 0.0000 0.0000 0.0000 27.4090 0.0000 3.0725
# 5 -3.3989 -4.3150 -17.1400 0.0000 24.2147 0.0000
# 6 0.0000 0.0000 0.0000 3.0725 0.0000 23.4112
#
#
#
# Elastic Compliance Matrix: (Units=1/GPa)
#
#
# Indices 1 2 3 4 5 6 
#
# 1 0.022452 -0.004324 -0.002405 0.000000 0.000679 0.000000
# 2 -0.004324 0.017794 -0.006295 0.000000 -0.001892 0.000000
# 3 -0.002405 -0.006295 0.014766 0.000000 0.008993 0.000000
# 4 0.000000 0.000000 0.000000 0.037029 0.000000 -0.004860
# 5 0.000679 -0.001892 0.008993 0.000000 0.047421 0.000000
# 6 0.000000 0.000000 0.000000 -0.004860 0.000000 0.043352
#
#
# Mechanical properties :
#
#
# Convention : Reuss Voigt Hill
#
# Bulk Modulus (GPa) = 34.52503 40.64369 37.58436
# Shear Modulus (GPa) = 22.88133 24.81286 23.84709
#
# Velocity S-wave (km/s) = 3.14055 3.27042 3.20614
# Velocity P-wave (km/s) = 5.29460 5.63741 5.46869
#
# Compressibility (1/GPa) = 0.02896449
#
# Stress axis : x y z
#
# Youngs Moduli (GPa) = 44.53912 56.19764 67.72099
#
# Poissons Ratio (x) = 0.24301 0.16285
# Poissons Ratio (y) = 0.19260 0.42633
# Poissons Ratio (z) = 0.10710 0.35378
#
# Static dielectric constant tensor:
#      x y z
#    x 1.915470 0.000000 0.029840 
#    y 0.000000 1.858140 0.000000 
#    z 0.029840 0.000000 1.894450 
# 
# From -- ./inp_files/23448.got.cif
#   From: 2010.05.17/outbox.cif.g08.bks.cpg/sg14_12_cif.got.tgz:23448.got - 2010.06.03 17:49:19.
