data_PCOD9243102
_publ_section_title
;
Structure prediction by ZEFSAII (Michael W. Deem and Ramdas Pophale) SiO2 
 PCOD9243102
Probable space group: P 21/C
;
_chemical_formula_sum "Si O2"
_cell_formula_units_Z 32
_cell_length_a 12.215413
_cell_length_b 10.358135
_cell_length_c 18.147209
_cell_angle_alpha 90.000000
_cell_angle_beta 139.456911
_cell_angle_gamma 90.000000
_cell_volume 1492.540409
_symmetry_space_group_name_H-M "P 21/C"
_symmetry_group_IT_number 14
_symmetry_cell_setting 'monoclinic'
loop_
_space_group_symop_operation_xyz
x,y,z
-x,1/2+y,1/2-z
-x,-y,-z
x,1/2-y,1/2+z
loop_
_atom_site_type_symbol
_atom_site_label
_atom_site_fract_x
_atom_site_fract_y
_atom_site_fract_z
Si Si1 0.397367 0.764003 0.153354
Si Si2 0.623677 0.223050 0.532115
Si Si3 0.030310 0.870387 0.969245
Si Si4 0.185299 0.006449 0.421360
Si Si5 0.126192 0.377149 0.155471
Si Si6 0.088820 0.581454 0.328291
Si Si7 0.347180 0.027117 0.653254
Si Si8 0.350548 0.392169 0.415378
O O1 0.401347 0.763930 0.066375
O O2 0.527499 0.866022 0.251725
O O3 0.426617 0.615455 0.190130
O O4 0.211173 0.809542 0.082073
O O5 0.685897 0.077839 0.560958
O O6 0.781341 0.311485 0.635910
O O7 0.452456 0.261763 0.485419
O O8 0.893752 0.755303 0.900636
O O9 0.037007 0.898347 0.885319
O O10 0.000000 0.000000 0.000000
O O11 0.050351 0.911572 0.394990
O O12 0.283656 0.066709 0.539785
O O13 0.069426 0.084633 0.306710
O O14 0.190535 0.480660 0.129521
O O15 0.264551 0.376050 0.291229
O O16 0.194199 0.447523 0.381053
O O17 0.500000 0.500000 0.500000
#
# Coordination Sequence:
#
# PCOD9243102 Si02
#       8
#     4   4   4   4   4   4   4   4
#     4  10  22  39  62  92 135 170 220 275 322 406
#     4   9  16  37  57  89 122 165 200 260 335 380
#     4  11  24  42  64  92 133 178 223 275 345 402
#     4  10  20  36  63  92 128 163 213 276 328 389
#     4  11  20  38  63  92 129 175 215 280 332 396
#     4   9  19  38  58  88 121 163 212 263 327 394
#     4  11  22  39  63  96 128 175 224 265 339 393
#     4   9  18  33  64  92 116 166 211 261 330 396
#
# _framework density 21.439955000000001
#
# number of rings (size 3 to 8) (size 9 to 14) (size 15 to 20)
#    0.000    2.000    5.000    0.375    1.750    0.000 
#    2.250    2.500    0.000    1.500    0.000    0.000 
#    0.000    0.000    0.000    0.000    0.000    0.000 
#
# Total GULP energy -178504.557596 kJ/mol
# GULP energy per Si atom -5578.267425 kJ/mol
# Density = 2.139116 g / cm^3
# Si number density = 21.439955 Si / 1000 Ang^3
#
#
#
# Elastic Constant Matrix: (Units=GPa)
#
#
# Indices 1 2 3 4 5 6 
#
# 1 20.0842 14.2973 -0.4752 0.0000 8.1007 0.0000
# 2 14.2973 63.9841 50.2074 0.0000 -1.7041 0.0000
# 3 -0.4752 50.2074 126.5509 0.0000 7.9276 0.0000
# 4 0.0000 0.0000 0.0000 32.0078 0.0000 -0.1329
# 5 8.1007 -1.7041 7.9276 0.0000 18.9124 0.0000
# 6 0.0000 0.0000 0.0000 -0.1329 0.0000 29.7927
#
#
#
# Elastic Compliance Matrix: (Units=1/GPa)
#
#
# Indices 1 2 3 4 5 6 
#
# 1 0.099681 -0.038735 0.019138 0.000000 -0.054208 0.000000
# 2 -0.038735 0.038423 -0.017094 0.000000 0.027219 0.000000
# 3 0.019138 -0.017094 0.015780 0.000000 -0.016352 0.000000
# 4 0.000000 0.000000 0.000000 0.031243 0.000000 0.000139
# 5 -0.054208 0.027219 -0.016352 0.000000 0.085401 0.000000
# 6 0.000000 0.000000 0.000000 0.000139 0.000000 0.033566
#
#
# Mechanical properties :
#
#
# Convention : Reuss Voigt Hill
#
# Bulk Modulus (GPa) = 12.42216 37.63093 25.02654
# Shear Modulus (GPa) = 12.36675 25.91522 19.14098
#
# Velocity S-wave (km/s) = 2.40429 3.48046 2.99117
# Velocity P-wave (km/s) = 3.67614 5.80873 4.86083
#
# Compressibility (1/GPa) = 0.08050133
#
# Stress axis : x y z
#
# Youngs Moduli (GPa) = 10.03200 26.02625 63.37093
#
# Poissons Ratio (x) = 1.00812 -1.21277
# Poissons Ratio (y) = 0.38859 1.08328
# Poissons Ratio (z) = -0.19199 0.44490
#
# Static dielectric constant tensor:
#      x y z
#    x 1.804640 0.000000 0.031940 
#    y 0.000000 1.777320 0.000000 
#    z 0.031940 0.000000 1.768590 
# 
# From -- ./inp_files/57731.got.cif
#   From: 2010.05.17/outbox.cif.g08.bks.cpg/sg14_29_cif.got.tgz:57731.got - 2010.06.03 17:49:19.
