data_PCOD9243370
_publ_section_title
;
Structure prediction by ZEFSAII (Michael W. Deem and Ramdas Pophale) SiO2 
 PCOD9243370
Probable space group: P 21/C
;
_chemical_formula_sum "Si O2"
_cell_formula_units_Z 32
_cell_length_a 10.936217
_cell_length_b 15.942372
_cell_length_c 17.634612
_cell_angle_alpha 90.000000
_cell_angle_beta 149.081809
_cell_angle_gamma 90.000000
_cell_volume 1579.761803
_symmetry_space_group_name_H-M "P 21/C"
_symmetry_group_IT_number 14
_symmetry_cell_setting 'monoclinic'
loop_
_space_group_symop_operation_xyz
x,y,z
-x,1/2+y,1/2-z
-x,-y,-z
x,1/2-y,1/2+z
loop_
_atom_site_type_symbol
_atom_site_label
_atom_site_fract_x
_atom_site_fract_y
_atom_site_fract_z
Si Si1 0.375891 0.824064 0.822876
Si Si2 0.025273 0.158009 0.267807
Si Si3 0.502929 0.153475 0.699968
Si Si4 0.984886 0.098458 0.476972
Si Si5 0.355663 0.669102 0.553324
Si Si6 0.799688 0.142754 0.534924
Si Si7 0.747937 0.667358 0.639784
Si Si8 0.600583 0.972694 0.473107
O O1 0.177313 0.806689 0.782480
O O2 0.445978 0.742841 0.811327
O O3 0.243621 0.886999 0.696871
O O4 0.605384 0.858825 0.989105
O O5 0.210775 0.232123 0.347156
O O6 0.164367 0.081681 0.380517
O O7 0.880128 0.135261 0.114481
O O8 0.622682 0.147555 0.846590
O O9 0.562752 0.085106 0.667333
O O10 0.223223 0.136318 0.567265
O O11 0.944174 0.146295 0.533796
O O12 0.000000 0.000000 0.500000
O O13 0.339381 0.770298 0.534897
O O14 0.582380 0.643623 0.623200
O O15 0.988843 0.134354 0.703808
O O16 0.651470 0.058107 0.455470
O O17 0.500000 0.000000 0.500000
#
# Coordination Sequence:
#
# PCOD9243370 Si02
#       8
#     4   4   4   4   4   4   4   4
#     4  11  21  39  64  94 125 170 222 268 314 394
#     4  10  21  41  62  91 127 164 215 265 322 381
#     4  12  23  40  63  97 125 172 214 265 322 391
#     4  12  22  41  62  93 133 167 213 268 335 388
#     4  10  22  38  64  89 123 162 217 264 309 381
#     4  11  22  38  63  92 124 169 210 264 328 384
#     4  10  20  37  62  91 118 165 219 264 308 378
#     4  12  25  43  65  93 132 169 210 265 334 390
#
# _framework density 20.256219000000002
#
# number of rings (size 3 to 8) (size 9 to 14) (size 15 to 20)
#    0.000    1.000    6.250    0.750    3.500    0.000 
#    2.250    2.500    0.000    0.000    0.000    0.000 
#    0.000    0.000    0.000    0.000    0.000    0.000 
#
# Total GULP energy -178590.883947 kJ/mol
# GULP energy per Si atom -5580.965123 kJ/mol
# Density = 2.021012 g / cm^3
# Si number density = 20.256219 Si / 1000 Ang^3
#
#
#
# Elastic Constant Matrix: (Units=GPa)
#
#
# Indices 1 2 3 4 5 6 
#
# 1 77.3354 13.2376 13.3962 0.0000 -16.5370 0.0000
# 2 13.2376 61.4081 23.2114 0.0000 -8.5248 0.0000
# 3 13.3962 23.2114 136.4022 0.0000 -39.6142 0.0000
# 4 0.0000 0.0000 0.0000 28.7186 0.0000 -6.0072
# 5 -16.5370 -8.5248 -39.6142 0.0000 37.1037 0.0000
# 6 0.0000 0.0000 0.0000 -6.0072 0.0000 27.8938
#
#
#
# Elastic Compliance Matrix: (Units=1/GPa)
#
#
# Indices 1 2 3 4 5 6 
#
# 1 0.014706 -0.002585 0.001053 0.000000 0.007085 0.000000
# 2 -0.002585 0.017896 -0.002800 0.000000 -0.000030 0.000000
# 3 0.001053 -0.002800 0.011094 0.000000 0.011670 0.000000
# 4 0.000000 0.000000 0.000000 0.036463 0.000000 0.007853
# 5 0.007085 -0.000030 0.011670 0.000000 0.042562 0.000000
# 6 0.000000 0.000000 0.000000 0.007853 0.000000 0.037541
#
#
# Mechanical properties :
#
#
# Convention : Reuss Voigt Hill
#
# Bulk Modulus (GPa) = 28.54533 41.64845 35.09689
# Shear Modulus (GPa) = 27.68509 33.76326 30.72418
#
# Velocity S-wave (km/s) = 3.70096 4.08709 3.89881
# Velocity P-wave (km/s) = 5.69083 6.54812 6.13447
#
# Compressibility (1/GPa) = 0.03503200
#
# Stress axis : x y z
#
# Youngs Moduli (GPa) = 68.00107 55.87860 90.14165
#
# Poissons Ratio (x) = 0.14442 -0.09493
# Poissons Ratio (y) = 0.17576 0.25241
# Poissons Ratio (z) = -0.07162 0.15647
#
# Static dielectric constant tensor:
#      x y z
#    x 1.769000 0.000000 -0.018270 
#    y 0.000000 1.707330 0.000000 
#    z -0.018270 0.000000 1.755880 
# 
# From -- ./inp_files/30029.got.cif
#   From: 2010.05.17/outbox.cif.g08.bks.cpg/sg14_16_cif.got.tgz:30029.got - 2010.06.03 17:49:19.
