data_PCOD9243072
_publ_section_title
;
Structure prediction by ZEFSAII (Michael W. Deem and Ramdas Pophale) SiO2 
 PCOD9243072
Probable space group: P 21/C
;
_chemical_formula_sum "Si O2"
_cell_formula_units_Z 28
_cell_length_a 14.413008
_cell_length_b 8.099728
_cell_length_c 13.501867
_cell_angle_alpha 90.000000
_cell_angle_beta 43.666214
_cell_angle_gamma 90.000000
_cell_volume 1088.315664
_symmetry_space_group_name_H-M "P 21/C"
_symmetry_group_IT_number 14
_symmetry_cell_setting 'monoclinic'
loop_
_space_group_symop_operation_xyz
x,y,z
-x,1/2+y,1/2-z
-x,-y,-z
x,1/2-y,1/2+z
loop_
_atom_site_type_symbol
_atom_site_label
_atom_site_fract_x
_atom_site_fract_y
_atom_site_fract_z
Si Si1 0.840804 0.732385 0.950847
Si Si2 0.186275 0.711948 0.465295
Si Si3 0.489826 0.187705 0.103408
Si Si4 0.210345 0.041158 0.321147
Si Si5 0.053634 0.013586 0.805923
Si Si6 0.223004 0.778669 0.174120
Si Si7 0.598028 0.558592 0.680758
O O1 0.875196 0.603795 0.839754
O O2 0.937767 0.887123 0.861941
O O3 0.860652 0.662334 0.046632
O O4 0.687604 0.794463 0.065125
O O5 0.226894 0.878671 0.378570
O O6 0.199380 0.733290 0.574695
O O7 0.294677 0.570428 0.359069
O O8 0.032848 0.649505 0.567747
O O9 0.487488 0.356706 0.167744
O O10 0.340551 0.143894 0.183275
O O11 0.519822 0.039677 0.157361
O O12 0.617204 0.198928 0.933287
O O13 0.154018 0.945589 0.268990
O O14 0.162234 0.887390 0.767420
#
# Coordination Sequence:
#
# PCOD9243072 Si02
#       7
#     4   4   4   4   4   4   4
#     4  10  20  36  62  87 114 158 196 247 297 357
#     4  10  21  41  61  89 120 159 200 250 302 361
#     4  10  20  38  58  92 119 156 207 245 298 365
#     4  11  22  39  62  86 124 156 201 252 297 358
#     4  11  20  39  62  88 119 156 201 247 300 359
#     4  11  22  36  63  89 120 159 200 243 305 360
#     4   9  20  33  65  85 114 160 200 242 307 351
#
# _framework density 25.727829
#
# number of rings (size 3 to 8) (size 9 to 14) (size 15 to 20)
#    0.000    1.714    2.857    2.143    2.000    1.143 
#    0.000    0.714   25.143    0.000    0.000    0.000 
#    0.000    0.000    0.000    0.000    0.000    0.000 
#
# Total GULP energy -156623.852706 kJ/mol
# GULP energy per Si atom -5593.709025 kJ/mol
# Density = 2.566927 g / cm^3
# Si number density = 25.727829 Si / 1000 Ang^3
#
#
#
# Elastic Constant Matrix: (Units=GPa)
#
#
# Indices 1 2 3 4 5 6 
#
# 1 48.9371 19.6205 26.0791 0.0000 7.3678 0.0000
# 2 19.6205 79.7825 25.3054 0.0000 9.2816 0.0000
# 3 26.0791 25.3054 73.7100 0.0000 3.0867 0.0000
# 4 0.0000 0.0000 0.0000 56.3553 0.0000 2.9242
# 5 7.3678 9.2816 3.0867 0.0000 37.2361 0.0000
# 6 0.0000 0.0000 0.0000 2.9242 0.0000 37.4027
#
#
#
# Elastic Compliance Matrix: (Units=1/GPa)
#
#
# Indices 1 2 3 4 5 6 
#
# 1 0.026733 -0.003580 -0.008073 0.000000 -0.003728 0.000000
# 2 -0.003580 0.014915 -0.003741 0.000000 -0.002699 0.000000
# 3 -0.008073 -0.003741 0.017663 0.000000 0.001066 0.000000
# 4 0.000000 0.000000 0.000000 0.017817 0.000000 -0.001393
# 5 -0.003728 -0.002699 0.001066 0.000000 0.028178 0.000000
# 6 0.000000 0.000000 0.000000 -0.001393 0.000000 0.026845
#
#
# Mechanical properties :
#
#
# Convention : Reuss Voigt Hill
#
# Bulk Modulus (GPa) = 35.05955 38.27105 36.66530
# Shear Modulus (GPa) = 28.99451 34.96046 31.97748
#
# Velocity S-wave (km/s) = 3.36068 3.69027 3.52932
# Velocity P-wave (km/s) = 5.35869 5.75022 5.55791
#
# Compressibility (1/GPa) = 0.02852290
#
# Stress axis : x y z
#
# Youngs Moduli (GPa) = 37.40646 67.04652 56.61653
#
# Poissons Ratio (x) = 0.24003 0.45708
# Poissons Ratio (y) = 0.13391 0.21179
# Poissons Ratio (z) = 0.30199 0.25081
#
# Static dielectric constant tensor:
#      x y z
#    x 2.083820 0.000000 -0.024920 
#    y 0.000000 2.015320 0.000000 
#    z -0.024920 0.000000 2.017190 
# 
# From -- ./inp_files/48556.got.cif
#   From: 2010.05.17/outbox.cif.g08.bks.cpg/sg14_25_cif.got.tgz:48556.got - 2010.06.03 17:49:19.
