data_PCOD9243403
_publ_section_title
;
Structure prediction by ZEFSAII (Michael W. Deem and Ramdas Pophale) SiO2 
 PCOD9243403
Probable space group: P 21/C
;
_chemical_formula_sum "Si O2"
_cell_formula_units_Z 32
_cell_length_a 13.277713
_cell_length_b 20.682494
_cell_length_c 13.893292
_cell_angle_alpha 90.000000
_cell_angle_beta 158.330092
_cell_angle_gamma 90.000000
_cell_volume 1408.841414
_symmetry_space_group_name_H-M "P 21/C"
_symmetry_group_IT_number 14
_symmetry_cell_setting 'monoclinic'
loop_
_space_group_symop_operation_xyz
x,y,z
-x,1/2+y,1/2-z
-x,-y,-z
x,1/2-y,1/2+z
loop_
_atom_site_type_symbol
_atom_site_label
_atom_site_fract_x
_atom_site_fract_y
_atom_site_fract_z
Si Si1 0.322018 0.810171 0.557611
Si Si2 0.708947 0.050096 0.476117
Si Si3 0.439210 0.674172 0.667798
Si Si4 0.801630 0.977852 0.740079
Si Si5 0.158064 0.062267 0.719606
Si Si6 0.508935 0.539105 0.653008
Si Si7 0.707207 0.696459 0.579342
Si Si8 0.835958 0.833598 0.699114
O O1 0.403546 0.880710 0.589900
O O2 0.438844 0.744094 0.616140
O O3 0.992325 0.807137 0.270859
O O4 0.455637 0.807397 0.782745
O O5 0.876041 0.066705 0.526982
O O6 0.877225 0.016817 0.709886
O O7 0.519187 0.993388 0.267048
O O8 0.407167 0.611732 0.573239
O O9 0.160585 0.675321 0.481437
O O10 0.694882 0.664545 0.967094
O O11 0.791991 0.901568 0.711343
O O12 0.500000 0.000000 0.500000
O O13 0.000000 0.000000 0.000000
O O14 0.200658 0.046604 0.645230
O O15 0.289399 0.133141 0.852435
O O16 0.326372 0.008154 0.927242
O O17 0.715922 0.766957 0.635496
#
# Coordination Sequence:
#
# PCOD9243403 Si02
#       8
#     4   4   4   4   4   4   4   4
#     4   9  19  35  62  87 117 165 211 240 315 372
#     4  11  22  41  65  86 134 169 206 273 321 377
#     4  10  20  37  63  93 121 168 204 252 308 385
#     4  12  27  42  65  95 122 165 226 271 316 374
#     4  10  22  37  62  97 127 165 210 249 325 392
#     4  11  21  36  63  97 128 166 206 258 318 394
#     4   9  18  36  60  88 120 165 201 252 305 379
#     4  10  20  40  65  83 124 166 208 255 322 355
#
# _framework density 22.713698999999998
#
# number of rings (size 3 to 8) (size 9 to 14) (size 15 to 20)
#    0.000    1.750    2.500    1.875    1.750    0.000 
#    2.250    0.000    0.000    0.000    0.000    0.000 
#    0.000    0.000    0.000    0.000    0.000    0.000 
#
# Total GULP energy -178510.689324 kJ/mol
# GULP energy per Si atom -5578.459041 kJ/mol
# Density = 2.266200 g / cm^3
# Si number density = 22.713699 Si / 1000 Ang^3
#
#
#
# Elastic Constant Matrix: (Units=GPa)
#
#
# Indices 1 2 3 4 5 6 
#
# 1 40.3648 38.8443 15.5901 0.0000 -5.4797 0.0000
# 2 38.8443 230.8701 17.6658 0.0000 -25.4475 0.0000
# 3 15.5901 17.6658 94.4629 0.0000 -4.9913 0.0000
# 4 0.0000 0.0000 0.0000 29.8292 0.0000 0.8798
# 5 -5.4797 -25.4475 -4.9913 0.0000 25.5837 0.0000
# 6 0.0000 0.0000 0.0000 0.8798 0.0000 8.4850
#
#
#
# Elastic Compliance Matrix: (Units=1/GPa)
#
#
# Indices 1 2 3 4 5 6 
#
# 1 0.031160 -0.004803 -0.004187 0.000000 0.001079 0.000000
# 2 -0.004803 0.005646 -0.000021 0.000000 0.004583 0.000000
# 3 -0.004187 -0.000021 0.011350 0.000000 0.001296 0.000000
# 4 0.000000 0.000000 0.000000 0.033627 0.000000 -0.003487
# 5 0.001079 0.004583 0.001296 0.000000 0.044130 0.000000
# 6 0.000000 0.000000 0.000000 -0.003487 0.000000 0.118216
#
#
# Mechanical properties :
#
#
# Convention : Reuss Voigt Hill
#
# Bulk Modulus (GPa) = 33.18632 56.65535 44.92084
# Shear Modulus (GPa) = 18.36901 32.35277 25.36089
#
# Velocity S-wave (km/s) = 2.84688 3.77818 3.34510
# Velocity P-wave (km/s) = 5.04468 6.63553 5.89402
#
# Compressibility (1/GPa) = 0.03013290
#
# Stress axis : x y z
#
# Youngs Moduli (GPa) = 32.09211 177.10299 88.10817
#
# Poissons Ratio (x) = 0.85069 0.36894
# Poissons Ratio (y) = 0.15415 0.00185
# Poissons Ratio (z) = 0.13438 0.00372
#
# Static dielectric constant tensor:
#      x y z
#    x 1.868000 0.000000 0.048220 
#    y 0.000000 1.965300 0.000000 
#    z 0.048220 0.000000 1.839290 
# 
# From -- ./inp_files/47674.got.cif
#   From: 2010.05.17/outbox.cif.g08.bks.cpg/sg14_24_cif.got.tgz:47674.got - 2010.06.03 17:49:19.
