data_PCOD9243529
_publ_section_title
;
Structure prediction by ZEFSAII (Michael W. Deem and Ramdas Pophale) SiO2 
 PCOD9243529
Probable space group: P 21/C
;
_chemical_formula_sum "Si O2"
_cell_formula_units_Z 32
_cell_length_a 20.255310
_cell_length_b 8.302525
_cell_length_c 14.362375
_cell_angle_alpha 90.000000
_cell_angle_beta 138.744586
_cell_angle_gamma 90.000000
_cell_volume 1592.705178
_symmetry_space_group_name_H-M "P 21/C"
_symmetry_group_IT_number 14
_symmetry_cell_setting 'monoclinic'
loop_
_space_group_symop_operation_xyz
x,y,z
-x,1/2+y,1/2-z
-x,-y,-z
x,1/2-y,1/2+z
loop_
_atom_site_type_symbol
_atom_site_label
_atom_site_fract_x
_atom_site_fract_y
_atom_site_fract_z
Si Si1 0.217601 0.039492 0.564784
Si Si2 0.177653 0.293493 0.356813
Si Si3 0.557135 0.611534 0.698405
Si Si4 0.598444 0.645935 0.401123
Si Si5 0.791027 0.816209 0.810639
Si Si6 0.028747 0.482065 0.420936
Si Si7 0.034710 0.680115 0.820825
Si Si8 0.562543 0.658621 0.044328
O O1 0.191751 0.167377 0.455881
O O2 0.337655 0.012243 0.687976
O O3 0.201992 0.133973 0.644542
O O4 0.136029 0.900531 0.466014
O O5 0.282865 0.388049 0.463296
O O6 0.173024 0.189581 0.257238
O O7 0.074056 0.389114 0.260329
O O8 0.469266 0.506700 0.648637
O O9 0.577298 0.772372 0.780099
O O10 0.530392 0.683891 0.569283
O O11 0.568316 0.783971 0.443989
O O12 0.677421 0.871485 0.694040
O O13 0.857867 0.922463 0.948470
O O14 0.026647 0.642969 0.356888
O O15 0.000000 0.500000 0.500000
O O16 0.969700 0.349517 0.295632
O O17 0.500000 0.500000 0.000000
#
# Coordination Sequence:
#
# PCOD9243529 Si02
#       8
#     4   4   4   4   4   4   4   4
#     4  10  21  39  58  86 120 158 203 252 305 368
#     4  10  20  38  60  81 123 159 200 245 314 360
#     4  10  21  39  61  86 122 158 202 253 310 366
#     4  10  21  38  60  86 119 160 199 253 308 368
#     4  10  20  39  60  84 120 165 194 251 318 361
#     4  12  23  41  64  91 125 161 209 258 307 378
#     4  12  22  40  63  90 124 163 205 255 309 371
#     4  10  21  37  64  86 119 158 202 255 309 371
#
# _framework density 20.091602000000002
#
# number of rings (size 3 to 8) (size 9 to 14) (size 15 to 20)
#    0.000    1.500    3.750    1.125    0.000    1.500 
#    4.500    0.000    0.000    0.000    0.000    0.000 
#    0.000    0.000    0.000    0.000    0.000    0.000 
#
# Total GULP energy -178373.178863 kJ/mol
# GULP energy per Si atom -5574.161839 kJ/mol
# Density = 2.004587 g / cm^3
# Si number density = 20.091602 Si / 1000 Ang^3
#
#
#
# Elastic Constant Matrix: (Units=GPa)
#
#
# Indices 1 2 3 4 5 6 
#
# 1 82.6413 34.0345 19.6797 0.0000 0.4994 0.0000
# 2 34.0345 51.8075 35.3323 0.0000 8.7504 0.0000
# 3 19.6797 35.3323 70.1294 0.0000 4.0430 0.0000
# 4 0.0000 0.0000 0.0000 35.8877 0.0000 7.3690
# 5 0.4994 8.7504 4.0430 0.0000 46.4368 0.0000
# 6 0.0000 0.0000 0.0000 7.3690 0.0000 26.9946
#
#
#
# Elastic Compliance Matrix: (Units=1/GPa)
#
#
# Indices 1 2 3 4 5 6 
#
# 1 0.016846 -0.012348 0.001377 0.000000 0.002026 0.000000
# 2 -0.012348 0.039326 -0.016009 0.000000 -0.005884 0.000000
# 3 0.001377 -0.016009 0.021875 0.000000 0.001097 0.000000
# 4 0.000000 0.000000 0.000000 0.029519 0.000000 -0.008058
# 5 0.002026 -0.005884 0.001097 0.000000 0.022526 0.000000
# 6 0.000000 0.000000 0.000000 -0.008058 0.000000 0.039244
#
#
# Mechanical properties :
#
#
# Convention : Reuss Voigt Hill
#
# Bulk Modulus (GPa) = 41.51543 42.51902 42.01722
# Shear Modulus (GPa) = 21.61474 29.56595 25.59034
#
# Velocity S-wave (km/s) = 3.28351 3.84025 3.57274
# Velocity P-wave (km/s) = 5.92311 6.39311 6.16259
#
# Compressibility (1/GPa) = 0.02408743
#
# Stress axis : x y z
#
# Youngs Moduli (GPa) = 59.36279 25.42876 45.71419
#
# Poissons Ratio (x) = 0.31399 -0.06295
# Poissons Ratio (y) = 0.73300 0.73182
# Poissons Ratio (z) = -0.08175 0.40708
#
# Static dielectric constant tensor:
#      x y z
#    x 1.753600 0.000000 0.009060 
#    y 0.000000 1.719740 0.000000 
#    z 0.009060 0.000000 1.733750 
# 
# From -- ./inp_files/50097.got.cif
#   From: 2010.05.17/outbox.cif.g08.bks.cpg/sg14_26_cif.got.tgz:50097.got - 2010.06.03 17:49:19.
