data_PCOD9243752
_publ_section_title
;
Structure prediction by ZEFSAII (Michael W. Deem and Ramdas Pophale) SiO2 
 PCOD9243752
Probable space group: P 21/C
;
_chemical_formula_sum "Si O2"
_cell_formula_units_Z 26
_cell_length_a 18.374857
_cell_length_b 12.188021
_cell_length_c 13.907702
_cell_angle_alpha 90.000000
_cell_angle_beta 19.131630
_cell_angle_gamma 90.000000
_cell_volume 1020.801578
_symmetry_space_group_name_H-M "P 21/C"
_symmetry_group_IT_number 14
_symmetry_cell_setting 'monoclinic'
loop_
_space_group_symop_operation_xyz
x,y,z
-x,1/2+y,1/2-z
-x,-y,-z
x,1/2-y,1/2+z
loop_
_atom_site_type_symbol
_atom_site_label
_atom_site_fract_x
_atom_site_fract_y
_atom_site_fract_z
Si Si1 0.500000 0.500000 0.500000
Si Si2 0.351955 0.097175 0.851292
Si Si3 0.013511 0.280144 0.566287
Si Si4 0.775129 0.145884 0.000430
Si Si5 0.290917 0.298244 0.045360
Si Si6 0.358111 0.750776 0.134354
Si Si7 0.764517 0.475351 0.970920
O O1 0.549136 0.374029 0.478992
O O2 0.674485 0.476217 0.191228
O O3 0.455947 0.163687 0.633298
O O4 0.553596 0.059995 0.668746
O O5 0.231972 0.984155 0.976799
O O6 0.225730 0.187112 0.072695
O O7 0.835271 0.261150 0.703587
O O8 0.233778 0.289027 0.228948
O O9 0.986223 0.180435 0.673865
O O10 0.947259 0.386308 0.710844
O O11 0.556493 0.181939 0.210772
O O12 0.740210 0.211378 0.141717
O O13 0.177125 0.403748 0.140303
#
# Coordination Sequence:
#
# PCOD9243752 Si02
#       7
#     2   4   4   4   4   4   4
#     4  12  18  36  72  90 118 174 216 258 310 390
#     4  10  20  39  62  90 123 170 204 261 330 377
#     4  11  23  41  62  95 131 163 214 273 318 380
#     4  11  22  41  64  88 127 168 214 260 321 393
#     4  11  21  41  65  88 128 171 210 266 329 375
#     4  11  21  40  63  92 126 165 213 265 317 384
#     4  10  20  38  64  93 124 166 216 261 319 382
#
# _framework density 25.470179999999999
#
# number of rings (size 3 to 8) (size 9 to 14) (size 15 to 20)
#    0.000    1.231    6.154    1.846    0.000    0.615 
#    2.769    1.538    0.000    0.000    0.000    0.000 
#    0.000    0.000    0.000    0.000    0.000    0.000 
#
# Total GULP energy -145261.100062 kJ/mol
# GULP energy per Si atom -5586.965387 kJ/mol
# Density = 2.541221 g / cm^3
# Si number density = 25.470180 Si / 1000 Ang^3
#
#
#
# Elastic Constant Matrix: (Units=GPa)
#
#
# Indices 1 2 3 4 5 6 
#
# 1 74.5157 42.6299 23.2761 0.0000 10.2217 0.0000
# 2 42.6299 198.6171 29.6214 0.0000 5.9755 0.0000
# 3 23.2761 29.6214 117.4179 0.0000 30.2556 0.0000
# 4 0.0000 0.0000 0.0000 39.0489 0.0000 12.6465
# 5 10.2217 5.9755 30.2556 0.0000 40.6988 0.0000
# 6 0.0000 0.0000 0.0000 12.6465 0.0000 37.6634
#
#
#
# Elastic Compliance Matrix: (Units=1/GPa)
#
#
# Indices 1 2 3 4 5 6 
#
# 1 0.016076 -0.003111 -0.001830 0.000000 -0.002220 0.000000
# 2 -0.003111 0.005836 -0.001034 0.000000 0.000693 0.000000
# 3 -0.001830 -0.001034 0.011111 0.000000 -0.007649 0.000000
# 4 0.000000 0.000000 0.000000 0.028734 0.000000 -0.009648
# 5 -0.002220 0.000693 -0.007649 0.000000 0.030713 0.000000
# 6 0.000000 0.000000 0.000000 -0.009648 0.000000 0.029791
#
#
# Mechanical properties :
#
#
# Convention : Reuss Voigt Hill
#
# Bulk Modulus (GPa) = 47.45367 64.62281 56.03824
# Shear Modulus (GPa) = 35.40239 43.15043 39.27641
#
# Velocity S-wave (km/s) = 3.73225 4.12048 3.93116
# Velocity P-wave (km/s) = 6.10283 6.93288 6.53105
#
# Compressibility (1/GPa) = 0.02107318
#
# Stress axis : x y z
#
# Youngs Moduli (GPa) = 62.20538 171.35434 90.00024
#
# Poissons Ratio (x) = 0.53303 0.16469
# Poissons Ratio (y) = 0.19350 0.09308
# Poissons Ratio (z) = 0.11383 0.17722
#
# Static dielectric constant tensor:
#      x y z
#    x 2.063400 0.000000 -0.097450 
#    y 0.000000 1.967990 0.000000 
#    z -0.097450 0.000000 1.986080 
# 
# From -- ./inp_files/51461.got.cif
#   From: 2010.05.17/outbox.cif.g08.bks.cpg/sg14_26_cif.got.tgz:51461.got - 2010.06.03 17:49:19.
