data_PCOD9243735
_publ_section_title
;
Structure prediction by ZEFSAII (Michael W. Deem and Ramdas Pophale) SiO2 
 PCOD9243735
Probable space group: P 21/C
;
_chemical_formula_sum "Si O2"
_cell_formula_units_Z 28
_cell_length_a 15.099438
_cell_length_b 8.967140
_cell_length_c 9.680681
_cell_angle_alpha 90.000000
_cell_angle_beta 64.586251
_cell_angle_gamma 90.000000
_cell_volume 1183.913903
_symmetry_space_group_name_H-M "P 21/C"
_symmetry_group_IT_number 14
_symmetry_cell_setting 'monoclinic'
loop_
_space_group_symop_operation_xyz
x,y,z
-x,1/2+y,1/2-z
-x,-y,-z
x,1/2-y,1/2+z
loop_
_atom_site_type_symbol
_atom_site_label
_atom_site_fract_x
_atom_site_fract_y
_atom_site_fract_z
Si Si1 0.708796 0.931969 0.462759
Si Si2 0.544086 0.247175 0.743853
Si Si3 0.500000 0.500000 0.000000
Si Si4 0.692496 0.040902 0.034920
Si Si5 0.093653 0.621564 0.586088
Si Si6 0.500000 0.500000 0.500000
Si Si7 0.658529 0.753418 0.248429
Si Si8 0.906588 0.409938 0.735985
O O1 0.698020 0.783360 0.373699
O O2 0.700163 0.876246 0.625619
O O3 0.615270 0.027709 0.476421
O O4 0.810244 0.007823 0.357228
O O5 0.650051 0.302234 0.624626
O O6 0.462589 0.254502 0.671031
O O7 0.511216 0.376289 0.870298
O O8 0.524529 0.096928 0.839112
O O9 0.615513 0.009045 0.966188
O O10 0.681977 0.908647 0.153984
O O11 0.805082 0.056495 0.921525
O O12 0.072638 0.773674 0.677717
O O13 0.111193 0.639890 0.410293
O O14 0.001094 0.515368 0.668550
#
# Coordination Sequence:
#
# PCOD9243735 Si02
#       8
#     4   4   2   4   4   2   4   4
#     4  11  23  44  69 105 147 191 239 302 371 434
#     4  10  22  38  62  94 142 182 236 282 361 420
#     4  10  20  38  64  90 140 188 228 286 352 430
#     4  11  23  43  67 101 145 196 235 303 355 447
#     4  11  27  49  80 106 146 191 252 308 379 431
#     4  10  26  38  66 104 140 186 238 292 352 446
#     4  10  23  40  67 103 143 194 231 299 357 437
#     4  11  27  52  75 109 143 194 245 318 368 445
#
# _framework density 23.650366999999999
#
# number of rings (size 3 to 8) (size 9 to 14) (size 15 to 20)
#    0.000    1.429    2.857    0.000   12.000    0.571 
#    5.143    0.000    0.000    0.000    0.000    0.000 
#    0.000    0.000    0.000    0.000    0.000    0.000 
#
# Total GULP energy -155953.248463 kJ/mol
# GULP energy per Si atom -5569.758874 kJ/mol
# Density = 2.359654 g / cm^3
# Si number density = 23.650367 Si / 1000 Ang^3
#
#
#
# Elastic Constant Matrix: (Units=GPa)
#
#
# Indices 1 2 3 4 5 6 
#
# 1 122.9345 39.1169 55.5417 0.0000 -10.3460 0.0000
# 2 39.1169 81.1400 42.0365 0.0000 -3.6577 0.0000
# 3 55.5417 42.0365 92.8920 0.0000 -15.2993 0.0000
# 4 0.0000 0.0000 0.0000 17.3288 0.0000 -8.2858
# 5 -10.3460 -3.6577 -15.2993 0.0000 41.4148 0.0000
# 6 0.0000 0.0000 0.0000 -8.2858 0.0000 34.2314
#
#
#
# Elastic Compliance Matrix: (Units=1/GPa)
#
#
# Indices 1 2 3 4 5 6 
#
# 1 0.011563 -0.002633 -0.005627 0.000000 0.000577 0.000000
# 2 -0.002633 0.016770 -0.006260 0.000000 -0.001489 0.000000
# 3 -0.005627 -0.006260 0.017718 0.000000 0.004587 0.000000
# 4 0.000000 0.000000 0.000000 0.065260 0.000000 0.015796
# 5 0.000577 -0.001489 0.004587 0.000000 0.025853 0.000000
# 6 0.000000 0.000000 0.000000 0.015796 0.000000 0.033037
#
#
# Mechanical properties :
#
#
# Convention : Reuss Voigt Hill
#
# Bulk Modulus (GPa) = 58.78627 63.37296 61.07962
# Shear Modulus (GPa) = 24.40084 29.27975 26.84029
#
# Velocity S-wave (km/s) = 3.21554 3.52238 3.37245
# Velocity P-wave (km/s) = 6.22066 6.58762 6.40677
#
# Compressibility (1/GPa) = 0.01701077
#
# Stress axis : x y z
#
# Youngs Moduli (GPa) = 86.48113 59.63156 56.44017
#
# Poissons Ratio (x) = 0.15702 0.31760
# Poissons Ratio (y) = 0.22772 0.35329
# Poissons Ratio (z) = 0.48664 0.37327
#
# Static dielectric constant tensor:
#      x y z
#    x 1.832140 0.000000 0.072780 
#    y 0.000000 1.728730 0.000000 
#    z 0.072780 0.000000 1.845760 
# 
# From -- ./inp_files/31511.got.cif
#   From: 2010.05.17/outbox.cif.g08.bks.cpg/sg14_16_cif.got.tgz:31511.got - 2010.06.03 17:49:19.
