data_PCOD9243333
_publ_section_title
;
Structure prediction by ZEFSAII (Michael W. Deem and Ramdas Pophale) SiO2 
 PCOD9243333
Probable space group: P 21/C
;
_chemical_formula_sum "Si O2"
_cell_formula_units_Z 28
_cell_length_a 5.254486
_cell_length_b 12.393465
_cell_length_c 20.137632
_cell_angle_alpha 90.000000
_cell_angle_beta 96.503711
_cell_angle_gamma 90.000000
_cell_volume 1302.949127
_symmetry_space_group_name_H-M "P 21/C"
_symmetry_group_IT_number 14
_symmetry_cell_setting 'monoclinic'
loop_
_space_group_symop_operation_xyz
x,y,z
-x,1/2+y,1/2-z
-x,-y,-z
x,1/2-y,1/2+z
loop_
_atom_site_type_symbol
_atom_site_label
_atom_site_fract_x
_atom_site_fract_y
_atom_site_fract_z
Si Si1 0.439274 0.142536 0.645717
Si Si2 0.488727 0.399086 0.894692
Si Si3 0.979949 0.261301 0.205493
Si Si4 0.783021 0.899814 0.043441
Si Si5 0.575139 0.227126 0.515652
Si Si6 0.969092 0.275283 0.859913
Si Si7 0.038185 0.882741 0.913786
O O1 0.189813 0.156595 0.682846
O O2 0.399582 0.201782 0.573754
O O3 0.690182 0.198164 0.684778
O O4 0.496587 0.019302 0.631025
O O5 0.195834 0.358389 0.886432
O O6 0.687151 0.325711 0.858714
O O7 0.596754 0.378920 0.972138
O O8 0.017458 0.249743 0.284577
O O9 0.030793 0.152224 0.162930
O O10 0.989071 0.828116 0.090691
O O11 0.768416 0.015263 0.078498
O O12 0.539399 0.821747 0.033564
O O13 0.843770 0.916686 0.966687
O O14 0.831581 0.275079 0.553277
#
# Coordination Sequence:
#
# PCOD9243333 Si02
#       7
#     4   4   4   4   4   4   4
#     4  11  23  40  65  91 125 164 207 253 314 373
#     4  11  23  40  65  91 125 164 207 253 314 373
#     4  11  24  43  62  92 128 165 207 263 308 373
#     4  10  20  37  61  88 120 163 209 257 309 366
#     4  10  20  38  60  94 124 160 204 266 306 370
#     4  11  24  43  62  92 128 165 207 263 308 373
#     4  10  20  37  61  88 120 163 209 257 309 366
#
# _framework density 21.489711
#
# number of rings (size 3 to 8) (size 9 to 14) (size 15 to 20)
#    0.000    1.429    2.857    2.571    0.000    2.286 
#    0.000    4.286    0.000    0.000    0.000    0.000 
#    0.000    0.000    0.000    0.000    0.000    0.000 
#
# Total GULP energy -156210.290079 kJ/mol
# GULP energy per Si atom -5578.938931 kJ/mol
# Density = 2.144080 g / cm^3
# Si number density = 21.489711 Si / 1000 Ang^3
#
#
#
# Elastic Constant Matrix: (Units=GPa)
#
#
# Indices 1 2 3 4 5 6 
#
# 1 53.7638 4.5826 3.5075 0.0000 -7.2361 0.0000
# 2 4.5826 59.9547 12.2429 0.0000 9.4819 0.0000
# 3 3.5075 12.2429 90.2079 0.0000 -9.2650 0.0000
# 4 0.0000 0.0000 0.0000 7.7382 0.0000 -3.5006
# 5 -7.2361 9.4819 -9.2650 0.0000 24.8814 0.0000
# 6 0.0000 0.0000 0.0000 -3.5006 0.0000 20.2171
#
#
#
# Elastic Compliance Matrix: (Units=1/GPa)
#
#
# Indices 1 2 3 4 5 6 
#
# 1 0.019730 -0.002654 0.000298 0.000000 0.006860 0.000000
# 2 -0.002654 0.019058 -0.003440 0.000000 -0.009315 0.000000
# 3 0.000298 -0.003440 0.012149 0.000000 0.005921 0.000000
# 4 0.000000 0.000000 0.000000 0.140211 0.000000 0.024278
# 5 0.006860 -0.009315 0.005921 0.000000 0.047941 0.000000
# 6 0.000000 0.000000 0.000000 0.024278 0.000000 0.053667
#
#
# Mechanical properties :
#
#
# Convention : Reuss Voigt Hill
#
# Bulk Modulus (GPa) = 25.41663 27.17692 26.29677
# Shear Modulus (GPa) = 15.74987 22.80689 19.27838
#
# Velocity S-wave (km/s) = 2.71016 3.26128 2.99841
# Velocity P-wave (km/s) = 4.65256 5.18220 4.92451
#
# Compressibility (1/GPa) = 0.03934432
#
# Stress axis : x y z
#
# Youngs Moduli (GPa) = 50.68431 52.47195 82.31141
#
# Poissons Ratio (x) = 0.13925 -0.02450
# Poissons Ratio (y) = 0.13450 0.28316
# Poissons Ratio (z) = -0.01508 0.18051
#
# Static dielectric constant tensor:
#      x y z
#    x 1.816880 0.000000 -0.010860 
#    y 0.000000 1.810560 0.000000 
#    z -0.010860 0.000000 1.808110 
# 
# From -- ./inp_files/63321.got.cif
#   From: 2010.05.17/outbox.cif.g08.bks.cpg/sg14_32_cif.got.tgz:63321.got - 2010.06.03 17:49:19.
