data_PCOD9243247
_publ_section_title
;
Structure prediction by ZEFSAII (Michael W. Deem and Ramdas Pophale) SiO2 
 PCOD9243247
Probable space group: P 21/C
;
_chemical_formula_sum "Si O2"
_cell_formula_units_Z 32
_cell_length_a 21.270309
_cell_length_b 14.215843
_cell_length_c 15.233708
_cell_angle_alpha 90.000000
_cell_angle_beta 18.500589
_cell_angle_gamma 90.000000
_cell_volume 1461.644755
_symmetry_space_group_name_H-M "P 21/C"
_symmetry_group_IT_number 14
_symmetry_cell_setting 'monoclinic'
loop_
_space_group_symop_operation_xyz
x,y,z
-x,1/2+y,1/2-z
-x,-y,-z
x,1/2-y,1/2+z
loop_
_atom_site_type_symbol
_atom_site_label
_atom_site_fract_x
_atom_site_fract_y
_atom_site_fract_z
Si Si1 0.778793 0.072181 0.710033
Si Si2 0.490321 0.243813 0.822436
Si Si3 0.600000 0.062665 0.262139
Si Si4 0.006384 0.656022 0.742275
Si Si5 0.144588 0.859227 0.575951
Si Si6 0.593655 0.699554 0.256612
Si Si7 0.285679 0.387977 0.319277
Si Si8 0.875986 0.636225 0.117898
O O1 0.821390 0.071276 0.549787
O O2 0.952268 0.122320 0.536921
O O3 0.767097 0.965060 0.757572
O O4 0.581335 0.131962 0.983596
O O5 0.561339 0.351837 0.746383
O O6 0.661666 0.172183 0.627570
O O7 0.457995 0.244536 0.762299
O O8 0.285558 0.213870 0.140823
O O9 0.408907 0.070639 0.576144
O O10 0.649413 0.952784 0.182525
O O11 0.808945 0.093087 0.029052
O O12 0.070952 0.761029 0.630563
O O13 0.794232 0.639394 0.980159
O O14 0.972570 0.651805 0.893321
O O15 0.948627 0.890367 0.886720
O O16 0.642955 0.781221 0.261095
#
# Coordination Sequence:
#
# PCOD9243247 Si02
#       8
#     4   4   4   4   4   4   4   4
#     4  11  23  39  62  92 124 159 203 255 309 364
#     4  11  23  38  60  89 122 158 198 249 306 365
#     4  10  21  39  61  84 115 157 203 248 298 358
#     4  10  20  37  59  85 119 157 197 242 298 359
#     4  10  20  37  59  85 119 157 197 242 298 359
#     4  11  23  38  60  89 122 158 198 249 306 365
#     4  10  21  39  61  84 115 157 203 248 298 358
#     4  11  23  39  62  92 124 159 203 255 309 364
#
# _framework density 21.893145000000001
#
# number of rings (size 3 to 8) (size 9 to 14) (size 15 to 20)
#    0.000    1.500    0.000    7.500    0.000    6.000 
#    0.000    0.000    0.000    3.750    0.000    0.000 
#    0.000    0.000    0.000    0.000    0.000    0.000 
#
# Total GULP energy -178578.451918 kJ/mol
# GULP energy per Si atom -5580.576622 kJ/mol
# Density = 2.184332 g / cm^3
# Si number density = 21.893145 Si / 1000 Ang^3
#
#
#
# Elastic Constant Matrix: (Units=GPa)
#
#
# Indices 1 2 3 4 5 6 
#
# 1 53.5775 -15.6011 4.1544 0.0000 -11.5608 0.0000
# 2 -15.6011 70.4014 6.5066 0.0000 -11.0335 0.0000
# 3 4.1544 6.5066 121.3666 0.0000 -16.9400 0.0000
# 4 0.0000 0.0000 0.0000 15.9333 0.0000 0.8843
# 5 -11.5608 -11.0335 -16.9400 0.0000 21.9799 0.0000
# 6 0.0000 0.0000 0.0000 0.8843 0.0000 22.3886
#
#
#
# Elastic Compliance Matrix: (Units=1/GPa)
#
#
# Indices 1 2 3 4 5 6 
#
# 1 0.024899 0.008255 0.001245 0.000000 0.018200 0.000000
# 2 0.008255 0.018163 0.000697 0.000000 0.013996 0.000000
# 3 0.001245 0.000697 0.009300 0.000000 0.008173 0.000000
# 4 0.000000 0.000000 0.000000 0.062900 0.000000 -0.002484
# 5 0.018200 0.013996 0.008173 0.000000 0.068393 0.000000
# 6 0.000000 0.000000 0.000000 -0.002484 0.000000 0.044764
#
#
# Mechanical properties :
#
#
# Convention : Reuss Voigt Hill
#
# Bulk Modulus (GPa) = 13.74447 26.16281 19.95364
# Shear Modulus (GPa) = 21.52618 28.74607 25.13613
#
# Velocity S-wave (km/s) = 3.13907 3.62749 3.39208
# Velocity P-wave (km/s) = 4.40794 5.43333 4.94727
#
# Compressibility (1/GPa) = 0.07275653
#
# Stress axis : x y z
#
# Youngs Moduli (GPa) = 40.16275 55.05803 107.52427
#
# Poissons Ratio (x) = -0.45449 -0.13391
# Poissons Ratio (y) = -0.33153 -0.07498
# Poissons Ratio (z) = -0.05002 -0.03839
#
# Static dielectric constant tensor:
#      x y z
#    x 1.815370 0.000000 0.005660 
#    y 0.000000 1.885640 0.000000 
#    z 0.005660 0.000000 1.811650 
# 
# From -- ./inp_files/50690.got.cif
#   From: 2010.05.17/outbox.cif.g08.bks.cpg/sg14_26_cif.got.tgz:50690.got - 2010.06.03 17:49:19.
