data_PCOD9243887
_publ_section_title
;
Structure prediction by ZEFSAII (Michael W. Deem and Ramdas Pophale) SiO2 
 PCOD9243887
Probable space group: P 21/C
;
_chemical_formula_sum "Si O2"
_cell_formula_units_Z 32
_cell_length_a 11.019973
_cell_length_b 14.694271
_cell_length_c 9.652124
_cell_angle_alpha 90.000000
_cell_angle_beta 104.354958
_cell_angle_gamma 90.000000
_cell_volume 1514.174401
_symmetry_space_group_name_H-M "P 21/C"
_symmetry_group_IT_number 14
_symmetry_cell_setting 'monoclinic'
loop_
_space_group_symop_operation_xyz
x,y,z
-x,1/2+y,1/2-z
-x,-y,-z
x,1/2-y,1/2+z
loop_
_atom_site_type_symbol
_atom_site_label
_atom_site_fract_x
_atom_site_fract_y
_atom_site_fract_z
Si Si1 0.057197 0.980466 0.669329
Si Si2 0.550128 0.767263 0.714509
Si Si3 0.309006 0.840286 0.088375
Si Si4 0.601094 0.579892 0.038959
Si Si5 0.808309 0.469674 0.222733
Si Si6 0.311715 0.409457 0.245604
Si Si7 0.426480 0.910448 0.838762
Si Si8 0.214738 0.852983 0.566895
O O1 0.175449 0.046544 0.735768
O O2 0.948870 0.992491 0.750747
O O3 0.111389 0.880670 0.652116
O O4 0.000000 0.000000 0.500000
O O5 0.431051 0.700329 0.702892
O O6 0.540804 0.826470 0.571664
O O7 0.662950 0.696544 0.718779
O O8 0.544502 0.845118 0.834084
O O9 0.234052 0.912946 0.156853
O O10 0.222524 0.752784 0.040823
O O11 0.359901 0.876969 0.958093
O O12 0.707468 0.549427 0.176270
O O13 0.500000 0.500000 0.000000
O O14 0.668957 0.587649 0.913107
O O15 0.795436 0.405687 0.081507
O O16 0.417788 0.479106 0.338007
O O17 0.338815 0.886956 0.681541
#
# Coordination Sequence:
#
# PCOD9243887 Si02
#       8
#     4   4   4   4   4   4   4   4
#     4   9  18  39  65  87 117 165 215 255 313 372
#     4  11  23  36  61  94 125 165 215 264 326 388
#     4  11  22  36  59  95 126 153 211 264 316 383
#     4  12  20  39  65  89 120 167 215 262 316 389
#     4  11  21  39  64  90 118 164 215 254 315 392
#     4  11  21  41  63  87 129 168 210 268 322 381
#     4  10  20  39  60  88 128 167 200 265 330 373
#     4   9  17  37  63  85 114 162 212 254 302 372
#
# _framework density 21.133628999999999
#
# number of rings (size 3 to 8) (size 9 to 14) (size 15 to 20)
#    0.000    1.500    5.000    3.750    0.000    0.500 
#    4.500    2.500    0.000    0.000    0.000    0.000 
#    0.000    0.000    0.000    0.000    0.000    0.000 
#
# Total GULP energy -178391.041994 kJ/mol
# GULP energy per Si atom -5574.720062 kJ/mol
# Density = 2.108553 g / cm^3
# Si number density = 21.133629 Si / 1000 Ang^3
#
#
#
# Elastic Constant Matrix: (Units=GPa)
#
#
# Indices 1 2 3 4 5 6 
#
# 1 101.3183 43.4926 22.2699 0.0000 -23.2677 0.0000
# 2 43.4926 114.1330 37.0783 0.0000 -13.9246 0.0000
# 3 22.2699 37.0783 63.7904 0.0000 -29.0228 0.0000
# 4 0.0000 0.0000 0.0000 34.6361 0.0000 -4.3899
# 5 -23.2677 -13.9246 -29.0228 0.0000 33.3538 0.0000
# 6 0.0000 0.0000 0.0000 -4.3899 0.0000 31.9371
#
#
#
# Elastic Compliance Matrix: (Units=1/GPa)
#
#
# Indices 1 2 3 4 5 6 
#
# 1 0.013598 -0.004791 0.002389 0.000000 0.009565 0.000000
# 2 -0.004791 0.012540 -0.007871 0.000000 -0.004956 0.000000
# 3 0.002389 -0.007871 0.030923 0.000000 0.025288 0.000000
# 4 0.000000 0.000000 0.000000 0.029384 0.000000 0.004039
# 5 0.009565 -0.004956 0.025288 0.000000 0.056590 0.000000
# 6 0.000000 0.000000 0.000000 0.004039 0.000000 0.031867
#
#
# Mechanical properties :
#
#
# Convention : Reuss Voigt Hill
#
# Bulk Modulus (GPa) = 27.38604 53.88036 40.63320
# Shear Modulus (GPa) = 24.08275 31.74545 27.91410
#
# Velocity S-wave (km/s) = 3.37938 3.87994 3.63828
# Velocity P-wave (km/s) = 5.31165 6.75443 6.07601
#
# Compressibility (1/GPa) = 0.03651495
#
# Stress axis : x y z
#
# Youngs Moduli (GPa) = 73.54076 79.74582 32.33869
#
# Poissons Ratio (x) = 0.38206 -0.07727
# Poissons Ratio (y) = 0.35234 0.25454
# Poissons Ratio (z) = -0.17572 0.62769
#
# Static dielectric constant tensor:
#      x y z
#    x 1.838470 0.000000 0.040590 
#    y 0.000000 2.210920 0.000000 
#    z 0.040590 0.000000 1.784790 
# 
# From -- ./inp_files/13344.got.cif
#   From: 2010.05.17/outbox.cif.g08.bks.cpg/sg14_7_cif.got.tgz:13344.got - 2010.06.03 17:49:19.
