data_PCOD9243889
_publ_section_title
;
Structure prediction by ZEFSAII (Michael W. Deem and Ramdas Pophale) SiO2 
 PCOD9243889
Probable space group: P 21/C
;
_chemical_formula_sum "Si O2"
_cell_formula_units_Z 28
_cell_length_a 16.197532
_cell_length_b 8.088119
_cell_length_c 15.284019
_cell_angle_alpha 90.000000
_cell_angle_beta 35.435994
_cell_angle_gamma 90.000000
_cell_volume 1160.932622
_symmetry_space_group_name_H-M "P 21/C"
_symmetry_group_IT_number 14
_symmetry_cell_setting 'monoclinic'
loop_
_space_group_symop_operation_xyz
x,y,z
-x,1/2+y,1/2-z
-x,-y,-z
x,1/2-y,1/2+z
loop_
_atom_site_type_symbol
_atom_site_label
_atom_site_fract_x
_atom_site_fract_y
_atom_site_fract_z
Si Si1 0.724156 0.770529 0.020350
Si Si2 0.399603 0.672194 0.144996
Si Si3 0.828293 0.419704 0.109594
Si Si4 0.523087 0.041706 0.686064
Si Si5 0.010746 0.335130 0.118254
Si Si6 0.288424 0.725664 0.573419
Si Si7 0.686674 0.869406 0.871326
O O1 0.634953 0.601813 0.113321
O O2 0.604607 0.909130 0.140119
O O3 0.860261 0.781703 0.965086
O O4 0.771401 0.784491 0.878281
O O5 0.443526 0.520239 0.166713
O O6 0.308956 0.642364 0.135520
O O7 0.304502 0.798164 0.285114
O O8 0.544972 0.761954 0.989698
O O9 0.766803 0.585342 0.212376
O O10 0.934644 0.333576 0.088331
O O11 0.915013 0.483825 0.951600
O O12 0.616590 0.203189 0.584658
O O13 0.877988 0.308059 0.297428
O O14 0.343582 0.555368 0.568097
#
# Coordination Sequence:
#
# PCOD9243889 Si02
#       7
#     4   4   4   4   4   4   4
#     4  11  24  39  58  92 118 163 205 254 312 371
#     4   9  19  35  62  90 114 154 199 256 302 356
#     4   9  18  38  65  89 117 162 206 249 302 383
#     4  11  24  37  60  87 128 157 206 258 313 362
#     4   9  21  37  63  87 120 156 205 243 303 367
#     4  10  20  39  60  89 123 155 202 252 306 374
#     4   9  19  35  61  88 118 155 200 248 314 361
#
# _framework density 24.118539999999999
#
# number of rings (size 3 to 8) (size 9 to 14) (size 15 to 20)
#    0.000    2.571    0.000    3.000    8.000    2.286 
#    0.000    2.857   22.000    0.000    0.000    0.000 
#    0.000    0.000    0.000    0.000    0.000    0.000 
#
# Total GULP energy -156180.582751 kJ/mol
# GULP energy per Si atom -5577.877955 kJ/mol
# Density = 2.406365 g / cm^3
# Si number density = 24.118540 Si / 1000 Ang^3
#
#
#
# Elastic Constant Matrix: (Units=GPa)
#
#
# Indices 1 2 3 4 5 6 
#
# 1 79.1426 2.9381 29.2778 0.0000 -15.8939 0.0000
# 2 2.9381 51.2844 24.0437 0.0000 -3.8122 0.0000
# 3 29.2778 24.0437 101.5088 0.0000 -6.4009 0.0000
# 4 0.0000 0.0000 0.0000 24.9753 0.0000 2.7215
# 5 -15.8939 -3.8122 -6.4009 0.0000 25.0020 0.0000
# 6 0.0000 0.0000 0.0000 2.7215 0.0000 29.6881
#
#
#
# Elastic Compliance Matrix: (Units=1/GPa)
#
#
# Indices 1 2 3 4 5 6 
#
# 1 0.016115 0.001885 -0.004503 0.000000 0.009379 0.000000
# 2 0.001885 0.022259 -0.005617 0.000000 0.003154 0.000000
# 3 -0.004503 -0.005617 0.012447 0.000000 -0.000532 0.000000
# 4 0.000000 0.000000 0.000000 0.040444 0.000000 -0.003707
# 5 0.009379 0.003154 -0.000532 0.000000 0.046304 0.000000
# 6 0.000000 0.000000 0.000000 -0.003707 0.000000 0.034023
#
#
# Mechanical properties :
#
#
# Convention : Reuss Voigt Hill
#
# Bulk Modulus (GPa) = 29.11142 38.27277 33.69209
# Shear Modulus (GPa) = 25.06115 27.64482 26.35299
#
# Velocity S-wave (km/s) = 3.22698 3.38924 3.30910
# Velocity P-wave (km/s) = 5.09714 5.58740 5.34789
#
# Compressibility (1/GPa) = 0.03435078
#
# Stress axis : x y z
#
# Youngs Moduli (GPa) = 62.05479 44.92551 80.34013
#
# Poissons Ratio (x) = -0.08469 0.36177
# Poissons Ratio (y) = -0.11698 0.45128
# Poissons Ratio (z) = 0.27943 0.25235
#
# Static dielectric constant tensor:
#      x y z
#    x 2.010130 0.000000 0.034100 
#    y 0.000000 1.954320 0.000000 
#    z 0.034100 0.000000 1.947610 
# 
# From -- ./inp_files/60295.got.cif
#   From: 2010.05.17/outbox.cif.g08.bks.cpg/sg14_31_cif.got.tgz:60295.got - 2010.06.03 17:49:19.
