data_PCOD9243894
_publ_section_title
;
Structure prediction by ZEFSAII (Michael W. Deem and Ramdas Pophale) SiO2 
 PCOD9243894
Probable space group: P 21/C
;
_chemical_formula_sum "Si O2"
_cell_formula_units_Z 32
_cell_length_a 8.044230
_cell_length_b 12.343816
_cell_length_c 12.536886
_cell_angle_alpha 90.000000
_cell_angle_beta 106.348310
_cell_angle_gamma 90.000000
_cell_volume 1194.536676
_symmetry_space_group_name_H-M "P 21/C"
_symmetry_group_IT_number 14
_symmetry_cell_setting 'monoclinic'
loop_
_space_group_symop_operation_xyz
x,y,z
-x,1/2+y,1/2-z
-x,-y,-z
x,1/2-y,1/2+z
loop_
_atom_site_type_symbol
_atom_site_label
_atom_site_fract_x
_atom_site_fract_y
_atom_site_fract_z
Si Si1 0.614144 0.334113 0.623653
Si Si2 0.762986 0.704005 0.619580
Si Si3 0.255352 0.655247 0.574307
Si Si4 0.893892 0.351137 0.841754
Si Si5 0.880514 0.831040 0.925770
Si Si6 0.056295 0.095677 0.660901
Si Si7 0.390904 0.382864 0.782753
Si Si8 0.336126 0.900271 0.330669
O O1 0.626747 0.373216 0.505210
O O2 0.809636 0.336812 0.709311
O O3 0.515572 0.387082 0.704297
O O4 0.566064 0.206449 0.614376
O O5 0.741904 0.659350 0.497214
O O6 0.832007 0.612291 0.711176
O O7 0.615266 0.771123 0.653269
O O8 0.922570 0.789425 0.631814
O O9 0.224321 0.782745 0.597170
O O10 0.314599 0.609295 0.698055
O O11 0.060474 0.623143 0.502698
O O12 0.904495 0.476144 0.874907
O O13 0.899520 0.703288 0.898674
O O14 0.799873 0.886850 0.807525
O O15 0.854432 0.099266 0.653714
O O16 0.422187 0.484228 0.863523
#
# Coordination Sequence:
#
# PCOD9243894 Si02
#       8
#     4   4   4   4   4   4   4   4
#     4  11  23  43  58  83 130 160 192 245 295 363
#     4  10  20  39  60  93 118 155 198 255 292 338
#     4  10  21  39  62  89 117 157 200 247 294 345
#     4  10  21  37  63  88 113 158 204 243 295 350
#     4  10  21  37  59  93 119 151 197 251 293 340
#     4  11  19  36  64  91 119 149 201 254 295 340
#     4  11  25  37  61  89 123 159 197 241 299 363
#     4  11  22  39  64  88 116 160 203 244 298 350
#
# _framework density 26.788627999999999
#
# number of rings (size 3 to 8) (size 9 to 14) (size 15 to 20)
#    0.000    1.500    6.250    0.750    0.000    9.000 
#    0.000    0.000    0.000    7.500    0.000    0.000 
#    0.000    0.000    0.000    0.000    0.000    0.000 
#
# Total GULP energy -179229.141383 kJ/mol
# GULP energy per Si atom -5600.910668 kJ/mol
# Density = 2.672766 g / cm^3
# Si number density = 26.788628 Si / 1000 Ang^3
#
#
#
# Elastic Constant Matrix: (Units=GPa)
#
#
# Indices 1 2 3 4 5 6 
#
# 1 84.9283 10.0807 9.2698 0.0000 -33.3459 0.0000
# 2 10.0807 125.4400 -22.5787 0.0000 -11.7765 0.0000
# 3 9.2698 -22.5787 114.1856 0.0000 -14.8839 0.0000
# 4 0.0000 0.0000 0.0000 -0.2517 0.0000 -11.5881
# 5 -33.3459 -11.7765 -14.8839 0.0000 51.2886 0.0000
# 6 0.0000 0.0000 0.0000 -11.5881 0.0000 17.9942
#
#
#
# Elastic Compliance Matrix: (Units=1/GPa)
#
#
# Indices 1 2 3 4 5 6 
#
# 1 0.015823 -0.000316 -0.000016 0.000000 0.010210 0.000000
# 2 -0.000316 0.008584 0.002030 0.000000 0.002355 0.000000
# 3 -0.000016 0.002030 0.009582 0.000000 0.003236 0.000000
# 4 0.000000 0.000000 0.000000 -0.129630 0.000000 -0.083480
# 5 0.010210 0.002355 0.003236 0.000000 0.027616 0.000000
# 6 0.000000 0.000000 0.000000 -0.083480 0.000000 0.001813
#
#
# Mechanical properties :
#
#
# Convention : Reuss Voigt Hill
#
# Bulk Modulus (GPa) = 26.74907 35.34414 31.04661
# Shear Modulus (GPa) = -87.49320 35.65838 -25.91741
#
# Velocity S-wave (km/s) = -5.72114 3.65238 -3.11381
# Velocity P-wave (km/s) = 5.79957 5.56856 1.14590
#
# Compressibility (1/GPa) = 0.03738448
#
# Stress axis : x y z
#
# Youngs Moduli (GPa) = 63.20014 116.49910 104.35990
#
# Poissons Ratio (x) = 0.03680 0.00168
# Poissons Ratio (y) = 0.01997 -0.21184
# Poissons Ratio (z) = 0.00102 -0.23648
#
# Static dielectric constant tensor:
#      x y z
#    x 2.180180 0.000000 0.050330 
#    y 0.000000 2.082730 0.000000 
#    z 0.050330 0.000000 2.076930 
# 
# From -- ./inp_files/40328.got.cif
#   From: 2010.05.17/outbox.cif.g08.bks.cpg/sg14_21_cif.got.tgz:40328.got - 2010.06.03 17:49:19.
