data_PCOD9243402
_publ_section_title
;
Structure prediction by ZEFSAII (Michael W. Deem and Ramdas Pophale) SiO2 
 PCOD9243402
Probable space group: P 21/C
;
_chemical_formula_sum "Si O2"
_cell_formula_units_Z 32
_cell_length_a 8.547841
_cell_length_b 8.770825
_cell_length_c 28.394676
_cell_angle_alpha 90.000000
_cell_angle_beta 44.379473
_cell_angle_gamma 90.000000
_cell_volume 1488.894671
_symmetry_space_group_name_H-M "P 21/C"
_symmetry_group_IT_number 14
_symmetry_cell_setting 'monoclinic'
loop_
_space_group_symop_operation_xyz
x,y,z
-x,1/2+y,1/2-z
-x,-y,-z
x,1/2-y,1/2+z
loop_
_atom_site_type_symbol
_atom_site_label
_atom_site_fract_x
_atom_site_fract_y
_atom_site_fract_z
Si Si1 0.375972 0.234389 0.931049
Si Si2 0.830990 0.725978 0.693866
Si Si3 0.413538 0.939489 0.443552
Si Si4 0.218943 0.981593 0.151617
Si Si5 0.169049 0.054574 0.900583
Si Si6 0.132918 0.003202 0.594926
Si Si7 0.544330 0.693922 0.338561
Si Si8 0.188062 0.162767 0.066197
O O1 0.367297 0.411372 0.922241
O O2 0.603876 0.146764 0.871038
O O3 0.173979 0.152859 0.947107
O O4 0.364760 0.220157 0.990030
O O5 0.767105 0.662495 0.656542
O O6 0.620536 0.734423 0.773405
O O7 0.997328 0.605555 0.683714
O O8 0.962429 0.884945 0.655532
O O9 0.224125 0.933732 0.525353
O O10 0.449639 0.801504 0.400088
O O11 0.647566 0.972634 0.419892
O O12 0.233525 0.106813 0.189468
O O13 0.286452 0.081500 0.090956
O O14 0.354136 0.927086 0.868649
O O15 0.949053 0.967627 0.931188
O O16 0.052467 0.179996 0.605916
#
# Coordination Sequence:
#
# PCOD9243402 Si02
#       8
#     4   4   4   4   4   4   4   4
#     4  10  20  37  63  92 127 164 206 257 315 373
#     4  11  25  42  64  91 127 170 210 260 317 380
#     4  10  21  39  64  95 125 161 207 263 316 365
#     4  10  21  36  60  92 123 158 208 262 312 368
#     4  10  25  42  56  92 129 172 212 254 316 382
#     4  10  21  39  64  95 125 161 207 263 316 365
#     4  11  25  42  64  91 127 170 210 260 317 380
#     4  10  20  37  63  92 127 164 206 257 315 373
#
# _framework density 21.492453999999999
#
# number of rings (size 3 to 8) (size 9 to 14) (size 15 to 20)
#    0.000    1.750    2.500    0.750    1.750    8.000 
#    0.000    7.500    0.000    0.000    0.000    0.000 
#    0.000    0.000    0.000    0.000    0.000    0.000 
#
# Total GULP energy -178494.465415 kJ/mol
# GULP energy per Si atom -5577.952044 kJ/mol
# Density = 2.144354 g / cm^3
# Si number density = 21.492454 Si / 1000 Ang^3
#
#
#
# Elastic Constant Matrix: (Units=GPa)
#
#
# Indices 1 2 3 4 5 6 
#
# 1 42.0700 15.9681 -2.2369 0.0000 14.4441 0.0000
# 2 15.9681 65.5534 -3.9268 0.0000 5.3055 0.0000
# 3 -2.2369 -3.9268 33.5994 0.0000 14.4337 0.0000
# 4 0.0000 0.0000 0.0000 16.3297 0.0000 5.1469
# 5 14.4441 5.3055 14.4337 0.0000 19.4382 0.0000
# 6 0.0000 0.0000 0.0000 5.1469 0.0000 34.1875
#
#
#
# Elastic Compliance Matrix: (Units=1/GPa)
#
#
# Indices 1 2 3 4 5 6 
#
# 1 0.043364 -0.005346 0.022727 0.000000 -0.047639 0.000000
# 2 -0.005346 0.016945 0.002797 0.000000 -0.002730 0.000000
# 3 0.022727 0.002797 0.057539 0.000000 -0.060377 0.000000
# 4 0.000000 0.000000 0.000000 0.064289 0.000000 -0.009679
# 5 -0.047639 -0.002730 -0.060377 0.000000 0.132423 0.000000
# 6 0.000000 0.000000 0.000000 -0.009679 0.000000 0.030708
#
#
# Mechanical properties :
#
#
# Convention : Reuss Voigt Hill
#
# Bulk Modulus (GPa) = 6.32090 17.87017 12.09553
# Shear Modulus (GPa) = 13.98034 22.75231 18.36632
#
# Velocity S-wave (km/s) = 2.55321 3.25717 2.92644
# Velocity P-wave (km/s) = 3.41163 4.74112 4.13022
#
# Compressibility (1/GPa) = 0.15820536
#
# Stress axis : x y z
#
# Youngs Moduli (GPa) = 23.06079 59.01300 17.37946
#
# Poissons Ratio (x) = 0.31547 -0.39499
# Poissons Ratio (y) = 0.12328 -0.04861
# Poissons Ratio (z) = -0.52411 -0.16507
#
# Static dielectric constant tensor:
#      x y z
#    x 1.784790 0.000000 0.015000 
#    y 0.000000 1.839720 0.000000 
#    z 0.015000 0.000000 1.773080 
# 
# From -- ./inp_files/64808.got.cif
#   From: 2010.05.17/outbox.cif.g08.bks.cpg/sg14_33_cif.got.tgz:64808.got - 2010.06.03 17:49:19.
