data_PCOD9243973
_publ_section_title
;
Structure prediction by ZEFSAII (Michael W. Deem and Ramdas Pophale) SiO2 
 PCOD9243973
Probable space group: P 21/C
;
_chemical_formula_sum "Si O2"
_cell_formula_units_Z 32
_cell_length_a 7.816891
_cell_length_b 12.538183
_cell_length_c 14.093310
_cell_angle_alpha 90.000000
_cell_angle_beta 86.977439
_cell_angle_gamma 90.000000
_cell_volume 1379.358246
_symmetry_space_group_name_H-M "P 21/C"
_symmetry_group_IT_number 14
_symmetry_cell_setting 'monoclinic'
loop_
_space_group_symop_operation_xyz
x,y,z
-x,1/2+y,1/2-z
-x,-y,-z
x,1/2-y,1/2+z
loop_
_atom_site_type_symbol
_atom_site_label
_atom_site_fract_x
_atom_site_fract_y
_atom_site_fract_z
Si Si1 0.434203 0.024012 0.322394
Si Si2 0.735407 0.600956 0.354125
Si Si3 0.665305 0.293094 0.813794
Si Si4 0.735138 0.232212 0.013431
Si Si5 0.081334 0.568780 0.913267
Si Si6 0.453741 0.192239 0.652889
Si Si7 0.095016 0.513871 0.262677
Si Si8 0.193277 0.491628 0.455187
O O1 0.262333 0.985576 0.378858
O O2 0.573863 0.932906 0.338254
O O3 0.396672 0.039786 0.211624
O O4 0.504499 0.136682 0.354427
O O5 0.701017 0.725593 0.337210
O O6 0.710585 0.572781 0.465331
O O7 0.920344 0.563299 0.312753
O O8 0.744851 0.230884 0.899470
O O9 0.591693 0.220569 0.732109
O O10 0.795594 0.383347 0.772968
O O11 0.878654 0.311754 0.051804
O O12 0.556837 0.280947 0.054515
O O13 0.743364 0.112959 0.050916
O O14 0.964986 0.557782 0.823498
O O15 0.000000 0.500000 0.000000
O O16 0.185561 0.451999 0.347352
O O17 0.000000 0.500000 0.500000
#
# Coordination Sequence:
#
# PCOD9243973 Si02
#       8
#     4   4   4   4   4   4   4   4
#     4   9  21  39  62  94 126 161 206 258 307 363
#     4   9  20  40  66  86 127 163 206 258 301 372
#     4  11  21  40  65  90 125 164 203 259 305 372
#     4  11  22  38  66  89 121 167 204 250 319 369
#     4  10  20  39  63  89 124 164 201 255 310 367
#     4  10  21  40  61  93 125 163 206 252 304 369
#     4  10  20  41  61  88 121 162 203 253 311 355
#     4  10  21  41  61  89 123 161 208 254 306 366
#
# _framework density 23.199192
#
# number of rings (size 3 to 8) (size 9 to 14) (size 15 to 20)
#    0.000    2.000    2.500    0.750    0.000    3.500 
#    6.750    0.000    0.000    0.000    0.000    0.000 
#    0.000    0.000    0.000    0.000    0.000    0.000 
#
# Total GULP energy -178905.385830 kJ/mol
# GULP energy per Si atom -5590.793307 kJ/mol
# Density = 2.314639 g / cm^3
# Si number density = 23.199192 Si / 1000 Ang^3
#
#
#
# Elastic Constant Matrix: (Units=GPa)
#
#
# Indices 1 2 3 4 5 6 
#
# 1 55.9892 6.4608 23.8910 0.0000 6.2476 0.0000
# 2 6.4608 57.6365 25.1519 0.0000 8.2934 0.0000
# 3 23.8910 25.1519 161.4268 0.0000 23.2577 0.0000
# 4 0.0000 0.0000 0.0000 26.4006 0.0000 -2.8080
# 5 6.2476 8.2934 23.2577 0.0000 25.9655 0.0000
# 6 0.0000 0.0000 0.0000 -2.8080 0.0000 28.5692
#
#
#
# Elastic Compliance Matrix: (Units=1/GPa)
#
#
# Indices 1 2 3 4 5 6 
#
# 1 0.019224 -0.000787 -0.002402 0.000000 -0.002222 0.000000
# 2 -0.000787 0.018988 -0.002291 0.000000 -0.003823 0.000000
# 3 -0.002402 -0.002291 0.007714 0.000000 -0.005600 0.000000
# 4 0.000000 0.000000 0.000000 0.038278 0.000000 0.003762
# 5 -0.002222 -0.003823 -0.005600 0.000000 0.045284 0.000000
# 6 0.000000 0.000000 0.000000 0.003762 0.000000 0.035373
#
#
# Mechanical properties :
#
#
# Convention : Reuss Voigt Hill
#
# Bulk Modulus (GPa) = 28.59923 42.89553 35.74738
# Shear Modulus (GPa) = 26.66977 30.82365 28.74671
#
# Velocity S-wave (km/s) = 3.39425 3.64902 3.52394
# Velocity P-wave (km/s) = 5.26457 6.02362 5.65684
#
# Compressibility (1/GPa) = 0.03496597
#
# Stress axis : x y z
#
# Youngs Moduli (GPa) = 52.01696 52.66391 129.63264
#
# Poissons Ratio (x) = 0.04144 0.31143
# Poissons Ratio (y) = 0.04093 0.29702
# Poissons Ratio (z) = 0.12497 0.12067
#
# Static dielectric constant tensor:
#      x y z
#    x 2.018970 0.000000 -0.019110 
#    y 0.000000 1.635070 0.000000 
#    z -0.019110 0.000000 1.888410 
# 
# From -- ./inp_files/40081.got.cif
#   From: 2010.05.17/outbox.cif.g08.bks.cpg/sg14_21_cif.got.tgz:40081.got - 2010.06.03 17:49:19.
