data_PCOD9243243
_publ_section_title
;
Structure prediction by ZEFSAII (Michael W. Deem and Ramdas Pophale) SiO2 
 PCOD9243243
Probable space group: P 21/C
;
_chemical_formula_sum "Si O2"
_cell_formula_units_Z 28
_cell_length_a 8.880743
_cell_length_b 12.368436
_cell_length_c 16.017722
_cell_angle_alpha 90.000000
_cell_angle_beta 57.538057
_cell_angle_gamma 90.000000
_cell_volume 1484.491349
_symmetry_space_group_name_H-M "P 21/C"
_symmetry_group_IT_number 14
_symmetry_cell_setting 'monoclinic'
loop_
_space_group_symop_operation_xyz
x,y,z
-x,1/2+y,1/2-z
-x,-y,-z
x,1/2-y,1/2+z
loop_
_atom_site_type_symbol
_atom_site_label
_atom_site_fract_x
_atom_site_fract_y
_atom_site_fract_z
Si Si1 0.401996 0.819013 0.759330
Si Si2 0.467305 0.883970 0.552298
Si Si3 0.183499 0.886774 0.272048
Si Si4 0.213683 0.129549 0.313329
Si Si5 0.929479 0.118391 0.036032
Si Si6 0.151359 0.314956 0.023645
Si Si7 0.130305 0.760209 0.118727
O O1 0.426019 0.881719 0.664106
O O2 0.327069 0.698392 0.765796
O O3 0.593195 0.814330 0.746738
O O4 0.248885 0.878711 0.856275
O O5 0.655638 0.821471 0.491679
O O6 0.298852 0.820838 0.564327
O O7 0.500000 0.000000 0.500000
O O8 0.155346 0.844099 0.186747
O O9 0.998671 0.873289 0.377271
O O10 0.236602 0.010239 0.269346
O O11 0.163599 0.131197 0.427539
O O12 0.052241 0.191929 0.316345
O O13 0.080534 0.193372 0.033279
O O14 0.885870 0.175910 0.962086
O O15 0.000000 0.000000 0.000000
#
# Coordination Sequence:
#
# PCOD9243243 Si02
#       7
#     4   4   4   4   4   4   4
#     4   9  22  38  56  84 112 149 197 230 282 350
#     4  10  20  37  60  88 116 142 187 249 291 325
#     4  10  20  37  59  85 116 143 184 245 285 327
#     4  10  20  38  60  82 113 152 187 231 287 341
#     4  10  22  40  57  77 117 160 189 229 282 344
#     4   9  20  37  59  84 110 146 194 231 282 348
#     4  10  23  37  56  90 116 146 197 233 280 347
#
# _framework density 18.86168
#
# number of rings (size 3 to 8) (size 9 to 14) (size 15 to 20)
#    0.000    2.286    0.000    1.286    0.000   16.000 
#    0.000    2.857    0.000    0.000    0.000    0.000 
#    0.000    0.000    0.000    0.000    0.000    0.000 
#
# Total GULP energy -156256.303196 kJ/mol
# GULP energy per Si atom -5580.582257 kJ/mol
# Density = 1.881875 g / cm^3
# Si number density = 18.861680 Si / 1000 Ang^3
#
#
#
# Elastic Constant Matrix: (Units=GPa)
#
#
# Indices 1 2 3 4 5 6 
#
# 1 153.8821 57.2010 39.0716 0.0000 -32.3343 0.0000
# 2 57.2010 67.1791 42.5496 0.0000 -15.1496 0.0000
# 3 39.0716 42.5496 69.6888 0.0000 -28.2322 0.0000
# 4 0.0000 0.0000 0.0000 24.5994 0.0000 1.5911
# 5 -32.3343 -15.1496 -28.2322 0.0000 19.5957 0.0000
# 6 0.0000 0.0000 0.0000 1.5911 0.0000 8.5940
#
#
#
# Elastic Compliance Matrix: (Units=1/GPa)
#
#
# Indices 1 2 3 4 5 6 
#
# 1 0.015656 -0.014464 0.014386 0.000000 0.035377 0.000000
# 2 -0.014464 0.037954 -0.030855 0.000000 -0.038978 0.000000
# 3 0.014386 -0.030855 0.060230 0.000000 0.086658 0.000000
# 4 0.000000 0.000000 0.000000 0.041144 0.000000 -0.007617
# 5 0.035377 -0.038978 0.086658 0.000000 0.204124 0.000000
# 6 0.000000 0.000000 0.000000 -0.007617 0.000000 0.117770
#
#
# Mechanical properties :
#
#
# Convention : Reuss Voigt Hill
#
# Bulk Modulus (GPa) = 19.24062 63.15494 41.19778
# Shear Modulus (GPa) = 8.99167 20.68634 14.83901
#
# Velocity S-wave (km/s) = 2.18575 3.31530 2.80791
# Velocity P-wave (km/s) = 4.07346 6.94340 5.69227
#
# Compressibility (1/GPa) = 0.05197338
#
# Stress axis : x y z
#
# Youngs Moduli (GPa) = 63.87265 26.34752 16.60308
#
# Poissons Ratio (x) = 0.38110 -0.23885
# Poissons Ratio (y) = 0.92388 0.51228
# Poissons Ratio (z) = -0.91885 0.81294
#
# Static dielectric constant tensor:
#      x y z
#    x 1.664300 0.000000 0.011150 
#    y 0.000000 1.626690 0.000000 
#    z 0.011150 0.000000 1.654540 
# 
# From -- ./inp_files/40120.got.cif
#   From: 2010.05.17/outbox.cif.g08.bks.cpg/sg14_21_cif.got.tgz:40120.got - 2010.06.03 17:49:19.
