data_PCOD9243598
_publ_section_title
;
Structure prediction by ZEFSAII (Michael W. Deem and Ramdas Pophale) SiO2 
 PCOD9243598
Probable space group: P 21/C
;
_chemical_formula_sum "Si O2"
_cell_formula_units_Z 24
_cell_length_a 20.360428
_cell_length_b 9.622966
_cell_length_c 10.866902
_cell_angle_alpha 90.000000
_cell_angle_beta 31.608472
_cell_angle_gamma 90.000000
_cell_volume 1115.900767
_symmetry_space_group_name_H-M "P 21/C"
_symmetry_group_IT_number 14
_symmetry_cell_setting 'monoclinic'
loop_
_space_group_symop_operation_xyz
x,y,z
-x,1/2+y,1/2-z
-x,-y,-z
x,1/2-y,1/2+z
loop_
_atom_site_type_symbol
_atom_site_label
_atom_site_fract_x
_atom_site_fract_y
_atom_site_fract_z
Si Si1 0.181619 0.868998 0.699085
Si Si2 0.217806 0.249478 0.826473
Si Si3 0.081906 0.162654 0.790495
Si Si4 0.391979 0.508771 0.047663
Si Si5 0.389737 0.780570 0.195660
Si Si6 0.586587 0.977039 0.029291
O O1 0.285538 0.923646 0.628252
O O2 0.259337 0.778680 0.477962
O O3 0.119127 0.999251 0.726102
O O4 0.065408 0.808347 0.960157
O O5 0.141962 0.206080 0.825732
O O6 0.287228 0.389617 0.673581
O O7 0.323226 0.134291 0.691107
O O8 0.138172 0.270742 0.077478
O O9 0.420735 0.625827 0.102699
O O10 0.514689 0.489088 0.768644
O O11 0.490088 0.871822 0.113108
O O12 0.385275 0.878451 0.082627
#
# Coordination Sequence:
#
# PCOD9243598 Si02
#       6
#     4   4   4   4   4   4
#     4   9  20  41  62  82 122 172 203 239 316 374
#     4  11  23  41  63  94 124 161 209 255 309 362
#     4  10  22  41  65  88 122 169 204 252 302 373
#     4  10  22  37  62  91 124 155 208 265 300 360
#     4  10  20  38  61  86 119 164 208 244 307 375
#     4  10  21  38  62  86 123 167 203 247 314 372
#
# _framework density 21.507287000000002
#
# number of rings (size 3 to 8) (size 9 to 14) (size 15 to 20)
#    0.000    2.000    1.667    1.000    7.000    0.667 
#    6.000    0.833    0.000    0.000    0.000    0.000 
#    0.000    0.000    0.000    0.000    0.000    0.000 
#
# Total GULP energy -133983.983180 kJ/mol
# GULP energy per Si atom -5582.665966 kJ/mol
# Density = 2.145834 g / cm^3
# Si number density = 21.507287 Si / 1000 Ang^3
#
#
#
# Elastic Constant Matrix: (Units=GPa)
#
#
# Indices 1 2 3 4 5 6 
#
# 1 44.3182 -10.2234 39.5538 0.0000 5.2337 0.0000
# 2 -10.2234 56.8636 35.1720 0.0000 10.2291 0.0000
# 3 39.5538 35.1720 197.8357 0.0000 25.9051 0.0000
# 4 0.0000 0.0000 0.0000 -6.8432 0.0000 16.7508
# 5 5.2337 10.2291 25.9051 0.0000 25.3630 0.0000
# 6 0.0000 0.0000 0.0000 16.7508 0.0000 21.2017
#
#
#
# Elastic Compliance Matrix: (Units=1/GPa)
#
#
# Indices 1 2 3 4 5 6 
#
# 1 0.032955 0.011574 -0.008248 0.000000 -0.003044 0.000000
# 2 0.011574 0.024402 -0.005831 0.000000 -0.006275 0.000000
# 3 -0.008248 -0.005831 0.008323 0.000000 -0.004447 0.000000
# 4 0.000000 0.000000 0.000000 -0.049807 0.000000 0.039351
# 5 -0.003044 -0.006275 -0.004447 0.000000 0.047128 0.000000
# 6 0.000000 0.000000 0.000000 0.039351 0.000000 0.016076
#
#
# Mechanical properties :
#
#
# Convention : Reuss Voigt Hill
#
# Bulk Modulus (GPa) = 16.48254 47.55801 32.02028
# Shear Modulus (GPa) = 47.93456 23.57864 35.75660
#
# Velocity S-wave (km/s) = 4.72609 3.31465 4.08184
# Velocity P-wave (km/s) = 6.12059 6.06710 6.09390
#
# Compressibility (1/GPa) = 0.06067025
#
# Stress axis : x y z
#
# Youngs Moduli (GPa) = 30.34476 40.98023 120.15487
#
# Poissons Ratio (x) = -0.47430 0.99101
# Poissons Ratio (y) = -0.35121 0.70059
# Poissons Ratio (z) = 0.25028 0.23894
#
# Static dielectric constant tensor:
#      x y z
#    x 1.849590 0.000000 -0.017230 
#    y 0.000000 1.780920 0.000000 
#    z -0.017230 0.000000 1.746560 
# 
# From -- ./inp_files/28007.got.cif
#   From: 2010.05.17/outbox.cif.g08.bks.cpg/sg14_15_cif.got.tgz:28007.got - 2010.06.03 17:49:19.
