data_PCOD9243955
_publ_section_title
;
Structure prediction by ZEFSAII (Michael W. Deem and Ramdas Pophale) SiO2 
 PCOD9243955
Probable space group: P 21/C
;
_chemical_formula_sum "Si O2"
_cell_formula_units_Z 30
_cell_length_a 11.943802
_cell_length_b 18.596162
_cell_length_c 5.464413
_cell_angle_alpha 90.000000
_cell_angle_beta 101.786983
_cell_angle_gamma 90.000000
_cell_volume 1188.102454
_symmetry_space_group_name_H-M "P 21/C"
_symmetry_group_IT_number 14
_symmetry_cell_setting 'monoclinic'
loop_
_space_group_symop_operation_xyz
x,y,z
-x,1/2+y,1/2-z
-x,-y,-z
x,1/2-y,1/2+z
loop_
_atom_site_type_symbol
_atom_site_label
_atom_site_fract_x
_atom_site_fract_y
_atom_site_fract_z
Si Si1 0.623973 0.577452 0.989994
Si Si2 0.850678 0.996763 0.682747
Si Si3 0.500000 0.000000 0.000000
Si Si4 0.464073 0.627826 0.286135
Si Si5 0.041822 0.764022 0.798935
Si Si6 0.895939 0.071058 0.199122
Si Si7 0.644115 0.741620 0.927248
Si Si8 0.290750 0.789966 0.409778
O O1 0.595532 0.532976 0.738853
O O2 0.599011 0.660845 0.927031
O O3 0.753401 0.563210 0.120382
O O4 0.550350 0.565360 0.209284
O O5 0.974542 0.959714 0.745890
O O6 0.845814 0.044214 0.434186
O O7 0.837624 0.041065 0.927536
O O8 0.573615 0.079330 0.006494
O O9 0.541876 0.698297 0.376269
O O10 0.364796 0.645112 0.050400
O O11 0.977244 0.747755 0.521472
O O12 0.093384 0.843536 0.810539
O O13 0.152914 0.710840 0.851891
O O14 0.710040 0.746361 0.705535
O O15 0.320255 0.767444 0.144571
#
# Coordination Sequence:
#
# PCOD9243955 Si02
#       8
#     4   4   2   4   4   4   4   4
#     4  11  25  43  64 100 134 181 239 281 339 415
#     4  10  24  44  72  99 135 187 220 291 361 417
#     4  12  26  42  64  98 136 178 238 290 316 416
#     4  11  24  42  61  92 136 184 228 287 331 409
#     4  10  21  39  64 102 133 168 222 284 346 421
#     4  10  22  46  72 101 139 173 229 292 362 424
#     4  10  20  39  63  82 126 175 219 271 330 394
#     4  10  22  38  62  92 127 180 221 269 344 405
#
# _framework density 25.250347000000001
#
# number of rings (size 3 to 8) (size 9 to 14) (size 15 to 20)
#    0.000    1.600    1.333    2.800    3.733    4.267 
#    2.400    2.667    0.000    0.000    0.000    0.000 
#    0.000    0.000    0.000    0.000    0.000    0.000 
#
# Total GULP energy -167197.033727 kJ/mol
# GULP energy per Si atom -5573.234458 kJ/mol
# Density = 2.519288 g / cm^3
# Si number density = 25.250347 Si / 1000 Ang^3
#
#
#
# Elastic Constant Matrix: (Units=GPa)
#
#
# Indices 1 2 3 4 5 6 
#
# 1 63.8926 19.5501 40.5090 0.0000 3.9241 0.0000
# 2 19.5501 130.6471 40.6438 0.0000 0.0285 0.0000
# 3 40.5090 40.6438 179.9740 0.0000 -7.7542 0.0000
# 4 0.0000 0.0000 0.0000 42.6038 0.0000 -8.2285
# 5 3.9241 0.0285 -7.7542 0.0000 21.8171 0.0000
# 6 0.0000 0.0000 0.0000 -8.2285 0.0000 -2.1789
#
#
#
# Elastic Compliance Matrix: (Units=1/GPa)
#
#
# Indices 1 2 3 4 5 6 
#
# 1 0.019060 -0.001560 -0.004149 0.000000 -0.004901 0.000000
# 2 -0.001560 0.008370 -0.001551 0.000000 -0.000282 0.000000
# 3 -0.004149 -0.001551 0.006980 0.000000 0.003229 0.000000
# 4 0.000000 0.000000 0.000000 0.013572 0.000000 -0.051256
# 5 -0.004901 -0.000282 0.003229 0.000000 0.047865 0.000000
# 6 0.000000 0.000000 0.000000 -0.051256 0.000000 -0.265384
#
#
# Mechanical properties :
#
#
# Convention : Reuss Voigt Hill
#
# Bulk Modulus (GPa) = 50.27860 63.99105 57.13482
# Shear Modulus (GPa) = -33.69600 30.70245 -1.49677
#
# Velocity S-wave (km/s) = -3.65701 3.49079 -0.77075
# Velocity P-wave (km/s) = 1.45726 6.45330 4.67807
#
# Compressibility (1/GPa) = 0.01988918
#
# Stress axis : x y z
#
# Youngs Moduli (GPa) = 52.46543 119.46943 143.27415
#
# Poissons Ratio (x) = 0.18642 0.59443
# Poissons Ratio (y) = 0.08187 0.22225
# Poissons Ratio (z) = 0.21767 0.18532
#
# Static dielectric constant tensor:
#      x y z
#    x 1.779010 0.000000 0.243540 
#    y 0.000000 1.819760 0.000000 
#    z 0.243540 0.000000 1.563830 
# 
# From -- ./inp_files/3747.got.cif
#   From: 2010.05.17/outbox.cif.g08.bks.cpg/sg14_2_cif.got.tgz:3747.got - 2010.06.03 17:49:19.
