data_PCOD9243667
_publ_section_title
;
Structure prediction by ZEFSAII (Michael W. Deem and Ramdas Pophale) SiO2 
 PCOD9243667
Probable space group: P 21/C
;
_chemical_formula_sum "Si O2"
_cell_formula_units_Z 20
_cell_length_a 8.974486
_cell_length_b 18.001083
_cell_length_c 5.371713
_cell_angle_alpha 90.000000
_cell_angle_beta 61.780317
_cell_angle_gamma 90.000000
_cell_volume 764.656634
_symmetry_space_group_name_H-M "P 21/C"
_symmetry_group_IT_number 14
_symmetry_cell_setting 'monoclinic'
loop_
_space_group_symop_operation_xyz
x,y,z
-x,1/2+y,1/2-z
-x,-y,-z
x,1/2-y,1/2+z
loop_
_atom_site_type_symbol
_atom_site_label
_atom_site_fract_x
_atom_site_fract_y
_atom_site_fract_z
Si Si1 0.831354 0.549340 0.121357
Si Si2 0.182527 0.284634 0.691392
Si Si3 0.570749 0.916726 0.465078
Si Si4 0.206024 0.722814 0.943171
Si Si5 0.387850 0.591759 0.614637
O O1 0.836642 0.626526 0.266577
O O2 0.683649 0.492474 0.330772
O O3 0.766028 0.574809 0.897223
O O4 0.000000 0.500000 0.000000
O O5 0.261187 0.252212 0.376760
O O6 0.281918 0.771303 0.658985
O O7 0.511885 0.887002 0.245340
O O8 0.500000 0.000000 0.500000
O O9 0.474194 0.887162 0.787217
O O10 0.012028 0.755795 0.646691
O O11 0.225465 0.641532 0.810332
#
# Coordination Sequence:
#
# PCOD9243667 Si02
#       5
#     4   4   4   4   4
#     4  11  22  43  69  98 120 172 220 254 316 388
#     4  10  23  42  61  92 132 162 203 269 322 367
#     4  10  23  41  63  94 137 161 205 276 322 362
#     4  10  20  38  62  92 127 170 213 259 315 377
#     4  11  22  43  65  95 129 171 213 267 317 375
#
# _framework density 26.155531
#
# number of rings (size 3 to 8) (size 9 to 14) (size 15 to 20)
#    0.000    1.600    2.000    3.600    0.000    4.800 
#    0.000   16.000    0.000    0.000    0.000    0.000 
#    0.000    0.000    0.000    0.000    0.000    0.000 
#
# Total GULP energy -111674.631382 kJ/mol
# GULP energy per Si atom -5583.731569 kJ/mol
# Density = 2.609600 g / cm^3
# Si number density = 26.155531 Si / 1000 Ang^3
#
#
#
# Elastic Constant Matrix: (Units=GPa)
#
#
# Indices 1 2 3 4 5 6 
#
# 1 102.2523 30.8010 73.5840 0.0000 5.7480 0.0000
# 2 30.8010 122.7493 29.8737 0.0000 11.9077 0.0000
# 3 73.5840 29.8737 186.8369 0.0000 40.0648 0.0000
# 4 0.0000 0.0000 0.0000 34.3905 0.0000 -1.3186
# 5 5.7480 11.9077 40.0648 0.0000 34.3261 0.0000
# 6 0.0000 0.0000 0.0000 -1.3186 0.0000 43.4436
#
#
#
# Elastic Compliance Matrix: (Units=1/GPa)
#
#
# Indices 1 2 3 4 5 6 
#
# 1 0.015262 -0.002768 -0.006971 0.000000 0.006541 0.000000
# 2 -0.002768 0.009064 0.000288 0.000000 -0.003017 0.000000
# 3 -0.006971 0.000288 0.010434 0.000000 -0.011111 0.000000
# 4 0.000000 0.000000 0.000000 0.029112 0.000000 0.000884
# 5 0.006541 -0.003017 -0.011111 0.000000 0.042053 0.000000
# 6 0.000000 0.000000 0.000000 0.000884 0.000000 0.023045
#
#
# Mechanical properties :
#
#
# Convention : Reuss Voigt Hill
#
# Bulk Modulus (GPa) = 63.05774 75.59510 69.32642
# Shear Modulus (GPa) = 32.64603 40.93735 36.79169
#
# Velocity S-wave (km/s) = 3.53675 3.96049 3.75460
# Velocity P-wave (km/s) = 6.39056 7.06250 6.73491
#
# Compressibility (1/GPa) = 0.01585848
#
# Stress axis : x y z
#
# Youngs Moduli (GPa) = 65.52103 110.32910 95.83684
#
# Poissons Ratio (x) = 0.30536 0.66808
# Poissons Ratio (y) = 0.18134 -0.02757
# Poissons Ratio (z) = 0.45674 -0.03174
#
# Static dielectric constant tensor:
#      x y z
#    x 2.157080 0.000000 0.046340 
#    y 0.000000 2.097880 0.000000 
#    z 0.046340 0.000000 2.113480 
# 
# From -- ./inp_files/2497.got.cif
#   From: 2010.05.17/outbox.cif.g08.bks.cpg/sg14_2_cif.got.tgz:2497.got - 2010.06.03 17:49:19.
