data_PCOD9243999
_publ_section_title
;
Structure prediction by ZEFSAII (Michael W. Deem and Ramdas Pophale) SiO2 
 PCOD9243999
Probable space group: P 21/C
;
_chemical_formula_sum "Si O2"
_cell_formula_units_Z 28
_cell_length_a 12.361503
_cell_length_b 9.028162
_cell_length_c 26.124068
_cell_angle_alpha 90.000000
_cell_angle_beta 27.699634
_cell_angle_gamma 90.000000
_cell_volume 1355.225445
_symmetry_space_group_name_H-M "P 21/C"
_symmetry_group_IT_number 14
_symmetry_cell_setting 'monoclinic'
loop_
_space_group_symop_operation_xyz
x,y,z
-x,1/2+y,1/2-z
-x,-y,-z
x,1/2-y,1/2+z
loop_
_atom_site_type_symbol
_atom_site_label
_atom_site_fract_x
_atom_site_fract_y
_atom_site_fract_z
Si Si1 0.968444 0.147957 0.237134
Si Si2 0.629341 0.101714 0.749379
Si Si3 0.785836 0.400919 0.070277
Si Si4 0.172114 0.931755 0.968873
Si Si5 0.498147 0.373081 0.877208
Si Si6 0.690039 0.905542 0.992776
Si Si7 0.156533 0.526383 0.742633
O O1 0.727049 0.087467 0.314144
O O2 0.949506 0.322784 0.235670
O O3 0.185262 0.085805 0.113578
O O4 0.016219 0.105598 0.275549
O O5 0.425420 0.982989 0.843123
O O6 0.836343 0.037905 0.698690
O O7 0.659857 0.129225 0.677148
O O8 0.569971 0.257088 0.802101
O O9 0.856496 0.243551 0.017455
O O10 0.630775 0.491919 0.095305
O O11 0.000000 0.500000 0.000000
O O12 0.149755 0.011167 0.032942
O O13 0.000000 0.000000 0.000000
O O14 0.336953 0.267038 0.979860
O O15 0.429181 0.970765 0.109912
#
# Coordination Sequence:
#
# PCOD9243999 Si02
#       7
#     4   4   4   4   4   4   4
#     4  10  20  39  64  81 120 150 193 252 279 354
#     4   9  21  40  58  80 122 158 188 243 290 347
#     4  12  23  36  59  90 123 151 194 244 285 355
#     4  10  22  36  59  86 118 156 195 227 295 356
#     4   9  22  37  59  91 110 157 202 230 309 331
#     4   9  20  40  60  82 120 157 190 241 296 350
#     4   9  21  38  59  88 109 159 198 231 304 340
#
# _framework density 20.660768999999998
#
# number of rings (size 3 to 8) (size 9 to 14) (size 15 to 20)
#    0.000    2.857    0.000    3.000   10.000    2.286 
#    2.571    2.857    0.000    0.000    0.000    0.000 
#    0.000    0.000    0.000    0.000    0.000    0.000 
#
# Total GULP energy -156189.282685 kJ/mol
# GULP energy per Si atom -5578.188667 kJ/mol
# Density = 2.061374 g / cm^3
# Si number density = 20.660769 Si / 1000 Ang^3
#
#
#
# Elastic Constant Matrix: (Units=GPa)
#
#
# Indices 1 2 3 4 5 6 
#
# 1 97.4644 44.3424 9.3276 0.0000 -13.4418 0.0000
# 2 44.3424 66.9144 6.3965 0.0000 -21.1167 0.0000
# 3 9.3276 6.3965 27.1698 0.0000 -6.0523 0.0000
# 4 0.0000 0.0000 0.0000 10.4706 0.0000 -11.4015
# 5 -13.4418 -21.1167 -6.0523 0.0000 22.6935 0.0000
# 6 0.0000 0.0000 0.0000 -11.4015 0.0000 43.4426
#
#
#
# Elastic Compliance Matrix: (Units=1/GPa)
#
#
# Indices 1 2 3 4 5 6 
#
# 1 0.014927 -0.010005 -0.003055 0.000000 -0.001283 0.000000
# 2 -0.010005 0.027873 0.001414 0.000000 0.020388 0.000000
# 3 -0.003055 0.001414 0.039775 0.000000 0.010114 0.000000
# 4 0.000000 0.000000 0.000000 0.133721 0.000000 0.035095
# 5 -0.001283 0.020388 0.010114 0.000000 0.064974 0.000000
# 6 0.000000 0.000000 0.000000 0.035095 0.000000 0.032229
#
#
# Mechanical properties :
#
#
# Convention : Reuss Voigt Hill
#
# Bulk Modulus (GPa) = 16.86799 34.63125 25.74962
# Shear Modulus (GPa) = 14.02319 24.08680 19.05500
#
# Velocity S-wave (km/s) = 2.60808 3.41812 3.04020
# Velocity P-wave (km/s) = 4.15348 5.69002 4.98135
#
# Compressibility (1/GPa) = 0.05928387
#
# Stress axis : x y z
#
# Youngs Moduli (GPa) = 66.99100 35.87698 25.14172
#
# Poissons Ratio (x) = 0.35894 0.07681
# Poissons Ratio (y) = 0.67022 -0.03555
# Poissons Ratio (z) = 0.20466 -0.05074
#
# Static dielectric constant tensor:
#      x y z
#    x 1.773620 0.000000 0.007160 
#    y 0.000000 1.725060 0.000000 
#    z 0.007160 0.000000 1.804320 
# 
# From -- ./inp_files/77087.got.cif
#   From: 2010.05.17/outbox.cif.g08.bks.cpg/sg14_39_cif.got.tgz:77087.got - 2010.06.03 17:49:19.
