data_PCOD9243214
_publ_section_title
;
Structure prediction by ZEFSAII (Michael W. Deem and Ramdas Pophale) SiO2 
 PCOD9243214
Probable space group: P 21/C
;
_chemical_formula_sum "Si O2"
_cell_formula_units_Z 24
_cell_length_a 12.034830
_cell_length_b 7.187269
_cell_length_c 26.470652
_cell_angle_alpha 90.000000
_cell_angle_beta 25.075796
_cell_angle_gamma 90.000000
_cell_volume 970.390875
_symmetry_space_group_name_H-M "P 21/C"
_symmetry_group_IT_number 14
_symmetry_cell_setting 'monoclinic'
loop_
_space_group_symop_operation_xyz
x,y,z
-x,1/2+y,1/2-z
-x,-y,-z
x,1/2-y,1/2+z
loop_
_atom_site_type_symbol
_atom_site_label
_atom_site_fract_x
_atom_site_fract_y
_atom_site_fract_z
Si Si1 0.585865 0.760810 0.110442
Si Si2 0.751427 0.965604 0.459235
Si Si3 0.250832 0.318287 0.349857
Si Si4 0.684805 0.154307 0.106307
Si Si5 0.820109 0.108077 0.787887
Si Si6 0.648956 0.754218 0.903718
O O1 0.613497 0.718884 0.157587
O O2 0.614553 0.984747 0.097844
O O3 0.320297 0.733733 0.188011
O O4 0.795169 0.647057 0.992253
O O5 0.613870 0.821716 0.475564
O O6 0.561314 0.140370 0.541937
O O7 0.020888 0.009294 0.320251
O O8 0.435899 0.276315 0.226011
O O9 0.238149 0.533078 0.374637
O O10 0.947808 0.253611 0.475776
O O11 0.647438 0.969510 0.891708
O O12 0.048400 0.191980 0.728727
#
# Coordination Sequence:
#
# PCOD9243214 Si02
#       6
#     4   4   4   4   4   4
#     4  10  21  38  60  92 117 165 207 257 307 371
#     4   9  21  39  59  83 123 160 203 254 309 370
#     4   9  21  41  63  90 126 169 203 260 326 370
#     4   9  21  41  63  91 128 166 207 261 322 376
#     4  10  20  37  58  87 121 157 210 247 308 370
#     4   9  20  38  57  86 121 164 196 251 316 359
#
# _framework density 24.732302000000001
#
# number of rings (size 3 to 8) (size 9 to 14) (size 15 to 20)
#    2.000    0.667    0.000    1.000    2.333    1.333 
#    6.000    0.000    0.000    0.000    0.000    0.000 
#    0.000    0.000    0.000    0.000    0.000    0.000 
#
# Total GULP energy -133619.393625 kJ/mol
# GULP energy per Si atom -5567.474734 kJ/mol
# Density = 2.467601 g / cm^3
# Si number density = 24.732302 Si / 1000 Ang^3
#
#
#
# Elastic Constant Matrix: (Units=GPa)
#
#
# Indices 1 2 3 4 5 6 
#
# 1 52.9618 -1.2506 22.2341 0.0000 -6.2702 0.0000
# 2 -1.2506 60.8560 30.9217 0.0000 -2.5205 0.0000
# 3 22.2341 30.9217 136.6256 0.0000 -7.2045 0.0000
# 4 0.0000 0.0000 0.0000 41.0156 0.0000 0.4825
# 5 -6.2702 -2.5205 -7.2045 0.0000 18.4308 0.0000
# 6 0.0000 0.0000 0.0000 0.4825 0.0000 13.9763
#
#
#
# Elastic Compliance Matrix: (Units=1/GPa)
#
#
# Indices 1 2 3 4 5 6 
#
# 1 0.021227 0.002577 -0.003715 0.000000 0.006122 0.000000
# 2 0.002577 0.018896 -0.004608 0.000000 0.001659 0.000000
# 3 -0.003715 -0.004608 0.009054 0.000000 0.001645 0.000000
# 4 0.000000 0.000000 0.000000 0.024391 0.000000 -0.000842
# 5 0.006122 0.001659 0.001645 0.000000 0.057209 0.000000
# 6 0.000000 0.000000 0.000000 -0.000842 0.000000 0.071579
#
#
# Mechanical properties :
#
#
# Convention : Reuss Voigt Hill
#
# Bulk Modulus (GPa) = 26.53656 39.36154 32.94905
# Shear Modulus (GPa) = 22.08399 27.92042 25.00220
#
# Velocity S-wave (km/s) = 2.99142 3.36356 3.18293
# Velocity P-wave (km/s) = 4.76280 5.57085 5.18260
#
# Compressibility (1/GPa) = 0.03768385
#
# Stress axis : x y z
#
# Youngs Moduli (GPa) = 47.11045 52.92253 110.45360
#
# Poissons Ratio (x) = -0.13640 0.41032
# Poissons Ratio (y) = -0.12142 0.50902
# Poissons Ratio (z) = 0.17501 0.24389
#
# Static dielectric constant tensor:
#      x y z
#    x 1.991540 0.000000 -0.045240 
#    y 0.000000 1.967150 0.000000 
#    z -0.045240 0.000000 1.994240 
# 
# From -- ./inp_files/80181.got.cif
#   From: 2010.05.17/outbox.cif.g08.bks.cpg/sg14_41_cif.got.tgz:80181.got - 2010.06.03 17:49:19.
