data_PCOD9243647
_publ_section_title
;
Structure prediction by ZEFSAII (Michael W. Deem and Ramdas Pophale) SiO2 
 PCOD9243647
Probable space group: P 21/C
;
_chemical_formula_sum "Si O2"
_cell_formula_units_Z 24
_cell_length_a 18.034540
_cell_length_b 5.355874
_cell_length_c 12.224270
_cell_angle_alpha 90.000000
_cell_angle_beta 122.375201
_cell_angle_gamma 90.000000
_cell_volume 997.214862
_symmetry_space_group_name_H-M "P 21/C"
_symmetry_group_IT_number 14
_symmetry_cell_setting 'monoclinic'
loop_
_space_group_symop_operation_xyz
x,y,z
-x,1/2+y,1/2-z
-x,-y,-z
x,1/2-y,1/2+z
loop_
_atom_site_type_symbol
_atom_site_label
_atom_site_fract_x
_atom_site_fract_y
_atom_site_fract_z
Si Si1 0.806981 0.245494 0.506080
Si Si2 0.499526 0.249595 0.573987
Si Si3 0.004223 0.686517 0.327141
Si Si4 0.177448 0.476715 0.761901
Si Si5 0.690165 0.301588 0.757728
Si Si6 0.686038 0.900312 0.028317
O O1 0.903719 0.295868 0.535761
O O2 0.834217 0.183217 0.652448
O O3 0.751304 0.044797 0.390822
O O4 0.727713 0.439446 0.464973
O O5 0.500000 0.500000 0.500000
O O6 0.590314 0.245767 0.713386
O O7 0.407561 0.268965 0.566177
O O8 0.500000 0.000000 0.500000
O O9 0.989078 0.944315 0.247854
O O10 0.917832 0.640266 0.332800
O O11 0.238720 0.585762 0.715929
O O12 0.239072 0.285713 0.874336
O O13 0.675847 0.428099 0.628487
#
# Coordination Sequence:
#
# PCOD9243647 Si02
#       6
#     4   4   4   4   4   4
#     4  10  22  39  59  92 123 161 209 261 303 368
#     4  10  20  39  63  87 120 161 199 250 312 366
#     4  10  20  38  62  88 125 168 204 251 314 370
#     4  10  20  38  63  82 124 165 201 248 317 367
#     4  10  22  39  61  91 121 158 209 259 303 366
#     4  10  20  40  61  85 122 166 201 250 316 368
#
# _framework density 24.067027
#
# number of rings (size 3 to 8) (size 9 to 14) (size 15 to 20)
#    0.000    2.000    3.333    0.000    0.000    2.000 
#    3.000    0.833    0.000    0.000    0.000    0.000 
#    0.000    0.000    0.000    0.000    0.000    0.000 
#
# Total GULP energy -133633.970029 kJ/mol
# GULP energy per Si atom -5568.082085 kJ/mol
# Density = 2.401225 g / cm^3
# Si number density = 24.067027 Si / 1000 Ang^3
#
#
#
# Elastic Constant Matrix: (Units=GPa)
#
#
# Indices 1 2 3 4 5 6 
#
# 1 125.1233 5.2028 63.8847 0.0000 53.5716 0.0000
# 2 5.2028 71.4236 7.5221 0.0000 21.3772 0.0000
# 3 63.8847 7.5221 158.4029 0.0000 67.2028 0.0000
# 4 0.0000 0.0000 0.0000 -0.1237 0.0000 40.3165
# 5 53.5716 21.3772 67.2028 0.0000 62.1484 0.0000
# 6 0.0000 0.0000 0.0000 40.3165 0.0000 -17.1701
#
#
#
# Elastic Compliance Matrix: (Units=1/GPa)
#
#
# Indices 1 2 3 4 5 6 
#
# 1 0.013136 0.002605 -0.000439 0.000000 -0.011745 0.000000
# 2 0.002605 0.016847 0.002883 0.000000 -0.011158 0.000000
# 3 -0.000439 0.002883 0.012219 0.000000 -0.013826 0.000000
# 4 0.000000 0.000000 0.000000 0.010577 0.000000 0.024836
# 5 -0.011745 -0.011158 -0.013826 0.000000 0.045003 0.000000
# 6 0.000000 0.000000 0.000000 0.024836 0.000000 0.000076
#
#
# Mechanical properties :
#
#
# Convention : Reuss Voigt Hill
#
# Bulk Modulus (GPa) = 19.12036 56.46324 37.79180
# Shear Modulus (GPa) = 47.53105 27.52693 37.52899
#
# Velocity S-wave (km/s) = 4.44886 3.38562 3.95315
# Velocity P-wave (km/s) = 5.86103 6.22856 6.04759
#
# Compressibility (1/GPa) = 0.05230026
#
# Stress axis : x y z
#
# Youngs Moduli (GPa) = 76.12391 59.35728 81.84109
#
# Poissons Ratio (x) = -0.15460 0.03592
# Poissons Ratio (y) = -0.19827 -0.23597
# Poissons Ratio (z) = 0.03341 -0.17114
#
# Static dielectric constant tensor:
#      x y z
#    x 2.296720 0.000000 -0.389720 
#    y 0.000000 2.170320 0.000000 
#    z -0.389720 0.000000 2.471820 
# 
# From -- ./inp_files/45689.got.cif
#   From: 2010.05.17/outbox.cif.g08.bks.cpg/sg14_23_cif.got.tgz:45689.got - 2010.06.03 17:49:19.
