data_PCOD9243273
_publ_section_title
;
Structure prediction by ZEFSAII (Michael W. Deem and Ramdas Pophale) SiO2 
 PCOD9243273
Probable space group: P 21/C
;
_chemical_formula_sum "Si O2"
_cell_formula_units_Z 28
_cell_length_a 7.695651
_cell_length_b 16.238023
_cell_length_c 10.433545
_cell_angle_alpha 90.000000
_cell_angle_beta 105.819303
_cell_angle_gamma 90.000000
_cell_volume 1254.418512
_symmetry_space_group_name_H-M "P 21/C"
_symmetry_group_IT_number 14
_symmetry_cell_setting 'monoclinic'
loop_
_space_group_symop_operation_xyz
x,y,z
-x,1/2+y,1/2-z
-x,-y,-z
x,1/2-y,1/2+z
loop_
_atom_site_type_symbol
_atom_site_label
_atom_site_fract_x
_atom_site_fract_y
_atom_site_fract_z
Si Si1 0.257343 0.459788 0.445223
Si Si2 0.582288 0.112833 0.398301
Si Si3 0.563414 0.375001 0.608838
Si Si4 0.949961 0.309193 0.677828
Si Si5 0.115467 0.008049 0.191772
Si Si6 0.021105 0.819432 0.521256
Si Si7 0.275646 0.447662 0.988619
O O1 0.387339 0.381248 0.484699
O O2 0.353329 0.532417 0.385877
O O3 0.229935 0.496235 0.584622
O O4 0.055632 0.447247 0.352109
O O5 0.510779 0.139969 0.245476
O O6 0.770854 0.156939 0.461238
O O7 0.427311 0.117324 0.473421
O O8 0.637258 0.016088 0.404475
O O9 0.733529 0.317565 0.611897
O O10 0.985178 0.288201 0.833235
O O11 0.033461 0.246852 0.594186
O O12 0.030491 0.400159 0.673744
O O13 0.219254 0.004412 0.346208
O O14 0.895746 0.900261 0.491198
#
# Coordination Sequence:
#
# PCOD9243273 Si02
#       7
#     4   4   4   4   4   4   4
#     4   9  16  29  53  84 107 141 182 219 283 333
#     4  10  20  37  60  84 112 150 187 237 298 339
#     4   9  17  33  55  81 119 144 180 236 287 338
#     4   9  20  38  56  75 114 156 188 234 289 337
#     4   9  17  33  55  81 114 146 178 234 287 334
#     4  10  21  41  56  81 115 155 195 235 286 348
#     4  10  20  37  61  84 112 148 191 239 289 344
#
# _framework density 22.321099
#
# number of rings (size 3 to 8) (size 9 to 14) (size 15 to 20)
#    0.000    2.571    1.429    1.286    0.000    0.000 
#   12.857    0.000    0.000    0.000    0.000    0.000 
#    0.000    0.000    0.000    0.000    0.000    0.000 
#
# Total GULP energy -156323.743391 kJ/mol
# GULP energy per Si atom -5582.990835 kJ/mol
# Density = 2.227029 g / cm^3
# Si number density = 22.321099 Si / 1000 Ang^3
#
#
#
# Elastic Constant Matrix: (Units=GPa)
#
#
# Indices 1 2 3 4 5 6 
#
# 1 57.8765 0.9026 27.4908 0.0000 11.1398 0.0000
# 2 0.9026 28.6265 25.7628 0.0000 -5.9221 0.0000
# 3 27.4908 25.7628 56.6800 0.0000 -9.7863 0.0000
# 4 0.0000 0.0000 0.0000 21.5122 0.0000 -10.2278
# 5 11.1398 -5.9221 -9.7863 0.0000 31.4197 0.0000
# 6 0.0000 0.0000 0.0000 -10.2278 0.0000 16.0463
#
#
#
# Elastic Compliance Matrix: (Units=1/GPa)
#
#
# Indices 1 2 3 4 5 6 
#
# 1 0.034338 0.022028 -0.029646 0.000000 -0.017256 0.000000
# 2 0.022028 0.073502 -0.045496 0.000000 -0.008127 0.000000
# 3 -0.029646 -0.045496 0.056050 0.000000 0.019394 0.000000
# 4 0.000000 0.000000 0.000000 0.066698 0.000000 0.042513
# 5 -0.017256 -0.008127 0.019394 0.000000 0.042454 0.000000
# 6 0.000000 0.000000 0.000000 0.042513 0.000000 0.089417
#
#
# Mechanical properties :
#
#
# Convention : Reuss Voigt Hill
#
# Bulk Modulus (GPa) = 17.34279 27.94391 22.64335
# Shear Modulus (GPa) = 10.24785 19.73077 14.98931
#
# Velocity S-wave (km/s) = 2.14501 2.97636 2.59420
# Velocity P-wave (km/s) = 3.73113 4.93537 4.37488
#
# Compressibility (1/GPa) = 0.05766085
#
# Stress axis : x y z
#
# Youngs Moduli (GPa) = 29.12237 13.60511 17.84127
#
# Poissons Ratio (x) = -0.29970 0.52893
# Poissons Ratio (y) = -0.64151 0.81171
# Poissons Ratio (z) = 0.86337 0.61898
#
# Static dielectric constant tensor:
#      x y z
#    x 1.863940 0.000000 0.030770 
#    y 0.000000 1.809310 0.000000 
#    z 0.030770 0.000000 1.835780 
# 
# From -- ./inp_files/25843.got.cif
#   From: 2010.05.17/outbox.cif.g08.bks.cpg/sg14_13_cif.got.tgz:25843.got - 2010.06.03 17:49:19.
