data_PCOD9243388
_publ_section_title
;
Structure prediction by ZEFSAII (Michael W. Deem and Ramdas Pophale) SiO2 
 PCOD9243388
Probable space group: P 21/C
;
_chemical_formula_sum "Si O2"
_cell_formula_units_Z 28
_cell_length_a 10.036324
_cell_length_b 7.834941
_cell_length_c 29.226351
_cell_angle_alpha 90.000000
_cell_angle_beta 145.867802
_cell_angle_gamma 90.000000
_cell_volume 1289.521396
_symmetry_space_group_name_H-M "P 21/C"
_symmetry_group_IT_number 14
_symmetry_cell_setting 'monoclinic'
loop_
_space_group_symop_operation_xyz
x,y,z
-x,1/2+y,1/2-z
-x,-y,-z
x,1/2-y,1/2+z
loop_
_atom_site_type_symbol
_atom_site_label
_atom_site_fract_x
_atom_site_fract_y
_atom_site_fract_z
Si Si1 0.272184 0.323565 0.211390
Si Si2 0.745159 0.520991 0.699943
Si Si3 0.953892 0.784307 0.174335
Si Si4 0.438307 0.282164 0.006381
Si Si5 0.198821 0.554938 0.655068
Si Si6 0.268086 0.982051 0.019620
Si Si7 0.799141 0.387052 0.041291
O O1 0.218665 0.341267 0.249775
O O2 0.544303 0.373307 0.282668
O O3 0.075192 0.433457 0.127624
O O4 0.232029 0.139327 0.179284
O O5 0.876996 0.351437 0.753476
O O6 0.461310 0.494229 0.614037
O O7 0.858641 0.584410 0.684941
O O8 0.091324 0.858296 0.169761
O O9 0.720501 0.703946 0.084685
O O10 0.392930 0.097744 0.015171
O O11 0.343358 0.439179 0.010364
O O12 0.699979 0.318052 0.062202
O O13 0.999171 0.557462 0.558183
O O14 0.242373 0.779174 0.002187
#
# Coordination Sequence:
#
# PCOD9243388 Si02
#       7
#     4   4   4   4   4   4   4
#     4  11  23  41  67  89 127 166 218 260 312 378
#     4  12  24  39  63 100 134 154 205 279 322 360
#     4  11  23  39  64  97 129 164 208 260 328 370
#     4  10  20  37  63  90 126 167 213 250 312 394
#     4  10  24  44  67  87 122 180 216 247 310 399
#     4  10  23  38  64  91 129 163 213 256 323 369
#     4  10  20  37  63  92 119 172 210 255 304 390
#
# _framework density 21.713483
#
# number of rings (size 3 to 8) (size 9 to 14) (size 15 to 20)
#    0.000    1.429    2.857    2.143    8.000    0.571 
#    2.571    0.000    0.000    2.571    0.000    0.000 
#    0.000    0.000    0.000    0.000    0.000    0.000 
#
# Total GULP energy -156255.976338 kJ/mol
# GULP energy per Si atom -5580.570583 kJ/mol
# Density = 2.166406 g / cm^3
# Si number density = 21.713483 Si / 1000 Ang^3
#
#
#
# Elastic Constant Matrix: (Units=GPa)
#
#
# Indices 1 2 3 4 5 6 
#
# 1 51.3021 -0.6369 22.2298 0.0000 20.8114 0.0000
# 2 -0.6369 50.3992 24.9657 0.0000 -2.4446 0.0000
# 3 22.2298 24.9657 137.2476 0.0000 22.4767 0.0000
# 4 0.0000 0.0000 0.0000 34.1878 0.0000 2.5217
# 5 20.8114 -2.4446 22.4767 0.0000 31.4871 0.0000
# 6 0.0000 0.0000 0.0000 2.5217 0.0000 19.8369
#
#
#
# Elastic Compliance Matrix: (Units=1/GPa)
#
#
# Indices 1 2 3 4 5 6 
#
# 1 0.026962 0.000393 -0.001727 0.000000 -0.016557 0.000000
# 2 0.000393 0.022567 -0.004997 0.000000 0.005060 0.000000
# 3 -0.001727 -0.004997 0.009457 0.000000 -0.005997 0.000000
# 4 0.000000 0.000000 0.000000 0.029527 0.000000 -0.003754
# 5 -0.016557 0.005060 -0.005997 0.000000 0.047377 0.000000
# 6 0.000000 0.000000 0.000000 -0.003754 0.000000 0.050888
#
#
# Mechanical properties :
#
#
# Convention : Reuss Voigt Hill
#
# Bulk Modulus (GPa) = 21.58691 36.89623 29.24157
# Shear Modulus (GPa) = 23.26850 29.92838 26.59844
#
# Velocity S-wave (km/s) = 3.27710 3.71662 3.50376
# Velocity P-wave (km/s) = 4.92773 5.95373 5.46486
#
# Compressibility (1/GPa) = 0.04632436
#
# Stress axis : x y z
#
# Youngs Moduli (GPa) = 37.08871 44.31163 105.74163
#
# Poissons Ratio (x) = -0.01742 0.18261
# Poissons Ratio (y) = -0.01458 0.52843
# Poissons Ratio (z) = 0.06405 0.22144
#
# Static dielectric constant tensor:
#      x y z
#    x 1.848500 0.000000 0.069020 
#    y 0.000000 1.806590 0.000000 
#    z 0.069020 0.000000 1.875690 
# 
# From -- ./inp_files/76493.got.cif
#   From: 2010.05.17/outbox.cif.g08.bks.cpg/sg14_39_cif.got.tgz:76493.got - 2010.06.03 17:49:19.
