data_PCOD9243097
_publ_section_title
;
Structure prediction by ZEFSAII (Michael W. Deem and Ramdas Pophale) SiO2 
 PCOD9243097
Probable space group: P 21/C
;
_chemical_formula_sum "Si O2"
_cell_formula_units_Z 28
_cell_length_a 6.069770
_cell_length_b 18.236340
_cell_length_c 14.406772
_cell_angle_alpha 90.000000
_cell_angle_beta 60.416846
_cell_angle_gamma 90.000000
_cell_volume 1386.807449
_symmetry_space_group_name_H-M "P 21/C"
_symmetry_group_IT_number 14
_symmetry_cell_setting 'monoclinic'
loop_
_space_group_symop_operation_xyz
x,y,z
-x,1/2+y,1/2-z
-x,-y,-z
x,1/2-y,1/2+z
loop_
_atom_site_type_symbol
_atom_site_label
_atom_site_fract_x
_atom_site_fract_y
_atom_site_fract_z
Si Si1 0.755310 0.287523 0.999962
Si Si2 0.444996 0.830190 0.663231
Si Si3 0.268902 0.192553 0.891903
Si Si4 0.526649 0.848140 0.947116
Si Si5 0.990806 0.927589 0.767655
Si Si6 0.964781 0.922669 0.554682
Si Si7 0.975635 0.445845 0.416135
O O1 0.652683 0.309232 0.919566
O O2 0.014017 0.240957 0.939204
O O3 0.835704 0.363753 0.028636
O O4 0.559480 0.228753 0.079398
O O5 0.522409 0.750505 0.687350
O O6 0.688806 0.883825 0.605562
O O7 0.217325 0.875161 0.757356
O O8 0.198802 0.114516 0.862487
O O9 0.340938 0.171516 0.982569
O O10 0.725970 0.888124 0.841482
O O11 0.286140 0.900484 0.017548
O O12 0.021688 0.935186 0.651557
O O13 0.982361 0.003037 0.824958
O O14 0.000000 0.000000 0.500000
O O15 0.000000 0.500000 0.500000
#
# Coordination Sequence:
#
# PCOD9243097 Si02
#       7
#     4   4   4   4   4   4   4
#     4   8  18  37  63  87 112 164 207 249 317 374
#     4   9  20  39  65  82 121 167 214 255 312 379
#     4   9  18  37  63  83 122 168 194 256 324 375
#     4  10  20  36  63  88 132 162 202 255 327 392
#     4  11  23  35  63  97 122 167 217 253 324 386
#     4  10  22  41  68  83 125 169 215 264 309 365
#     4  11  22  35  62  94 132 164 201 266 328 382
#
# _framework density 20.190258
#
# number of rings (size 3 to 8) (size 9 to 14) (size 15 to 20)
#    0.000    2.286    1.429    0.429    2.000    2.286 
#    0.000    0.000  103.714    0.000    0.000    0.000 
#    0.000    0.000    0.000    0.000    0.000    0.000 
#
# Total GULP energy -156077.980959 kJ/mol
# GULP energy per Si atom -5574.213606 kJ/mol
# Density = 2.014430 g / cm^3
# Si number density = 20.190258 Si / 1000 Ang^3
#
#
#
# Elastic Constant Matrix: (Units=GPa)
#
#
# Indices 1 2 3 4 5 6 
#
# 1 89.1444 60.8671 24.6179 0.0000 0.1809 0.0000
# 2 60.8671 198.5968 53.4016 0.0000 -6.8337 0.0000
# 3 24.6179 53.4016 55.7638 0.0000 2.6716 0.0000
# 4 0.0000 0.0000 0.0000 8.4458 0.0000 -3.7582
# 5 0.1809 -6.8337 2.6716 0.0000 24.8760 0.0000
# 6 0.0000 0.0000 0.0000 -3.7582 0.0000 46.0567
#
#
#
# Elastic Compliance Matrix: (Units=1/GPa)
#
#
# Indices 1 2 3 4 5 6 
#
# 1 0.014542 -0.003730 -0.002808 0.000000 -0.000829 0.000000
# 2 -0.003730 0.007907 -0.006061 0.000000 0.002850 0.000000
# 3 -0.002808 -0.006061 0.025185 0.000000 -0.004350 0.000000
# 4 0.000000 0.000000 0.000000 0.122864 0.000000 0.010026
# 5 -0.000829 0.002850 -0.004350 0.000000 0.041455 0.000000
# 6 0.000000 0.000000 0.000000 0.010026 0.000000 0.022530
#
#
# Mechanical properties :
#
#
# Convention : Reuss Voigt Hill
#
# Bulk Modulus (GPa) = 44.57346 69.03092 56.80219
# Shear Modulus (GPa) = 18.71534 29.51692 24.11613
#
# Velocity S-wave (km/s) = 3.04789 3.82768 3.45982
# Velocity P-wave (km/s) = 5.87459 7.33480 6.64493
#
# Compressibility (1/GPa) = 0.02243487
#
# Stress axis : x y z
#
# Youngs Moduli (GPa) = 68.76671 126.47659 39.70581
#
# Poissons Ratio (x) = 0.47182 0.11148
# Poissons Ratio (y) = 0.25653 0.24067
# Poissons Ratio (z) = 0.19307 0.76662
#
# Static dielectric constant tensor:
#      x y z
#    x 1.762200 0.000000 -0.002030 
#    y 0.000000 1.728920 0.000000 
#    z -0.002030 0.000000 1.680100 
# 
# From -- ./inp_files/37635.got.cif
#   From: 2010.05.17/outbox.cif.g08.bks.cpg/sg14_19_cif.got.tgz:37635.got - 2010.06.03 17:49:19.
