data_PCOD9243776
_publ_section_title
;
Structure prediction by ZEFSAII (Michael W. Deem and Ramdas Pophale) SiO2 
 PCOD9243776
Probable space group: P 21/C
;
_chemical_formula_sum "Si O2"
_cell_formula_units_Z 32
_cell_length_a 26.421908
_cell_length_b 11.730960
_cell_length_c 14.653694
_cell_angle_alpha 90.000000
_cell_angle_beta 19.083949
_cell_angle_gamma 90.000000
_cell_volume 1485.013476
_symmetry_space_group_name_H-M "P 21/C"
_symmetry_group_IT_number 14
_symmetry_cell_setting 'monoclinic'
loop_
_space_group_symop_operation_xyz
x,y,z
-x,1/2+y,1/2-z
-x,-y,-z
x,1/2-y,1/2+z
loop_
_atom_site_type_symbol
_atom_site_label
_atom_site_fract_x
_atom_site_fract_y
_atom_site_fract_z
Si Si1 0.183879 0.321974 0.353399
Si Si2 0.989586 0.637381 0.977052
Si Si3 0.279102 0.765223 0.427743
Si Si4 0.714568 0.239598 0.295066
Si Si5 0.529363 0.809325 0.151443
Si Si6 0.070636 0.233396 0.737267
Si Si7 0.220614 0.990646 0.276763
Si Si8 0.919962 0.017661 0.281934
O O1 0.084290 0.226093 0.470938
O O2 0.163933 0.288935 0.494497
O O3 0.097819 0.439853 0.477027
O O4 0.358679 0.300012 0.025283
O O5 0.170711 0.664280 0.652093
O O6 0.935361 0.683761 0.166866
O O7 0.901242 0.522745 0.095464
O O8 0.318083 0.740351 0.256363
O O9 0.428138 0.786979 0.234599
O O10 0.180045 0.883154 0.594925
O O11 0.590416 0.168950 0.562849
O O12 0.705242 0.366424 0.353878
O O13 0.895209 0.211168 0.000887
O O14 0.646311 0.915017 0.943514
O O15 0.120297 0.107610 0.684934
O O16 0.125870 0.987238 0.533099
#
# Coordination Sequence:
#
# PCOD9243776 Si02
#       8
#     4   4   4   4   4   4   4   4
#     4  10  22  41  60  94 126 157 213 257 301 368
#     4  10  20  38  65  90 120 166 206 257 299 367
#     4  10  21  40  63  94 128 159 207 258 316 364
#     4  11  23  40  64  92 125 169 206 254 319 369
#     4  11  23  41  60  95 132 158 200 271 312 368
#     4  12  20  39  68  93 119 165 217 249 303 370
#     4  10  21  43  62  88 128 164 210 251 313 372
#     4  10  20  40  68  92 120 168 210 259 303 366
#
# _framework density 21.548625000000001
#
# number of rings (size 3 to 8) (size 9 to 14) (size 15 to 20)
#    0.000    1.500    7.500    0.000    0.000    7.500 
#    4.500    0.000    0.000    3.000    0.000    0.000 
#    0.000    0.000    0.000    0.000    0.000    0.000 
#
# Total GULP energy -178728.574477 kJ/mol
# GULP energy per Si atom -5585.267952 kJ/mol
# Density = 2.149958 g / cm^3
# Si number density = 21.548625 Si / 1000 Ang^3
#
#
#
# Elastic Constant Matrix: (Units=GPa)
#
#
# Indices 1 2 3 4 5 6 
#
# 1 45.1079 -12.4547 5.7323 0.0000 2.4850 0.0000
# 2 -12.4547 50.3608 -18.3719 0.0000 2.6284 0.0000
# 3 5.7323 -18.3719 60.8533 0.0000 -8.8037 0.0000
# 4 0.0000 0.0000 0.0000 33.9389 0.0000 0.8174
# 5 2.4850 2.6284 -8.8037 0.0000 34.8797 0.0000
# 6 0.0000 0.0000 0.0000 0.8174 0.0000 19.0645
#
#
#
# Elastic Compliance Matrix: (Units=1/GPa)
#
#
# Indices 1 2 3 4 5 6 
#
# 1 0.023995 0.005740 -0.000869 0.000000 -0.002361 0.000000
# 2 0.005740 0.023688 0.006532 0.000000 -0.000545 0.000000
# 3 -0.000869 0.006532 0.019123 0.000000 0.004396 0.000000
# 4 0.000000 0.000000 0.000000 0.029495 0.000000 -0.001265
# 5 -0.002361 -0.000545 0.004396 0.000000 0.029989 0.000000
# 6 0.000000 0.000000 0.000000 -0.001265 0.000000 0.052508
#
#
# Mechanical properties :
#
#
# Convention : Reuss Voigt Hill
#
# Bulk Modulus (GPa) = 11.15927 11.79260 11.47594
# Shear Modulus (GPa) = 26.90186 29.67103 28.28645
#
# Velocity S-wave (km/s) = 3.53714 3.71473 3.62702
# Velocity P-wave (km/s) = 4.67672 4.88707 4.78305
#
# Compressibility (1/GPa) = 0.08961160
#
# Stress axis : x y z
#
# Youngs Moduli (GPa) = 41.67615 42.21609 52.29355
#
# Poissons Ratio (x) = -0.24234 0.04543
# Poissons Ratio (y) = -0.23924 -0.34157
# Poissons Ratio (z) = 0.03621 -0.27575
#
# Static dielectric constant tensor:
#      x y z
#    x 1.780210 0.000000 -0.001960 
#    y 0.000000 1.876850 0.000000 
#    z -0.001960 0.000000 1.772070 
# 
# From -- ./inp_files/52040.got.cif
#   From: 2010.05.17/outbox.cif.g08.bks.cpg/sg14_27_cif.got.tgz:52040.got - 2010.06.03 17:49:19.
