data_PCOD9243916
_publ_section_title
;
Structure prediction by ZEFSAII (Michael W. Deem and Ramdas Pophale) SiO2 
 PCOD9243916
Probable space group: P 21/C
;
_chemical_formula_sum "Si O2"
_cell_formula_units_Z 28
_cell_length_a 9.076894
_cell_length_b 11.632011
_cell_length_c 26.001305
_cell_angle_alpha 90.000000
_cell_angle_beta 23.994156
_cell_angle_gamma 90.000000
_cell_volume 1116.351622
_symmetry_space_group_name_H-M "P 21/C"
_symmetry_group_IT_number 14
_symmetry_cell_setting 'monoclinic'
loop_
_space_group_symop_operation_xyz
x,y,z
-x,1/2+y,1/2-z
-x,-y,-z
x,1/2-y,1/2+z
loop_
_atom_site_type_symbol
_atom_site_label
_atom_site_fract_x
_atom_site_fract_y
_atom_site_fract_z
Si Si1 0.010290 0.596817 0.331003
Si Si2 0.155712 0.671807 0.908194
Si Si3 0.793293 0.650307 0.126707
Si Si4 0.076429 0.104987 0.879767
Si Si5 0.397772 0.930059 0.847397
Si Si6 0.955758 0.034896 0.296279
Si Si7 0.317843 0.169116 0.544564
O O1 0.379520 0.656930 0.236105
O O2 0.882325 0.492880 0.408490
O O3 0.098229 0.546432 0.247153
O O4 0.727626 0.701193 0.421464
O O5 0.549745 0.622569 0.771081
O O6 0.199753 0.808833 0.903607
O O7 0.907541 0.655903 0.937058
O O8 0.012234 0.617871 0.006508
O O9 0.998778 0.764268 0.081583
O O10 0.719351 0.575406 0.200736
O O11 0.172916 0.040335 0.902042
O O12 0.620468 0.944921 0.828114
O O13 0.718325 0.133030 0.399815
O O14 0.828173 0.916904 0.364469
#
# Coordination Sequence:
#
# PCOD9243916 Si02
#       7
#     4   4   4   4   4   4   4
#     4  11  22  40  65  94 133 176 206 269 333 377
#     4  11  20  38  65  90 124 170 216 263 318 382
#     4  10  21  36  62  92 124 167 216 265 314 385
#     4  10  20  39  61  91 128 163 224 263 311 383
#     4  10  21  38  59  91 123 161 217 266 305 386
#     4  11  24  39  66  95 131 171 209 273 329 372
#     4  11  22  41  63  97 131 166 219 267 315 398
#
# _framework density 25.081704999999999
#
# number of rings (size 3 to 8) (size 9 to 14) (size 15 to 20)
#    0.000    1.429    7.143    0.000    0.000    8.571 
#    0.000    0.000    0.000    5.143    0.000    0.000 
#    0.000    0.000    0.000    0.000    0.000    0.000 
#
# Total GULP energy -156590.547376 kJ/mol
# GULP energy per Si atom -5592.519549 kJ/mol
# Density = 2.502462 g / cm^3
# Si number density = 25.081705 Si / 1000 Ang^3
#
#
#
# Elastic Constant Matrix: (Units=GPa)
#
#
# Indices 1 2 3 4 5 6 
#
# 1 125.3634 24.2336 25.5720 0.0000 10.3203 0.0000
# 2 24.2336 160.1334 16.4944 0.0000 2.4397 0.0000
# 3 25.5720 16.4944 62.1530 0.0000 14.0515 0.0000
# 4 0.0000 0.0000 0.0000 23.7917 0.0000 3.4200
# 5 10.3203 2.4397 14.0515 0.0000 49.3886 0.0000
# 6 0.0000 0.0000 0.0000 3.4200 0.0000 26.5083
#
#
#
# Elastic Compliance Matrix: (Units=1/GPa)
#
#
# Indices 1 2 3 4 5 6 
#
# 1 0.008896 -0.001004 -0.003190 0.000000 -0.000902 0.000000
# 2 -0.001004 0.006535 -0.001385 0.000000 0.000281 0.000000
# 3 -0.003190 -0.001385 0.018813 0.000000 -0.004618 0.000000
# 4 0.000000 0.000000 0.000000 0.042826 0.000000 -0.005525
# 5 -0.000902 0.000281 -0.004618 0.000000 0.021736 0.000000
# 6 0.000000 0.000000 0.000000 -0.005525 0.000000 0.038437
#
#
# Mechanical properties :
#
#
# Convention : Reuss Voigt Hill
#
# Bulk Modulus (GPa) = 43.31424 53.36110 48.33767
# Shear Modulus (GPa) = 32.03178 38.69438 35.36308
#
# Velocity S-wave (km/s) = 3.57753 3.93203 3.75896
# Velocity P-wave (km/s) = 5.86274 6.47576 6.17686
#
# Compressibility (1/GPa) = 0.02308710
#
# Stress axis : x y z
#
# Youngs Moduli (GPa) = 112.41302 153.02039 53.15436
#
# Poissons Ratio (x) = 0.15362 0.16955
# Poissons Ratio (y) = 0.11286 0.07361
# Poissons Ratio (z) = 0.35857 0.21190
#
# Static dielectric constant tensor:
#      x y z
#    x 1.970360 0.000000 -0.018490 
#    y 0.000000 2.001410 0.000000 
#    z -0.018490 0.000000 2.049570 
# 
# From -- ./inp_files/76650.got.cif
#   From: 2010.05.17/outbox.cif.g08.bks.cpg/sg14_39_cif.got.tgz:76650.got - 2010.06.03 17:49:19.
