data_PCOD9243207
_publ_section_title
;
Structure prediction by ZEFSAII (Michael W. Deem and Ramdas Pophale) SiO2 
 PCOD9243207
Probable space group: P 21/C
;
_chemical_formula_sum "Si O2"
_cell_formula_units_Z 32
_cell_length_a 20.149408
_cell_length_b 5.093457
_cell_length_c 19.702104
_cell_angle_alpha 90.000000
_cell_angle_beta 44.311041
_cell_angle_gamma 90.000000
_cell_volume 1412.495331
_symmetry_space_group_name_H-M "P 21/C"
_symmetry_group_IT_number 14
_symmetry_cell_setting 'monoclinic'
loop_
_space_group_symop_operation_xyz
x,y,z
-x,1/2+y,1/2-z
-x,-y,-z
x,1/2-y,1/2+z
loop_
_atom_site_type_symbol
_atom_site_label
_atom_site_fract_x
_atom_site_fract_y
_atom_site_fract_z
Si Si1 0.240060 0.311804 0.016202
Si Si2 0.621607 0.246733 0.275242
Si Si3 0.735297 0.314537 0.895497
Si Si4 0.767089 0.313780 0.562134
Si Si5 0.585460 0.557586 0.544198
Si Si6 0.597662 0.867049 0.406142
Si Si7 0.800387 0.482273 0.229576
Si Si8 0.109322 0.506855 0.400067
O O1 0.211050 0.021074 0.013888
O O2 0.348694 0.257246 0.961432
O O3 0.221984 0.511875 0.967702
O O4 0.201173 0.489428 0.106741
O O5 0.522815 0.404959 0.354123
O O6 0.606408 0.962632 0.322444
O O7 0.703669 0.412081 0.256721
O O8 0.660999 0.184960 0.171774
O O9 0.689201 0.490613 0.870673
O O10 0.780054 0.063707 0.824627
O O11 0.644639 0.210856 0.005538
O O12 0.831943 0.413027 0.576021
O O13 0.590782 0.610028 0.458449
O O14 0.500000 0.000000 0.500000
O O15 0.846023 0.748018 0.167463
O O16 0.873943 0.250340 0.161498
O O17 0.000000 0.500000 0.500000
#
# Coordination Sequence:
#
# PCOD9243207 Si02
#       8
#     4   4   4   4   4   4   4   4
#     4  11  23  41  58  89 127 183 218 254 311 369
#     4   9  20  37  55  92 129 170 223 265 313 364
#     4  10  21  37  62  92 128 176 220 260 312 375
#     4  11  23  41  62  88 125 170 213 267 322 390
#     4  10  20  37  58  85 130 182 219 263 296 363
#     4   8  17  32  50  83 117 161 213 271 315 342
#     4  10  23  39  69 102 130 161 212 276 330 385
#     4  11  24  46  72 102 125 159 203 275 354 408
#
# _framework density 22.654941000000001
#
# number of rings (size 3 to 8) (size 9 to 14) (size 15 to 20)
#    0.000    2.000    1.250    1.875    7.000    5.500 
#   15.750    0.000    0.000    3.000    0.000    0.000 
#    0.000    0.000    0.000    0.000    0.000    0.000 
#
# Total GULP energy -178183.865726 kJ/mol
# GULP energy per Si atom -5568.245804 kJ/mol
# Density = 2.260338 g / cm^3
# Si number density = 22.654941 Si / 1000 Ang^3
#
#
#
# Elastic Constant Matrix: (Units=GPa)
#
#
# Indices 1 2 3 4 5 6 
#
# 1 27.2815 12.4413 19.9407 0.0000 4.2560 0.0000
# 2 12.4413 120.3803 26.7122 0.0000 -10.1389 0.0000
# 3 19.9407 26.7122 88.9480 0.0000 -21.7410 0.0000
# 4 0.0000 0.0000 0.0000 30.0758 0.0000 5.5725
# 5 4.2560 -10.1389 -21.7410 0.0000 25.6016 0.0000
# 6 0.0000 0.0000 0.0000 5.5725 0.0000 24.8770
#
#
#
# Elastic Compliance Matrix: (Units=1/GPa)
#
#
# Indices 1 2 3 4 5 6 
#
# 1 0.055193 -0.003991 -0.017420 0.000000 -0.025548 0.000000
# 2 -0.003991 0.009240 -0.001039 0.000000 0.003440 0.000000
# 3 -0.017420 -0.001039 0.020276 0.000000 0.019702 0.000000
# 4 0.000000 0.000000 0.000000 0.034689 0.000000 -0.007770
# 5 -0.025548 0.003440 0.019702 0.000000 0.061401 0.000000
# 6 0.000000 0.000000 0.000000 -0.007770 0.000000 0.041938
#
#
# Mechanical properties :
#
#
# Convention : Reuss Voigt Hill
#
# Bulk Modulus (GPa) = 25.11990 39.42202 32.27096
# Shear Modulus (GPa) = 17.79959 27.94525 22.87242
#
# Velocity S-wave (km/s) = 2.80604 3.51596 3.18087
# Velocity P-wave (km/s) = 4.64872 5.82421 5.26935
#
# Compressibility (1/GPa) = 0.03980908
#
# Stress axis : x y z
#
# Youngs Moduli (GPa) = 18.11831 108.22750 49.32040
#
# Poissons Ratio (x) = 0.43189 0.85914
# Poissons Ratio (y) = 0.07230 0.05126
# Poissons Ratio (z) = 0.31561 0.11249
#
# Static dielectric constant tensor:
#      x y z
#    x 1.907110 0.000000 0.064080 
#    y 0.000000 1.997000 0.000000 
#    z 0.064080 0.000000 1.928290 
# 
# From -- ./inp_files/69597.got.cif
#   From: 2010.05.17/outbox.cif.g08.bks.cpg/sg14_35_cif.got.tgz:69597.got - 2010.06.03 17:49:19.
