data_PCOD9243897
_publ_section_title
;
Structure prediction by ZEFSAII (Michael W. Deem and Ramdas Pophale) SiO2 
 PCOD9243897
Probable space group: P 21/C
;
_chemical_formula_sum "Si O2"
_cell_formula_units_Z 24
_cell_length_a 4.849156
_cell_length_b 17.811910
_cell_length_c 10.387096
_cell_angle_alpha 90.000000
_cell_angle_beta 91.534482
_cell_angle_gamma 90.000000
_cell_volume 896.840110
_symmetry_space_group_name_H-M "P 21/C"
_symmetry_group_IT_number 14
_symmetry_cell_setting 'monoclinic'
loop_
_space_group_symop_operation_xyz
x,y,z
-x,1/2+y,1/2-z
-x,-y,-z
x,1/2-y,1/2+z
loop_
_atom_site_type_symbol
_atom_site_label
_atom_site_fract_x
_atom_site_fract_y
_atom_site_fract_z
Si Si1 0.788514 0.023050 0.282056
Si Si2 0.347702 0.699183 0.014761
Si Si3 0.929882 0.252636 0.235096
Si Si4 0.000000 0.500000 0.500000
Si Si5 0.500000 0.500000 0.500000
Si Si6 0.715628 0.606385 0.286302
Si Si7 0.146205 0.122904 0.583069
O O1 0.733361 0.956898 0.378451
O O2 0.588214 0.094122 0.269638
O O3 0.098871 0.050302 0.296519
O O4 0.760891 0.994364 0.130997
O O5 0.658950 0.672270 0.005879
O O6 0.279890 0.748744 0.888014
O O7 0.153977 0.625907 0.985207
O O8 0.236261 0.742012 0.136599
O O9 0.145679 0.185683 0.215917
O O10 0.095043 0.329932 0.213721
O O11 0.251493 0.558145 0.551486
O O12 0.263271 0.434546 0.572938
#
# Coordination Sequence:
#
# PCOD9243897 Si02
#       7
#     4   4   4   2   2   4   4
#     4  10  20  39  60  96 133 171 219 279 342 400
#     4  10  25  43  71  95 138 178 241 269 354 406
#     4  10  26  45  70 101 138 182 233 287 339 416
#     4   8  16  30  54  84 124 154 210 252 320 388
#     4   8  16  32  48  88 122 158 200 268 318 376
#     4  10  21  36  65  95 135 168 229 278 338 404
#     4  10  24  44  68  98 138 184 223 284 346 413
#
# _framework density 26.760624
#
# number of rings (size 3 to 8) (size 9 to 14) (size 15 to 20)
#    1.000    1.333    0.000    1.000    4.667    4.000 
#    6.000    5.000    0.000    0.000    0.000    0.000 
#    0.000    0.000    0.000    0.000    0.000    0.000 
#
# Total GULP energy -133694.021493 kJ/mol
# GULP energy per Si atom -5570.584229 kJ/mol
# Density = 2.669972 g / cm^3
# Si number density = 26.760624 Si / 1000 Ang^3
#
#
#
# Elastic Constant Matrix: (Units=GPa)
#
#
# Indices 1 2 3 4 5 6 
#
# 1 217.7225 16.1378 20.9848 0.0000 -3.4518 0.0000
# 2 16.1378 62.6736 21.8851 0.0000 4.1743 0.0000
# 3 20.9848 21.8851 108.4982 0.0000 -3.5922 0.0000
# 4 0.0000 0.0000 0.0000 37.1030 0.0000 -2.6557
# 5 -3.4518 4.1743 -3.5922 0.0000 46.9877 0.0000
# 6 0.0000 0.0000 0.0000 -2.6557 0.0000 33.9015
#
#
#
# Elastic Compliance Matrix: (Units=1/GPa)
#
#
# Indices 1 2 3 4 5 6 
#
# 1 0.004741 -0.001001 -0.000702 0.000000 0.000384 0.000000
# 2 -0.001001 0.017528 -0.003405 0.000000 -0.001891 0.000000
# 3 -0.000702 -0.003405 0.010073 0.000000 0.001021 0.000000
# 4 0.000000 0.000000 0.000000 0.027104 0.000000 0.002123
# 5 0.000384 -0.001891 0.001021 0.000000 0.021556 0.000000
# 6 0.000000 0.000000 0.000000 0.002123 0.000000 0.029664
#
#
# Mechanical properties :
#
#
# Convention : Reuss Voigt Hill
#
# Bulk Modulus (GPa) = 45.19497 56.32331 50.75914
# Shear Modulus (GPa) = 38.98404 45.59089 42.28746
#
# Velocity S-wave (km/s) = 3.82090 4.13201 3.97950
# Velocity P-wave (km/s) = 6.03250 6.62250 6.33437
#
# Compressibility (1/GPa) = 0.02212636
#
# Stress axis : x y z
#
# Youngs Moduli (GPa) = 210.92700 57.05081 99.27404
#
# Poissons Ratio (x) = 0.05711 0.06972
# Poissons Ratio (y) = 0.21115 0.33799
# Poissons Ratio (z) = 0.14814 0.19424
#
# Static dielectric constant tensor:
#      x y z
#    x 2.369290 0.000000 0.043450 
#    y 0.000000 2.089530 0.000000 
#    z 0.043450 0.000000 2.271690 
# 
# From -- ./inp_files/21244.got.cif
#   From: 2010.05.17/outbox.cif.g08.bks.cpg/sg14_11_cif.got.tgz:21244.got - 2010.06.03 17:49:19.
