data_PCOD9243315
_publ_section_title
;
Structure prediction by ZEFSAII (Michael W. Deem and Ramdas Pophale) SiO2 
 PCOD9243315
Probable space group: P 21/C
;
_chemical_formula_sum "Si O2"
_cell_formula_units_Z 32
_cell_length_a 16.178167
_cell_length_b 16.597287
_cell_length_c 11.755810
_cell_angle_alpha 90.000000
_cell_angle_beta 149.840480
_cell_angle_gamma 90.000000
_cell_volume 1585.902787
_symmetry_space_group_name_H-M "P 21/C"
_symmetry_group_IT_number 14
_symmetry_cell_setting 'monoclinic'
loop_
_space_group_symop_operation_xyz
x,y,z
-x,1/2+y,1/2-z
-x,-y,-z
x,1/2-y,1/2+z
loop_
_atom_site_type_symbol
_atom_site_label
_atom_site_fract_x
_atom_site_fract_y
_atom_site_fract_z
Si Si1 0.050356 0.278962 0.397413
Si Si2 0.141328 0.144176 0.778734
Si Si3 0.108740 0.885533 0.708882
Si Si4 0.539775 0.089635 0.994129
Si Si5 0.275134 0.494377 0.570538
Si Si6 0.574159 0.607497 0.895040
Si Si7 0.886973 0.572344 0.397152
Si Si8 0.625778 0.740337 0.592335
O O1 0.033494 0.318970 0.252965
O O2 0.014451 0.349307 0.445393
O O3 0.247922 0.262140 0.653578
O O4 0.939256 0.201602 0.293951
O O5 0.241657 0.216276 0.844576
O O6 0.039158 0.101746 0.556353
O O7 0.271312 0.080753 0.981277
O O8 0.272364 0.896795 0.825553
O O9 0.142727 0.944642 0.855460
O O10 0.443347 0.107186 0.761434
O O11 0.483288 0.162698 0.008255
O O12 0.500000 0.000000 0.000000
O O13 0.448382 0.538081 0.783165
O O14 0.219629 0.458274 0.623138
O O15 0.761747 0.591686 0.148626
O O16 0.530008 0.685594 0.920254
O O17 0.000000 0.500000 0.500000
#
# Coordination Sequence:
#
# PCOD9243315 Si02
#       8
#     4   4   4   4   4   4   4   4
#     4   9  21  38  57  83 114 153 199 243 300 361
#     4  10  20  38  59  83 115 158 201 246 300 360
#     4  10  22  37  59  88 120 156 200 254 304 360
#     4  11  24  40  61  93 124 158 204 252 304 365
#     4  10  21  38  58  83 116 155 198 239 295 359
#     4  10  22  40  59  86 120 159 198 244 302 361
#     4  10  22  38  60  87 114 151 196 246 298 351
#     4  10  20  37  61  85 117 156 197 248 305 361
#
# _framework density 20.177782000000001
#
# number of rings (size 3 to 8) (size 9 to 14) (size 15 to 20)
#    0.000    2.000    0.000    3.000    0.000   11.000 
#    0.000    3.750    0.000    0.000    0.000    0.000 
#    0.000    0.000    0.000    0.000    0.000    0.000 
#
# Total GULP energy -178295.972446 kJ/mol
# GULP energy per Si atom -5571.749139 kJ/mol
# Density = 2.013186 g / cm^3
# Si number density = 20.177782 Si / 1000 Ang^3
#
#
#
# Elastic Constant Matrix: (Units=GPa)
#
#
# Indices 1 2 3 4 5 6 
#
# 1 23.8953 13.2483 5.4731 0.0000 -2.0882 0.0000
# 2 13.2483 103.8716 8.3816 0.0000 4.1883 0.0000
# 3 5.4731 8.3816 40.6538 0.0000 -11.3487 0.0000
# 4 0.0000 0.0000 0.0000 30.7850 0.0000 5.6325
# 5 -2.0882 4.1883 -11.3487 0.0000 17.1740 0.0000
# 6 0.0000 0.0000 0.0000 5.6325 0.0000 42.3755
#
#
#
# Elastic Compliance Matrix: (Units=1/GPa)
#
#
# Indices 1 2 3 4 5 6 
#
# 1 0.046319 -0.005787 -0.003773 0.000000 0.004550 0.000000
# 2 -0.005787 0.010814 -0.002922 0.000000 -0.005272 0.000000
# 3 -0.003773 -0.002922 0.031610 0.000000 0.021142 0.000000
# 4 0.000000 0.000000 0.000000 0.033293 0.000000 -0.004425
# 5 0.004550 -0.005272 0.021142 0.000000 0.074037 0.000000
# 6 0.000000 0.000000 0.000000 -0.004425 0.000000 0.024187
#
#
# Mechanical properties :
#
#
# Convention : Reuss Voigt Hill
#
# Bulk Modulus (GPa) = 15.67878 24.73629 20.20754
# Shear Modulus (GPa) = 18.76292 27.48810 23.12551
#
# Velocity S-wave (km/s) = 3.05270 3.69493 3.38906
# Velocity P-wave (km/s) = 4.49583 5.52170 5.03496
#
# Compressibility (1/GPa) = 0.06378046
#
# Stress axis : x y z
#
# Youngs Moduli (GPa) = 21.58927 92.47534 31.63537
#
# Poissons Ratio (x) = 0.53514 0.11935
# Poissons Ratio (y) = 0.12493 0.09244
# Poissons Ratio (z) = 0.08145 0.27021
#
# Static dielectric constant tensor:
#      x y z
#    x 1.579990 0.000000 -0.050980 
#    y 0.000000 1.753740 0.000000 
#    z -0.050980 0.000000 1.758440 
# 
# From -- ./inp_files/34240.got.cif
#   From: 2010.05.17/outbox.cif.g08.bks.cpg/sg14_18_cif.got.tgz:34240.got - 2010.06.03 17:49:19.
