data_PCOD9243193
_publ_section_title
;
Structure prediction by ZEFSAII (Michael W. Deem and Ramdas Pophale) SiO2 
 PCOD9243193
Probable space group: P 21/C
;
_chemical_formula_sum "Si O2"
_cell_formula_units_Z 24
_cell_length_a 18.380864
_cell_length_b 9.866350
_cell_length_c 7.499152
_cell_angle_alpha 90.000000
_cell_angle_beta 131.994737
_cell_angle_gamma 90.000000
_cell_volume 1010.750513
_symmetry_space_group_name_H-M "P 21/C"
_symmetry_group_IT_number 14
_symmetry_cell_setting 'monoclinic'
loop_
_space_group_symop_operation_xyz
x,y,z
-x,1/2+y,1/2-z
-x,-y,-z
x,1/2-y,1/2+z
loop_
_atom_site_type_symbol
_atom_site_label
_atom_site_fract_x
_atom_site_fract_y
_atom_site_fract_z
Si Si1 0.689716 0.904812 0.034640
Si Si2 0.912217 0.151384 0.466830
Si Si3 0.547164 0.396334 0.214926
Si Si4 0.113759 0.549888 0.698313
Si Si5 0.434353 0.330193 0.358269
Si Si6 0.876034 0.921476 0.131720
O O1 0.619420 0.792890 0.830880
O O2 0.658612 0.055208 0.917176
O O3 0.653831 0.897565 0.177901
O O4 0.795033 0.867972 0.134101
O O5 0.864490 0.068817 0.555066
O O6 0.872804 0.299150 0.358337
O O7 0.907921 0.062304 0.280102
O O8 0.026330 0.167840 0.709683
O O9 0.489098 0.420410 0.303622
O O10 0.500000 0.500000 0.000000
O O11 0.520426 0.245081 0.111671
O O12 0.163157 0.451297 0.632041
O O13 0.000000 0.500000 0.500000
#
# Coordination Sequence:
#
# PCOD9243193 Si02
#       6
#     4   4   4   4   4   4
#     4  10  20  37  57  89 113 144 194 237 279 346
#     4  10  20  39  58  79 120 156 192 237 293 347
#     4   9  18  36  59  80 115 147 183 228 292 349
#     4  10  20  37  60  80 110 159 195 233 294 349
#     4   9  19  37  59  83 114 151 183 233 292 346
#     4  10  22  38  57  87 114 153 200 241 286 336
#
# _framework density 23.744731999999999
#
# number of rings (size 3 to 8) (size 9 to 14) (size 15 to 20)
#    0.000    2.333    1.667    0.500    0.000    2.667 
#   12.000    0.000    0.000    0.000    0.000    0.000 
#    0.000    0.000    0.000    0.000    0.000    0.000 
#
# Total GULP energy -133806.718024 kJ/mol
# GULP energy per Si atom -5575.279918 kJ/mol
# Density = 2.369069 g / cm^3
# Si number density = 23.744732 Si / 1000 Ang^3
#
#
#
# Elastic Constant Matrix: (Units=GPa)
#
#
# Indices 1 2 3 4 5 6 
#
# 1 124.6831 8.9037 19.2416 0.0000 -22.9311 0.0000
# 2 8.9037 47.6460 1.0405 0.0000 -3.8695 0.0000
# 3 19.2416 1.0405 21.5045 0.0000 -17.4665 0.0000
# 4 0.0000 0.0000 0.0000 15.3889 0.0000 -8.4942
# 5 -22.9311 -3.8695 -17.4665 0.0000 38.3371 0.0000
# 6 0.0000 0.0000 0.0000 -8.4942 0.0000 30.7306
#
#
#
# Elastic Compliance Matrix: (Units=1/GPa)
#
#
# Indices 1 2 3 4 5 6 
#
# 1 0.009597 -0.001435 -0.006306 0.000000 0.002722 0.000000
# 2 -0.001435 0.021393 0.002072 0.000000 0.002245 0.000000
# 3 -0.006306 0.002072 0.078023 0.000000 0.031984 0.000000
# 4 0.000000 0.000000 0.000000 0.076682 0.000000 0.021196
# 5 0.002722 0.002245 0.031984 0.000000 0.042511 0.000000
# 6 0.000000 0.000000 0.000000 0.021196 0.000000 0.038400
#
#
# Mechanical properties :
#
#
# Convention : Reuss Voigt Hill
#
# Bulk Modulus (GPa) = 10.23800 28.02281 19.13040
# Shear Modulus (GPa) = 16.10299 27.86782 21.98541
#
# Velocity S-wave (km/s) = 2.60700 3.42956 3.04617
# Velocity P-wave (km/s) = 3.65827 5.24498 4.52177
#
# Compressibility (1/GPa) = 0.09767536
#
# Stress axis : x y z
#
# Youngs Moduli (GPa) = 104.20297 46.74362 12.81676
#
# Poissons Ratio (x) = 0.06706 0.08083
# Poissons Ratio (y) = 0.14948 -0.02656
# Poissons Ratio (z) = 0.65714 -0.09686
#
# Static dielectric constant tensor:
#      x y z
#    x 1.913390 0.000000 -0.048120 
#    y 0.000000 1.931770 0.000000 
#    z -0.048120 0.000000 1.975540 
# 
# From -- ./inp_files/17787.got.cif
#   From: 2010.05.17/outbox.cif.g08.bks.cpg/sg14_9_cif.got.tgz:17787.got - 2010.06.03 17:49:19.
