data_PCOD9243466
_publ_section_title
;
Structure prediction by ZEFSAII (Michael W. Deem and Ramdas Pophale) SiO2 
 PCOD9243466
Probable space group: P 21/C
;
_chemical_formula_sum "Si O2"
_cell_formula_units_Z 30
_cell_length_a 13.294724
_cell_length_b 15.020590
_cell_length_c 9.127177
_cell_angle_alpha 90.000000
_cell_angle_beta 49.502474
_cell_angle_gamma 90.000000
_cell_volume 1386.003482
_symmetry_space_group_name_H-M "P 21/C"
_symmetry_group_IT_number 14
_symmetry_cell_setting 'monoclinic'
loop_
_space_group_symop_operation_xyz
x,y,z
-x,1/2+y,1/2-z
-x,-y,-z
x,1/2-y,1/2+z
loop_
_atom_site_type_symbol
_atom_site_label
_atom_site_fract_x
_atom_site_fract_y
_atom_site_fract_z
Si Si1 0.500000 0.000000 0.000000
Si Si2 0.588628 0.592718 0.007801
Si Si3 0.560148 0.869846 0.212470
Si Si4 0.776569 0.762784 0.862868
Si Si5 0.069277 0.336931 0.052256
Si Si6 0.760231 0.499544 0.072436
Si Si7 0.785978 0.186982 0.679139
Si Si8 0.374592 0.696199 0.377826
O O1 0.511587 0.929182 0.124705
O O2 0.347660 0.025781 0.201981
O O3 0.688586 0.524223 0.988234
O O4 0.462429 0.616428 0.229002
O O5 0.556084 0.577953 0.869337
O O6 0.668644 0.686705 0.933325
O O7 0.466660 0.782919 0.314297
O O8 0.705503 0.833893 0.035054
O O9 0.825574 0.804073 0.667006
O O10 0.897603 0.716089 0.831612
O O11 0.107734 0.440281 0.038932
O O12 0.926447 0.312540 0.126272
O O13 0.790180 0.396279 0.065250
O O14 0.735945 0.271984 0.634258
O O15 0.682318 0.170063 0.910226
#
# Coordination Sequence:
#
# PCOD9243466 Si02
#       8
#     2   4   4   4   4   4   4   4
#     4  12  22  38  66  94 132 166 210 274 336 392
#     4  10  22  39  66  94 135 164 217 286 332 391
#     4  11  21  39  65  98 133 163 220 284 330 397
#     4  10  20  37  66  97 122 172 225 273 327 382
#     4  11  22  40  65  94 133 180 221 267 322 401
#     4  11  24  40  64  98 132 173 218 267 346 390
#     4  12  24  43  63  94 137 174 223 268 325 410
#     4  11  23  40  66  98 128 174 221 279 337 386
#
# _framework density 21.644967999999999
#
# number of rings (size 3 to 8) (size 9 to 14) (size 15 to 20)
#    0.000    1.067    5.333    2.000    0.000    0.533 
#    0.000    0.000    0.000    0.800    0.000    0.000 
#    0.000    0.000    0.000    0.000    0.000    0.000 
#
# Total GULP energy -167328.726118 kJ/mol
# GULP energy per Si atom -5577.624204 kJ/mol
# Density = 2.159570 g / cm^3
# Si number density = 21.644968 Si / 1000 Ang^3
#
#
#
# Elastic Constant Matrix: (Units=GPa)
#
#
# Indices 1 2 3 4 5 6 
#
# 1 101.4119 29.9473 -2.1743 0.0000 0.7503 0.0000
# 2 29.9473 72.4595 6.5025 0.0000 9.6216 0.0000
# 3 -2.1743 6.5025 42.5758 0.0000 14.5542 0.0000
# 4 0.0000 0.0000 0.0000 28.0687 0.0000 8.8431
# 5 0.7503 9.6216 14.5542 0.0000 24.1403 0.0000
# 6 0.0000 0.0000 0.0000 8.8431 0.0000 23.9087
#
#
#
# Elastic Compliance Matrix: (Units=1/GPa)
#
#
# Indices 1 2 3 4 5 6 
#
# 1 0.011322 -0.004901 0.000982 0.000000 0.001010 0.000000
# 2 -0.004901 0.016697 -0.000727 0.000000 -0.006064 0.000000
# 3 0.000982 -0.000727 0.029676 0.000000 -0.017632 0.000000
# 4 0.000000 0.000000 0.000000 0.040326 0.000000 -0.014915
# 5 0.001010 -0.006064 -0.017632 0.000000 0.054441 0.000000
# 6 0.000000 0.000000 0.000000 -0.014915 0.000000 0.047342
#
#
# Mechanical properties :
#
#
# Convention : Reuss Voigt Hill
#
# Bulk Modulus (GPa) = 20.66100 31.66646 26.16373
# Shear Modulus (GPa) = 22.19930 27.36833 24.78381
#
# Velocity S-wave (km/s) = 3.20599 3.55973 3.38748
# Velocity P-wave (km/s) = 4.82396 5.61758 5.23583
#
# Compressibility (1/GPa) = 0.04840037
#
# Stress axis : x y z
#
# Youngs Moduli (GPa) = 88.32552 59.89084 33.69695
#
# Poissons Ratio (x) = 0.29355 -0.03307
# Poissons Ratio (y) = 0.43292 0.02451
# Poissons Ratio (z) = -0.08669 0.04357
#
# Static dielectric constant tensor:
#      x y z
#    x 1.828230 0.000000 -0.019680 
#    y 0.000000 1.815040 0.000000 
#    z -0.019680 0.000000 1.749280 
# 
# From -- ./inp_files/13261.got.cif
#   From: 2010.05.17/outbox.cif.g08.bks.cpg/sg14_7_cif.got.tgz:13261.got - 2010.06.03 17:49:19.
