data_PCOD9243893
_publ_section_title
;
Structure prediction by ZEFSAII (Michael W. Deem and Ramdas Pophale) SiO2 
 PCOD9243893
Probable space group: P 21/C
;
_chemical_formula_sum "Si O2"
_cell_formula_units_Z 32
_cell_length_a 18.299330
_cell_length_b 9.907737
_cell_length_c 22.771978
_cell_angle_alpha 90.000000
_cell_angle_beta 154.731082
_cell_angle_gamma 90.000000
_cell_volume 1762.395411
_symmetry_space_group_name_H-M "P 21/C"
_symmetry_group_IT_number 14
_symmetry_cell_setting 'monoclinic'
loop_
_space_group_symop_operation_xyz
x,y,z
-x,1/2+y,1/2-z
-x,-y,-z
x,1/2-y,1/2+z
loop_
_atom_site_type_symbol
_atom_site_label
_atom_site_fract_x
_atom_site_fract_y
_atom_site_fract_z
Si Si1 0.570284 0.479941 0.217105
Si Si2 0.556268 0.703959 0.699289
Si Si3 0.747442 0.512520 0.924291
Si Si4 0.962408 0.022536 0.272981
Si Si5 0.586653 0.122704 0.028988
Si Si6 0.519808 0.632841 0.975295
Si Si7 0.911457 0.706602 0.240754
Si Si8 0.235484 0.701702 0.555397
O O1 0.605466 0.638582 0.234881
O O2 0.398900 0.469896 0.132269
O O3 0.716083 0.405287 0.360028
O O4 0.535767 0.406447 0.130658
O O5 0.693957 0.610574 0.832699
O O6 0.520259 0.658516 0.607001
O O7 0.378618 0.691235 0.607539
O O8 0.748500 0.354274 0.908526
O O9 0.925136 0.540236 0.086453
O O10 0.774770 0.080816 0.145856
O O11 0.050756 0.104038 0.284678
O O12 0.946434 0.862493 0.248290
O O13 0.590352 0.250225 0.074769
O O14 0.500000 0.000000 0.000000
O O15 0.715898 0.685094 0.117496
O O16 0.500000 0.500000 0.000000
O O17 0.049684 0.679787 0.392346
#
# Coordination Sequence:
#
# PCOD9243893 Si02
#       8
#     4   4   4   4   4   4   4   4
#     4  10  20  39  60  91 122 163 207 253 313 366
#     4  10  20  39  60  90 125 162 205 257 309 370
#     4   9  20  37  63  90 120 156 209 262 304 362
#     4  11  23  41  65  95 125 161 216 260 307 369
#     4  12  25  42  62  92 130 169 206 252 320 378
#     4  12  25  42  64  90 132 171 204 258 317 374
#     4  11  23  41  65  96 124 163 215 262 303 371
#     4   9  20  37  63  90 121 156 208 263 305 361
#
# _framework density 18.157105000000001
#
# number of rings (size 3 to 8) (size 9 to 14) (size 15 to 20)
#    0.000    1.500    5.000    0.000    3.500    1.000 
#    0.000    2.500    0.000    0.000    0.000    0.000 
#    0.000    0.000    0.000    0.000    0.000    0.000 
#
# Total GULP energy -178708.490854 kJ/mol
# GULP energy per Si atom -5584.640339 kJ/mol
# Density = 1.811578 g / cm^3
# Si number density = 18.157105 Si / 1000 Ang^3
#
#
#
# Elastic Constant Matrix: (Units=GPa)
#
#
# Indices 1 2 3 4 5 6 
#
# 1 41.8943 38.0353 30.7787 0.0000 -24.9583 0.0000
# 2 38.0353 124.8547 65.7919 0.0000 -32.6531 0.0000
# 3 30.7787 65.7919 100.3709 0.0000 -25.3215 0.0000
# 4 0.0000 0.0000 0.0000 33.6053 0.0000 -7.5546
# 5 -24.9583 -32.6531 -25.3215 0.0000 27.9335 0.0000
# 6 0.0000 0.0000 0.0000 -7.5546 0.0000 33.9540
#
#
#
# Elastic Compliance Matrix: (Units=1/GPa)
#
#
# Indices 1 2 3 4 5 6 
#
# 1 0.054436 -0.003939 -0.003892 0.000000 0.040505 0.000000
# 2 -0.003939 0.014619 -0.006419 0.000000 0.007750 0.000000
# 3 -0.003892 -0.006419 0.016328 0.000000 0.003820 0.000000
# 4 0.000000 0.000000 0.000000 0.031324 0.000000 0.006969
# 5 0.040505 0.007750 0.003820 0.000000 0.084513 0.000000
# 6 0.000000 0.000000 0.000000 0.006969 0.000000 0.031002
#
#
# Mechanical properties :
#
#
# Convention : Reuss Voigt Hill
#
# Bulk Modulus (GPa) = 17.58025 59.59240 38.58633
# Shear Modulus (GPa) = 17.87734 27.93282 22.90508
#
# Velocity S-wave (km/s) = 3.14123 3.92649 3.55560
# Velocity P-wave (km/s) = 4.78118 7.31082 6.17689
#
# Compressibility (1/GPa) = 0.05688200
#
# Stress axis : x y z
#
# Youngs Moduli (GPa) = 18.37019 68.40485 61.24439
#
# Poissons Ratio (x) = 0.26944 0.23837
# Poissons Ratio (y) = 0.07236 0.39315
# Poissons Ratio (z) = 0.07150 0.43912
#
# Static dielectric constant tensor:
#      x y z
#    x 1.616040 0.000000 0.008460 
#    y 0.000000 1.608780 0.000000 
#    z 0.008460 0.000000 1.601780 
# 
# From -- ./inp_files/69162.got.cif
#   From: 2010.05.17/outbox.cif.g08.bks.cpg/sg14_35_cif.got.tgz:69162.got - 2010.06.03 17:49:19.
