data_PCOD9243316
_publ_section_title
;
Structure prediction by ZEFSAII (Michael W. Deem and Ramdas Pophale) SiO2 
 PCOD9243316
Probable space group: P 21/C
;
_chemical_formula_sum "Si O2"
_cell_formula_units_Z 28
_cell_length_a 24.817788
_cell_length_b 9.160175
_cell_length_c 20.311574
_cell_angle_alpha 90.000000
_cell_angle_beta 160.933502
_cell_angle_gamma 90.000000
_cell_volume 1508.389293
_symmetry_space_group_name_H-M "P 21/C"
_symmetry_group_IT_number 14
_symmetry_cell_setting 'monoclinic'
loop_
_space_group_symop_operation_xyz
x,y,z
-x,1/2+y,1/2-z
-x,-y,-z
x,1/2-y,1/2+z
loop_
_atom_site_type_symbol
_atom_site_label
_atom_site_fract_x
_atom_site_fract_y
_atom_site_fract_z
Si Si1 0.707173 0.946306 0.017710
Si Si2 0.374591 0.511102 0.792780
Si Si3 0.644500 0.807506 0.540757
Si Si4 0.768699 0.763523 0.967327
Si Si5 0.896627 0.918538 0.934834
Si Si6 0.335054 0.005804 0.564184
Si Si7 0.900204 0.242458 0.228535
O O1 0.523659 0.959534 0.777199
O O2 0.805088 0.859139 0.074353
O O3 0.793998 0.101405 0.123832
O O4 0.677199 0.852101 0.048866
O O5 0.339952 0.364689 0.708396
O O6 0.195335 0.527300 0.619949
O O7 0.500000 0.500000 0.000000
O O8 0.459166 0.637221 0.845822
O O9 0.754871 0.831359 0.732422
O O10 0.703494 0.913713 0.549437
O O11 0.679257 0.621098 0.892892
O O12 0.941640 0.716349 0.135079
O O13 0.016864 0.811393 0.111535
O O14 0.000000 0.000000 0.000000
O O15 0.218363 0.866973 0.438161
#
# Coordination Sequence:
#
# PCOD9243316 Si02
#       7
#     4   4   4   4   4   4   4
#     4  11  23  36  59  89 122 158 198 252 306 372
#     4   9  19  35  61  83 118 156 199 246 293 368
#     4  10  20  38  56  87 119 153 202 243 302 356
#     4  10  21  37  57  90 119 155 205 252 306 353
#     4  10  20  37  61  86 113 158 205 248 299 363
#     4  11  21  36  60  85 120 156 199 253 299 373
#     4  11  22  38  59  86 120 160 199 253 310 364
#
# _framework density 18.562847999999999
#
# number of rings (size 3 to 8) (size 9 to 14) (size 15 to 20)
#    0.000    1.714    2.857    2.571    0.000    0.571 
#    0.000    1.429    0.000    8.571    0.000    0.000 
#    0.000    0.000    0.000    0.000    0.000    0.000 
#
# Total GULP energy -155960.349345 kJ/mol
# GULP energy per Si atom -5570.012477 kJ/mol
# Density = 1.852060 g / cm^3
# Si number density = 18.562848 Si / 1000 Ang^3
#
#
#
# Elastic Constant Matrix: (Units=GPa)
#
#
# Indices 1 2 3 4 5 6 
#
# 1 95.4750 36.8707 17.7143 0.0000 11.5837 0.0000
# 2 36.8707 80.9641 28.5403 0.0000 9.6759 0.0000
# 3 17.7143 28.5403 64.8328 0.0000 -4.6630 0.0000
# 4 0.0000 0.0000 0.0000 22.9132 0.0000 10.6652
# 5 11.5837 9.6759 -4.6630 0.0000 21.6141 0.0000
# 6 0.0000 0.0000 0.0000 10.6652 0.0000 35.6014
#
#
#
# Elastic Compliance Matrix: (Units=1/GPa)
#
#
# Indices 1 2 3 4 5 6 
#
# 1 0.013322 -0.004729 -0.001950 0.000000 -0.005443 0.000000
# 2 -0.004729 0.017825 -0.007056 0.000000 -0.006967 0.000000
# 3 -0.001950 -0.007056 0.019671 0.000000 0.008447 0.000000
# 4 0.000000 0.000000 0.000000 0.050714 0.000000 -0.015193
# 5 -0.005443 -0.006967 0.008447 0.000000 0.054125 0.000000
# 6 0.000000 0.000000 0.000000 -0.015193 0.000000 0.032640
#
#
# Mechanical properties :
#
#
# Convention : Reuss Voigt Hill
#
# Bulk Modulus (GPa) = 42.82921 45.28031 44.05476
# Shear Modulus (GPa) = 22.36652 26.56886 24.46769
#
# Velocity S-wave (km/s) = 3.47494 3.78735 3.63450
# Velocity P-wave (km/s) = 6.26282 6.60085 6.43406
#
# Compressibility (1/GPa) = 0.02334855
#
# Stress axis : x y z
#
# Youngs Moduli (GPa) = 75.06124 56.10248 50.83746
#
# Poissons Ratio (x) = 0.26532 0.09912
# Poissons Ratio (y) = 0.35498 0.35869
# Poissons Ratio (z) = 0.14635 0.39583
#
# Static dielectric constant tensor:
#      x y z
#    x 1.680800 0.000000 0.004980 
#    y 0.000000 1.658760 0.000000 
#    z 0.004980 0.000000 1.649630 
# 
# From -- ./inp_files/64616.got.cif
#   From: 2010.05.17/outbox.cif.g08.bks.cpg/sg14_33_cif.got.tgz:64616.got - 2010.06.03 17:49:19.
