data_PCOD9243135
_publ_section_title
;
Structure prediction by ZEFSAII (Michael W. Deem and Ramdas Pophale) SiO2 
 PCOD9243135
Probable space group: P 21/C
;
_chemical_formula_sum "Si O2"
_cell_formula_units_Z 28
_cell_length_a 9.213006
_cell_length_b 6.386431
_cell_length_c 26.085214
_cell_angle_alpha 90.000000
_cell_angle_beta 128.531500
_cell_angle_gamma 90.000000
_cell_volume 1200.627599
_symmetry_space_group_name_H-M "P 21/C"
_symmetry_group_IT_number 14
_symmetry_cell_setting 'monoclinic'
loop_
_space_group_symop_operation_xyz
x,y,z
-x,1/2+y,1/2-z
-x,-y,-z
x,1/2-y,1/2+z
loop_
_atom_site_type_symbol
_atom_site_label
_atom_site_fract_x
_atom_site_fract_y
_atom_site_fract_z
Si Si1 0.333539 0.802784 0.667242
Si Si2 0.260830 0.032417 0.224510
Si Si3 0.765102 0.307871 0.574470
Si Si4 0.597809 0.573760 0.394464
Si Si5 0.888941 0.805503 0.403212
Si Si6 0.420750 0.295778 0.439638
Si Si7 0.284329 0.920695 0.338785
O O1 0.518260 0.926395 0.723116
O O2 0.235095 0.693992 0.693456
O O3 0.404664 0.611154 0.647984
O O4 0.188505 0.960767 0.610002
O O5 0.186994 0.201073 0.167107
O O6 0.190589 0.015649 0.267377
O O7 0.556924 0.230477 0.515274
O O8 0.748675 0.558636 0.578263
O O9 0.825265 0.209138 0.642073
O O10 0.894649 0.226176 0.557545
O O11 0.797123 0.679036 0.429613
O O12 0.548909 0.456981 0.435650
O O13 0.444436 0.757635 0.355106
O O14 0.363822 0.114904 0.388674
#
# Coordination Sequence:
#
# PCOD9243135 Si02
#       7
#     4   4   4   4   4   4   4
#     4  11  19  36  61  90 123 159 202 260 307 378
#     4  11  20  34  61  88 118 165 203 246 313 381
#     4  10  25  42  60  93 124 165 213 260 321 371
#     4  10  20  36  65  93 115 159 211 253 314 372
#     4  11  23  38  58  95 129 156 205 264 317 372
#     4  10  21  44  69  83 121 170 214 263 310 380
#     4  11  21  40  63  89 119 166 216 253 312 387
#
# _framework density 23.321135999999999
#
# number of rings (size 3 to 8) (size 9 to 14) (size 15 to 20)
#    0.000    1.429    4.286    1.286    0.000    2.857 
#    5.143    2.857    0.000    0.000    0.000    0.000 
#    0.000    0.000    0.000    0.000    0.000    0.000 
#
# Total GULP energy -156283.260345 kJ/mol
# GULP energy per Si atom -5581.545012 kJ/mol
# Density = 2.326806 g / cm^3
# Si number density = 23.321136 Si / 1000 Ang^3
#
#
#
# Elastic Constant Matrix: (Units=GPa)
#
#
# Indices 1 2 3 4 5 6 
#
# 1 67.7237 18.6902 -16.6032 0.0000 0.8746 0.0000
# 2 18.6902 116.9292 14.2969 0.0000 2.9094 0.0000
# 3 -16.6032 14.2969 31.3709 0.0000 -12.8290 0.0000
# 4 0.0000 0.0000 0.0000 29.5928 0.0000 -13.3393
# 5 0.8746 2.9094 -12.8290 0.0000 28.9348 0.0000
# 6 0.0000 0.0000 0.0000 -13.3393 0.0000 28.8770
#
#
#
# Elastic Compliance Matrix: (Units=1/GPa)
#
#
# Indices 1 2 3 4 5 6 
#
# 1 0.020036 -0.005317 0.015877 0.000000 0.006969 0.000000
# 2 -0.005317 0.010741 -0.009876 0.000000 -0.005298 0.000000
# 3 0.015877 -0.009876 0.054955 0.000000 0.024879 0.000000
# 4 0.000000 0.000000 0.000000 0.042679 0.000000 0.019715
# 5 0.006969 -0.005298 0.024879 0.000000 0.045913 0.000000
# 6 0.000000 0.000000 0.000000 0.019715 0.000000 0.043737
#
#
# Mechanical properties :
#
#
# Convention : Reuss Voigt Hill
#
# Bulk Modulus (GPa) = 11.48114 27.64351 19.56233
# Shear Modulus (GPa) = 20.34781 30.79023 25.56902
#
# Velocity S-wave (km/s) = 2.95702 3.63750 3.31477
# Velocity P-wave (km/s) = 4.07338 5.43332 4.80174
#
# Compressibility (1/GPa) = 0.08709936
#
# Stress axis : x y z
#
# Youngs Moduli (GPa) = 49.91081 93.09706 18.19677
#
# Poissons Ratio (x) = 0.49502 -0.28891
# Poissons Ratio (y) = 0.26539 0.17971
# Poissons Ratio (z) = -0.79244 0.91944
#
# Static dielectric constant tensor:
#      x y z
#    x 1.908370 0.000000 -0.008250 
#    y 0.000000 1.906580 0.000000 
#    z -0.008250 0.000000 1.919650 
# 
# From -- ./inp_files/79165.got.cif
#   From: 2010.05.17/outbox.cif.g08.bks.cpg/sg14_40_cif.got.tgz:79165.got - 2010.06.03 17:49:19.
