data_PCOD9243419
_publ_section_title
;
Structure prediction by ZEFSAII (Michael W. Deem and Ramdas Pophale) SiO2 
 PCOD9243419
Probable space group: P 21/C
;
_chemical_formula_sum "Si O2"
_cell_formula_units_Z 20
_cell_length_a 12.591624
_cell_length_b 14.141099
_cell_length_c 10.510620
_cell_angle_alpha 90.000000
_cell_angle_beta 146.492848
_cell_angle_gamma 90.000000
_cell_volume 1033.152984
_symmetry_space_group_name_H-M "P 21/C"
_symmetry_group_IT_number 14
_symmetry_cell_setting 'monoclinic'
loop_
_space_group_symop_operation_xyz
x,y,z
-x,1/2+y,1/2-z
-x,-y,-z
x,1/2-y,1/2+z
loop_
_atom_site_type_symbol
_atom_site_label
_atom_site_fract_x
_atom_site_fract_y
_atom_site_fract_z
Si Si1 0.594104 0.433066 0.698631
Si Si2 0.797976 0.603291 0.561388
Si Si3 0.067240 0.108660 0.078119
Si Si4 0.932636 0.193837 0.455797
Si Si5 0.918715 0.930354 0.628490
O O1 0.500000 0.500000 0.500000
O O2 0.418942 0.394878 0.606743
O O3 0.724605 0.351630 0.768410
O O4 0.746257 0.499127 0.922859
O O5 0.804482 0.626573 0.418224
O O6 0.892628 0.498064 0.670528
O O7 0.934870 0.667237 0.788872
O O8 0.137310 0.115546 0.293113
O O9 0.915634 0.194236 0.918615
O O10 0.000000 0.000000 0.000000
O O11 0.035467 0.142657 0.438576
#
# Coordination Sequence:
#
# PCOD9243419 Si02
#       5
#     4   4   4   4   4
#     4  11  19  37  68  96 115 153 209 257 301 364
#     4  10  20  39  62  92 121 155 205 256 305 365
#     4  10  23  40  58  84 128 167 197 250 312 358
#     4  11  20  38  65  89 118 163 209 249 304 371
#     4  10  20  37  64  88 123 161 201 254 309 361
#
# _framework density 19.358218000000001
#
# number of rings (size 3 to 8) (size 9 to 14) (size 15 to 20)
#    0.000    1.600    4.000    2.400    0.000    0.800 
#    0.000   16.000    0.000    0.000    0.000    0.000 
#    0.000    0.000    0.000    0.000    0.000    0.000 
#
# Total GULP energy -111462.418105 kJ/mol
# GULP energy per Si atom -5573.120905 kJ/mol
# Density = 1.931416 g / cm^3
# Si number density = 19.358218 Si / 1000 Ang^3
#
#
#
# Elastic Constant Matrix: (Units=GPa)
#
#
# Indices 1 2 3 4 5 6 
#
# 1 167.6641 41.5691 51.7121 0.0000 5.7533 0.0000
# 2 41.5691 121.4087 28.6439 0.0000 9.6875 0.0000
# 3 51.7121 28.6439 72.5814 0.0000 26.3178 0.0000
# 4 0.0000 0.0000 0.0000 6.9733 0.0000 3.6033
# 5 5.7533 9.6875 26.3178 0.0000 30.8781 0.0000
# 6 0.0000 0.0000 0.0000 3.6033 0.0000 8.7830
#
#
#
# Elastic Compliance Matrix: (Units=1/GPa)
#
#
# Indices 1 2 3 4 5 6 
#
# 1 0.008404 -0.001583 -0.007200 0.000000 0.005068 0.000000
# 2 -0.001583 0.009382 -0.002337 0.000000 -0.000657 0.000000
# 3 -0.007200 -0.002337 0.027610 0.000000 -0.021458 0.000000
# 4 0.000000 0.000000 0.000000 0.181985 0.000000 -0.074662
# 5 0.005068 -0.000657 -0.021458 0.000000 0.049936 0.000000
# 6 0.000000 0.000000 0.000000 -0.074662 0.000000 0.144487
#
#
# Mechanical properties :
#
#
# Convention : Reuss Voigt Hill
#
# Bulk Modulus (GPa) = 43.18396 67.27826 55.23111
# Shear Modulus (GPa) = 11.06776 25.30882 18.18829
#
# Velocity S-wave (km/s) = 2.39369 3.61971 3.06856
# Velocity P-wave (km/s) = 5.47685 7.23184 6.41465
#
# Compressibility (1/GPa) = 0.02315674
#
# Stress axis : x y z
#
# Youngs Moduli (GPa) = 118.99712 106.58323 36.21859
#
# Poissons Ratio (x) = 0.16871 0.26078
# Poissons Ratio (y) = 0.18837 0.08463
# Poissons Ratio (z) = 0.85679 0.24905
#
# Static dielectric constant tensor:
#      x y z
#    x 1.701970 0.000000 -0.000040 
#    y 0.000000 1.706980 0.000000 
#    z -0.000040 0.000000 1.533650 
# 
# From -- ./inp_files/20608.got.cif
#   From: 2010.05.17/outbox.cif.g08.bks.cpg/sg14_11_cif.got.tgz:20608.got - 2010.06.03 17:49:19.
