data_PCOD9243760
_publ_section_title
;
Structure prediction by ZEFSAII (Michael W. Deem and Ramdas Pophale) SiO2 
 PCOD9243760
Probable space group: P 21/C
;
_chemical_formula_sum "Si O2"
_cell_formula_units_Z 24
_cell_length_a 10.529291
_cell_length_b 8.414013
_cell_length_c 21.626867
_cell_angle_alpha 90.000000
_cell_angle_beta 31.584553
_cell_angle_gamma 90.000000
_cell_volume 1003.517947
_symmetry_space_group_name_H-M "P 21/C"
_symmetry_group_IT_number 14
_symmetry_cell_setting 'monoclinic'
loop_
_space_group_symop_operation_xyz
x,y,z
-x,1/2+y,1/2-z
-x,-y,-z
x,1/2-y,1/2+z
loop_
_atom_site_type_symbol
_atom_site_label
_atom_site_fract_x
_atom_site_fract_y
_atom_site_fract_z
Si Si1 0.928936 0.367656 0.090566
Si Si2 0.767201 0.061137 0.867282
Si Si3 0.233914 0.389015 0.408193
Si Si4 0.489911 0.601311 0.833916
Si Si5 0.682829 0.924368 0.778163
Si Si6 0.805644 0.143582 0.261264
O O1 0.758367 0.378248 0.100681
O O2 0.879709 0.538206 0.143146
O O3 0.854716 0.250374 0.179022
O O4 0.162576 0.278932 0.967001
O O5 0.817481 0.966246 0.783969
O O6 0.979032 0.989804 0.823090
O O7 0.778077 0.241399 0.833544
O O8 0.500000 0.000000 0.000000
O O9 0.327541 0.386572 0.299768
O O10 0.452638 0.464760 0.356512
O O11 0.000000 0.500000 0.500000
O O12 0.553831 0.758874 0.843671
O O13 0.562649 0.455170 0.846741
#
# Coordination Sequence:
#
# PCOD9243760 Si02
#       6
#     4   4   4   4   4   4
#     4  10  20  38  64  97 134 175 221 278 347 415
#     4  11  25  45  70  95 135 192 239 289 347 414
#     4  11  19  36  64  93 132 183 218 270 355 414
#     4  11  21  37  64  98 136 172 218 286 345 413
#     4  10  22  38  60  96 133 171 232 283 339 408
#     4  11  23  44  69 100 142 183 237 291 347 421
#
# _framework density 23.915863999999999
#
# number of rings (size 3 to 8) (size 9 to 14) (size 15 to 20)
#    0.000    1.333    3.333    3.000    0.000    0.667 
#    0.000    6.667    0.000    0.000    0.000    0.000 
#    0.000    0.000    0.000    0.000    0.000    0.000 
#
# Total GULP energy -133706.052625 kJ/mol
# GULP energy per Si atom -5571.085526 kJ/mol
# Density = 2.386143 g / cm^3
# Si number density = 23.915864 Si / 1000 Ang^3
#
#
#
# Elastic Constant Matrix: (Units=GPa)
#
#
# Indices 1 2 3 4 5 6 
#
# 1 106.3408 58.1183 15.2827 0.0000 -18.9711 0.0000
# 2 58.1183 122.7327 27.8017 0.0000 -6.4534 0.0000
# 3 15.2827 27.8017 84.1980 0.0000 -4.6395 0.0000
# 4 0.0000 0.0000 0.0000 7.1334 0.0000 6.3627
# 5 -18.9711 -6.4534 -4.6395 0.0000 20.1575 0.0000
# 6 0.0000 0.0000 0.0000 6.3627 0.0000 43.9576
#
#
#
# Elastic Compliance Matrix: (Units=1/GPa)
#
#
# Indices 1 2 3 4 5 6 
#
# 1 0.015143 -0.006550 0.000085 0.000000 0.012174 0.000000
# 2 -0.006550 0.011735 -0.002855 0.000000 -0.003065 0.000000
# 3 0.000085 -0.002855 0.012922 0.000000 0.002140 0.000000
# 4 0.000000 0.000000 0.000000 0.160968 0.000000 -0.023299
# 5 0.012174 -0.003065 0.002140 0.000000 0.060579 0.000000
# 6 0.000000 0.000000 0.000000 -0.023299 0.000000 0.026122
#
#
# Mechanical properties :
#
#
# Convention : Reuss Voigt Hill
#
# Bulk Modulus (GPa) = 47.25788 57.29743 52.27765
# Shear Modulus (GPa) = 15.96621 28.38762 22.17691
#
# Velocity S-wave (km/s) = 2.58660 3.44899 3.04845
# Velocity P-wave (km/s) = 5.35944 6.31432 5.85638
#
# Compressibility (1/GPa) = 0.02116049
#
# Stress axis : x y z
#
# Youngs Moduli (GPa) = 66.03650 85.21559 77.38792
#
# Poissons Ratio (x) = 0.55815 -0.00658
# Poissons Ratio (y) = 0.43253 0.22093
# Poissons Ratio (z) = -0.00561 0.24327
#
# Static dielectric constant tensor:
#      x y z
#    x 1.990460 0.000000 -0.001530 
#    y 0.000000 3.809570 0.000000 
#    z -0.001530 0.000000 1.997460 
# 
# From -- ./inp_files/73036.got.cif
#   From: 2010.05.17/outbox.cif.g08.bks.cpg/sg14_37_cif.got.tgz:73036.got - 2010.06.03 17:49:19.
