data_PCOD9243693
_publ_section_title
;
Structure prediction by ZEFSAII (Michael W. Deem and Ramdas Pophale) SiO2 
 PCOD9243693
Probable space group: P 21/C
;
_chemical_formula_sum "Si O2"
_cell_formula_units_Z 24
_cell_length_a 10.050946
_cell_length_b 7.187158
_cell_length_c 30.521413
_cell_angle_alpha 90.000000
_cell_angle_beta 24.692078
_cell_angle_gamma 90.000000
_cell_volume 921.035442
_symmetry_space_group_name_H-M "P 21/C"
_symmetry_group_IT_number 14
_symmetry_cell_setting 'monoclinic'
loop_
_space_group_symop_operation_xyz
x,y,z
-x,1/2+y,1/2-z
-x,-y,-z
x,1/2-y,1/2+z
loop_
_atom_site_type_symbol
_atom_site_label
_atom_site_fract_x
_atom_site_fract_y
_atom_site_fract_z
Si Si1 0.233082 0.252432 0.595599
Si Si2 0.293730 0.506829 0.717648
Si Si3 0.827496 0.239977 0.970692
Si Si4 0.618797 0.815357 0.043145
Si Si5 0.201232 0.711493 0.921591
Si Si6 0.126278 0.360334 0.293850
O O1 0.480927 0.187103 0.558352
O O2 0.429167 0.245686 0.491693
O O3 0.114161 0.310283 0.762608
O O4 0.923744 0.124942 0.685125
O O5 0.353691 0.640799 0.658630
O O6 0.631038 0.419211 0.632339
O O7 0.101487 0.462336 0.643256
O O8 0.068360 0.242862 0.857886
O O9 0.764541 0.020174 0.993127
O O10 0.901433 0.306520 0.997194
O O11 0.901824 0.698455 0.980076
O O12 0.502581 0.581735 0.820081
#
# Coordination Sequence:
#
# PCOD9243693 Si02
#       6
#     4   4   4   4   4   4
#     4  11  23  38  64  93 120 158 205 249 299 362
#     4   9  21  41  58  92 119 161 198 250 303 360
#     4  10  20  38  63  88 123 158 198 248 306 353
#     4  10  20  41  63  85 127 162 192 256 310 344
#     4   9  21  39  65  84 122 167 192 248 311 352
#     4   9  21  40  59  91 117 162 200 246 300 363
#
# _framework density 26.05763
#
# number of rings (size 3 to 8) (size 9 to 14) (size 15 to 20)
#    1.000    1.333    0.000    4.000    0.000    8.667 
#    3.000    0.833    0.000    0.000    0.000    0.000 
#    0.000    0.000    0.000    0.000    0.000    0.000 
#
# Total GULP energy -134006.088872 kJ/mol
# GULP energy per Si atom -5583.587036 kJ/mol
# Density = 2.599832 g / cm^3
# Si number density = 26.057630 Si / 1000 Ang^3
#
#
#
# Elastic Constant Matrix: (Units=GPa)
#
#
# Indices 1 2 3 4 5 6 
#
# 1 58.2778 -22.2593 4.4879 0.0000 -10.4113 0.0000
# 2 -22.2593 82.6743 23.2308 -0.0001 -15.0024 0.0000
# 3 4.4879 23.2308 106.2097 -0.0002 9.7016 0.0001
# 4 0.0000 -0.0001 -0.0002 53.5689 0.0000 -4.6009
# 5 -10.4113 -15.0024 9.7016 0.0000 23.2967 0.0000
# 6 0.0000 0.0000 0.0001 -4.6009 0.0000 8.8061
#
#
#
# Elastic Compliance Matrix: (Units=1/GPa)
#
#
# Indices 1 2 3 4 5 6 
#
# 1 0.026687 0.013035 -0.006066 0.000000 0.022847 0.000000
# 2 0.013035 0.021869 -0.007436 0.000000 0.023005 0.000000
# 3 -0.006066 -0.007436 0.012457 0.000000 -0.012687 0.000000
# 4 0.000000 0.000000 0.000000 0.019545 0.000000 0.010211
# 5 0.022847 0.023005 -0.012687 0.000000 0.073233 0.000000
# 6 0.000000 0.000000 0.000000 0.010211 0.000000 0.118893
#
#
# Mechanical properties :
#
#
# Convention : Reuss Voigt Hill
#
# Bulk Modulus (GPa) = 16.64414 28.67563 22.65988
# Shear Modulus (GPa) = 17.02753 33.24782 25.13767
#
# Velocity S-wave (km/s) = 2.55905 3.57590 3.10932
# Velocity P-wave (km/s) = 3.89011 5.29887 4.64817
#
# Compressibility (1/GPa) = 0.06008120
#
# Stress axis : x y z
#
# Youngs Moduli (GPa) = 37.47171 45.72617 80.27711
#
# Poissons Ratio (x) = -0.59606 0.48694
# Poissons Ratio (y) = -0.48846 0.59691
# Poissons Ratio (z) = 0.22729 0.34000
#
# Static dielectric constant tensor:
#      x y z
#    x 2.094640 0.000000 0.022000 
#    y 0.000000 2.118940 0.000000 
#    z 0.022000 0.000000 2.083660 
# 
# From -- ./inp_files/76602.got.cif
#   From: 2010.05.17/outbox.cif.g08.bks.cpg/sg14_39_cif.got.tgz:76602.got - 2010.06.03 17:49:19.
