data_PCOD9243984
_publ_section_title
;
Structure prediction by ZEFSAII (Michael W. Deem and Ramdas Pophale) SiO2 
 PCOD9243984
Probable space group: P 21/C
;
_chemical_formula_sum "Si O2"
_cell_formula_units_Z 24
_cell_length_a 23.508935
_cell_length_b 5.512370
_cell_length_c 27.315998
_cell_angle_alpha 90.000000
_cell_angle_beta 162.663354
_cell_angle_gamma 90.000000
_cell_volume 1054.832443
_symmetry_space_group_name_H-M "P 21/C"
_symmetry_group_IT_number 14
_symmetry_cell_setting 'monoclinic'
loop_
_space_group_symop_operation_xyz
x,y,z
-x,1/2+y,1/2-z
-x,-y,-z
x,1/2-y,1/2+z
loop_
_atom_site_type_symbol
_atom_site_label
_atom_site_fract_x
_atom_site_fract_y
_atom_site_fract_z
Si Si1 0.178591 0.372582 0.504462
Si Si2 0.869764 0.127963 0.595851
Si Si3 0.212166 0.029388 0.281372
Si Si4 0.547177 0.752022 0.594375
Si Si5 0.697443 0.857845 0.051039
Si Si6 0.505829 0.020613 0.348120
O O1 0.172675 0.112727 0.472213
O O2 0.367607 0.397194 0.692167
O O3 0.991238 0.400802 0.385139
O O4 0.162302 0.618752 0.458794
O O5 0.715409 0.135542 0.512530
O O6 0.088944 0.083111 0.791830
O O7 0.260401 0.225368 0.279097
O O8 0.244494 0.157172 0.360293
O O9 0.380445 0.831408 0.419302
O O10 0.444879 0.526955 0.535717
O O11 0.577291 0.921267 0.666841
O O12 0.565513 0.760594 0.898779
#
# Coordination Sequence:
#
# PCOD9243984 Si02
#       6
#     4   4   4   4   4   4
#     4  11  24  45  64  95 126 179 207 263 325 386
#     4  11  25  43  67  89 134 172 213 257 325 391
#     4   9  20  40  63  88 125 169 215 256 323 388
#     4  10  20  39  63  92 124 165 215 266 315 376
#     4  10  22  38  63  93 121 168 214 269 314 378
#     4  11  26  37  64  97 129 161 218 268 322 376
#
# _framework density 22.752427999999998
#
# number of rings (size 3 to 8) (size 9 to 14) (size 15 to 20)
#    0.000    1.667    1.667    1.500    7.000    0.667 
#    0.000    0.833    0.000    0.000    0.000    0.000 
#    0.000    0.000    0.000    0.000    0.000    0.000 
#
# Total GULP energy -133732.646995 kJ/mol
# GULP energy per Si atom -5572.193625 kJ/mol
# Density = 2.270064 g / cm^3
# Si number density = 22.752428 Si / 1000 Ang^3
#
#
#
# Elastic Constant Matrix: (Units=GPa)
#
#
# Indices 1 2 3 4 5 6 
#
# 1 91.6724 0.1656 29.8245 0.0000 12.2887 0.0000
# 2 0.1656 65.7114 28.9150 0.0000 -14.5580 0.0000
# 3 29.8245 28.9150 73.8550 0.0000 -5.5306 0.0000
# 4 0.0000 0.0000 0.0000 28.7197 0.0000 -4.8840
# 5 12.2887 -14.5580 -5.5306 0.0000 26.2777 0.0000
# 6 0.0000 0.0000 0.0000 -4.8840 0.0000 34.3916
#
#
#
# Elastic Compliance Matrix: (Units=1/GPa)
#
#
# Indices 1 2 3 4 5 6 
#
# 1 0.014075 0.001323 -0.006746 0.000000 -0.007269 0.000000
# 2 0.001323 0.020763 -0.007974 0.000000 0.009206 0.000000
# 3 -0.006746 -0.007974 0.019600 0.000000 0.002863 0.000000
# 4 0.000000 0.000000 0.000000 0.035681 0.000000 0.005067
# 5 -0.007269 0.009206 0.002863 0.000000 0.047157 0.000000
# 6 0.000000 0.000000 0.000000 0.005067 0.000000 0.029797
#
#
# Mechanical properties :
#
#
# Convention : Reuss Voigt Hill
#
# Bulk Modulus (GPa) = 36.17387 38.78324 37.47855
# Shear Modulus (GPa) = 24.62055 29.36671 26.99363
#
# Velocity S-wave (km/s) = 3.29311 3.59654 3.44816
# Velocity P-wave (km/s) = 5.51297 5.85914 5.68869
#
# Compressibility (1/GPa) = 0.02764426
#
# Stress axis : x y z
#
# Youngs Moduli (GPa) = 71.04678 48.16283 51.01941
#
# Poissons Ratio (x) = -0.06370 0.34418
# Poissons Ratio (y) = -0.09396 0.40681
# Poissons Ratio (z) = 0.47929 0.38403
#
# Static dielectric constant tensor:
#      x y z
#    x 1.924950 0.000000 0.062180 
#    y 0.000000 2.031360 0.000000 
#    z 0.062180 0.000000 1.846120 
# 
# From -- ./inp_files/71584.got.cif
#   From: 2010.05.17/outbox.cif.g08.bks.cpg/sg14_36_cif.got.tgz:71584.got - 2010.06.03 17:49:19.
