data_PCOD9243224
_publ_section_title
;
Structure prediction by ZEFSAII (Michael W. Deem and Ramdas Pophale) SiO2 
 PCOD9243224
Probable space group: P 21/C
;
_chemical_formula_sum "Si O2"
_cell_formula_units_Z 28
_cell_length_a 20.265039
_cell_length_b 5.013942
_cell_length_c 13.300788
_cell_angle_alpha 90.000000
_cell_angle_beta 59.755091
_cell_angle_gamma 90.000000
_cell_volume 1167.502109
_symmetry_space_group_name_H-M "P 21/C"
_symmetry_group_IT_number 14
_symmetry_cell_setting 'monoclinic'
loop_
_space_group_symop_operation_xyz
x,y,z
-x,1/2+y,1/2-z
-x,-y,-z
x,1/2-y,1/2+z
loop_
_atom_site_type_symbol
_atom_site_label
_atom_site_fract_x
_atom_site_fract_y
_atom_site_fract_z
Si Si1 0.256799 0.544850 0.943570
Si Si2 0.825911 0.952109 0.917058
Si Si3 0.591108 0.495698 0.397661
Si Si4 0.915709 0.427350 0.530549
Si Si5 0.483806 0.785409 0.706663
Si Si6 0.620632 0.506788 0.986910
Si Si7 0.829250 0.570240 0.176142
O O1 0.328916 0.452578 0.953467
O O2 0.246101 0.493596 0.833004
O O3 0.191687 0.353100 0.041597
O O4 0.237200 0.849717 0.985589
O O5 0.824331 0.978345 0.798582
O O6 0.901217 0.034485 0.922264
O O7 0.500000 0.500000 0.500000
O O8 0.586615 0.360627 0.291783
O O9 0.627488 0.780134 0.392252
O O10 0.632195 0.285570 0.437201
O O11 0.857034 0.631050 0.630730
O O12 0.000000 0.500000 0.500000
O O13 0.891838 0.132714 0.582571
O O14 0.533235 0.527727 0.704626
O O15 0.534018 0.953189 0.589950
#
# Coordination Sequence:
#
# PCOD9243224 Si02
#       7
#     4   4   4   4   4   4   4
#     4  10  22  40  59  83 118 154 203 244 293 348
#     4  10  21  39  61  85 120 164 196 246 295 337
#     4  10  20  37  59  76 107 148 179 223 300 356
#     4  10  21  36  60  93 124 159 199 241 292 346
#     4  11  21  36  56  84 114 140 181 241 301 352
#     4  11  21  39  59  80 110 151 190 237 293 362
#     4  10  21  39  60  85 124 158 197 248 288 341
#
# _framework density 23.982828000000001
#
# number of rings (size 3 to 8) (size 9 to 14) (size 15 to 20)
#    0.000    1.714    0.000    6.429    0.000    1.143 
#    7.714    0.000    0.000    0.000    0.000    0.000 
#    0.000    0.000    0.000    0.000    0.000    0.000 
#
# Total GULP energy -156435.614906 kJ/mol
# GULP energy per Si atom -5586.986247 kJ/mol
# Density = 2.392824 g / cm^3
# Si number density = 23.982828 Si / 1000 Ang^3
#
#
#
# Elastic Constant Matrix: (Units=GPa)
#
#
# Indices 1 2 3 4 5 6 
#
# 1 99.1485 4.5123 31.6063 0.0000 40.2623 0.0000
# 2 4.5123 108.5966 10.4134 0.0000 7.0167 0.0000
# 3 31.6063 10.4134 120.8004 0.0000 44.6151 0.0000
# 4 0.0000 0.0000 0.0000 36.6797 0.0000 10.3919
# 5 40.2623 7.0167 44.6151 0.0000 38.1214 0.0000
# 6 0.0000 0.0000 0.0000 10.3919 0.0000 28.8362
#
#
#
# Elastic Compliance Matrix: (Units=1/GPa)
#
#
# Indices 1 2 3 4 5 6 
#
# 1 0.018846 0.000422 0.004250 0.000000 -0.024955 0.000000
# 2 0.000422 0.009335 -0.000204 0.000000 -0.001925 0.000000
# 3 0.004250 -0.000204 0.015548 0.000000 -0.022647 0.000000
# 4 0.000000 0.000000 0.000000 0.030363 0.000000 -0.010942
# 5 -0.024955 -0.001925 -0.022647 0.000000 0.079448 0.000000
# 6 0.000000 0.000000 0.000000 -0.010942 0.000000 0.038622
#
#
# Mechanical properties :
#
#
# Convention : Reuss Voigt Hill
#
# Bulk Modulus (GPa) = 18.98856 46.84551 32.91704
# Shear Modulus (GPa) = 24.90256 39.52834 32.21545
#
# Velocity S-wave (km/s) = 3.22584 4.06420 3.66904
# Velocity P-wave (km/s) = 4.67006 6.44973 5.63065
#
# Compressibility (1/GPa) = 0.05266329
#
# Stress axis : x y z
#
# Youngs Moduli (GPa) = 53.06179 107.12594 64.31625
#
# Poissons Ratio (x) = -0.04519 -0.27331
# Poissons Ratio (y) = -0.02238 0.01313
# Poissons Ratio (z) = -0.22549 0.02188
#
# Static dielectric constant tensor:
#      x y z
#    x 1.935590 0.000000 0.008030 
#    y 0.000000 1.867990 0.000000 
#    z 0.008030 0.000000 2.057070 
# 
# From -- ./inp_files/34586.got.cif
#   From: 2010.05.17/outbox.cif.g08.bks.cpg/sg14_18_cif.got.tgz:34586.got - 2010.06.03 17:49:19.
