data_PCOD9243039
_publ_section_title
;
Structure prediction by ZEFSAII (Michael W. Deem and Ramdas Pophale) SiO2 
 PCOD9243039
Probable space group: P 21/C
;
_chemical_formula_sum "Si O2"
_cell_formula_units_Z 32
_cell_length_a 7.882545
_cell_length_b 15.432010
_cell_length_c 20.176966
_cell_angle_alpha 90.000000
_cell_angle_beta 146.343384
_cell_angle_gamma 90.000000
_cell_volume 1360.261977
_symmetry_space_group_name_H-M "P 21/C"
_symmetry_group_IT_number 14
_symmetry_cell_setting 'monoclinic'
loop_
_space_group_symop_operation_xyz
x,y,z
-x,1/2+y,1/2-z
-x,-y,-z
x,1/2-y,1/2+z
loop_
_atom_site_type_symbol
_atom_site_label
_atom_site_fract_x
_atom_site_fract_y
_atom_site_fract_z
Si Si1 0.823331 0.378708 0.612010
Si Si2 0.876402 0.863211 0.648064
Si Si3 0.230817 0.050001 0.971850
Si Si4 0.674297 0.093683 0.447215
Si Si5 0.643753 0.917155 0.365038
Si Si6 0.584741 0.029955 0.215730
Si Si7 0.334710 0.183151 0.214793
Si Si8 0.173598 0.699800 0.675452
O O1 0.933367 0.474017 0.622387
O O2 0.465529 0.398172 0.500540
O O3 0.936190 0.353413 0.721611
O O4 0.973490 0.311648 0.609951
O O5 0.522349 0.881454 0.551329
O O6 0.058585 0.945623 0.677469
O O7 0.962313 0.778692 0.632281
O O8 0.014123 0.127014 0.923883
O O9 0.419692 0.006596 0.093281
O O10 0.470330 0.135908 0.323169
O O11 0.022032 0.122313 0.543335
O O12 0.674700 0.990917 0.430960
O O13 0.370962 0.851622 0.295463
O O14 0.559977 0.965213 0.268634
O O15 0.420419 0.119891 0.182696
O O16 0.542897 0.265942 0.274907
#
# Coordination Sequence:
#
# PCOD9243039 Si02
#       8
#     4   4   4   4   4   4   4   4
#     4   9  19  38  59  80 112 150 188 238 288 333
#     4   9  19  37  57  81 118 153 183 235 294 342
#     4  10  20  36  61  86 110 151 198 235 283 345
#     4   9  19  39  61  80 115 157 194 237 291 341
#     4  10  21  37  60  89 113 150 201 243 282 342
#     4   9  19  36  58  86 117 147 186 237 287 337
#     4   9  19  35  54  81 120 152 180 234 292 336
#     4  11  22  34  54  86 117 151 194 233 285 348
#
# _framework density 23.524881000000001
#
# number of rings (size 3 to 8) (size 9 to 14) (size 15 to 20)
#    0.000    2.500    0.000    2.250    0.000    6.500 
#    0.000   11.250    0.000    4.500    0.000    0.000 
#    0.000    0.000    0.000    0.000    0.000    0.000 
#
# Total GULP energy -178330.127021 kJ/mol
# GULP energy per Si atom -5572.816469 kJ/mol
# Density = 2.347134 g / cm^3
# Si number density = 23.524881 Si / 1000 Ang^3
#
#
#
# Elastic Constant Matrix: (Units=GPa)
#
#
# Indices 1 2 3 4 5 6 
#
# 1 75.8700 18.2034 21.3521 0.0000 17.3947 0.0000
# 2 18.2034 51.3486 19.3981 0.0000 13.8915 0.0000
# 3 21.3521 19.3981 69.7764 0.0000 6.5961 0.0000
# 4 0.0000 0.0000 0.0000 32.0122 0.0000 20.7275
# 5 17.3947 13.8915 6.5961 0.0000 33.2442 0.0000
# 6 0.0000 0.0000 0.0000 20.7275 0.0000 21.0525
#
#
#
# Elastic Compliance Matrix: (Units=1/GPa)
#
#
# Indices 1 2 3 4 5 6 
#
# 1 0.016382 -0.002599 -0.003651 0.000000 -0.006761 0.000000
# 2 -0.002599 0.024509 -0.005278 0.000000 -0.007834 0.000000
# 3 -0.003651 -0.005278 0.016843 0.000000 0.000774 0.000000
# 4 0.000000 0.000000 0.000000 0.086173 0.000000 -0.084842
# 5 -0.006761 -0.007834 0.000774 0.000000 0.036738 0.000000
# 6 0.000000 0.000000 0.000000 -0.084842 0.000000 0.131033
#
#
# Mechanical properties :
#
#
# Convention : Reuss Voigt Hill
#
# Bulk Modulus (GPa) = 28.83682 34.98912 31.91297
# Shear Modulus (GPa) = 14.43865 26.46454 20.45160
#
# Velocity S-wave (km/s) = 2.48011 3.35768 2.95169
# Velocity P-wave (km/s) = 4.52613 5.47152 5.02113
#
# Compressibility (1/GPa) = 0.03467789
#
# Stress axis : x y z
#
# Youngs Moduli (GPa) = 61.04377 40.80081 59.37231
#
# Poissons Ratio (x) = 0.10604 0.21678
# Poissons Ratio (y) = 0.15865 0.31335
# Poissons Ratio (z) = 0.22289 0.21534
#
# Static dielectric constant tensor:
#      x y z
#    x 1.975920 0.000000 0.069230 
#    y 0.000000 1.955790 0.000000 
#    z 0.069230 0.000000 1.936970 
# 
# From -- ./inp_files/72480.got.cif
#   From: 2010.05.17/outbox.cif.g08.bks.cpg/sg14_37_cif.got.tgz:72480.got - 2010.06.03 17:49:19.
