data_PCOD9243312
_publ_section_title
;
Structure prediction by ZEFSAII (Michael W. Deem and Ramdas Pophale) SiO2 
 PCOD9243312
Probable space group: P 21/C
;
_chemical_formula_sum "Si O2"
_cell_formula_units_Z 24
_cell_length_a 18.706522
_cell_length_b 11.792562
_cell_length_c 8.622818
_cell_angle_alpha 90.000000
_cell_angle_beta 32.200225
_cell_angle_gamma 90.000000
_cell_volume 1013.630175
_symmetry_space_group_name_H-M "P 21/C"
_symmetry_group_IT_number 14
_symmetry_cell_setting 'monoclinic'
loop_
_space_group_symop_operation_xyz
x,y,z
-x,1/2+y,1/2-z
-x,-y,-z
x,1/2-y,1/2+z
loop_
_atom_site_type_symbol
_atom_site_label
_atom_site_fract_x
_atom_site_fract_y
_atom_site_fract_z
Si Si1 0.199208 0.034088 0.552280
Si Si2 0.267731 0.137482 0.132396
Si Si3 0.969905 0.128454 0.601433
Si Si4 0.089637 0.655157 0.453873
Si Si5 0.437319 0.188363 0.535204
Si Si6 0.528826 0.892205 0.839025
O O1 0.247914 0.030988 0.284549
O O2 0.307867 0.104396 0.450550
O O3 0.057764 0.099662 0.805664
O O4 0.182406 0.914171 0.666010
O O5 0.117200 0.177680 0.373345
O O6 0.346572 0.122829 0.827189
O O7 0.347641 0.225898 0.094244
O O8 0.882030 0.131843 0.918368
O O9 0.912721 0.212058 0.577626
O O10 0.000000 0.000000 0.500000
O O11 0.521515 0.277591 0.484364
O O12 0.505590 0.110952 0.279431
O O13 0.500000 0.000000 0.000000
#
# Coordination Sequence:
#
# PCOD9243312 Si02
#       6
#     4   4   4   4   4   4
#     4   9  20  37  58  82 114 152 187 240 287 328
#     4   9  17  33  56  81 108 144 194 231 275 328
#     4  11  23  33  56  83 117 155 195 229 286 340
#     4  10  22  37  56  82 122 150 193 236 281 342
#     4   9  18  35  61  83 107 143 195 239 269 340
#     4  10  20  37  61  85 111 145 192 235 289 333
#
# _framework density 23.677274000000001
#
# number of rings (size 3 to 8) (size 9 to 14) (size 15 to 20)
#    0.000    2.333    0.000    4.000    9.333    0.000 
#    0.000    9.167    0.000    0.000    0.000    0.000 
#    0.000    0.000    0.000    0.000    0.000    0.000 
#
# Total GULP energy -133894.674068 kJ/mol
# GULP energy per Si atom -5578.944753 kJ/mol
# Density = 2.362338 g / cm^3
# Si number density = 23.677274 Si / 1000 Ang^3
#
#
#
# Elastic Constant Matrix: (Units=GPa)
#
#
# Indices 1 2 3 4 5 6 
#
# 1 38.1347 13.1811 33.8935 0.0000 34.3117 0.0000
# 2 13.1811 112.8112 63.6517 0.0000 43.4020 0.0000
# 3 33.8935 63.6517 138.4597 0.0000 64.4203 0.0000
# 4 0.0000 0.0000 0.0000 42.3789 0.0000 10.4366
# 5 34.3117 43.4020 64.4203 0.0000 56.4091 0.0000
# 6 0.0000 0.0000 0.0000 10.4366 0.0000 21.1077
#
#
#
# Elastic Compliance Matrix: (Units=1/GPa)
#
#
# Indices 1 2 3 4 5 6 
#
# 1 0.067003 0.010591 0.003164 0.000000 -0.052518 0.000000
# 2 0.010591 0.014770 -0.002343 0.000000 -0.015131 0.000000
# 3 0.003164 -0.002343 0.016177 0.000000 -0.018597 0.000000
# 4 0.000000 0.000000 0.000000 0.026868 0.000000 -0.013285
# 5 -0.052518 -0.015131 -0.018597 0.000000 0.082553 0.000000
# 6 0.000000 0.000000 0.000000 -0.013285 0.000000 0.053945
#
#
# Mechanical properties :
#
#
# Convention : Reuss Voigt Hill
#
# Bulk Modulus (GPa) = 8.27976 56.76203 32.52090
# Shear Modulus (GPa) = 17.93725 35.89108 26.91417
#
# Velocity S-wave (km/s) = 2.75539 3.89761 3.37517
# Velocity P-wave (km/s) = 3.69153 6.65435 5.38088
#
# Compressibility (1/GPa) = 0.12077643
#
# Stress axis : x y z
#
# Youngs Moduli (GPa) = 14.92468 67.70410 61.81581
#
# Poissons Ratio (x) = -0.71708 -0.19560
# Poissons Ratio (y) = -0.15807 0.14481
# Poissons Ratio (z) = -0.04723 0.15860
#
# Static dielectric constant tensor:
#      x y z
#    x 1.954080 0.000000 -0.031280 
#    y 0.000000 1.962000 0.000000 
#    z -0.031280 0.000000 1.978820 
# 
# From -- ./inp_files/12355.got.cif
#   From: 2010.05.17/outbox.cif.g08.bks.cpg/sg14_7_cif.got.tgz:12355.got - 2010.06.03 17:49:19.
