data_PCOD9243489
_publ_section_title
;
Structure prediction by ZEFSAII (Michael W. Deem and Ramdas Pophale) SiO2 
 PCOD9243489
Probable space group: P 21/C
;
_chemical_formula_sum "Si O2"
_cell_formula_units_Z 32
_cell_length_a 11.887952
_cell_length_b 20.454692
_cell_length_c 8.191599
_cell_angle_alpha 90.000000
_cell_angle_beta 131.644359
_cell_angle_gamma 90.000000
_cell_volume 1488.518604
_symmetry_space_group_name_H-M "P 21/C"
_symmetry_group_IT_number 14
_symmetry_cell_setting 'monoclinic'
loop_
_space_group_symop_operation_xyz
x,y,z
-x,1/2+y,1/2-z
-x,-y,-z
x,1/2-y,1/2+z
loop_
_atom_site_type_symbol
_atom_site_label
_atom_site_fract_x
_atom_site_fract_y
_atom_site_fract_z
Si Si1 0.764035 0.903944 0.851733
Si Si2 0.164235 0.168696 0.400796
Si Si3 0.625176 0.276673 0.585664
Si Si4 0.145957 0.538686 0.565349
Si Si5 0.035466 0.574252 0.094468
Si Si6 0.844273 0.276738 0.557909
Si Si7 0.095928 0.872601 0.305730
Si Si8 0.402062 0.291263 0.634499
O O1 0.769700 0.880670 0.669277
O O2 0.655274 0.856741 0.841957
O O3 0.734171 0.980667 0.834264
O O4 0.923507 0.887756 0.092155
O O5 0.103710 0.126270 0.499219
O O6 0.276892 0.231974 0.519712
O O7 0.006544 0.195057 0.174120
O O8 0.750631 0.316066 0.605145
O O9 0.483105 0.306946 0.541667
O O10 0.540851 0.232056 0.375956
O O11 0.727148 0.233584 0.802150
O O12 0.183249 0.591978 0.740399
O O13 0.000000 0.500000 0.500000
O O14 0.104285 0.563688 0.344138
O O15 0.000000 0.500000 0.000000
O O16 0.120216 0.601110 0.013612
O O17 0.879522 0.204420 0.659579
#
# Coordination Sequence:
#
# PCOD9243489 Si02
#       8
#     4   4   4   4   4   4   4   4
#     4  11  20  37  61  91 131 160 208 270 316 371
#     4  12  23  35  66  98 122 159 221 272 310 375
#     4  10  24  40  56  84 136 172 198 248 338 395
#     4  10  20  38  55  91 135 165 204 261 329 377
#     4  12  22  35  58  96 133 164 200 268 336 365
#     4  11  23  41  61  96 126 168 210 268 327 378
#     4  11  21  37  62  94 131 160 213 271 315 379
#     4  11  23  39  59  95 125 167 208 263 323 380
#
# _framework density 21.497883999999999
#
# number of rings (size 3 to 8) (size 9 to 14) (size 15 to 20)
#    0.000    1.000    7.500    1.500    3.500    0.000 
#    0.000    0.000    0.000    3.000    6.500    7.875 
#    0.000    0.000    0.000    0.000    0.000    0.000 
#
# Total GULP energy -178176.683526 kJ/mol
# GULP energy per Si atom -5568.021360 kJ/mol
# Density = 2.144895 g / cm^3
# Si number density = 21.497884 Si / 1000 Ang^3
#
#
#
# Elastic Constant Matrix: (Units=GPa)
#
#
# Indices 1 2 3 4 5 6 
#
# 1 97.8915 16.8957 15.0920 0.0000 -22.3028 0.0000
# 2 16.8957 78.0094 -11.2038 0.0000 -8.8375 0.0000
# 3 15.0920 -11.2038 56.7855 0.0000 -10.1272 0.0000
# 4 0.0000 0.0000 0.0000 14.0489 0.0000 -10.9813
# 5 -22.3028 -8.8375 -10.1272 0.0000 42.5833 0.0000
# 6 0.0000 0.0000 0.0000 -10.9813 0.0000 31.7631
#
#
#
# Elastic Compliance Matrix: (Units=1/GPa)
#
#
# Indices 1 2 3 4 5 6 
#
# 1 0.012270 -0.002467 -0.002812 0.000000 0.005245 0.000000
# 2 -0.002467 0.014210 0.003921 0.000000 0.002589 0.000000
# 3 -0.002812 0.003921 0.019856 0.000000 0.004063 0.000000
# 4 0.000000 0.000000 0.000000 0.097538 0.000000 0.033721
# 5 0.005245 0.002589 0.004063 0.000000 0.027734 0.000000
# 6 0.000000 0.000000 0.000000 0.033721 0.000000 0.043141
#
#
# Mechanical properties :
#
#
# Convention : Reuss Voigt Hill
#
# Bulk Modulus (GPa) = 22.92588 30.47269 26.69929
# Shear Modulus (GPa) = 21.55121 31.80590 26.67855
#
# Velocity S-wave (km/s) = 3.16963 3.85059 3.52658
# Velocity P-wave (km/s) = 4.90743 5.82880 5.38784
#
# Compressibility (1/GPa) = 0.04361882
#
# Stress axis : x y z
#
# Youngs Moduli (GPa) = 81.50058 70.37392 50.36313
#
# Poissons Ratio (x) = 0.17362 0.14163
# Poissons Ratio (y) = 0.20107 -0.19748
# Poissons Ratio (z) = 0.22920 -0.27594
#
# Static dielectric constant tensor:
#      x y z
#    x 1.934300 0.000000 -0.044020 
#    y 0.000000 1.883260 0.000000 
#    z -0.044020 0.000000 1.855970 
# 
# From -- ./inp_files/14323.got.cif
#   From: 2010.05.17/outbox.cif.g08.bks.cpg/sg14_8_cif.got.tgz:14323.got - 2010.06.03 17:49:19.
