data_PCOD9243118
_publ_section_title
;
Structure prediction by ZEFSAII (Michael W. Deem and Ramdas Pophale) SiO2 
 PCOD9243118
Probable space group: P 21/C
;
_chemical_formula_sum "Si O2"
_cell_formula_units_Z 20
_cell_length_a 21.770496
_cell_length_b 5.638983
_cell_length_c 9.428541
_cell_angle_alpha 90.000000
_cell_angle_beta 141.558207
_cell_angle_gamma 90.000000
_cell_volume 719.627788
_symmetry_space_group_name_H-M "P 21/C"
_symmetry_group_IT_number 14
_symmetry_cell_setting 'monoclinic'
loop_
_space_group_symop_operation_xyz
x,y,z
-x,1/2+y,1/2-z
-x,-y,-z
x,1/2-y,1/2+z
loop_
_atom_site_type_symbol
_atom_site_label
_atom_site_fract_x
_atom_site_fract_y
_atom_site_fract_z
Si Si1 0.633333 0.850548 0.117125
Si Si2 0.749481 0.338352 0.629501
Si Si3 0.905958 0.968132 0.225424
Si Si4 0.101705 0.534976 0.769990
Si Si5 0.411209 0.986713 0.671395
O O1 0.718452 0.033415 0.221219
O O2 0.615316 0.835842 0.250455
O O3 0.527323 0.950332 0.869950
O O4 0.640685 0.592616 0.060886
O O5 0.808984 0.531992 0.648891
O O6 0.817319 0.109174 0.703702
O O7 0.642886 0.253916 0.382694
O O8 0.902056 0.224588 0.141951
O O9 0.897309 0.710797 0.141235
O O10 0.000000 0.000000 0.500000
O O11 0.000000 0.500000 0.500000
#
# Coordination Sequence:
#
# PCOD9243118 Si02
#       5
#     4   4   4   4   4
#     4  11  24  42  65  98 137 184 235 293 357 427
#     4  10  20  36  64  90 132 176 232 278 358 408
#     4   8  15  29  55  91 126 169 221 285 344 412
#     4   8  15  29  55  91 126 169 221 285 344 412
#     4  11  24  42  65  98 137 184 235 293 357 427
#
# _framework density 27.792142999999999
#
# number of rings (size 3 to 8) (size 9 to 14) (size 15 to 20)
#    1.200    1.200    2.000    1.200    0.000    2.400 
#    0.000    0.000    0.000    2.400    0.000    0.000 
#    0.000    0.000    0.000    0.000    0.000    0.000 
#
# Total GULP energy -111509.053616 kJ/mol
# GULP energy per Si atom -5575.452681 kJ/mol
# Density = 2.772889 g / cm^3
# Si number density = 27.792143 Si / 1000 Ang^3
#
#
#
# Elastic Constant Matrix: (Units=GPa)
#
#
# Indices 1 2 3 4 5 6 
#
# 1 132.2212 15.4431 25.8616 0.0000 38.7605 0.0000
# 2 15.4431 192.5366 21.8047 0.0000 6.9186 0.0000
# 3 25.8616 21.8047 83.9108 0.0000 35.1923 0.0000
# 4 0.0000 0.0000 0.0000 46.7112 0.0000 9.4980
# 5 38.7605 6.9186 35.1923 0.0000 54.5784 0.0000
# 6 0.0000 0.0000 0.0000 9.4980 0.0000 24.0351
#
#
#
# Elastic Compliance Matrix: (Units=1/GPa)
#
#
# Indices 1 2 3 4 5 6 
#
# 1 0.009605 -0.000529 0.000014 0.000000 -0.006763 0.000000
# 2 -0.000529 0.005384 -0.001518 0.000000 0.000672 0.000000
# 3 0.000014 -0.001518 0.016765 0.000000 -0.010627 0.000000
# 4 0.000000 0.000000 0.000000 0.023279 0.000000 -0.009199
# 5 -0.006763 0.000672 -0.010627 0.000000 0.029892 0.000000
# 6 0.000000 0.000000 0.000000 -0.009199 0.000000 0.045241
#
#
# Mechanical properties :
#
#
# Convention : Reuss Voigt Hill
#
# Bulk Modulus (GPa) = 36.11798 59.43194 47.77496
# Shear Modulus (GPa) = 34.85277 48.10223 41.47750
#
# Velocity S-wave (km/s) = 3.54510 4.16478 3.86737
# Velocity P-wave (km/s) = 5.45719 6.67519 6.09668
#
# Compressibility (1/GPa) = 0.02768704
#
# Stress axis : x y z
#
# Youngs Moduli (GPa) = 104.11567 185.73581 59.64923
#
# Poissons Ratio (x) = 0.09824 -0.00081
# Poissons Ratio (y) = 0.05507 0.09054
# Poissons Ratio (z) = -0.00141 0.28191
#
# Static dielectric constant tensor:
#      x y z
#    x 2.061380 0.000000 -0.009950 
#    y 0.000000 2.262620 0.000000 
#    z -0.009950 0.000000 2.203950 
# 
# From -- ./inp_files/35561.got.cif
#   From: 2010.05.17/outbox.cif.g08.bks.cpg/sg14_18_cif.got.tgz:35561.got - 2010.06.03 17:49:19.
