data_PCOD9243116
_publ_section_title
;
Structure prediction by ZEFSAII (Michael W. Deem and Ramdas Pophale) SiO2 
 PCOD9243116
Probable space group: P 21/C
;
_chemical_formula_sum "Si O2"
_cell_formula_units_Z 30
_cell_length_a 20.796840
_cell_length_b 8.645975
_cell_length_c 18.221246
_cell_angle_alpha 90.000000
_cell_angle_beta 155.428810
_cell_angle_gamma 90.000000
_cell_volume 1362.380686
_symmetry_space_group_name_H-M "P 21/C"
_symmetry_group_IT_number 14
_symmetry_cell_setting 'monoclinic'
loop_
_space_group_symop_operation_xyz
x,y,z
-x,1/2+y,1/2-z
-x,-y,-z
x,1/2-y,1/2+z
loop_
_atom_site_type_symbol
_atom_site_label
_atom_site_fract_x
_atom_site_fract_y
_atom_site_fract_z
Si Si1 0.320285 0.769897 0.085211
Si Si2 0.450234 0.464936 0.619082
Si Si3 0.139023 0.393748 0.241519
Si Si4 0.212617 0.991745 0.083672
Si Si5 0.000000 0.500000 0.500000
Si Si6 0.052833 0.961571 0.309859
Si Si7 0.268480 0.165685 0.626928
Si Si8 0.005831 0.802248 0.545941
O O1 0.457989 0.647865 0.231723
O O2 0.356739 0.905927 0.067170
O O3 0.305391 0.843586 0.151149
O O4 0.162648 0.681245 0.903226
O O5 0.319351 0.369712 0.440595
O O6 0.582142 0.557467 0.711304
O O7 0.054919 0.270700 0.100820
O O8 0.046152 0.412642 0.220773
O O9 0.118229 0.555466 0.175310
O O10 0.064694 0.993311 0.875285
O O11 0.155158 0.990217 0.107026
O O12 0.300410 0.152225 0.156621
O O13 0.070047 0.634787 0.629383
O O14 0.168817 0.099719 0.454736
O O15 0.146387 0.153859 0.566526
#
# Coordination Sequence:
#
# PCOD9243116 Si02
#       8
#     4   4   4   4   2   4   4   4
#     4  11  23  39  60  92 129 157 206 255 309 374
#     4  11  23  39  60  94 127 170 197 250 319 375
#     4  10  20  39  65  87 118 161 210 245 311 359
#     4  11  20  38  62  88 123 160 208 264 308 362
#     4  10  22  36  60  92 118 152 200 270 314 338
#     4  10  20  36  64  90 112 158 212 265 298 357
#     4   9  21  37  57  87 125 157 204 251 309 361
#     4   9  20  39  60  90 120 157 208 260 288 374
#
# _framework density 22.020277
#
# number of rings (size 3 to 8) (size 9 to 14) (size 15 to 20)
#    0.000    1.867    1.333    2.400    3.733    1.600 
#    2.400    1.333    0.000    3.200    0.000    0.000 
#    0.000    0.000    0.000    0.000    0.000    0.000 
#
# Total GULP energy -167007.757965 kJ/mol
# GULP energy per Si atom -5566.925266 kJ/mol
# Density = 2.197016 g / cm^3
# Si number density = 22.020277 Si / 1000 Ang^3
#
#
#
# Elastic Constant Matrix: (Units=GPa)
#
#
# Indices 1 2 3 4 5 6 
#
# 1 88.3440 2.0286 0.2565 0.0000 1.9869 0.0000
# 2 2.0286 40.5789 -8.8994 0.0000 6.7283 0.0000
# 3 0.2565 -8.8994 71.3797 0.0000 2.8091 0.0000
# 4 0.0000 0.0000 0.0000 23.0419 0.0000 12.3104
# 5 1.9869 6.7283 2.8091 0.0000 20.0117 0.0000
# 6 0.0000 0.0000 0.0000 12.3104 0.0000 30.7510
#
#
#
# Elastic Compliance Matrix: (Units=1/GPa)
#
#
# Indices 1 2 3 4 5 6 
#
# 1 0.011351 -0.000417 -0.000054 0.000000 -0.000979 0.000000
# 2 -0.000417 0.027078 0.003755 0.000000 -0.009590 0.000000
# 3 -0.000054 0.003755 0.014608 0.000000 -0.003308 0.000000
# 4 0.000000 0.000000 0.000000 0.055207 0.000000 -0.022101
# 5 -0.000979 -0.009590 -0.003308 0.000000 0.053757 0.000000
# 6 0.000000 0.000000 0.000000 -0.022101 0.000000 0.041367
#
#
# Mechanical properties :
#
#
# Convention : Reuss Voigt Hill
#
# Bulk Modulus (GPa) = 16.77736 20.78601 18.78168
# Shear Modulus (GPa) = 23.07679 28.55537 25.81608
#
# Velocity S-wave (km/s) = 3.24076 3.60498 3.42771
# Velocity P-wave (km/s) = 4.65177 5.17570 4.92071
#
# Compressibility (1/GPa) = 0.05960415
#
# Stress axis : x y z
#
# Youngs Moduli (GPa) = 88.09682 36.93077 68.45518
#
# Poissons Ratio (x) = 0.01540 0.00371
# Poissons Ratio (y) = 0.03674 -0.25704
# Poissons Ratio (z) = 0.00478 -0.13867
#
# Static dielectric constant tensor:
#      x y z
#    x 2.039010 0.000000 -0.186120 
#    y 0.000000 1.748880 0.000000 
#    z -0.186120 0.000000 1.951310 
# 
# From -- ./inp_files/70252.got.cif
#   From: 2010.05.17/outbox.cif.g08.bks.cpg/sg14_36_cif.got.tgz:70252.got - 2010.06.03 17:49:19.
