data_PCOD9243661
_publ_section_title
;
Structure prediction by ZEFSAII (Michael W. Deem and Ramdas Pophale) SiO2 
 PCOD9243661
Probable space group: P 21/C
;
_chemical_formula_sum "Si O2"
_cell_formula_units_Z 28
_cell_length_a 8.574527
_cell_length_b 19.269051
_cell_length_c 8.604982
_cell_angle_alpha 90.000000
_cell_angle_beta 106.020888
_cell_angle_gamma 90.000000
_cell_volume 1366.522134
_symmetry_space_group_name_H-M "P 21/C"
_symmetry_group_IT_number 14
_symmetry_cell_setting 'monoclinic'
loop_
_space_group_symop_operation_xyz
x,y,z
-x,1/2+y,1/2-z
-x,-y,-z
x,1/2-y,1/2+z
loop_
_atom_site_type_symbol
_atom_site_label
_atom_site_fract_x
_atom_site_fract_y
_atom_site_fract_z
Si Si1 0.849891 0.806119 0.799884
Si Si2 0.464848 0.384478 0.873939
Si Si3 0.794910 0.112998 0.627684
Si Si4 0.235305 0.466245 0.017998
Si Si5 0.630781 0.036761 0.147199
Si Si6 0.051445 0.178757 0.494939
Si Si7 0.922588 0.076461 0.000661
O O1 0.672060 0.827159 0.690870
O O2 0.838391 0.736354 0.894006
O O3 0.968625 0.795295 0.685498
O O4 0.934135 0.870211 0.913303
O O5 0.545026 0.405808 0.732600
O O6 0.608150 0.371261 0.036021
O O7 0.367183 0.448698 0.921936
O O8 0.841820 0.104663 0.819701
O O9 0.896715 0.169171 0.560247
O O10 0.839303 0.038150 0.562042
O O11 0.305246 0.481800 0.207400
O O12 0.129102 0.397352 0.998899
O O13 0.781915 0.067302 0.091707
O O14 0.500000 0.000000 0.000000
O O15 0.000000 0.000000 0.000000
#
# Coordination Sequence:
#
# PCOD9243661 Si02
#       7
#     4   4   4   4   4   4   4
#     4  11  24  43  62  89 125 166 209 258 319 384
#     4  10  22  40  61  87 125 163 205 260 316 374
#     4  11  21  40  65  93 124 164 210 260 312 375
#     4  10  20  38  62  91 125 162 202 256 320 378
#     4  11  20  34  60  93 123 155 203 261 310 365
#     4  11  23  41  63  88 121 164 208 255 312 378
#     4  12  23  38  64  97 129 166 212 262 314 380
#
# _framework density 20.489972000000002
#
# number of rings (size 3 to 8) (size 9 to 14) (size 15 to 20)
#    0.000    1.143    0.000    9.857    0.000    1.143 
#    0.000   10.000    0.000    0.000    0.000    0.000 
#    0.000    0.000    0.000    0.000    0.000    0.000 
#
# Total GULP energy -156331.701740 kJ/mol
# GULP energy per Si atom -5583.275062 kJ/mol
# Density = 2.044334 g / cm^3
# Si number density = 20.489972 Si / 1000 Ang^3
#
#
#
# Elastic Constant Matrix: (Units=GPa)
#
#
# Indices 1 2 3 4 5 6 
#
# 1 102.0213 24.8128 27.6273 0.0000 -11.4780 0.0000
# 2 24.8128 47.6578 12.6463 0.0000 7.9569 0.0000
# 3 27.6273 12.6463 119.1526 0.0000 -4.9830 0.0000
# 4 0.0000 0.0000 0.0000 34.8456 0.0000 5.6579
# 5 -11.4780 7.9569 -4.9830 0.0000 33.1217 0.0000
# 6 0.0000 0.0000 0.0000 5.6579 0.0000 17.8860
#
#
#
# Elastic Compliance Matrix: (Units=1/GPa)
#
#
# Indices 1 2 3 4 5 6 
#
# 1 0.012702 -0.007064 -0.001953 0.000000 0.005805 0.000000
# 2 -0.007064 0.026590 -0.001564 0.000000 -0.009071 0.000000
# 3 -0.001953 -0.001564 0.009056 0.000000 0.001061 0.000000
# 4 0.000000 0.000000 0.000000 0.030252 0.000000 -0.009570
# 5 0.005805 -0.009071 0.001061 0.000000 0.034542 0.000000
# 6 0.000000 0.000000 0.000000 -0.009570 0.000000 0.058937
#
#
# Mechanical properties :
#
#
# Convention : Reuss Voigt Hill
#
# Bulk Modulus (GPa) = 36.78223 44.33383 40.55803
# Shear Modulus (GPa) = 24.71553 30.75367 27.73460
#
# Velocity S-wave (km/s) = 3.47684 3.87837 3.68308
# Velocity P-wave (km/s) = 5.84023 6.46061 6.15823
#
# Compressibility (1/GPa) = 0.02718704
#
# Stress axis : x y z
#
# Youngs Moduli (GPa) = 78.72883 37.60770 110.42808
#
# Poissons Ratio (x) = 0.26567 0.21562
# Poissons Ratio (y) = 0.55616 0.17266
# Poissons Ratio (z) = 0.15372 0.05880
#
# Static dielectric constant tensor:
#      x y z
#    x 1.745870 0.000000 -0.007140 
#    y 0.000000 1.726680 0.000000 
#    z -0.007140 0.000000 1.732830 
# 
# From -- ./inp_files/9991.got.cif
#   From: 2010.05.17/outbox.cif.g08.bks.cpg/sg14_5_cif.got.tgz:9991.got - 2010.06.03 17:49:19.
