data_PCOD9243710
_publ_section_title
;
Structure prediction by ZEFSAII (Michael W. Deem and Ramdas Pophale) SiO2 
 PCOD9243710
Probable space group: P 21/C
;
_chemical_formula_sum "Si O2"
_cell_formula_units_Z 28
_cell_length_a 12.182471
_cell_length_b 14.373689
_cell_length_c 9.303597
_cell_angle_alpha 90.000000
_cell_angle_beta 56.127270
_cell_angle_gamma 90.000000
_cell_volume 1352.626426
_symmetry_space_group_name_H-M "P 21/C"
_symmetry_group_IT_number 14
_symmetry_cell_setting 'monoclinic'
loop_
_space_group_symop_operation_xyz
x,y,z
-x,1/2+y,1/2-z
-x,-y,-z
x,1/2-y,1/2+z
loop_
_atom_site_type_symbol
_atom_site_label
_atom_site_fract_x
_atom_site_fract_y
_atom_site_fract_z
Si Si1 0.361361 0.986374 0.971827
Si Si2 0.451962 0.934137 0.403029
Si Si3 0.903327 0.055401 0.970884
Si Si4 0.641254 0.230216 0.984063
Si Si5 0.234568 0.005425 0.359623
Si Si6 0.999620 0.875116 0.400527
Si Si7 0.182027 0.739356 0.391022
O O1 0.397492 0.874685 0.938675
O O2 0.451635 0.045908 0.801542
O O3 0.212502 0.000616 0.021089
O O4 0.341791 0.013262 0.153005
O O5 0.446305 0.823201 0.441067
O O6 0.500000 0.000000 0.500000
O O7 0.309603 0.968324 0.445579
O O8 0.978427 0.107530 0.784958
O O9 0.825283 0.129609 0.124290
O O10 0.000000 0.000000 0.000000
O O11 0.775624 0.252864 0.975530
O O12 0.693197 0.219495 0.784745
O O13 0.148710 0.097177 0.452194
O O14 0.115849 0.936935 0.393424
O O15 0.044890 0.777444 0.431750
#
# Coordination Sequence:
#
# PCOD9243710 Si02
#       7
#     4   4   4   4   4   4   4
#     4  10  22  43  61  96 122 174 219 257 323 382
#     4  12  24  37  65  95 128 169 214 267 323 372
#     4  10  22  37  62  95 135 158 210 274 320 373
#     4  11  21  39  63  91 127 163 221 266 300 385
#     4  10  21  38  63  87 125 161 207 259 308 380
#     4  10  20  38  63  96 120 163 215 253 320 378
#     4  11  19  38  64  92 123 167 215 255 311 386
#
# _framework density 20.700468999999998
#
# number of rings (size 3 to 8) (size 9 to 14) (size 15 to 20)
#    0.000    1.429    5.714    2.143    4.000    1.143 
#    0.000    1.429    0.000    0.000    0.000    0.000 
#    0.000    0.000    0.000    0.000    0.000    0.000 
#
# Total GULP energy -155939.322495 kJ/mol
# GULP energy per Si atom -5569.261518 kJ/mol
# Density = 2.065335 g / cm^3
# Si number density = 20.700469 Si / 1000 Ang^3
#
#
#
# Elastic Constant Matrix: (Units=GPa)
#
#
# Indices 1 2 3 4 5 6 
#
# 1 81.9437 25.2956 19.9683 0.0000 19.3471 0.0000
# 2 25.2956 59.5110 23.8595 0.0000 -5.8141 0.0000
# 3 19.9683 23.8595 76.4004 0.0000 -5.3949 0.0000
# 4 0.0000 0.0000 0.0000 33.2009 0.0000 -9.8547
# 5 19.3471 -5.8141 -5.3949 0.0000 28.2777 0.0000
# 6 0.0000 0.0000 0.0000 -9.8547 0.0000 40.3701
#
#
#
# Elastic Compliance Matrix: (Units=1/GPa)
#
#
# Indices 1 2 3 4 5 6 
#
# 1 0.019320 -0.008311 -0.003556 0.000000 -0.015606 0.000000
# 2 -0.008311 0.023012 -0.004337 0.000000 0.009590 0.000000
# 3 -0.003556 -0.004337 0.015693 0.000000 0.004535 0.000000
# 4 0.000000 0.000000 0.000000 0.032472 0.000000 0.007927
# 5 -0.015606 0.009590 0.004535 0.000000 0.048878 0.000000
# 6 0.000000 0.000000 0.000000 0.007927 0.000000 0.026706
#
#
# Mechanical properties :
#
#
# Convention : Reuss Voigt Hill
#
# Bulk Modulus (GPa) = 39.03694 39.56687 39.30190
# Shear Modulus (GPa) = 24.15118 30.28520 27.21819
#
# Velocity S-wave (km/s) = 3.41940 3.82909 3.63003
# Velocity P-wave (km/s) = 5.87271 6.22132 6.04952
#
# Compressibility (1/GPa) = 0.02561676
#
# Stress axis : x y z
#
# Youngs Moduli (GPa) = 51.75914 43.45532 63.72236
#
# Poissons Ratio (x) = 0.36116 0.22660
# Poissons Ratio (y) = 0.43018 0.27637
# Poissons Ratio (z) = 0.18406 0.18847
#
# Static dielectric constant tensor:
#      x y z
#    x 1.766670 0.000000 -0.003910 
#    y 0.000000 1.836400 0.000000 
#    z -0.003910 0.000000 1.756070 
# 
# From -- ./inp_files/13241.got.cif
#   From: 2010.05.17/outbox.cif.g08.bks.cpg/sg14_7_cif.got.tgz:13241.got - 2010.06.03 17:49:19.
