data_PCOD9243789
_publ_section_title
;
Structure prediction by ZEFSAII (Michael W. Deem and Ramdas Pophale) SiO2 
 PCOD9243789
Probable space group: P 21/C
;
_chemical_formula_sum "Si O2"
_cell_formula_units_Z 20
_cell_length_a 7.973446
_cell_length_b 19.715328
_cell_length_c 5.435698
_cell_angle_alpha 90.000000
_cell_angle_beta 123.562749
_cell_angle_gamma 90.000000
_cell_volume 712.027532
_symmetry_space_group_name_H-M "P 21/C"
_symmetry_group_IT_number 14
_symmetry_cell_setting 'monoclinic'
loop_
_space_group_symop_operation_xyz
x,y,z
-x,1/2+y,1/2-z
-x,-y,-z
x,1/2-y,1/2+z
loop_
_atom_site_type_symbol
_atom_site_label
_atom_site_fract_x
_atom_site_fract_y
_atom_site_fract_z
Si Si1 0.463537 0.106520 0.630091
Si Si2 0.671119 0.788864 0.817935
Si Si3 0.247462 0.768140 0.998529
Si Si4 0.058146 0.079291 0.539272
Si Si5 0.113443 0.928326 0.100705
O O1 0.324734 0.135593 0.295448
O O2 0.646630 0.058374 0.697040
O O3 0.297711 0.084008 0.694175
O O4 0.603284 0.166826 0.854793
O O5 0.732672 0.739875 0.635691
O O6 0.427644 0.787021 0.647529
O O7 0.133912 0.748883 0.658214
O O8 0.962303 0.107613 0.711886
O O9 0.950087 0.107927 0.206620
O O10 0.000000 0.000000 0.500000
O O11 0.000000 0.000000 0.000000
#
# Coordination Sequence:
#
# PCOD9243789 Si02
#       5
#     4   4   4   4   4
#     4  10  20  38  66  80 120 166 176 244 312 314
#     4   8  16  30  54  85 108 145 196 226 279 356
#     4   8  16  30  54  85 108 145 196 226 279 356
#     4  10  24  40  57  88 117 149 206 241 278 358
#     4  10  24  40  57  88 117 149 206 241 278 358
#
# _framework density 28.088805000000001
#
# number of rings (size 3 to 8) (size 9 to 14) (size 15 to 20)
#    0.000    3.200    0.000    0.000    0.000   20.800 
#    0.000    0.000    0.000   64.800    0.000    0.000 
#    0.000    0.000    0.000    0.000    0.000    0.000 
#
# Total GULP energy -111508.963738 kJ/mol
# GULP energy per Si atom -5575.448187 kJ/mol
# Density = 2.802487 g / cm^3
# Si number density = 28.088805 Si / 1000 Ang^3
#
#
#
# Elastic Constant Matrix: (Units=GPa)
#
#
# Indices 1 2 3 4 5 6 
#
# 1 201.9139 49.0306 123.2378 0.0000 -12.6272 0.0000
# 2 49.0306 67.7554 18.1101 0.0000 4.2404 0.0000
# 3 123.2378 18.1101 224.9062 0.0000 -32.2942 0.0000
# 4 0.0000 0.0000 0.0000 -11.8924 0.0000 -32.3454
# 5 -12.6272 4.2404 -32.2942 0.0000 68.3667 0.0000
# 6 0.0000 0.0000 0.0000 -32.3454 0.0000 19.6020
#
#
#
# Elastic Compliance Matrix: (Units=1/GPa)
#
#
# Indices 1 2 3 4 5 6 
#
# 1 0.008985 -0.005285 -0.004519 0.000000 -0.000147 0.000000
# 2 -0.005285 0.018361 0.001195 0.000000 -0.001551 0.000000
# 3 -0.004519 0.001195 0.007183 0.000000 0.002484 0.000000
# 4 0.000000 0.000000 0.000000 -0.015322 0.000000 -0.025283
# 5 -0.000147 -0.001551 0.002484 0.000000 0.015869 0.000000
# 6 0.000000 0.000000 0.000000 -0.025283 0.000000 0.009296
#
#
# Mechanical properties :
#
#
# Convention : Reuss Voigt Hill
#
# Bulk Modulus (GPa) = 57.76733 97.25916 77.51325
# Shear Modulus (GPa) = 74.22829 35.49506 54.86167
#
# Velocity S-wave (km/s) = 5.14623 3.55867 4.42424
# Velocity P-wave (km/s) = 7.47811 7.18236 7.33173
#
# Compressibility (1/GPa) = 0.01731082
#
# Stress axis : x y z
#
# Youngs Moduli (GPa) = 111.30023 54.46353 139.21951
#
# Poissons Ratio (x) = 0.28782 0.62911
# Poissons Ratio (y) = 0.58819 -0.16631
# Poissons Ratio (z) = 0.50294 -0.06506
#
# Static dielectric constant tensor:
#      x y z
#    x 2.019850 0.000000 -0.329080 
#    y 0.000000 5.353750 0.000000 
#    z -0.329080 0.000000 2.197330 
# 
# From -- ./inp_files/1471.got.cif
#   From: 2010.05.17/outbox.cif.g08.bks.cpg/sg14_1_cif.got.tgz:1471.got - 2010.06.03 17:49:19.
