data_PCOD9243500
_publ_section_title
;
Structure prediction by ZEFSAII (Michael W. Deem and Ramdas Pophale) SiO2 
 PCOD9243500
Probable space group: P 21/C
;
_chemical_formula_sum "Si O2"
_cell_formula_units_Z 32
_cell_length_a 11.671971
_cell_length_b 25.720352
_cell_length_c 7.322918
_cell_angle_alpha 90.000000
_cell_angle_beta 140.537779
_cell_angle_gamma 90.000000
_cell_volume 1397.230922
_symmetry_space_group_name_H-M "P 21/C"
_symmetry_group_IT_number 14
_symmetry_cell_setting 'monoclinic'
loop_
_space_group_symop_operation_xyz
x,y,z
-x,1/2+y,1/2-z
-x,-y,-z
x,1/2-y,1/2+z
loop_
_atom_site_type_symbol
_atom_site_label
_atom_site_fract_x
_atom_site_fract_y
_atom_site_fract_z
Si Si1 0.299558 0.389536 0.399423
Si Si2 0.663900 0.389743 0.719304
Si Si3 0.754416 0.374254 0.267610
Si Si4 0.023991 0.677160 0.990379
Si Si5 0.036605 0.205709 0.004944
Si Si6 0.082885 0.051224 0.192750
Si Si7 0.790700 0.503824 0.790481
Si Si8 0.350997 0.136317 0.363895
O O1 0.453609 0.378947 0.444443
O O2 0.108057 0.368095 0.102819
O O3 0.298915 0.451217 0.441576
O O4 0.344766 0.357979 0.636531
O O5 0.706589 0.447289 0.699218
O O6 0.712595 0.388277 0.999503
O O7 0.778059 0.346229 0.757933
O O8 0.870983 0.320723 0.411463
O O9 0.902321 0.415995 0.516272
O O10 0.566421 0.372192 0.148118
O O11 0.992381 0.685220 0.735527
O O12 0.981178 0.732627 0.021380
O O13 0.235346 0.184396 0.305660
O O14 0.204965 0.030780 0.507215
O O15 0.217366 0.087925 0.243255
O O16 0.000000 0.000000 0.000000
O O17 0.000000 0.500000 0.000000
#
# Coordination Sequence:
#
# PCOD9243500 Si02
#       8
#     4   4   4   4   4   4   4   4
#     4  10  21  38  60  83 116 151 188 233 285 335
#     4  10  20  39  59  83 114 152 190 230 281 342
#     4   9  19  39  61  85 112 150 191 231 283 335
#     4  10  20  38  58  82 111 149 187 234 286 335
#     4   9  20  36  61  81 113 147 187 235 286 336
#     4  11  21  36  57  85 118 151 189 230 272 335
#     4  12  22  38  58  83 121 155 188 230 283 335
#     4   9  20  40  60  83 114 150 190 234 282 337
#
# _framework density 22.902443000000002
#
# number of rings (size 3 to 8) (size 9 to 14) (size 15 to 20)
#    0.000    2.000    2.500    1.875    0.000    3.500 
#    4.500    0.000    0.000    0.000    0.000    0.000 
#    0.000    0.000    0.000    0.000    0.000    0.000 
#
# Total GULP energy -178607.185118 kJ/mol
# GULP energy per Si atom -5581.474535 kJ/mol
# Density = 2.285032 g / cm^3
# Si number density = 22.902443 Si / 1000 Ang^3
#
#
#
# Elastic Constant Matrix: (Units=GPa)
#
#
# Indices 1 2 3 4 5 6 
#
# 1 109.8425 51.5683 41.3604 0.0000 57.4368 0.0000
# 2 51.5683 132.5840 13.8627 0.0000 29.8327 0.0000
# 3 41.3604 13.8627 64.6553 0.0000 26.3565 0.0000
# 4 0.0000 0.0000 0.0000 15.9462 0.0000 -3.5716
# 5 57.4368 29.8327 26.3565 0.0000 52.6828 0.0000
# 6 0.0000 0.0000 0.0000 -3.5716 0.0000 29.3424
#
#
#
# Elastic Compliance Matrix: (Units=1/GPa)
#
#
# Indices 1 2 3 4 5 6 
#
# 1 0.024448 -0.004080 -0.006081 0.000000 -0.021301 0.000000
# 2 -0.004080 0.009326 0.001193 0.000000 -0.001430 0.000000
# 3 -0.006081 0.001193 0.020945 0.000000 -0.004524 0.000000
# 4 0.000000 0.000000 0.000000 0.064469 0.000000 0.007847
# 5 -0.021301 -0.001430 -0.004524 0.000000 0.045278 0.000000
# 6 0.000000 0.000000 0.000000 0.007847 0.000000 0.035036
#
#
# Mechanical properties :
#
#
# Convention : Reuss Voigt Hill
#
# Bulk Modulus (GPa) = 27.18630 57.85164 42.51897
# Shear Modulus (GPa) = 21.76770 32.94696 27.35733
#
# Velocity S-wave (km/s) = 3.08629 3.79697 3.45993
# Velocity P-wave (km/s) = 4.95948 6.67365 5.87937
#
# Compressibility (1/GPa) = 0.03678323
#
# Stress axis : x y z
#
# Youngs Moduli (GPa) = 40.90392 107.22357 47.74332
#
# Poissons Ratio (x) = 0.43748 0.29034
# Poissons Ratio (y) = 0.16689 -0.05697
# Poissons Ratio (z) = 0.24875 -0.12795
#
# Static dielectric constant tensor:
#      x y z
#    x 1.936900 0.000000 -0.072540 
#    y 0.000000 1.894140 0.000000 
#    z -0.072540 0.000000 1.948650 
# 
# From -- ./inp_files/14536.got.cif
#   From: 2010.05.17/outbox.cif.g08.bks.cpg/sg14_8_cif.got.tgz:14536.got - 2010.06.03 17:49:19.
