data_PCOD9243310
_publ_section_title
;
Structure prediction by ZEFSAII (Michael W. Deem and Ramdas Pophale) SiO2 
 PCOD9243310
Probable space group: P 21/C
;
_chemical_formula_sum "Si O2"
_cell_formula_units_Z 32
_cell_length_a 15.773665
_cell_length_b 8.094120
_cell_length_c 22.166590
_cell_angle_alpha 90.000000
_cell_angle_beta 27.239060
_cell_angle_gamma 90.000000
_cell_volume 1295.346628
_symmetry_space_group_name_H-M "P 21/C"
_symmetry_group_IT_number 14
_symmetry_cell_setting 'monoclinic'
loop_
_space_group_symop_operation_xyz
x,y,z
-x,1/2+y,1/2-z
-x,-y,-z
x,1/2-y,1/2+z
loop_
_atom_site_type_symbol
_atom_site_label
_atom_site_fract_x
_atom_site_fract_y
_atom_site_fract_z
Si Si1 0.821834 0.235999 0.871064
Si Si2 0.595546 0.810320 0.998315
Si Si3 0.144956 0.536026 0.982636
Si Si4 0.769063 0.489314 0.288958
Si Si5 0.742448 0.692838 0.584166
Si Si6 0.660654 0.342529 0.694511
Si Si7 0.584777 0.018778 0.568833
Si Si8 0.080576 0.049533 0.132846
O O1 0.830791 0.115958 0.808410
O O2 0.920277 0.147920 0.865582
O O3 0.938762 0.387655 0.772186
O O4 0.621124 0.304801 0.015883
O O5 0.387419 0.871514 0.140233
O O6 0.637951 0.622619 0.987699
O O7 0.663575 0.859300 0.888726
O O8 0.714818 0.912857 0.970943
O O9 0.937048 0.534843 0.139657
O O10 0.191239 0.357811 0.922230
O O11 0.196692 0.694759 0.909401
O O12 0.280063 0.530958 0.957495
O O13 0.711019 0.502440 0.622685
O O14 0.536597 0.752108 0.694034
O O15 0.913702 0.661970 0.429501
O O16 0.613743 0.448623 0.784706
#
# Coordination Sequence:
#
# PCOD9243310 Si02
#       8
#     4   4   4   4   4   4   4   4
#     4  11  22  34  60  90 123 145 195 251 300 358
#     4  10  20  37  61  82 123 150 198 236 302 371
#     4  11  21  39  60  88 118 154 198 245 292 359
#     4  10  22  39  57  89 115 160 192 240 306 358
#     4  11  20  34  57  88 113 151 193 244 293 350
#     4  11  22  35  58  89 119 152 196 248 298 348
#     4  11  21  37  58  90 113 152 194 244 292 352
#     4  11  20  35  58  91 115 153 192 247 301 356
#
# _framework density 24.703811999999999
#
# number of rings (size 3 to 8) (size 9 to 14) (size 15 to 20)
#    0.000    1.250    6.250    3.000    0.000    1.500 
#    0.000    0.625    0.000    0.750    0.000    0.000 
#    0.000    0.000    0.000    0.000    0.000    0.000 
#
# Total GULP energy -178189.590829 kJ/mol
# GULP energy per Si atom -5568.424713 kJ/mol
# Density = 2.464759 g / cm^3
# Si number density = 24.703812 Si / 1000 Ang^3
#
#
#
# Elastic Constant Matrix: (Units=GPa)
#
#
# Indices 1 2 3 4 5 6 
#
# 1 21.2075 -0.5576 7.2638 0.0000 -0.5432 0.0000
# 2 -0.5576 141.9530 53.4307 0.0000 27.2364 0.0000
# 3 7.2638 53.4307 136.5941 0.0000 6.8480 0.0000
# 4 0.0000 0.0000 0.0000 32.9589 0.0000 2.7125
# 5 -0.5432 27.2364 6.8480 0.0000 15.4680 0.0000
# 6 0.0000 0.0000 0.0000 2.7125 0.0000 9.0174
#
#
#
# Elastic Compliance Matrix: (Units=1/GPa)
#
#
# Indices 1 2 3 4 5 6 
#
# 1 0.048260 0.001145 -0.003066 0.000000 0.001036 0.000000
# 2 0.001145 0.012346 -0.003889 0.000000 -0.019977 0.000000
# 3 -0.003066 -0.003889 0.008864 0.000000 0.002815 0.000000
# 4 0.000000 0.000000 0.000000 0.031111 0.000000 -0.009358
# 5 0.001036 -0.019977 0.002815 0.000000 0.098615 0.000000
# 6 0.000000 0.000000 0.000000 -0.009358 0.000000 0.113712
#
#
# Mechanical properties :
#
#
# Convention : Reuss Voigt Hill
#
# Bulk Modulus (GPa) = 17.28618 46.66983 31.97800
# Shear Modulus (GPa) = 14.54291 27.46338 21.00315
#
# Velocity S-wave (km/s) = 2.42893 3.33784 2.91898
# Velocity P-wave (km/s) = 3.85731 5.81272 4.93287
#
# Compressibility (1/GPa) = 0.05784969
#
# Stress axis : x y z
#
# Youngs Moduli (GPa) = 20.72114 81.00050 112.81673
#
# Poissons Ratio (x) = -0.09273 0.34591
# Poissons Ratio (y) = -0.02372 0.43869
# Poissons Ratio (z) = 0.06353 0.31497
#
# Static dielectric constant tensor:
#      x y z
#    x 2.091410 0.000000 0.075440 
#    y 0.000000 2.575490 0.000000 
#    z 0.075440 0.000000 2.052310 
# 
# From -- ./inp_files/77970.got.cif
#   From: 2010.05.17/outbox.cif.g08.bks.cpg/sg14_39_cif.got.tgz:77970.got - 2010.06.03 17:49:19.
