data_PCOD9243357
_publ_section_title
;
Structure prediction by ZEFSAII (Michael W. Deem and Ramdas Pophale) SiO2 
 PCOD9243357
Probable space group: P 21/C
;
_chemical_formula_sum "Si O2"
_cell_formula_units_Z 28
_cell_length_a 5.154798
_cell_length_b 33.747408
_cell_length_c 7.718677
_cell_angle_alpha 90.000000
_cell_angle_beta 64.295669
_cell_angle_gamma 90.000000
_cell_volume 1209.876538
_symmetry_space_group_name_H-M "P 21/C"
_symmetry_group_IT_number 14
_symmetry_cell_setting 'monoclinic'
loop_
_space_group_symop_operation_xyz
x,y,z
-x,1/2+y,1/2-z
-x,-y,-z
x,1/2-y,1/2+z
loop_
_atom_site_type_symbol
_atom_site_label
_atom_site_fract_x
_atom_site_fract_y
_atom_site_fract_z
Si Si1 0.948160 0.293581 0.812964
Si Si2 0.314431 0.358402 0.184822
Si Si3 0.031349 0.872916 0.566963
Si Si4 0.390766 0.986012 0.841938
Si Si5 0.930321 0.953886 0.524534
Si Si6 0.098826 0.061580 0.847055
Si Si7 0.722239 0.777650 0.437988
O O1 0.046675 0.288446 0.982798
O O2 0.609849 0.281279 0.898096
O O3 0.000295 0.340491 0.771863
O O4 0.172603 0.265259 0.651598
O O5 0.186308 0.392937 0.343291
O O6 0.244946 0.311710 0.219629
O O7 0.210395 0.368189 0.015244
O O8 0.655951 0.362637 0.099781
O O9 0.041705 0.918920 0.615400
O O10 0.599438 0.957642 0.675985
O O11 0.346116 0.027929 0.758274
O O12 0.107624 0.959879 0.958184
O O13 0.500000 0.000000 0.000000
O O14 0.031427 0.939372 0.307273
O O15 0.000000 0.000000 0.500000
#
# Coordination Sequence:
#
# PCOD9243357 Si02
#       7
#     4   4   4   4   4   4   4
#     4  10  20  38  60  88 120 152 193 245 291 358
#     4   9  19  37  60  82 110 157 194 230 289 356
#     4   9  20  36  58  85 113 150 198 237 280 354
#     4  11  22  37  54  86 116 146 199 249 288 349
#     4  11  20  37  62  81 111 162 197 232 304 350
#     4  10  22  38  58  79 116 155 194 246 291 346
#     4  10  20  37  62  87 118 155 194 236 300 356
#
# _framework density 23.142861
#
# number of rings (size 3 to 8) (size 9 to 14) (size 15 to 20)
#    0.000    2.000    1.429    2.143    2.000    1.143 
#    2.571    1.429    0.000    0.000    0.000    0.000 
#    0.000    0.000    0.000    0.000    0.000    0.000 
#
# Total GULP energy -155881.684353 kJ/mol
# GULP energy per Si atom -5567.203013 kJ/mol
# Density = 2.309019 g / cm^3
# Si number density = 23.142861 Si / 1000 Ang^3
#
#
#
# Elastic Constant Matrix: (Units=GPa)
#
#
# Indices 1 2 3 4 5 6 
#
# 1 93.2878 13.7628 7.5693 0.0000 -9.8164 0.0000
# 2 13.7628 114.6290 27.4606 0.0000 -5.7918 0.0000
# 3 7.5693 27.4606 33.6918 0.0000 -6.1817 0.0000
# 4 0.0000 0.0000 0.0000 31.0798 0.0000 -7.1105
# 5 -9.8164 -5.7918 -6.1817 0.0000 23.3144 0.0000
# 6 0.0000 0.0000 0.0000 -7.1105 0.0000 33.8143
#
#
#
# Elastic Compliance Matrix: (Units=1/GPa)
#
#
# Indices 1 2 3 4 5 6 
#
# 1 0.011389 -0.000902 -0.001035 0.000000 0.004297 0.000000
# 2 -0.000902 0.010915 -0.008688 0.000000 0.000028 0.000000
# 3 -0.001035 -0.008688 0.038386 0.000000 0.007584 0.000000
# 4 0.000000 0.000000 0.000000 0.033801 0.000000 0.007108
# 5 0.004297 0.000028 0.007584 0.000000 0.046719 0.000000
# 6 0.000000 0.000000 0.000000 0.007108 0.000000 0.031068
#
#
# Mechanical properties :
#
#
# Convention : Reuss Voigt Hill
#
# Bulk Modulus (GPa) = 25.35578 37.68825 31.52202
# Shear Modulus (GPa) = 24.19253 30.49611 27.34432
#
# Velocity S-wave (km/s) = 3.23670 3.63400 3.44109
# Velocity P-wave (km/s) = 4.99483 5.82480 5.42571
#
# Compressibility (1/GPa) = 0.03943873
#
# Stress axis : x y z
#
# Youngs Moduli (GPa) = 87.80614 91.61740 26.05093
#
# Poissons Ratio (x) = 0.08267 0.02696
# Poissons Ratio (y) = 0.07923 0.22634
# Poissons Ratio (z) = 0.09086 0.79601
#
# Static dielectric constant tensor:
#      x y z
#    x 2.015510 0.000000 -0.016280 
#    y 0.000000 2.115940 0.000000 
#    z -0.016280 0.000000 1.923660 
# 
# From -- ./inp_files/6731.got.cif
#   From: 2010.05.17/outbox.cif.g08.bks.cpg/sg14_4_cif.got.tgz:6731.got - 2010.06.03 17:49:19.
