data_PCOD9243180
_publ_section_title
;
Structure prediction by ZEFSAII (Michael W. Deem and Ramdas Pophale) SiO2 
 PCOD9243180
Probable space group: P 21/C
;
_chemical_formula_sum "Si O2"
_cell_formula_units_Z 32
_cell_length_a 21.647144
_cell_length_b 12.177504
_cell_length_c 15.952045
_cell_angle_alpha 90.000000
_cell_angle_beta 20.018899
_cell_angle_gamma 90.000000
_cell_volume 1439.528665
_symmetry_space_group_name_H-M "P 21/C"
_symmetry_group_IT_number 14
_symmetry_cell_setting 'monoclinic'
loop_
_space_group_symop_operation_xyz
x,y,z
-x,1/2+y,1/2-z
-x,-y,-z
x,1/2-y,1/2+z
loop_
_atom_site_type_symbol
_atom_site_label
_atom_site_fract_x
_atom_site_fract_y
_atom_site_fract_z
Si Si1 0.180217 0.221314 0.794564
Si Si2 0.878358 0.633919 0.293796
Si Si3 0.529628 0.813542 0.347963
Si Si4 0.454933 0.848366 0.628945
Si Si5 0.255965 0.881514 0.398364
Si Si6 0.868796 0.101748 0.850354
Si Si7 0.269332 0.380488 0.838237
Si Si8 0.810801 0.333333 0.835593
O O1 0.133166 0.289770 0.772132
O O2 0.359620 0.148245 0.555375
O O3 0.229766 0.310592 0.804211
O O4 0.008291 0.151422 0.044249
O O5 0.704005 0.651278 0.573519
O O6 0.881883 0.503120 0.272991
O O7 0.061459 0.654950 0.111443
O O8 0.504140 0.871303 0.470237
O O9 0.579123 0.686445 0.305148
O O10 0.349774 0.834599 0.525492
O O11 0.387123 0.721183 0.719612
O O12 0.288420 0.913404 0.880927
O O13 0.233558 0.905267 0.526004
O O14 0.313481 0.991227 0.277004
O O15 0.818905 0.209625 0.862473
O O16 0.067508 0.117971 0.636618
#
# Coordination Sequence:
#
# PCOD9243180 Si02
#       8
#     4   4   4   4   4   4   4   4
#     4  10  21  37  57  85 115 148 191 234 279 332
#     4  11  21  35  59  84 112 149 188 231 282 333
#     4  11  22  35  57  82 110 152 192 231 277 333
#     4  10  20  37  57  79 112 147 186 233 282 332
#     4  10  20  37  59  84 115 146 180 233 287 336
#     4   9  20  37  57  81 112 145 183 234 283 334
#     4   9  21  38  59  84 112 144 186 235 283 333
#     4  10  21  37  55  82 116 145 186 233 279 335
#
# _framework density 22.229499000000001
#
# number of rings (size 3 to 8) (size 9 to 14) (size 15 to 20)
#    0.000    2.000    0.000    5.250    0.000   10.000 
#    0.000    0.000    0.000    4.500    0.000    0.000 
#    0.000    0.000    0.000    0.000    0.000    0.000 
#
# Total GULP energy -178743.059908 kJ/mol
# GULP energy per Si atom -5585.720622 kJ/mol
# Density = 2.217890 g / cm^3
# Si number density = 22.229499 Si / 1000 Ang^3
#
#
#
# Elastic Constant Matrix: (Units=GPa)
#
#
# Indices 1 2 3 4 5 6 
#
# 1 94.3612 0.4234 32.3641 0.0000 -24.1885 0.0000
# 2 0.4234 25.6713 1.5181 0.0000 -1.7723 0.0000
# 3 32.3641 1.5181 139.9581 0.0000 -14.0736 0.0000
# 4 0.0000 0.0000 0.0000 8.3042 0.0000 -2.2454
# 5 -24.1885 -1.7723 -14.0736 0.0000 34.7072 0.0000
# 6 0.0000 0.0000 0.0000 -2.2454 0.0000 17.2431
#
#
#
# Elastic Compliance Matrix: (Units=1/GPa)
#
#
# Indices 1 2 3 4 5 6 
#
# 1 0.013572 0.000502 -0.002283 0.000000 0.008559 0.000000
# 2 0.000502 0.039118 -0.000317 0.000000 0.002219 0.000000
# 3 -0.002283 -0.000317 0.007834 0.000000 0.001569 0.000000
# 4 0.000000 0.000000 0.000000 0.124817 0.000000 0.016254
# 5 0.008559 0.002219 0.001569 0.000000 0.035527 0.000000
# 6 0.000000 0.000000 0.000000 0.016254 0.000000 0.060111
#
#
# Mechanical properties :
#
#
# Convention : Reuss Voigt Hill
#
# Bulk Modulus (GPa) = 17.75339 36.51132 27.13236
# Shear Modulus (GPa) = 16.44999 27.09656 21.77328
#
# Velocity S-wave (km/s) = 2.72326 3.49513 3.13305
# Velocity P-wave (km/s) = 4.22989 5.72261 5.03191
#
# Compressibility (1/GPa) = 0.05632727
#
# Stress axis : x y z
#
# Youngs Moduli (GPa) = 73.67888 25.56386 127.64504
#
# Poissons Ratio (x) = -0.01283 0.29145
# Poissons Ratio (y) = -0.03699 0.04050
# Poissons Ratio (z) = 0.16823 0.00811
#
# Static dielectric constant tensor:
#      x y z
#    x 1.786660 0.000000 0.031770 
#    y 0.000000 1.863300 0.000000 
#    z 0.031770 0.000000 1.876390 
# 
# From -- ./inp_files/50604.got.cif
#   From: 2010.05.17/outbox.cif.g08.bks.cpg/sg14_26_cif.got.tgz:50604.got - 2010.06.03 17:49:19.
