data_PCOD9243397
_publ_section_title
;
Structure prediction by ZEFSAII (Michael W. Deem and Ramdas Pophale) SiO2 
 PCOD9243397
Probable space group: P 21/C
;
_chemical_formula_sum "Si O2"
_cell_formula_units_Z 20
_cell_length_a 21.716819
_cell_length_b 5.042878
_cell_length_c 13.656214
_cell_angle_alpha 90.000000
_cell_angle_beta 37.045454
_cell_angle_gamma 90.000000
_cell_volume 901.000120
_symmetry_space_group_name_H-M "P 21/C"
_symmetry_group_IT_number 14
_symmetry_cell_setting 'monoclinic'
loop_
_space_group_symop_operation_xyz
x,y,z
-x,1/2+y,1/2-z
-x,-y,-z
x,1/2-y,1/2+z
loop_
_atom_site_type_symbol
_atom_site_label
_atom_site_fract_x
_atom_site_fract_y
_atom_site_fract_z
Si Si1 0.038904 0.461390 0.749460
Si Si2 0.145330 0.631289 0.899576
Si Si3 0.244283 0.144660 0.680612
Si Si4 0.573480 0.753087 0.408114
Si Si5 0.242319 0.337239 0.962158
O O1 0.013339 0.769597 0.766983
O O2 0.156745 0.390556 0.586365
O O3 0.975059 0.364207 0.924619
O O4 0.176799 0.408618 0.781493
O O5 0.190859 0.910513 0.809475
O O6 0.198185 0.530990 0.933942
O O7 0.650677 0.743722 0.718010
O O8 0.352371 0.221860 0.591997
O O9 0.254671 0.053270 0.555694
O O10 0.500000 0.500000 0.500000
O O11 0.500000 0.000000 0.500000
#
# Coordination Sequence:
#
# PCOD9243397 Si02
#       5
#     4   4   4   4   4
#     4  10  20  37  63  91 128 170 202 247 310 370
#     4  10  22  41  62  96 134 162 202 254 306 374
#     4  11  24  41  66  95 125 166 210 254 315 378
#     4  11  24  43  63  87 122 159 206 265 311 359
#     4  10  24  42  66  93 127 167 211 259 310 373
#
# _framework density 22.197557
#
# number of rings (size 3 to 8) (size 9 to 14) (size 15 to 20)
#    0.000    1.600    0.000    6.000    0.000   12.800 
#    0.000    0.000    0.000    0.000    0.000    0.000 
#    0.000    0.000    0.000    0.000    0.000    0.000 
#
# Total GULP energy -111781.824261 kJ/mol
# GULP energy per Si atom -5589.091213 kJ/mol
# Density = 2.214703 g / cm^3
# Si number density = 22.197557 Si / 1000 Ang^3
#
#
#
# Elastic Constant Matrix: (Units=GPa)
#
#
# Indices 1 2 3 4 5 6 
#
# 1 92.4043 12.9345 62.7847 0.0000 4.4219 0.0000
# 2 12.9345 112.7290 44.2775 0.0000 -18.6305 0.0000
# 3 62.7847 44.2775 182.8798 0.0000 -21.5402 0.0000
# 4 0.0000 0.0000 0.0000 47.8809 0.0000 -7.4515
# 5 4.4219 -18.6305 -21.5402 0.0000 51.6801 0.0000
# 6 0.0000 0.0000 0.0000 -7.4515 0.0000 3.1181
#
#
#
# Elastic Compliance Matrix: (Units=1/GPa)
#
#
# Indices 1 2 3 4 5 6 
#
# 1 0.014706 -0.000143 -0.005435 0.000000 -0.003575 0.000000
# 2 -0.000143 0.010170 -0.002082 0.000000 0.002811 0.000000
# 3 -0.005435 -0.002082 0.008207 0.000000 0.003135 0.000000
# 4 0.000000 0.000000 0.000000 0.033252 0.000000 0.079463
# 5 -0.003575 0.002811 0.003135 0.000000 0.021976 0.000000
# 6 0.000000 0.000000 0.000000 0.079463 0.000000 0.510607
#
#
# Mechanical properties :
#
#
# Convention : Reuss Voigt Hill
#
# Bulk Modulus (GPa) = 56.29987 69.77849 63.03918
# Shear Modulus (GPa) = 8.06245 38.40357 23.23301
#
# Velocity S-wave (km/s) = 1.90788 4.16394 3.23870
# Velocity P-wave (km/s) = 5.50196 7.39062 6.51509
#
# Compressibility (1/GPa) = 0.01776203
#
# Stress axis : x y z
#
# Youngs Moduli (GPa) = 67.99873 98.33311 121.84159
#
# Poissons Ratio (x) = 0.01411 0.66223
# Poissons Ratio (y) = 0.00975 0.25366
# Poissons Ratio (z) = 0.36959 0.20472
#
# Static dielectric constant tensor:
#      x y z
#    x 1.881560 0.000000 0.020160 
#    y 0.000000 1.795380 0.000000 
#    z 0.020160 0.000000 1.806970 
# 
# From -- ./inp_files/2455.got.cif
#   From: 2010.05.17/outbox.cif.g08.bks.cpg/sg14_2_cif.got.tgz:2455.got - 2010.06.03 17:49:19.
