data_PCOD9243783
_publ_section_title
;
Structure prediction by ZEFSAII (Michael W. Deem and Ramdas Pophale) SiO2 
 PCOD9243783
Probable space group: P 21/C
;
_chemical_formula_sum "Si O2"
_cell_formula_units_Z 28
_cell_length_a 31.969024
_cell_length_b 7.702791
_cell_length_c 32.677179
_cell_angle_alpha 90.000000
_cell_angle_beta 171.313767
_cell_angle_gamma 90.000000
_cell_volume 1215.251058
_symmetry_space_group_name_H-M "P 21/C"
_symmetry_group_IT_number 14
_symmetry_cell_setting 'monoclinic'
loop_
_space_group_symop_operation_xyz
x,y,z
-x,1/2+y,1/2-z
-x,-y,-z
x,1/2-y,1/2+z
loop_
_atom_site_type_symbol
_atom_site_label
_atom_site_fract_x
_atom_site_fract_y
_atom_site_fract_z
Si Si1 0.251301 0.589592 0.151890
Si Si2 0.039672 0.716737 0.615687
Si Si3 0.796675 0.714180 0.650354
Si Si4 0.864228 0.583362 0.626916
Si Si5 0.585843 0.210065 0.371396
Si Si6 0.493215 0.916958 0.615978
Si Si7 0.259872 0.873420 0.751708
O O1 0.552899 0.575986 0.423624
O O2 0.302445 0.676547 0.245786
O O3 0.107830 0.403253 0.020047
O O4 0.044953 0.691922 0.922473
O O5 0.789057 0.582565 0.379457
O O6 0.187967 0.724758 0.714847
O O7 0.274066 0.683360 0.875796
O O8 0.901513 0.680694 0.706126
O O9 0.641620 0.896315 0.505936
O O10 0.727540 0.397353 0.503646
O O11 0.163801 0.576634 0.895652
O O12 0.655196 0.682260 0.394553
O O13 0.470849 0.174591 0.305332
O O14 0.000000 0.000000 0.500000
O O15 0.500000 0.000000 0.000000
#
# Coordination Sequence:
#
# PCOD9243783 Si02
#       7
#     4   4   4   4   4   4   4
#     4  11  22  41  66  93 123 166 215 262 313 377
#     4  11  22  41  66  93 123 166 215 262 313 377
#     4  12  25  42  62  93 131 168 208 261 319 378
#     4  12  25  44  67  94 126 167 212 262 316 377
#     4  12  25  44  67  94 126 167 212 262 316 377
#     4  12  25  42  62  93 131 168 208 261 319 378
#     4  10  20  38  65  96 125 162 213 266 315 376
#
# _framework density 23.040507999999999
#
# number of rings (size 3 to 8) (size 9 to 14) (size 15 to 20)
#    0.000    0.571    0.000   11.143    0.000    0.000 
#    0.000    4.286    0.000    0.000    0.000    0.000 
#    0.000    0.000    0.000    0.000    0.000    0.000 
#
# Total GULP energy -156829.416880 kJ/mol
# GULP energy per Si atom -5601.050603 kJ/mol
# Density = 2.298807 g / cm^3
# Si number density = 23.040508 Si / 1000 Ang^3
#
#
#
# Elastic Constant Matrix: (Units=GPa)
#
#
# Indices 1 2 3 4 5 6 
#
# 1 126.7296 9.6512 43.7620 0.0000 -21.6675 0.0000
# 2 9.6512 53.9451 -0.1657 0.0000 -23.1149 0.0000
# 3 43.7620 -0.1657 147.4244 0.0000 -18.1626 0.0000
# 4 0.0000 0.0000 0.0000 31.9578 0.0000 1.6523
# 5 -21.6675 -23.1149 -18.1626 0.0000 42.8380 0.0000
# 6 0.0000 0.0000 0.0000 1.6523 0.0000 27.0136
#
#
#
# Elastic Compliance Matrix: (Units=1/GPa)
#
#
# Indices 1 2 3 4 5 6 
#
# 1 0.009327 -0.000097 -0.002315 0.000000 0.003684 0.000000
# 2 -0.000097 0.024534 0.001774 0.000000 0.013941 0.000000
# 3 -0.002315 0.001774 0.007856 0.000000 0.003117 0.000000
# 4 0.000000 0.000000 0.000000 0.031390 0.000000 -0.001920
# 5 0.003684 0.013941 0.003117 0.000000 0.034051 0.000000
# 6 0.000000 0.000000 0.000000 -0.001920 0.000000 0.037136
#
#
# Mechanical properties :
#
#
# Convention : Reuss Voigt Hill
#
# Bulk Modulus (GPa) = 24.72753 48.28823 36.50788
# Shear Modulus (GPa) = 31.43618 38.68533 35.06076
#
# Velocity S-wave (km/s) = 3.69777 4.10202 3.90513
# Velocity P-wave (km/s) = 5.38394 6.59082 6.01771
#
# Compressibility (1/GPa) = 0.04044075
#
# Stress axis : x y z
#
# Youngs Moduli (GPa) = 107.20988 40.76003 127.28489
#
# Poissons Ratio (x) = 0.00397 0.29468
# Poissons Ratio (y) = 0.01044 -0.22581
# Poissons Ratio (z) = 0.24820 -0.07231
#
# Static dielectric constant tensor:
#      x y z
#    x 1.881510 0.000000 0.012630 
#    y 0.000000 1.909200 0.000000 
#    z 0.012630 0.000000 1.789970 
# 
# From -- ./inp_files/80911.got.cif
#   From: 2010.05.17/outbox.cif.g08.bks.cpg/sg14_41_cif.got.tgz:80911.got - 2010.06.03 17:49:19.
