data_PCOD9243300
_publ_section_title
;
Structure prediction by ZEFSAII (Michael W. Deem and Ramdas Pophale) SiO2 
 PCOD9243300
Probable space group: P 21/C
;
_chemical_formula_sum "Si O2"
_cell_formula_units_Z 28
_cell_length_a 7.842394
_cell_length_b 12.434394
_cell_length_c 13.910116
_cell_angle_alpha 90.000000
_cell_angle_beta 98.194831
_cell_angle_gamma 90.000000
_cell_volume 1342.600170
_symmetry_space_group_name_H-M "P 21/C"
_symmetry_group_IT_number 14
_symmetry_cell_setting 'monoclinic'
loop_
_space_group_symop_operation_xyz
x,y,z
-x,1/2+y,1/2-z
-x,-y,-z
x,1/2-y,1/2+z
loop_
_atom_site_type_symbol
_atom_site_label
_atom_site_fract_x
_atom_site_fract_y
_atom_site_fract_z
Si Si1 0.930143 0.653665 0.156989
Si Si2 0.889439 0.850331 0.248157
Si Si3 0.534682 0.541599 0.897206
Si Si4 0.706118 0.420743 0.749918
Si Si5 0.765693 0.045920 0.755889
Si Si6 0.584439 0.570315 0.419366
Si Si7 0.177546 0.279804 0.052362
O O1 0.812577 0.751763 0.183957
O O2 0.839115 0.548212 0.191581
O O3 0.122532 0.646689 0.215739
O O4 0.935832 0.675335 0.044401
O O5 0.922599 0.796956 0.355253
O O6 0.069253 0.881317 0.213432
O O7 0.774606 0.956860 0.236050
O O8 0.598461 0.440315 0.838506
O O9 0.382543 0.594128 0.822530
O O10 0.675261 0.632288 0.921658
O O11 0.500000 0.500000 0.000000
O O12 0.579479 0.385050 0.654867
O O13 0.684219 0.003673 0.848516
O O14 0.500000 0.500000 0.500000
O O15 0.724329 0.665071 0.454218
#
# Coordination Sequence:
#
# PCOD9243300 Si02
#       7
#     4   4   4   4   4   4   4
#     4  11  21  41  61  94 128 163 211 264 324 374
#     4  10  22  41  63  91 128 166 214 260 322 378
#     4  10  20  37  60  94 122 159 207 257 318 371
#     4   9  23  39  61  89 129 167 204 265 313 370
#     4  10  22  41  64  90 131 166 207 273 311 374
#     4  11  23  46  64  94 132 174 214 254 320 391
#     4  11  23  38  69  92 126 167 211 264 318 385
#
# _framework density 20.855055
#
# number of rings (size 3 to 8) (size 9 to 14) (size 15 to 20)
#    0.000    1.714    2.857    0.857    4.000    1.714 
#    5.143    2.143    0.000    0.000    0.000    0.000 
#    0.000    0.000    0.000    0.000    0.000    0.000 
#
# Total GULP energy -155941.212204 kJ/mol
# GULP energy per Si atom -5569.329007 kJ/mol
# Density = 2.080759 g / cm^3
# Si number density = 20.855055 Si / 1000 Ang^3
#
#
#
# Elastic Constant Matrix: (Units=GPa)
#
#
# Indices 1 2 3 4 5 6 
#
# 1 72.0650 -1.6936 15.6263 0.0000 1.1971 0.0000
# 2 -1.6936 56.5052 -1.9404 0.0000 3.4851 0.0000
# 3 15.6263 -1.9404 81.3781 0.0000 -12.9361 0.0000
# 4 0.0000 0.0000 0.0000 18.8658 0.0000 -3.1334
# 5 1.1971 3.4851 -12.9361 0.0000 33.3572 0.0000
# 6 0.0000 0.0000 0.0000 -3.1334 0.0000 4.3651
#
#
#
# Elastic Compliance Matrix: (Units=1/GPa)
#
#
# Indices 1 2 3 4 5 6 
#
# 1 0.014581 0.000440 -0.003069 0.000000 -0.001760 0.000000
# 2 0.000440 0.017827 0.000045 0.000000 -0.001861 0.000000
# 3 -0.003069 0.000045 0.013743 0.000000 0.005435 0.000000
# 4 0.000000 0.000000 0.000000 0.060181 0.000000 0.043199
# 5 -0.001760 -0.001861 0.005435 0.000000 0.032344 0.000000
# 6 0.000000 0.000000 0.000000 0.043199 0.000000 0.260101
#
#
# Mechanical properties :
#
#
# Convention : Reuss Voigt Hill
#
# Bulk Modulus (GPa) = 24.40058 25.99253 25.19656
# Shear Modulus (GPa) = 11.97300 24.51468 18.24384
#
# Velocity S-wave (km/s) = 2.39865 3.43225 2.96090
# Velocity P-wave (km/s) = 4.40418 5.31014 4.87824
#
# Compressibility (1/GPa) = 0.04098263
#
# Stress axis : x y z
#
# Youngs Moduli (GPa) = 68.58031 56.09470 72.76595
#
# Poissons Ratio (x) = -0.02469 0.22333
# Poissons Ratio (y) = -0.03019 -0.00325
# Poissons Ratio (z) = 0.21048 -0.00251
#
# Static dielectric constant tensor:
#      x y z
#    x 1.816220 0.000000 -0.096260 
#    y 0.000000 -0.265790 0.000000 
#    z -0.096260 0.000000 2.156660 
# 
# From -- ./inp_files/24979.got.cif
#   From: 2010.05.17/outbox.cif.g08.bks.cpg/sg14_13_cif.got.tgz:24979.got - 2010.06.03 17:49:19.
