data_PCOD9243426
_publ_section_title
;
Structure prediction by ZEFSAII (Michael W. Deem and Ramdas Pophale) SiO2 
 PCOD9243426
Probable space group: P 21/C
;
_chemical_formula_sum "Si O2"
_cell_formula_units_Z 28
_cell_length_a 11.721080
_cell_length_b 9.644149
_cell_length_c 13.503763
_cell_angle_alpha 90.000000
_cell_angle_beta 53.490019
_cell_angle_gamma 90.000000
_cell_volume 1226.899755
_symmetry_space_group_name_H-M "P 21/C"
_symmetry_group_IT_number 14
_symmetry_cell_setting 'monoclinic'
loop_
_space_group_symop_operation_xyz
x,y,z
-x,1/2+y,1/2-z
-x,-y,-z
x,1/2-y,1/2+z
loop_
_atom_site_type_symbol
_atom_site_label
_atom_site_fract_x
_atom_site_fract_y
_atom_site_fract_z
Si Si1 0.373026 0.436867 0.327657
Si Si2 0.890550 0.397310 0.498496
Si Si3 0.611986 0.008186 0.853915
Si Si4 0.706794 0.690059 0.821275
Si Si5 0.812449 0.692259 0.973294
Si Si6 0.939319 0.841568 0.604742
Si Si7 0.092985 0.602925 0.746480
O O1 0.268461 0.566876 0.385683
O O2 0.521662 0.461424 0.303307
O O3 0.388755 0.392362 0.205722
O O4 0.280319 0.321322 0.437380
O O5 0.894784 0.417507 0.377324
O O6 0.000000 0.500000 0.500000
O O7 0.920656 0.235347 0.504306
O O8 0.669777 0.851964 0.831673
O O9 0.743497 0.112409 0.802200
O O10 0.500000 0.000000 0.000000
O O11 0.724453 0.638478 0.923921
O O12 0.860500 0.705567 0.690403
O O13 0.971102 0.712545 0.842997
O O14 0.848999 0.610411 0.055746
O O15 0.959313 0.960523 0.673784
#
# Coordination Sequence:
#
# PCOD9243426 Si02
#       7
#     4   4   4   4   4   4   4
#     4  11  22  40  65  92 125 169 214 260 326 380
#     4  12  20  34  62  92 121 163 220 262 312 372
#     4  11  21  40  64  89 126 177 214 252 320 400
#     4  10  20  37  64  92 124 166 212 266 323 371
#     4  11  19  38  64  92 125 162 212 270 320 374
#     4  10  22  35  60  94 126 162 208 268 323 373
#     4  11  23  38  60  96 131 166 212 266 326 377
#
# _framework density 22.821749000000001
#
# number of rings (size 3 to 8) (size 9 to 14) (size 15 to 20)
#    0.000    1.143    7.143    1.286    0.000    0.000 
#    2.571    0.000    0.000    7.714    0.000    0.000 
#    0.000    0.000    0.000    0.000    0.000    0.000 
#
# Total GULP energy -156000.492158 kJ/mol
# GULP energy per Si atom -5571.446148 kJ/mol
# Density = 2.276981 g / cm^3
# Si number density = 22.821749 Si / 1000 Ang^3
#
#
#
# Elastic Constant Matrix: (Units=GPa)
#
#
# Indices 1 2 3 4 5 6 
#
# 1 190.3524 24.7697 30.5921 0.0000 26.1212 0.0000
# 2 24.7697 39.0875 7.0417 0.0000 2.7530 0.0000
# 3 30.5921 7.0417 50.7484 0.0000 18.6832 0.0000
# 4 0.0000 0.0000 0.0000 28.0265 0.0000 3.0208
# 5 26.1212 2.7530 18.6832 0.0000 59.2288 0.0000
# 6 0.0000 0.0000 0.0000 3.0208 0.0000 17.3239
#
#
#
# Elastic Compliance Matrix: (Units=1/GPa)
#
#
# Indices 1 2 3 4 5 6 
#
# 1 0.006382 -0.003430 -0.002708 0.000000 -0.001801 0.000000
# 2 -0.003430 0.028083 -0.002156 0.000000 0.000887 0.000000
# 3 -0.002708 -0.002156 0.023940 0.000000 -0.006257 0.000000
# 4 0.000000 0.000000 0.000000 0.036364 0.000000 -0.006341
# 5 -0.001801 0.000887 -0.006257 0.000000 0.019610 0.000000
# 6 0.000000 0.000000 0.000000 -0.006341 0.000000 0.058829
#
#
# Mechanical properties :
#
#
# Convention : Reuss Voigt Hill
#
# Bulk Modulus (GPa) = 23.91336 44.99949 34.45643
# Shear Modulus (GPa) = 24.54155 35.43483 29.98819
#
# Velocity S-wave (km/s) = 3.28282 3.94468 3.62887
# Velocity P-wave (km/s) = 4.98701 6.36458 5.71744
#
# Compressibility (1/GPa) = 0.04181762
#
# Stress axis : x y z
#
# Youngs Moduli (GPa) = 156.68857 35.60896 41.77028
#
# Poissons Ratio (x) = 0.12212 0.11313
# Poissons Ratio (y) = 0.53737 0.09005
# Poissons Ratio (z) = 0.42437 0.07677
#
# Static dielectric constant tensor:
#      x y z
#    x 1.987760 0.000000 -0.152230 
#    y 0.000000 1.898330 0.000000 
#    z -0.152230 0.000000 2.181570 
# 
# From -- ./inp_files/44331.got.cif
#   From: 2010.05.17/outbox.cif.g08.bks.cpg/sg14_23_cif.got.tgz:44331.got - 2010.06.03 17:49:19.
