data_PCOD9243797
_publ_section_title
;
Structure prediction by ZEFSAII (Michael W. Deem and Ramdas Pophale) SiO2 
 PCOD9243797
Probable space group: P 21/C
;
_chemical_formula_sum "Si O2"
_cell_formula_units_Z 24
_cell_length_a 5.142470
_cell_length_b 14.228077
_cell_length_c 14.493697
_cell_angle_alpha 90.000000
_cell_angle_beta 80.072912
_cell_angle_gamma 90.000000
_cell_volume 1044.589599
_symmetry_space_group_name_H-M "P 21/C"
_symmetry_group_IT_number 14
_symmetry_cell_setting 'monoclinic'
loop_
_space_group_symop_operation_xyz
x,y,z
-x,1/2+y,1/2-z
-x,-y,-z
x,1/2-y,1/2+z
loop_
_atom_site_type_symbol
_atom_site_label
_atom_site_fract_x
_atom_site_fract_y
_atom_site_fract_z
Si Si1 0.786724 0.930017 0.555079
Si Si2 0.525815 0.213531 0.199994
Si Si3 0.012056 0.037289 0.788753
Si Si4 0.444559 0.098347 0.623998
Si Si5 0.971958 0.330840 0.799056
Si Si6 0.458431 0.505330 0.392924
O O1 0.618512 0.892653 0.480259
O O2 0.946905 0.852553 0.601648
O O3 0.598441 0.998794 0.627110
O O4 0.000000 0.000000 0.500000
O O5 0.603007 0.309182 0.143698
O O6 0.693674 0.208967 0.284202
O O7 0.549921 0.115243 0.141353
O O8 0.219001 0.223204 0.242349
O O9 0.174243 0.089051 0.698513
O O10 0.019817 0.931133 0.751399
O O11 0.190792 0.040890 0.870110
O O12 0.705633 0.050427 0.831564
O O13 0.500000 0.500000 0.500000
#
# Coordination Sequence:
#
# PCOD9243797 Si02
#       6
#     4   4   4   4   4   4
#     4  11  23  40  72  97 142 179 232 277 355 419
#     4  10  24  41  66  93 141 174 226 284 339 392
#     4  10  20  38  66  88 123 172 219 258 345 401
#     4  11  24  41  66 104 135 181 228 295 337 411
#     4  10  21  42  63  93 128 184 215 270 345 415
#     4  10  21  41  66  90 127 177 221 270 326 411
#
# _framework density 22.975532000000001
#
# number of rings (size 3 to 8) (size 9 to 14) (size 15 to 20)
#    0.000    1.667    1.667    3.500    4.667    0.000 
#    3.000    1.667    0.000    0.000    0.000    0.000 
#    0.000    0.000    0.000    0.000    0.000    0.000 
#
# Total GULP energy -134031.327185 kJ/mol
# GULP energy per Si atom -5584.638633 kJ/mol
# Density = 2.292324 g / cm^3
# Si number density = 22.975532 Si / 1000 Ang^3
#
#
#
# Elastic Constant Matrix: (Units=GPa)
#
#
# Indices 1 2 3 4 5 6 
#
# 1 111.9284 35.8113 25.8530 0.0000 23.4188 0.0000
# 2 35.8113 88.8968 34.2075 0.0000 11.3992 0.0000
# 3 25.8530 34.2075 100.9875 0.0000 25.4009 0.0000
# 4 0.0000 0.0000 0.0000 11.5109 0.0000 2.4972
# 5 23.4188 11.3992 25.4009 0.0000 40.7931 0.0000
# 6 0.0000 0.0000 0.0000 2.4972 0.0000 10.7530
#
#
#
# Elastic Compliance Matrix: (Units=1/GPa)
#
#
# Indices 1 2 3 4 5 6 
#
# 1 0.011307 -0.003767 -0.000297 0.000000 -0.005254 0.000000
# 2 -0.003767 0.014228 -0.004030 0.000000 0.000696 0.000000
# 3 -0.000297 -0.004030 0.013063 0.000000 -0.006837 0.000000
# 4 0.000000 0.000000 0.000000 0.091483 0.000000 -0.021246
# 5 -0.005254 0.000696 -0.006837 0.000000 0.031593 0.000000
# 6 0.000000 0.000000 0.000000 -0.021246 0.000000 0.097931
#
#
# Mechanical properties :
#
#
# Convention : Reuss Voigt Hill
#
# Bulk Modulus (GPa) = 44.62368 54.83961 49.73165
# Shear Modulus (GPa) = 17.65129 26.34079 21.99604
#
# Velocity S-wave (km/s) = 2.77477 3.38963 3.09749
# Velocity P-wave (km/s) = 5.45254 6.26418 5.87240
#
# Compressibility (1/GPa) = 0.02240963
#
# Stress axis : x y z
#
# Youngs Moduli (GPa) = 88.43738 70.28364 76.55077
#
# Poissons Ratio (x) = 0.26476 0.02276
# Poissons Ratio (y) = 0.33315 0.30852
# Poissons Ratio (z) = 0.02629 0.28326
#
# Static dielectric constant tensor:
#      x y z
#    x 1.788670 0.000000 0.011880 
#    y 0.000000 1.878200 0.000000 
#    z 0.011880 0.000000 1.872440 
# 
# From -- ./inp_files/37155.got.cif
#   From: 2010.05.17/outbox.cif.g08.bks.cpg/sg14_19_cif.got.tgz:37155.got - 2010.06.03 17:49:19.
