data_PCOD9243751
_publ_section_title
;
Structure prediction by ZEFSAII (Michael W. Deem and Ramdas Pophale) SiO2 
 PCOD9243751
Probable space group: P 21/C
;
_chemical_formula_sum "Si O2"
_cell_formula_units_Z 24
_cell_length_a 8.029033
_cell_length_b 14.640887
_cell_length_c 15.598453
_cell_angle_alpha 90.000000
_cell_angle_beta 149.857349
_cell_angle_gamma 90.000000
_cell_volume 920.766734
_symmetry_space_group_name_H-M "P 21/C"
_symmetry_group_IT_number 14
_symmetry_cell_setting 'monoclinic'
loop_
_space_group_symop_operation_xyz
x,y,z
-x,1/2+y,1/2-z
-x,-y,-z
x,1/2-y,1/2+z
loop_
_atom_site_type_symbol
_atom_site_label
_atom_site_fract_x
_atom_site_fract_y
_atom_site_fract_z
Si Si1 0.721774 0.825770 0.243386
Si Si2 0.213735 0.865469 0.243765
Si Si3 0.404365 0.645586 0.146491
Si Si4 0.184166 0.283341 0.891565
Si Si5 0.175160 0.458883 0.807231
Si Si6 0.608143 0.482179 0.329996
O O1 0.529951 0.748246 0.212713
O O2 0.781585 0.778289 0.178473
O O3 0.506942 0.918094 0.144013
O O4 0.062656 0.851212 0.442357
O O5 0.456845 0.814729 0.417598
O O6 0.438610 0.915646 0.273489
O O7 0.976743 0.783355 0.109887
O O8 0.013442 0.948986 0.199217
O O9 0.677677 0.597732 0.206846
O O10 0.408959 0.575767 0.227817
O O11 0.009299 0.379760 0.790030
O O12 0.500000 0.500000 0.000000
O O13 0.000000 0.500000 0.500000
#
# Coordination Sequence:
#
# PCOD9243751 Si02
#       6
#     4   4   4   4   4   4
#     4  11  21  39  67  96 125 169 216 264 323 388
#     4  10  22  40  61  91 127 166 210 266 321 380
#     4  10  21  37  62  92 125 166 214 263 317 381
#     4  10  20  38  64  93 123 164 214 264 320 382
#     4   8  16  34  58  83 119 159 199 251 312 369
#     4  11  25  44  63  91 131 174 217 266 321 384
#
# _framework density 26.065235000000001
#
# number of rings (size 3 to 8) (size 9 to 14) (size 15 to 20)
#    0.000    2.000    0.000    4.500    0.000    5.333 
#    0.000   11.667    0.000    0.000    0.000    0.000 
#    0.000    0.000    0.000    0.000    0.000    0.000 
#
# Total GULP energy -134164.269345 kJ/mol
# GULP energy per Si atom -5590.177889 kJ/mol
# Density = 2.600591 g / cm^3
# Si number density = 26.065235 Si / 1000 Ang^3
#
#
#
# Elastic Constant Matrix: (Units=GPa)
#
#
# Indices 1 2 3 4 5 6 
#
# 1 75.7445 14.5120 4.5917 0.0000 3.5291 0.0000
# 2 14.5120 116.8831 22.5764 0.0000 10.7395 0.0000
# 3 4.5917 22.5764 98.0602 0.0000 3.3582 0.0000
# 4 0.0000 0.0000 0.0000 48.9441 0.0000 0.5141
# 5 3.5291 10.7395 3.3582 0.0000 21.7127 0.0000
# 6 0.0000 0.0000 0.0000 0.5141 0.0000 50.8772
#
#
#
# Elastic Compliance Matrix: (Units=1/GPa)
#
#
# Indices 1 2 3 4 5 6 
#
# 1 0.013572 -0.001508 -0.000240 0.000000 -0.001423 0.000000
# 2 -0.001508 0.009506 -0.001976 0.000000 -0.004151 0.000000
# 3 -0.000240 -0.001976 0.010686 0.000000 -0.000637 0.000000
# 4 0.000000 0.000000 0.000000 0.020434 0.000000 -0.000206
# 5 -0.001423 -0.004151 -0.000637 0.000000 0.048439 0.000000
# 6 0.000000 0.000000 0.000000 -0.000206 0.000000 0.019657
#
#
# Mechanical properties :
#
#
# Convention : Reuss Voigt Hill
#
# Bulk Modulus (GPa) = 37.99858 41.56090 39.77974
# Shear Modulus (GPa) = 36.09783 40.90730 38.50256
#
# Velocity S-wave (km/s) = 3.72547 3.96589 3.84756
# Velocity P-wave (km/s) = 5.75460 6.07870 5.91887
#
# Compressibility (1/GPa) = 0.02631677
#
# Stress axis : x y z
#
# Youngs Moduli (GPa) = 73.68097 105.19855 93.58292
#
# Poissons Ratio (x) = 0.15865 0.02242
# Poissons Ratio (y) = 0.11112 0.18490
# Poissons Ratio (z) = 0.01765 0.20785
#
# Static dielectric constant tensor:
#      x y z
#    x 2.219530 0.000000 -0.070580 
#    y 0.000000 2.094170 0.000000 
#    z -0.070580 0.000000 2.074150 
# 
# From -- ./inp_files/56004.got.cif
#   From: 2010.05.17/outbox.cif.g08.bks.cpg/sg14_29_cif.got.tgz:56004.got - 2010.06.03 17:49:19.
