data_PCOD9243623
_publ_section_title
;
Structure prediction by ZEFSAII (Michael W. Deem and Ramdas Pophale) SiO2 
 PCOD9243623
Probable space group: P 21/C
;
_chemical_formula_sum "Si O2"
_cell_formula_units_Z 24
_cell_length_a 14.766630
_cell_length_b 7.518933
_cell_length_c 9.255634
_cell_angle_alpha 90.000000
_cell_angle_beta 89.999900
_cell_angle_gamma 90.000000
_cell_volume 1027.646579
_symmetry_space_group_name_H-M "P 21/C"
_symmetry_group_IT_number 14
_symmetry_cell_setting 'monoclinic'
loop_
_space_group_symop_operation_xyz
x,y,z
-x,1/2+y,1/2-z
-x,-y,-z
x,1/2-y,1/2+z
loop_
_atom_site_type_symbol
_atom_site_label
_atom_site_fract_x
_atom_site_fract_y
_atom_site_fract_z
Si Si1 0.444268 0.416380 0.205454
Si Si2 0.055732 0.083621 0.705454
Si Si3 0.750000 0.210394 0.045691
Si Si4 0.050243 0.789994 0.037790
Si Si5 0.449757 0.710005 0.537790
Si Si6 0.750000 0.986669 0.331581
O O1 0.485827 0.412615 0.365068
O O2 0.443831 0.611224 0.136052
O O3 0.338585 0.369783 0.198030
O O4 0.503831 0.290324 0.104187
O O5 0.996169 0.209678 0.604188
O O6 0.014174 0.087387 0.865068
O O7 0.056168 0.888778 0.636050
O O8 0.161415 0.130217 0.698030
O O9 0.750000 0.149424 0.213365
O O10 0.847048 0.143769 0.986270
O O11 0.652952 0.143768 0.986271
O O12 0.750000 0.417370 0.989779
#
# Coordination Sequence:
#
# PCOD9243623 Si02
#       6
#     4   4   4   4   4   4
#     4  10  22  38  58  85 120 153 197 245 295 346
#     4  10  22  38  58  85 120 153 197 245 295 346
#     4  10  20  38  62  82 114 158 198 226 286 366
#     4  10  21  39  60  87 118 154 198 248 290 348
#     4  10  21  39  60  87 118 154 198 248 290 348
#     4  10  22  38  58  88 118 154 196 244 296 352
#
# _framework density 23.354333
#
# number of rings (size 3 to 8) (size 9 to 14) (size 15 to 20)
#    0.000    2.000    0.000    4.000    0.000    6.667 
#    0.000    3.333    0.000    0.000    0.000    0.000 
#    0.000    0.000    0.000    0.000    0.000    0.000 
#
# Total GULP energy -133992.901813 kJ/mol
# GULP energy per Si atom -5583.037576 kJ/mol
# Density = 2.330118 g / cm^3
# Si number density = 23.354333 Si / 1000 Ang^3
#
#
#
# Elastic Constant Matrix: (Units=GPa)
#
#
# Indices 1 2 3 4 5 6 
#
# 1 217.8204 21.2864 61.6944 0.0000 6.8987 0.0000
# 2 21.2864 40.8063 4.0284 0.0000 1.4877 0.0000
# 3 61.6944 4.0284 139.0001 0.0000 -0.1039 0.0000
# 4 0.0000 0.0000 0.0000 32.9881 0.0000 -0.6768
# 5 6.8987 1.4877 -0.1039 0.0000 38.6514 0.0000
# 6 0.0000 0.0000 0.0000 -0.6768 0.0000 25.1366
#
#
#
# Elastic Compliance Matrix: (Units=1/GPa)
#
#
# Indices 1 2 3 4 5 6 
#
# 1 0.005553 -0.002628 -0.002389 0.000000 -0.000896 0.000000
# 2 -0.002628 0.025855 0.000417 0.000000 -0.000525 0.000000
# 3 -0.002389 0.000417 0.008243 0.000000 0.000433 0.000000
# 4 0.000000 0.000000 0.000000 0.030331 0.000000 0.000817
# 5 -0.000896 -0.000525 0.000433 0.000000 0.026054 0.000000
# 6 0.000000 0.000000 0.000000 0.000817 0.000000 0.039805
#
#
# Mechanical properties :
#
#
# Convention : Reuss Voigt Hill
#
# Bulk Modulus (GPa) = 32.84091 63.51613 48.17852
# Shear Modulus (GPa) = 32.21850 40.06307 36.14078
#
# Velocity S-wave (km/s) = 3.71826 4.14629 3.93809
# Velocity P-wave (km/s) = 5.70320 7.08364 6.43057
#
# Compressibility (1/GPa) = 0.03044982
#
# Stress axis : x y z
#
# Youngs Moduli (GPa) = 180.08826 38.67731 121.31692
#
# Poissons Ratio (x) = 0.10165 0.28984
# Poissons Ratio (y) = 0.47329 -0.05056
# Poissons Ratio (z) = 0.43025 -0.01612
#
# Static dielectric constant tensor:
#      x y z
#    x 1.937510 0.000000 0.004910 
#    y 0.000000 1.951980 0.000000 
#    z 0.004910 0.000000 1.880570 
# 
# From -- ./inp_files/15158.got.cif
#   From: 2010.05.17/outbox.cif.g08.bks.cpg/sg14_8_cif.got.tgz:15158.got - 2010.06.03 17:49:19.
