data_PCOD9243079
_publ_section_title
;
Structure prediction by ZEFSAII (Michael W. Deem and Ramdas Pophale) SiO2 
 PCOD9243079
Probable space group: P 21/C
;
_chemical_formula_sum "Si O2"
_cell_formula_units_Z 32
_cell_length_a 5.273304
_cell_length_b 25.536947
_cell_length_c 9.009526
_cell_angle_alpha 90.000000
_cell_angle_beta 92.434435
_cell_angle_gamma 90.000000
_cell_volume 1212.164585
_symmetry_space_group_name_H-M "P 21/C"
_symmetry_group_IT_number 14
_symmetry_cell_setting 'monoclinic'
loop_
_space_group_symop_operation_xyz
x,y,z
-x,1/2+y,1/2-z
-x,-y,-z
x,1/2-y,1/2+z
loop_
_atom_site_type_symbol
_atom_site_label
_atom_site_fract_x
_atom_site_fract_y
_atom_site_fract_z
Si Si1 0.644223 0.225563 0.738395
Si Si2 0.377761 0.841655 0.758287
Si Si3 0.858124 0.841251 0.555130
Si Si4 0.826392 0.117461 0.674594
Si Si5 0.143759 0.386586 0.474528
Si Si6 0.492227 0.958848 0.198337
Si Si7 0.764523 0.052835 0.105960
Si Si8 0.161761 0.274005 0.441290
O O1 0.625051 0.283677 0.666865
O O2 0.676403 0.172215 0.646010
O O3 0.398883 0.221688 0.836236
O O4 0.900612 0.227927 0.842420
O O5 0.111129 0.843891 0.662817
O O6 0.380741 0.892725 0.862195
O O7 0.610198 0.847608 0.649212
O O8 0.930842 0.881042 0.426067
O O9 0.831532 0.782749 0.483580
O O10 0.915732 0.119327 0.847915
O O11 0.655327 0.065584 0.666519
O O12 0.050546 0.426430 0.597792
O O13 0.350645 0.411708 0.372862
O O14 0.172371 0.327665 0.533383
O O15 0.677337 0.008480 0.218456
O O16 0.299973 0.971557 0.057236
#
# Coordination Sequence:
#
# PCOD9243079 Si02
#       8
#     4   4   4   4   4   4   4   4
#     4   9  18  35  57  84 121 157 200 244 298 361
#     4  10  23  42  59  91 125 166 205 249 309 375
#     4  10  23  39  62  89 130 163 202 247 306 375
#     4  10  21  37  61  91 121 161 204 257 305 368
#     4  10  20  36  62  89 119 155 205 257 314 365
#     4  10  21  41  63  91 119 157 217 262 318 357
#     4  10  23  39  63  89 121 163 208 268 312 363
#     4   9  18  35  55  88 120 155 198 241 299 370
#
# _framework density 26.399055000000001
#
# number of rings (size 3 to 8) (size 9 to 14) (size 15 to 20)
#    0.000    2.250    1.250    0.375    5.250    0.000 
#    0.000    1.250    0.000    0.000    0.000    0.000 
#    0.000    0.000    0.000    0.000    0.000    0.000 
#
# Total GULP energy -178967.599557 kJ/mol
# GULP energy per Si atom -5592.737486 kJ/mol
# Density = 2.633897 g / cm^3
# Si number density = 26.399055 Si / 1000 Ang^3
#
#
#
# Elastic Constant Matrix: (Units=GPa)
#
#
# Indices 1 2 3 4 5 6 
#
# 1 125.2969 29.8748 31.5200 0.0000 -24.6482 0.0000
# 2 29.8748 149.7609 38.4991 0.0000 -11.7096 0.0000
# 3 31.5200 38.4991 81.0760 0.0000 -20.4698 0.0000
# 4 0.0000 0.0000 0.0000 34.7162 0.0000 -19.9937
# 5 -24.6482 -11.7096 -20.4698 0.0000 42.1275 0.0000
# 6 0.0000 0.0000 0.0000 -19.9937 0.0000 44.4024
#
#
#
# Elastic Compliance Matrix: (Units=1/GPa)
#
#
# Indices 1 2 3 4 5 6 
#
# 1 0.009614 -0.001025 -0.002169 0.000000 0.004286 0.000000
# 2 -0.001025 0.007721 -0.003280 0.000000 -0.000047 0.000000
# 3 -0.002169 -0.003280 0.016168 0.000000 0.005675 0.000000
# 4 0.000000 0.000000 0.000000 0.038890 0.000000 0.017512
# 5 0.004286 -0.000047 0.005675 0.000000 0.028990 0.000000
# 6 0.000000 0.000000 0.000000 0.017512 0.000000 0.030407
#
#
# Mechanical properties :
#
#
# Convention : Reuss Voigt Hill
#
# Bulk Modulus (GPa) = 48.64859 61.76905 55.20882
# Shear Modulus (GPa) = 32.98389 41.33188 37.15789
#
# Velocity S-wave (km/s) = 3.53857 3.96113 3.75580
# Velocity P-wave (km/s) = 5.92988 6.66106 6.30608
#
# Compressibility (1/GPa) = 0.02055558
#
# Stress axis : x y z
#
# Youngs Moduli (GPa) = 104.01207 129.51231 61.85230
#
# Poissons Ratio (x) = 0.13278 0.13414
# Poissons Ratio (y) = 0.10664 0.20287
# Poissons Ratio (z) = 0.22557 0.42478
#
# Static dielectric constant tensor:
#      x y z
#    x 2.229650 0.000000 0.044520 
#    y 0.000000 2.124270 0.000000 
#    z 0.044520 0.000000 2.016670 
# 
# From -- ./inp_files/22075.got.cif
#   From: 2010.05.17/outbox.cif.g08.bks.cpg/sg14_12_cif.got.tgz:22075.got - 2010.06.03 17:49:19.
