data_PCOD9243009
_publ_section_title
;
Structure prediction by ZEFSAII (Michael W. Deem and Ramdas Pophale) SiO2 
 PCOD9243009
Probable space group: P 21/C
;
_chemical_formula_sum "Si O2"
_cell_formula_units_Z 28
_cell_length_a 20.421685
_cell_length_b 12.476656
_cell_length_c 11.208305
_cell_angle_alpha 90.000000
_cell_angle_beta 30.108731
_cell_angle_gamma 90.000000
_cell_volume 1432.597194
_symmetry_space_group_name_H-M "P 21/C"
_symmetry_group_IT_number 14
_symmetry_cell_setting 'monoclinic'
loop_
_space_group_symop_operation_xyz
x,y,z
-x,1/2+y,1/2-z
-x,-y,-z
x,1/2-y,1/2+z
loop_
_atom_site_type_symbol
_atom_site_label
_atom_site_fract_x
_atom_site_fract_y
_atom_site_fract_z
Si Si1 0.532265 0.097485 0.035958
Si Si2 0.540722 0.664676 0.882589
Si Si3 0.796016 0.994931 0.594760
Si Si4 0.238798 0.316561 0.647323
Si Si5 0.276677 0.426291 0.058729
Si Si6 0.940190 0.955435 0.716167
Si Si7 0.708173 0.481696 0.731596
O O1 0.486144 0.210079 0.052035
O O2 0.435432 0.080633 0.299789
O O3 0.500000 0.000000 0.000000
O O4 0.686113 0.080618 0.811401
O O5 0.618013 0.659667 0.634532
O O6 0.633629 0.594781 0.821790
O O7 0.401607 0.607725 0.103327
O O8 0.783169 0.891089 0.702636
O O9 0.770887 0.957591 0.498607
O O10 0.938329 0.046952 0.386284
O O11 0.227865 0.189786 0.677399
O O12 0.134702 0.349480 0.708952
O O13 0.238925 0.511216 0.217978
O O14 0.825461 0.027493 0.953403
O O15 0.000000 0.000000 0.500000
#
# Coordination Sequence:
#
# PCOD9243009 Si02
#       7
#     4   4   4   4   4   4   4
#     4   9  19  35  57  85 116 146 196 232 296 344
#     4   9  19  37  58  89 113 154 188 249 292 344
#     4  10  20  37  58  83 120 153 192 243 292 351
#     4   9  19  35  61  81 113 152 201 230 292 356
#     4  10  21  33  60  91 110 153 193 248 292 343
#     4   9  20  39  59  78 113 158 198 236 288 363
#     4  10  20  36  60  85 122 148 199 240 296 345
#
# _framework density 19.544923000000001
#
# number of rings (size 3 to 8) (size 9 to 14) (size 15 to 20)
#    0.000    2.571    0.000    0.857    8.000    1.714 
#    5.143    0.000    0.000    0.000    0.000    0.000 
#    0.000    0.000    0.000    0.000    0.000    0.000 
#
# Total GULP energy -155941.321401 kJ/mol
# GULP energy per Si atom -5569.332907 kJ/mol
# Density = 1.950044 g / cm^3
# Si number density = 19.544923 Si / 1000 Ang^3
#
#
#
# Elastic Constant Matrix: (Units=GPa)
#
#
# Indices 1 2 3 4 5 6 
#
# 1 79.9778 16.1922 39.6533 0.0000 5.4549 0.0000
# 2 16.1922 74.6275 30.8696 0.0000 2.9978 0.0000
# 3 39.6533 30.8696 109.5917 0.0000 -11.4553 0.0000
# 4 0.0000 0.0000 0.0000 15.9209 0.0000 -3.7544
# 5 5.4549 2.9978 -11.4553 0.0000 34.0132 0.0000
# 6 0.0000 0.0000 0.0000 -3.7544 0.0000 11.9039
#
#
#
# Elastic Compliance Matrix: (Units=1/GPa)
#
#
# Indices 1 2 3 4 5 6 
#
# 1 0.015958 -0.000789 -0.006024 0.000000 -0.004519 0.000000
# 2 -0.000789 0.015483 -0.004358 0.000000 -0.002706 0.000000
# 3 -0.006024 -0.004358 0.013136 0.000000 0.005774 0.000000
# 4 0.000000 0.000000 0.000000 0.067857 0.000000 0.021402
# 5 -0.004519 -0.002706 0.005774 0.000000 0.032308 0.000000
# 6 0.000000 0.000000 0.000000 0.021402 0.000000 0.090756
#
#
# Mechanical properties :
#
#
# Convention : Reuss Voigt Hill
#
# Bulk Modulus (GPa) = 44.97783 48.62524 46.80154
# Shear Modulus (GPa) = 18.84994 24.19973 21.52483
#
# Velocity S-wave (km/s) = 3.10892 3.52257 3.32218
# Velocity P-wave (km/s) = 5.99580 6.44029 6.22202
#
# Compressibility (1/GPa) = 0.02223317
#
# Stress axis : x y z
#
# Youngs Moduli (GPa) = 62.66350 64.58833 76.12812
#
# Poissons Ratio (x) = 0.05097 0.45861
# Poissons Ratio (y) = 0.04945 0.33180
# Poissons Ratio (z) = 0.37750 0.28151
#
# Static dielectric constant tensor:
#      x y z
#    x 1.740800 0.000000 -0.012610 
#    y 0.000000 1.677860 0.000000 
#    z -0.012610 0.000000 1.726250 
# 
# From -- ./inp_files/35158.got.cif
#   From: 2010.05.17/outbox.cif.g08.bks.cpg/sg14_18_cif.got.tgz:35158.got - 2010.06.03 17:49:19.
