data_PCOD9243582
_publ_section_title
;
Structure prediction by ZEFSAII (Michael W. Deem and Ramdas Pophale) SiO2 
 PCOD9243582
Probable space group: P 21/C
;
_chemical_formula_sum "Si O2"
_cell_formula_units_Z 32
_cell_length_a 20.052657
_cell_length_b 12.217636
_cell_length_c 10.112878
_cell_angle_alpha 90.000000
_cell_angle_beta 152.402523
_cell_angle_gamma 90.000000
_cell_volume 1147.772661
_symmetry_space_group_name_H-M "P 21/C"
_symmetry_group_IT_number 14
_symmetry_cell_setting 'monoclinic'
loop_
_space_group_symop_operation_xyz
x,y,z
-x,1/2+y,1/2-z
-x,-y,-z
x,1/2-y,1/2+z
loop_
_atom_site_type_symbol
_atom_site_label
_atom_site_fract_x
_atom_site_fract_y
_atom_site_fract_z
Si Si1 0.358751 0.525711 0.101961
Si Si2 0.441931 0.397586 0.774155
Si Si3 0.162141 0.721165 0.691556
Si Si4 0.988935 0.338899 0.321464
Si Si5 0.517914 0.815833 0.061874
Si Si6 0.224767 0.931554 0.933756
Si Si7 0.260875 0.262746 0.268361
Si Si8 0.058797 0.456202 0.896763
O O1 0.490172 0.539803 0.229670
O O2 0.373581 0.398429 0.168819
O O3 0.399471 0.598666 0.302553
O O4 0.232379 0.600458 0.817177
O O5 0.548048 0.295168 0.992279
O O6 0.359784 0.492235 0.712454
O O7 0.313099 0.316830 0.496554
O O8 0.102079 0.774906 0.451860
O O9 0.263228 0.812802 0.940658
O O10 0.034962 0.712997 0.577716
O O11 0.938974 0.462823 0.222124
O O12 0.159574 0.341652 0.592373
O O13 0.604563 0.762575 0.091261
O O14 0.098934 0.933950 0.821156
O O15 0.147633 0.988042 0.671872
O O16 0.145712 0.349810 0.012011
#
# Coordination Sequence:
#
# PCOD9243582 Si02
#       8
#     4   4   4   4   4   4   4   4
#     4  10  24  42  64  90 121 175 217 259 327 381
#     4  10  22  38  66  90 117 167 220 268 309 380
#     4  11  24  41  64  96 130 170 212 260 322 387
#     4  11  23  38  65  94 132 168 203 264 320 387
#     4  10  22  42  65  86 127 167 213 267 319 388
#     4   9  18  35  62  90 120 167 208 258 312 379
#     4  10  20  38  60  93 122 165 211 255 323 377
#     4   9  17  34  59  86 124 165 209 240 315 394
#
# _framework density 27.880085000000001
#
# number of rings (size 3 to 8) (size 9 to 14) (size 15 to 20)
#    0.000    2.000    1.250    1.500    7.000    2.000 
#    2.250    3.125    0.000    0.000    0.000    0.000 
#    0.000    0.000    0.000    0.000    0.000    0.000 
#
# Total GULP energy -178853.443806 kJ/mol
# GULP energy per Si atom -5589.170119 kJ/mol
# Density = 2.781663 g / cm^3
# Si number density = 27.880085 Si / 1000 Ang^3
#
#
#
# Elastic Constant Matrix: (Units=GPa)
#
#
# Indices 1 2 3 4 5 6 
#
# 1 59.0478 9.3866 2.4684 0.0000 7.4710 0.0000
# 2 9.3866 102.2653 -12.3885 0.0000 -7.8228 0.0000
# 3 2.4684 -12.3885 90.6050 0.0000 -8.5883 0.0000
# 4 0.0000 0.0000 0.0000 35.8551 0.0000 -0.9485
# 5 7.4710 -7.8228 -8.5883 0.0000 40.5969 0.0000
# 6 0.0000 0.0000 0.0000 -0.9485 0.0000 33.5222
#
#
#
# Elastic Compliance Matrix: (Units=1/GPa)
#
#
# Indices 1 2 3 4 5 6 
#
# 1 0.017808 -0.002072 -0.001140 0.000000 -0.003918 0.000000
# 2 -0.002072 0.010390 0.001738 0.000000 0.002751 0.000000
# 3 -0.001140 0.001738 0.011590 0.000000 0.002996 0.000000
# 4 0.000000 0.000000 0.000000 0.027911 0.000000 0.000790
# 5 -0.003918 0.002751 0.002996 0.000000 0.026517 0.000000
# 6 0.000000 0.000000 0.000000 0.000790 0.000000 0.029853
#
#
# Mechanical properties :
#
#
# Convention : Reuss Voigt Hill
#
# Bulk Modulus (GPa) = 27.14536 27.87235 27.50885
# Shear Modulus (GPa) = 35.89444 38.82496 37.35970
#
# Velocity S-wave (km/s) = 3.59201 3.73576 3.66459
# Velocity P-wave (km/s) = 5.19240 5.35040 5.27199
#
# Compressibility (1/GPa) = 0.03683871
#
# Stress axis : x y z
#
# Youngs Moduli (GPa) = 56.15397 96.24954 86.28413
#
# Poissons Ratio (x) = 0.19946 0.09835
# Poissons Ratio (y) = 0.11637 -0.14995
# Poissons Ratio (z) = 0.06401 -0.16726
#
# Static dielectric constant tensor:
#      x y z
#    x 2.135940 0.000000 -0.065490 
#    y 0.000000 2.213350 0.000000 
#    z -0.065490 0.000000 2.285770 
# 
# From -- ./inp_files/35289.got.cif
#   From: 2010.05.17/outbox.cif.g08.bks.cpg/sg14_18_cif.got.tgz:35289.got - 2010.06.03 17:49:19.
