data_PCOD9243874
_publ_section_title
;
Structure prediction by ZEFSAII (Michael W. Deem and Ramdas Pophale) SiO2 
 PCOD9243874
Probable space group: P 21/C
;
_chemical_formula_sum "Si O2"
_cell_formula_units_Z 32
_cell_length_a 6.645425
_cell_length_b 20.887751
_cell_length_c 10.614928
_cell_angle_alpha 90.000000
_cell_angle_beta 66.913519
_cell_angle_gamma 90.000000
_cell_volume 1355.435152
_symmetry_space_group_name_H-M "P 21/C"
_symmetry_group_IT_number 14
_symmetry_cell_setting 'monoclinic'
loop_
_space_group_symop_operation_xyz
x,y,z
-x,1/2+y,1/2-z
-x,-y,-z
x,1/2-y,1/2+z
loop_
_atom_site_type_symbol
_atom_site_label
_atom_site_fract_x
_atom_site_fract_y
_atom_site_fract_z
Si Si1 0.338613 0.105164 0.059491
Si Si2 0.137733 0.568841 0.926586
Si Si3 0.898653 0.859214 0.277290
Si Si4 0.888966 0.444658 0.784778
Si Si5 0.068933 0.276789 0.635974
Si Si6 0.600128 0.547580 0.717541
Si Si7 0.268929 0.687248 0.491006
Si Si8 0.223659 0.820627 0.584278
O O1 0.550172 0.132924 0.079367
O O2 0.129846 0.072865 0.176399
O O3 0.236691 0.172716 0.037782
O O4 0.406245 0.059503 0.929149
O O5 0.978591 0.585875 0.852276
O O6 0.358743 0.535589 0.826839
O O7 0.072604 0.538788 0.077033
O O8 0.198644 0.642008 0.959588
O O9 0.854323 0.795346 0.367607
O O10 0.690654 0.886816 0.256526
O O11 0.092831 0.843973 0.130408
O O12 0.768161 0.493911 0.723874
O O13 0.729304 0.381812 0.837100
O O14 0.854989 0.286895 0.602311
O O15 0.005390 0.297850 0.794908
O O16 0.348824 0.753906 0.537189
#
# Coordination Sequence:
#
# PCOD9243874 Si02
#       8
#     4   4   4   4   4   4   4   4
#     4  11  23  40  66  96 120 171 217 254 326 374
#     4  10  21  43  56  91 126 166 211 249 317 373
#     4  11  23  37  63  95 128 162 213 265 315 380
#     4   9  22  44  63  90 133 169 211 267 306 375
#     4  10  20  39  59  89 127 159 202 271 320 369
#     4  12  23  40  68  92 126 176 215 254 318 378
#     4  11  20  40  63  90 129 159 207 271 317 374
#     4   8  20  38  60  84 125 162 199 262 312 367
#
# _framework density 23.608651999999999
#
# number of rings (size 3 to 8) (size 9 to 14) (size 15 to 20)
#    0.750    1.000    3.750    0.750    1.750    0.500 
#    2.250    3.125    0.000    0.000    0.000    0.000 
#    0.000    0.000    0.000    0.000    0.000    0.000 
#
# Total GULP energy -178367.325332 kJ/mol
# GULP energy per Si atom -5573.978917 kJ/mol
# Density = 2.355492 g / cm^3
# Si number density = 23.608652 Si / 1000 Ang^3
#
#
#
# Elastic Constant Matrix: (Units=GPa)
#
#
# Indices 1 2 3 4 5 6 
#
# 1 62.3855 14.6261 32.3225 0.0000 3.7678 0.0000
# 2 14.6261 57.9938 12.3432 0.0000 14.6521 0.0000
# 3 32.3225 12.3432 84.4985 0.0000 -5.2138 0.0000
# 4 0.0000 0.0000 0.0000 18.6102 0.0000 -1.1537
# 5 3.7678 14.6521 -5.2138 0.0000 22.5703 0.0000
# 6 0.0000 0.0000 0.0000 -1.1537 0.0000 37.9912
#
#
#
# Elastic Compliance Matrix: (Units=1/GPa)
#
#
# Indices 1 2 3 4 5 6 
#
# 1 0.020938 -0.002720 -0.007830 0.000000 -0.003538 0.000000
# 2 -0.002720 0.022325 -0.003132 0.000000 -0.014763 0.000000
# 3 -0.007830 -0.003132 0.015717 0.000000 0.006971 0.000000
# 4 0.000000 0.000000 0.000000 0.053835 0.000000 0.001635
# 5 -0.003538 -0.014763 0.006971 0.000000 0.056090 0.000000
# 6 0.000000 0.000000 0.000000 0.001635 0.000000 0.026372
#
#
# Mechanical properties :
#
#
# Convention : Reuss Voigt Hill
#
# Bulk Modulus (GPa) = 31.62867 35.94014 33.78441
# Shear Modulus (GPa) = 21.44265 25.54006 23.49135
#
# Velocity S-wave (km/s) = 3.01699 3.29266 3.15783
# Velocity P-wave (km/s) = 5.05594 5.45085 5.25710
#
# Compressibility (1/GPa) = 0.03161688
#
# Stress axis : x y z
#
# Youngs Moduli (GPa) = 47.76103 44.79190 63.62426
#
# Poissons Ratio (x) = 0.12183 0.49818
# Poissons Ratio (y) = 0.12991 0.19925
# Poissons Ratio (z) = 0.37397 0.14027
#
# Static dielectric constant tensor:
#      x y z
#    x 1.910210 0.000000 0.019840 
#    y 0.000000 2.005710 0.000000 
#    z 0.019840 0.000000 1.882360 
# 
# From -- ./inp_files/22163.got.cif
#   From: 2010.05.17/outbox.cif.g08.bks.cpg/sg14_12_cif.got.tgz:22163.got - 2010.06.03 17:49:19.
