data_PCOD9243558
_publ_section_title
;
Structure prediction by ZEFSAII (Michael W. Deem and Ramdas Pophale) SiO2 
 PCOD9243558
Probable space group: P 21/C
;
_chemical_formula_sum "Si O2"
_cell_formula_units_Z 20
_cell_length_a 7.728804
_cell_length_b 8.219170
_cell_length_c 17.347500
_cell_angle_alpha 90.000000
_cell_angle_beta 138.350771
_cell_angle_gamma 90.000000
_cell_volume 732.346978
_symmetry_space_group_name_H-M "P 21/C"
_symmetry_group_IT_number 14
_symmetry_cell_setting 'monoclinic'
loop_
_space_group_symop_operation_xyz
x,y,z
-x,1/2+y,1/2-z
-x,-y,-z
x,1/2-y,1/2+z
loop_
_atom_site_type_symbol
_atom_site_label
_atom_site_fract_x
_atom_site_fract_y
_atom_site_fract_z
Si Si1 0.553353 0.921689 0.788808
Si Si2 0.827097 0.969060 0.655255
Si Si3 0.557784 0.266873 0.385867
Si Si4 0.625903 0.792126 0.456649
Si Si5 0.893124 0.471336 0.604173
O O1 0.373614 0.858150 0.659868
O O2 0.618010 0.766710 0.865443
O O3 0.820129 0.987247 0.838090
O O4 0.460307 0.071530 0.809335
O O5 0.661160 0.823454 0.638847
O O6 0.821834 0.922319 0.563369
O O7 0.074349 0.966254 0.793224
O O8 0.653367 0.128399 0.615477
O O9 0.778192 0.321530 0.518013
O O10 0.710884 0.622552 0.523510
#
# Coordination Sequence:
#
# PCOD9243558 Si02
#       5
#     4   4   4   4   4
#     4  10  20  38  61  87 121 159 201 248 299 358
#     4  10  23  40  60  90 121 156 204 250 303 362
#     4  10  20  38  60  87 120 155 199 249 298 360
#     4  10  21  40  61  83 120 159 198 251 301 357
#     4  10  22  41  61  86 120 160 201 245 302 361
#
# _framework density 27.309460999999999
#
# number of rings (size 3 to 8) (size 9 to 14) (size 15 to 20)
#    0.000    2.000    0.000    4.800    0.000    6.400 
#    0.000   28.000    0.000    0.000    0.000    0.000 
#    0.000    0.000    0.000    0.000    0.000    0.000 
#
# Total GULP energy -111887.019307 kJ/mol
# GULP energy per Si atom -5594.350965 kJ/mol
# Density = 2.724730 g / cm^3
# Si number density = 27.309461 Si / 1000 Ang^3
#
#
#
# Elastic Constant Matrix: (Units=GPa)
#
#
# Indices 1 2 3 4 5 6 
#
# 1 117.0257 51.0785 26.0715 0.0000 -13.9567 0.0000
# 2 51.0785 143.2628 49.3786 0.0000 3.9761 0.0000
# 3 26.0715 49.3786 169.3098 0.0000 -34.5211 0.0000
# 4 0.0000 0.0000 0.0000 31.6025 0.0000 -28.7236
# 5 -13.9567 3.9761 -34.5211 0.0000 40.3525 0.0000
# 6 0.0000 0.0000 0.0000 -28.7236 0.0000 37.0371
#
#
#
# Elastic Compliance Matrix: (Units=1/GPa)
#
#
# Indices 1 2 3 4 5 6 
#
# 1 0.010786 -0.004134 0.000470 0.000000 0.004540 0.000000
# 2 -0.004134 0.009718 -0.003252 0.000000 -0.005169 0.000000
# 3 0.000470 -0.003252 0.008335 0.000000 0.007613 0.000000
# 4 0.000000 0.000000 0.000000 0.107223 0.000000 0.083155
# 5 0.004540 -0.005169 0.007613 0.000000 0.033374 0.000000
# 6 0.000000 0.000000 0.000000 0.083155 0.000000 0.091490
#
#
# Mechanical properties :
#
#
# Convention : Reuss Voigt Hill
#
# Bulk Modulus (GPa) = 66.62774 75.85061 71.23918
# Shear Modulus (GPa) = 17.87256 42.00307 29.93781
#
# Velocity S-wave (km/s) = 2.56099 3.92604 3.31455
# Velocity P-wave (km/s) = 5.76152 6.95604 6.38677
#
# Compressibility (1/GPa) = 0.01500876
#
# Stress axis : x y z
#
# Youngs Moduli (GPa) = 92.71174 102.89898 119.98310
#
# Poissons Ratio (x) = 0.42537 -0.05644
# Poissons Ratio (y) = 0.38325 0.39015
# Poissons Ratio (z) = -0.04362 0.33460
#
# Static dielectric constant tensor:
#      x y z
#    x 2.142120 0.000000 -0.039810 
#    y 0.000000 2.138770 0.000000 
#    z -0.039810 0.000000 2.173240 
# 
# From -- ./inp_files/64672.got.cif
#   From: 2010.05.17/outbox.cif.g08.bks.cpg/sg14_33_cif.got.tgz:64672.got - 2010.06.03 17:49:19.
