data_PCOD9243834
_publ_section_title
;
Structure prediction by ZEFSAII (Michael W. Deem and Ramdas Pophale) SiO2 
 PCOD9243834
Probable space group: P 21/C
;
_chemical_formula_sum "Si O2"
_cell_formula_units_Z 24
_cell_length_a 5.401575
_cell_length_b 16.842492
_cell_length_c 11.641617
_cell_angle_alpha 90.000000
_cell_angle_beta 111.235542
_cell_angle_gamma 90.000000
_cell_volume 987.193411
_symmetry_space_group_name_H-M "P 21/C"
_symmetry_group_IT_number 14
_symmetry_cell_setting 'monoclinic'
loop_
_space_group_symop_operation_xyz
x,y,z
-x,1/2+y,1/2-z
-x,-y,-z
x,1/2-y,1/2+z
loop_
_atom_site_type_symbol
_atom_site_label
_atom_site_fract_x
_atom_site_fract_y
_atom_site_fract_z
Si Si1 0.759233 0.559081 0.439865
Si Si2 0.469162 0.103086 0.877291
Si Si3 0.075736 0.436141 0.916016
Si Si4 0.302915 0.751812 0.976200
Si Si5 0.496175 0.110999 0.318150
Si Si6 0.726141 0.805603 0.377696
O O1 0.741068 0.607728 0.554568
O O2 0.537113 0.489477 0.383676
O O3 0.708868 0.614771 0.322139
O O4 0.000000 0.500000 0.500000
O O5 0.376425 0.139494 0.742751
O O6 0.693238 0.161792 0.964968
O O7 0.323104 0.449894 0.870919
O O8 0.784393 0.415599 0.818331
O O9 0.177262 0.361169 0.002867
O O10 0.000000 0.500000 0.000000
O O11 0.487868 0.743890 0.894761
O O12 0.004597 0.732710 0.888980
O O13 0.425238 0.689035 0.092161
#
# Coordination Sequence:
#
# PCOD9243834 Si02
#       6
#     4   4   4   4   4   4
#     4  11  28  45  69 103 144 191 232 285 361 421
#     4  11  27  46  70 102 143 187 231 291 349 426
#     4  10  20  38  68  96 132 176 222 283 342 405
#     4  10  25  45  72 105 134 186 235 294 346 409
#     4  10  23  42  65  98 137 174 231 285 339 408
#     4  10  24  44  70 105 135 179 238 284 351 413
#
# _framework density 24.311347000000001
#
# number of rings (size 3 to 8) (size 9 to 14) (size 15 to 20)
#    0.000    1.667    0.000    1.500   14.000    1.333 
#    3.000    0.000    0.000    0.000    0.000    0.000 
#    0.000    0.000    0.000    0.000    0.000    0.000 
#
# Total GULP energy -133793.591362 kJ/mol
# GULP energy per Si atom -5574.732973 kJ/mol
# Density = 2.425601 g / cm^3
# Si number density = 24.311347 Si / 1000 Ang^3
#
#
#
# Elastic Constant Matrix: (Units=GPa)
#
#
# Indices 1 2 3 4 5 6 
#
# 1 115.2881 19.3207 40.7112 0.0000 -10.0446 0.0000
# 2 19.3207 59.2765 9.7899 0.0000 -0.8149 0.0000
# 3 40.7112 9.7899 117.2265 0.0000 2.4371 0.0000
# 4 0.0000 0.0000 0.0000 23.1600 0.0000 -2.8611
# 5 -10.0446 -0.8149 2.4371 0.0000 16.0429 0.0000
# 6 0.0000 0.0000 0.0000 -2.8611 0.0000 35.7967
#
#
#
# Elastic Compliance Matrix: (Units=1/GPa)
#
#
# Indices 1 2 3 4 5 6 
#
# 1 0.011141 -0.002905 -0.003780 0.000000 0.007402 0.000000
# 2 -0.002905 0.017883 -0.000467 0.000000 -0.000840 0.000000
# 3 -0.003780 -0.000467 0.009963 0.000000 -0.003904 0.000000
# 4 0.000000 0.000000 0.000000 0.043608 0.000000 0.003485
# 5 0.007402 -0.000840 -0.003904 0.000000 0.067518 0.000000
# 6 0.000000 0.000000 0.000000 0.003485 0.000000 0.028214
#
#
# Mechanical properties :
#
#
# Convention : Reuss Voigt Hill
#
# Bulk Modulus (GPa) = 40.51561 47.93718 44.22639
# Shear Modulus (GPa) = 24.89308 29.79788 27.34548
#
# Velocity S-wave (km/s) = 3.20336 3.50477 3.35745
# Velocity P-wave (km/s) = 5.51212 6.01155 5.76724
#
# Compressibility (1/GPa) = 0.02468185
#
# Stress axis : x y z
#
# Youngs Moduli (GPa) = 89.76204 55.92036 100.36638
#
# Poissons Ratio (x) = 0.16245 0.37941
# Poissons Ratio (y) = 0.26077 0.04688
# Poissons Ratio (z) = 0.33932 0.02612
#
# Static dielectric constant tensor:
#      x y z
#    x 1.696880 0.000000 0.141780 
#    y 0.000000 2.043950 0.000000 
#    z 0.141780 0.000000 1.905360 
# 
# From -- ./inp_files/21306.got.cif
#   From: 2010.05.17/outbox.cif.g08.bks.cpg/sg14_11_cif.got.tgz:21306.got - 2010.06.03 17:49:19.
