data_PCOD9243172
_publ_section_title
;
Structure prediction by ZEFSAII (Michael W. Deem and Ramdas Pophale) SiO2 
 PCOD9243172
Probable space group: P 21/C
;
_chemical_formula_sum "Si O2"
_cell_formula_units_Z 28
_cell_length_a 5.248043
_cell_length_b 27.447762
_cell_length_c 8.033429
_cell_angle_alpha 90.000000
_cell_angle_beta 82.061750
_cell_angle_gamma 90.000000
_cell_volume 1146.102825
_symmetry_space_group_name_H-M "P 21/C"
_symmetry_group_IT_number 14
_symmetry_cell_setting 'monoclinic'
loop_
_space_group_symop_operation_xyz
x,y,z
-x,1/2+y,1/2-z
-x,-y,-z
x,1/2-y,1/2+z
loop_
_atom_site_type_symbol
_atom_site_label
_atom_site_fract_x
_atom_site_fract_y
_atom_site_fract_z
Si Si1 0.740373 0.966688 0.515353
Si Si2 0.051282 0.056803 0.820983
Si Si3 0.029027 0.442311 0.690170
Si Si4 0.846061 0.803727 0.744064
Si Si5 0.652580 0.357784 0.759874
Si Si6 0.795898 0.807420 0.149310
Si Si7 0.696791 0.137074 0.855194
O O1 0.780676 0.931529 0.355229
O O2 0.743983 0.942725 0.696279
O O3 0.500000 0.000000 0.500000
O O4 0.000000 0.000000 0.500000
O O5 0.770415 0.080583 0.815984
O O6 0.122988 0.075216 0.999329
O O7 0.056246 0.998164 0.828280
O O8 0.797470 0.409305 0.781204
O O9 0.633492 0.838631 0.677060
O O10 0.786058 0.748494 0.702877
O O11 0.138773 0.819958 0.682968
O O12 0.824979 0.808145 0.946173
O O13 0.658201 0.357446 0.557260
O O14 0.540435 0.837838 0.212296
O O15 0.043240 0.833279 0.206089
#
# Coordination Sequence:
#
# PCOD9243172 Si02
#       7
#     4   4   4   4   4   4   4
#     4  10  22  38  56  84 120 154 196 244 282 334
#     4   9  19  38  62  88 120 160 198 238 295 356
#     4   9  19  38  62  88 120 160 198 238 295 356
#     4  10  20  37  56  80 112 144 185 237 287 340
#     4   9  19  35  57  82 112 146 185 234 284 339
#     4  10  20  37  56  80 112 144 185 237 287 340
#     4   9  19  35  57  82 112 146 185 234 284 339
#
# _framework density 24.430617000000002
#
# number of rings (size 3 to 8) (size 9 to 14) (size 15 to 20)
#    0.000    2.571    0.000    0.857    0.000    5.143 
#    5.143    8.571    0.000    0.000    0.000    0.000 
#    0.000    0.000    0.000    0.000    0.000    0.000 
#
# Total GULP energy -156389.064800 kJ/mol
# GULP energy per Si atom -5585.323743 kJ/mol
# Density = 2.437501 g / cm^3
# Si number density = 24.430617 Si / 1000 Ang^3
#
#
#
# Elastic Constant Matrix: (Units=GPa)
#
#
# Indices 1 2 3 4 5 6 
#
# 1 135.5862 25.3073 11.9803 0.0000 11.6613 0.0000
# 2 25.3073 129.0254 -15.3291 0.0000 8.8744 0.0000
# 3 11.9803 -15.3291 91.3905 0.0000 21.1609 0.0000
# 4 0.0000 0.0000 0.0000 27.3458 0.0000 5.0148
# 5 11.6613 8.8744 21.1609 0.0000 14.9063 0.0000
# 6 0.0000 0.0000 0.0000 5.0148 0.0000 41.3266
#
#
#
# Elastic Compliance Matrix: (Units=1/GPa)
#
#
# Indices 1 2 3 4 5 6 
#
# 1 0.008082 -0.001185 0.000063 0.000000 -0.005706 0.000000
# 2 -0.001185 0.009180 0.004091 0.000000 -0.010345 0.000000
# 3 0.000063 0.004091 0.018167 0.000000 -0.028274 0.000000
# 4 0.000000 0.000000 0.000000 0.037401 0.000000 -0.004538
# 5 -0.005706 -0.010345 -0.028274 0.000000 0.117847 0.000000
# 6 0.000000 0.000000 0.000000 -0.004538 0.000000 0.024748
#
#
# Mechanical properties :
#
#
# Convention : Reuss Voigt Hill
#
# Bulk Modulus (GPa) = 24.17461 44.43546 34.30503
# Shear Modulus (GPa) = 22.39379 38.98530 30.68954
#
# Velocity S-wave (km/s) = 3.03087 3.99902 3.54812
# Velocity P-wave (km/s) = 4.70796 6.28895 5.55499
#
# Compressibility (1/GPa) = 0.04136572
#
# Stress axis : x y z
#
# Youngs Moduli (GPa) = 123.73452 108.92734 55.04614
#
# Poissons Ratio (x) = 0.12910 -0.00347
# Poissons Ratio (y) = 0.14665 -0.22517
# Poissons Ratio (z) = -0.00780 -0.44558
#
# Static dielectric constant tensor:
#      x y z
#    x 1.976820 0.000000 -0.027210 
#    y 0.000000 1.994530 0.000000 
#    z -0.027210 0.000000 2.041070 
# 
# From -- ./inp_files/6516.got.cif
#   From: 2010.05.17/outbox.cif.g08.bks.cpg/sg14_4_cif.got.tgz:6516.got - 2010.06.03 17:49:19.
