data_PCOD9243773
_publ_section_title
;
Structure prediction by ZEFSAII (Michael W. Deem and Ramdas Pophale) SiO2 
 PCOD9243773
Probable space group: P 21/C
;
_chemical_formula_sum "Si O2"
_cell_formula_units_Z 24
_cell_length_a 9.199686
_cell_length_b 8.145950
_cell_length_c 21.555321
_cell_angle_alpha 90.000000
_cell_angle_beta 49.359192
_cell_angle_gamma 90.000000
_cell_volume 1225.747222
_symmetry_space_group_name_H-M "P 21/C"
_symmetry_group_IT_number 14
_symmetry_cell_setting 'monoclinic'
loop_
_space_group_symop_operation_xyz
x,y,z
-x,1/2+y,1/2-z
-x,-y,-z
x,1/2-y,1/2+z
loop_
_atom_site_type_symbol
_atom_site_label
_atom_site_fract_x
_atom_site_fract_y
_atom_site_fract_z
Si Si1 0.076904 0.063889 0.750137
Si Si2 0.686531 0.962668 0.078342
Si Si3 0.207864 0.916093 0.593257
Si Si4 0.614748 0.752195 0.484238
Si Si5 0.295186 0.405452 0.666241
Si Si6 0.017457 0.128092 0.902560
O O1 0.188234 0.236040 0.713545
O O2 0.057377 0.025514 0.828424
O O3 0.181695 0.938890 0.674469
O O4 0.858385 0.051794 0.785606
O O5 0.796183 0.888083 0.106474
O O6 0.495133 0.066589 0.145427
O O7 0.615479 0.821847 0.051802
O O8 0.842718 0.062644 0.993782
O O9 0.408877 0.827425 0.525527
O O10 0.046139 0.806751 0.605436
O O11 0.229856 0.101690 0.562833
O O12 0.655881 0.617936 0.420124
#
# Coordination Sequence:
#
# PCOD9243773 Si02
#       6
#     4   4   4   4   4   4
#     4  11  22  38  63  89 123 157 214 263 306 363
#     4  11  23  38  63  87 128 163 201 253 313 378
#     4  10  21  38  64  91 117 157 213 257 300 364
#     4  10  20  38  65  89 115 162 212 253 298 368
#     4  11  21  38  63  90 117 166 209 258 305 365
#     4  11  22  41  60  91 123 162 202 253 315 369
#
# _framework density 19.579893999999999
#
# number of rings (size 3 to 8) (size 9 to 14) (size 15 to 20)
#    0.000    1.333    5.000    1.500    0.000    0.667 
#    3.000    0.000    0.000    0.000    0.000    0.000 
#    0.000    0.000    0.000    0.000    0.000    0.000 
#
# Total GULP energy -133809.887744 kJ/mol
# GULP energy per Si atom -5575.411989 kJ/mol
# Density = 1.953533 g / cm^3
# Si number density = 19.579894 Si / 1000 Ang^3
#
#
#
# Elastic Constant Matrix: (Units=GPa)
#
#
# Indices 1 2 3 4 5 6 
#
# 1 120.0459 38.8392 24.0361 0.0000 -7.3341 0.0000
# 2 38.8392 74.1043 15.7560 0.0000 -5.6961 0.0000
# 3 24.0361 15.7560 73.7262 0.0000 -8.9383 0.0000
# 4 0.0000 0.0000 0.0000 39.0626 0.0000 -2.8677
# 5 -7.3341 -5.6961 -8.9383 0.0000 25.7028 0.0000
# 6 0.0000 0.0000 0.0000 -2.8677 0.0000 19.4103
#
#
#
# Elastic Compliance Matrix: (Units=1/GPa)
#
#
# Indices 1 2 3 4 5 6 
#
# 1 0.010431 -0.004910 -0.002216 0.000000 0.001118 0.000000
# 2 -0.004910 0.016565 -0.001738 0.000000 0.001666 0.000000
# 3 -0.002216 -0.001738 0.015174 0.000000 0.004259 0.000000
# 4 0.000000 0.000000 0.000000 0.025881 0.000000 0.003824
# 5 0.001118 0.001666 0.004259 0.000000 0.041076 0.000000
# 6 0.000000 0.000000 0.000000 0.003824 0.000000 0.052084
#
#
# Mechanical properties :
#
#
# Convention : Reuss Voigt Hill
#
# Bulk Modulus (GPa) = 40.91070 47.23767 44.07418
# Shear Modulus (GPa) = 26.72595 29.45147 28.08871
#
# Velocity S-wave (km/s) = 3.69856 3.88257 3.79168
# Velocity P-wave (km/s) = 6.25929 6.65410 6.45971
#
# Compressibility (1/GPa) = 0.02444348
#
# Stress axis : x y z
#
# Youngs Moduli (GPa) = 95.87201 60.36731 65.90295
#
# Poissons Ratio (x) = 0.29639 0.14603
# Poissons Ratio (y) = 0.47071 0.11451
# Poissons Ratio (z) = 0.21243 0.10489
#
# Static dielectric constant tensor:
#      x y z
#    x 1.660750 0.000000 -0.031210 
#    y 0.000000 1.729920 0.000000 
#    z -0.031210 0.000000 1.743810 
# 
# From -- ./inp_files/60206.got.cif
#   From: 2010.05.17/outbox.cif.g08.bks.cpg/sg14_31_cif.got.tgz:60206.got - 2010.06.03 17:49:19.
