data_PCOD9243222
_publ_section_title
;
Structure prediction by ZEFSAII (Michael W. Deem and Ramdas Pophale) SiO2 
 PCOD9243222
Probable space group: P 21/C
;
_chemical_formula_sum "Si O2"
_cell_formula_units_Z 32
_cell_length_a 11.077197
_cell_length_b 11.626246
_cell_length_c 10.403215
_cell_angle_alpha 90.000000
_cell_angle_beta 71.925639
_cell_angle_gamma 90.000000
_cell_volume 1273.678279
_symmetry_space_group_name_H-M "P 21/C"
_symmetry_group_IT_number 14
_symmetry_cell_setting 'monoclinic'
loop_
_space_group_symop_operation_xyz
x,y,z
-x,1/2+y,1/2-z
-x,-y,-z
x,1/2-y,1/2+z
loop_
_atom_site_type_symbol
_atom_site_label
_atom_site_fract_x
_atom_site_fract_y
_atom_site_fract_z
Si Si1 0.504842 0.801505 0.478421
Si Si2 0.081852 0.536684 0.666680
Si Si3 0.833495 0.156267 0.598715
Si Si4 0.438036 0.988526 0.700906
Si Si5 0.683913 0.367827 0.551637
Si Si6 0.217387 0.240936 0.134005
Si Si7 0.174351 0.507484 0.142498
Si Si8 0.083227 0.278449 0.433138
O O1 0.509120 0.893707 0.591736
O O2 0.385501 0.717812 0.525140
O O3 0.633729 0.729970 0.432168
O O4 0.509939 0.885226 0.350243
O O5 0.142602 0.591801 0.776442
O O6 0.208759 0.548938 0.537793
O O7 0.965495 0.455463 0.760031
O O8 0.988333 0.619637 0.616180
O O9 0.749966 0.272824 0.624950
O O10 0.787916 0.074089 0.498887
O O11 0.973101 0.192793 0.507610
O O12 0.427122 0.942870 0.847414
O O13 0.290284 0.983115 0.704003
O O14 0.178284 0.371799 0.112565
O O15 0.177336 0.224455 0.295256
O O16 0.144454 0.175115 0.045032
#
# Coordination Sequence:
#
# PCOD9243222 Si02
#       8
#     4   4   4   4   4   4   4   4
#     4  10  22  43  65  94 128 181 232 272 333 410
#     4  10  22  37  62  98 132 165 217 281 341 408
#     4  11  20  36  64  92 132 171 216 268 344 415
#     4  10  22  41  67  97 127 177 231 277 335 408
#     4  11  23  39  67  99 133 172 226 282 341 395
#     4  10  22  38  63  90 126 168 226 274 324 393
#     4  10  20  39  63  93 127 171 218 272 338 411
#     4  10  20  37  58  95 126 168 217 274 332 399
#
# _framework density 25.124082999999999
#
# number of rings (size 3 to 8) (size 9 to 14) (size 15 to 20)
#    0.000    1.750    3.750    1.125    3.500    0.500 
#    0.000    2.500    0.000    1.500    0.000    0.000 
#    0.000    0.000    0.000    0.000    0.000    0.000 
#
# Total GULP energy -178656.256106 kJ/mol
# GULP energy per Si atom -5583.008003 kJ/mol
# Density = 2.506690 g / cm^3
# Si number density = 25.124083 Si / 1000 Ang^3
#
#
#
# Elastic Constant Matrix: (Units=GPa)
#
#
# Indices 1 2 3 4 5 6 
#
# 1 87.1029 11.5624 4.9210 0.0000 -16.6595 0.0000
# 2 11.5624 63.2753 5.0768 0.0000 3.0302 0.0000
# 3 4.9210 5.0768 79.3139 0.0000 -9.3234 0.0000
# 4 0.0000 0.0000 0.0000 14.6341 0.0000 -12.1775
# 5 -16.6595 3.0302 -9.3234 0.0000 45.6529 0.0000
# 6 0.0000 0.0000 0.0000 -12.1775 0.0000 27.5993
#
#
#
# Elastic Compliance Matrix: (Units=1/GPa)
#
#
# Indices 1 2 3 4 5 6 
#
# 1 0.012743 -0.002554 -0.000062 0.000000 0.004807 0.000000
# 2 -0.002554 0.016472 -0.001162 0.000000 -0.002263 0.000000
# 3 -0.000062 -0.001162 0.013005 0.000000 0.002710 0.000000
# 4 0.000000 0.000000 0.000000 0.107979 0.000000 0.047643
# 5 0.004807 -0.002263 0.002710 0.000000 0.024362 0.000000
# 6 0.000000 0.000000 0.000000 0.047643 0.000000 0.057254
#
#
# Mechanical properties :
#
#
# Convention : Reuss Voigt Hill
#
# Bulk Modulus (GPa) = 28.84809 30.31249 29.58029
# Shear Modulus (GPa) = 19.92630 31.45271 25.68951
#
# Velocity S-wave (km/s) = 2.81929 3.54205 3.20113
# Velocity P-wave (km/s) = 4.70160 5.36838 5.04601
#
# Compressibility (1/GPa) = 0.03466434
#
# Stress axis : x y z
#
# Youngs Moduli (GPa) = 78.47736 60.70842 76.89371
#
# Poissons Ratio (x) = 0.15503 0.00478
# Poissons Ratio (y) = 0.20041 0.08934
# Poissons Ratio (z) = 0.00487 0.07054
#
# Static dielectric constant tensor:
#      x y z
#    x 1.950840 0.000000 0.016860 
#    y 0.000000 2.110960 0.000000 
#    z 0.016860 0.000000 2.072290 
# 
# From -- ./inp_files/13295.got.cif
#   From: 2010.05.17/outbox.cif.g08.bks.cpg/sg14_7_cif.got.tgz:13295.got - 2010.06.03 17:49:19.
