data_PCOD9243937
_publ_section_title
;
Structure prediction by ZEFSAII (Michael W. Deem and Ramdas Pophale) SiO2 
 PCOD9243937
Probable space group: P 21/C
;
_chemical_formula_sum "Si O2"
_cell_formula_units_Z 24
_cell_length_a 8.866765
_cell_length_b 8.996238
_cell_length_c 31.764786
_cell_angle_alpha 90.000000
_cell_angle_beta 151.677169
_cell_angle_gamma 90.000000
_cell_volume 1202.132862
_symmetry_space_group_name_H-M "P 21/C"
_symmetry_group_IT_number 14
_symmetry_cell_setting 'monoclinic'
loop_
_space_group_symop_operation_xyz
x,y,z
-x,1/2+y,1/2-z
-x,-y,-z
x,1/2-y,1/2+z
loop_
_atom_site_type_symbol
_atom_site_label
_atom_site_fract_x
_atom_site_fract_y
_atom_site_fract_z
Si Si1 0.028906 0.105299 0.966247
Si Si2 0.677566 0.411784 0.007049
Si Si3 0.216824 0.009424 0.319354
Si Si4 0.222415 0.675670 0.345979
Si Si5 0.165823 0.584214 0.422955
Si Si6 0.797035 0.067261 0.411620
O O1 0.396783 0.160534 0.055929
O O2 0.817313 0.254053 0.917048
O O3 0.970571 0.012616 0.908905
O O4 0.000000 0.000000 0.000000
O O5 0.767376 0.245266 0.041008
O O6 0.001747 0.502089 0.077392
O O7 0.500000 0.500000 0.000000
O O8 0.431673 0.408822 0.907323
O O9 0.147403 0.847896 0.320494
O O10 0.449159 0.005752 0.335727
O O11 0.903929 0.089615 0.225917
O O12 0.063670 0.613986 0.349810
O O13 0.500000 0.500000 0.500000
O O14 0.000000 0.000000 0.500000
#
# Coordination Sequence:
#
# PCOD9243937 Si02
#       6
#     4   4   4   4   4   4
#     4  11  21  39  68  92 123 162 216 264 308 375
#     4  11  19  40  68  87 119 170 214 257 308 384
#     4  11  24  40  63  91 130 162 212 262 328 377
#     4  11  24  42  58  96 128 164 206 265 320 379
#     4  10  22  38  61  93 126 159 216 259 307 379
#     4  10  20  39  62  90 121 167 212 252 307 387
#
# _framework density 19.964514000000001
#
# number of rings (size 3 to 8) (size 9 to 14) (size 15 to 20)
#    0.000    1.333    5.000    3.000    7.000    0.000 
#    0.000    3.333    0.000    0.000    0.000    0.000 
#    0.000    0.000    0.000    0.000    0.000    0.000 
#
# Total GULP energy -133866.152996 kJ/mol
# GULP energy per Si atom -5577.756375 kJ/mol
# Density = 1.991907 g / cm^3
# Si number density = 19.964514 Si / 1000 Ang^3
#
#
#
# Elastic Constant Matrix: (Units=GPa)
#
#
# Indices 1 2 3 4 5 6 
#
# 1 87.0097 18.2417 -7.8900 0.0000 -15.3313 0.0000
# 2 18.2417 118.2916 5.2631 0.0000 -21.7773 0.0000
# 3 -7.8900 5.2631 61.7411 0.0000 -22.7999 0.0000
# 4 0.0000 0.0000 0.0000 21.9927 0.0000 -7.5411
# 5 -15.3313 -21.7773 -22.7999 0.0000 25.0847 0.0000
# 6 0.0000 0.0000 0.0000 -7.5411 0.0000 44.2134
#
#
#
# Elastic Compliance Matrix: (Units=1/GPa)
#
#
# Indices 1 2 3 4 5 6 
#
# 1 0.015164 0.000451 0.008228 0.000000 0.017138 0.000000
# 2 0.000451 0.010625 0.004004 0.000000 0.013138 0.000000
# 3 0.008228 0.004004 0.030176 0.000000 0.035932 0.000000
# 4 0.000000 0.000000 0.000000 0.048294 0.000000 0.008237
# 5 0.017138 0.013138 0.035932 0.000000 0.094405 0.000000
# 6 0.000000 0.000000 0.000000 0.008237 0.000000 0.024022
#
#
# Mechanical properties :
#
#
# Convention : Reuss Voigt Hill
#
# Bulk Modulus (GPa) = 12.29556 33.14133 22.71845
# Shear Modulus (GPa) = 22.27847 35.02001 28.64924
#
# Velocity S-wave (km/s) = 3.34414 4.19276 3.79226
# Velocity P-wave (km/s) = 4.59163 6.33049 5.52984
#
# Compressibility (1/GPa) = 0.08133015
#
# Stress axis : x y z
#
# Youngs Moduli (GPa) = 65.94363 94.11944 33.13890
#
# Poissons Ratio (x) = -0.04240 -0.27268
# Poissons Ratio (y) = -0.02971 -0.13267
# Poissons Ratio (z) = -0.54261 -0.37681
#
# Static dielectric constant tensor:
#      x y z
#    x 1.794790 0.000000 0.018540 
#    y 0.000000 1.693480 0.000000 
#    z 0.018540 0.000000 1.719250 
# 
# From -- ./inp_files/61676.got.cif
#   From: 2010.05.17/outbox.cif.g08.bks.cpg/sg14_31_cif.got.tgz:61676.got - 2010.06.03 17:49:19.
