data_PCOD9243254
_publ_section_title
;
Structure prediction by ZEFSAII (Michael W. Deem and Ramdas Pophale) SiO2 
 PCOD9243254
Probable space group: P 21/C
;
_chemical_formula_sum "Si O2"
_cell_formula_units_Z 28
_cell_length_a 5.194307
_cell_length_b 16.767905
_cell_length_c 15.350262
_cell_angle_alpha 90.000000
_cell_angle_beta 84.179863
_cell_angle_gamma 90.000000
_cell_volume 1330.079776
_symmetry_space_group_name_H-M "P 21/C"
_symmetry_group_IT_number 14
_symmetry_cell_setting 'monoclinic'
loop_
_space_group_symop_operation_xyz
x,y,z
-x,1/2+y,1/2-z
-x,-y,-z
x,1/2-y,1/2+z
loop_
_atom_site_type_symbol
_atom_site_label
_atom_site_fract_x
_atom_site_fract_y
_atom_site_fract_z
Si Si1 0.909855 0.041825 0.189651
Si Si2 0.919363 0.362097 0.350119
Si Si3 0.743571 0.946958 0.516672
Si Si4 0.350572 0.227436 0.534891
Si Si5 0.601710 0.595923 0.216945
Si Si6 0.428109 0.271056 0.327033
Si Si7 0.844706 0.321717 0.556914
O O1 0.654842 0.043629 0.258753
O O2 0.822794 0.097187 0.111951
O O3 0.164199 0.079362 0.225349
O O4 0.993376 0.952825 0.162702
O O5 0.153795 0.306927 0.309284
O O6 0.656091 0.335506 0.311944
O O7 0.874990 0.344549 0.454069
O O8 0.722173 0.865709 0.461149
O O9 0.715610 0.921081 0.617837
O O10 0.500000 0.000000 0.500000
O O11 0.000000 0.000000 0.500000
O O12 0.398610 0.249004 0.430894
O O13 0.607254 0.259963 0.572588
O O14 0.106282 0.277468 0.574827
O O15 0.514440 0.688137 0.222083
#
# Coordination Sequence:
#
# PCOD9243254 Si02
#       7
#     4   4   4   4   4   4   4
#     4  12  23  38  59  90 128 153 189 251 304 353
#     4  10  20  37  62  87 113 157 204 238 280 350
#     4  11  22  41  66  87 113 156 207 258 296 342
#     4   9  19  36  60  85 110 145 199 245 287 350
#     4  11  24  41  59  86 121 161 195 238 310 361
#     4   9  19  38  60  78 108 154 200 235 282 358
#     4  10  20  37  59  87 119 158 197 237 290 356
#
# _framework density 21.051368
#
# number of rings (size 3 to 8) (size 9 to 14) (size 15 to 20)
#    0.000    1.714    0.000    4.714    0.000    4.571 
#    0.000   20.000    0.000    0.000    0.000    0.000 
#    0.000    0.000    0.000    0.000    0.000    0.000 
#
# Total GULP energy -156483.881895 kJ/mol
# GULP energy per Si atom -5588.710068 kJ/mol
# Density = 2.100345 g / cm^3
# Si number density = 21.051368 Si / 1000 Ang^3
#
#
#
# Elastic Constant Matrix: (Units=GPa)
#
#
# Indices 1 2 3 4 5 6 
#
# 1 143.0486 47.4385 15.5912 0.0000 -7.2653 0.0000
# 2 47.4385 134.3857 26.7353 0.0000 -14.1430 0.0000
# 3 15.5912 26.7353 24.4196 0.0000 -2.8812 0.0000
# 4 0.0000 0.0000 0.0000 15.5501 0.0000 -4.0476
# 5 -7.2653 -14.1430 -2.8812 0.0000 21.7884 0.0000
# 6 0.0000 0.0000 0.0000 -4.0476 0.0000 45.7650
#
#
#
# Elastic Compliance Matrix: (Units=1/GPa)
#
#
# Indices 1 2 3 4 5 6 
#
# 1 0.008060 -0.002235 -0.002593 0.000000 0.000894 0.000000
# 2 -0.002235 0.010672 -0.009678 0.000000 0.004902 0.000000
# 3 -0.002593 -0.009678 0.053189 0.000000 -0.000113 0.000000
# 4 0.000000 0.000000 0.000000 0.065824 0.000000 0.005822
# 5 0.000894 0.004902 -0.000113 0.000000 0.049361 0.000000
# 6 0.000000 0.000000 0.000000 0.005822 0.000000 0.022366
#
#
# Mechanical properties :
#
#
# Convention : Reuss Voigt Hill
#
# Bulk Modulus (GPa) = 23.30618 53.48710 38.39664
# Shear Modulus (GPa) = 19.77955 30.75995 25.26975
#
# Velocity S-wave (km/s) = 3.06859 3.82669 3.46842
# Velocity P-wave (km/s) = 4.86314 6.70730 5.85824
#
# Compressibility (1/GPa) = 0.04290707
#
# Stress axis : x y z
#
# Youngs Moduli (GPa) = 124.07064 93.70688 18.80089
#
# Poissons Ratio (x) = 0.20945 0.04876
# Poissons Ratio (y) = 0.27732 0.18196
# Poissons Ratio (z) = 0.32177 0.90690
#
# Static dielectric constant tensor:
#      x y z
#    x 1.720430 0.000000 -0.020180 
#    y 0.000000 1.743480 0.000000 
#    z -0.020180 0.000000 1.797580 
# 
# From -- ./inp_files/53193.got.cif
#   From: 2010.05.17/outbox.cif.g08.bks.cpg/sg14_27_cif.got.tgz:53193.got - 2010.06.03 17:49:19.
