data_PCOD9243113
_publ_section_title
;
Structure prediction by ZEFSAII (Michael W. Deem and Ramdas Pophale) SiO2 
 PCOD9243113
Probable space group: P 21/C
;
_chemical_formula_sum "Si O2"
_cell_formula_units_Z 20
_cell_length_a 7.064454
_cell_length_b 5.274580
_cell_length_c 25.102214
_cell_angle_alpha 90.000000
_cell_angle_beta 90.589394
_cell_angle_gamma 90.000000
_cell_volume 935.309906
_symmetry_space_group_name_H-M "P 21/C"
_symmetry_group_IT_number 14
_symmetry_cell_setting 'monoclinic'
loop_
_space_group_symop_operation_xyz
x,y,z
-x,1/2+y,1/2-z
-x,-y,-z
x,1/2-y,1/2+z
loop_
_atom_site_type_symbol
_atom_site_label
_atom_site_fract_x
_atom_site_fract_y
_atom_site_fract_z
Si Si1 0.371287 0.719070 0.243077
Si Si2 0.988164 0.197668 0.048530
Si Si3 0.548297 0.278120 0.870706
Si Si4 0.286277 0.785606 0.857089
Si Si5 0.300395 0.538174 0.026428
O O1 0.505023 0.474183 0.251146
O O2 0.316432 0.704531 0.180871
O O3 0.234661 0.722822 0.293889
O O4 0.890443 0.154350 0.104963
O O5 0.197885 0.305423 0.054791
O O6 0.839571 0.394211 0.021755
O O7 0.000000 0.000000 0.000000
O O8 0.405467 0.525029 0.870055
O O9 0.665496 0.269083 0.925475
O O10 0.425244 0.024130 0.866054
O O11 0.500000 0.500000 0.000000
#
# Coordination Sequence:
#
# PCOD9243113 Si02
#       5
#     4   4   4   4   4
#     4   8  16  32  57  88 113 153 201 242 294 357
#     4  11  25  38  60  89 125 159 201 254 304 357
#     4  10  20  36  64  88 118 160 204 244 299 362
#     4  10  20  37  62  88 121 158 201 249 300 358
#     4  11  23  40  60  89 121 160 205 247 302 360
#
# _framework density 21.383288
#
# number of rings (size 3 to 8) (size 9 to 14) (size 15 to 20)
#    0.000    2.000    2.000    1.200    5.600    1.600 
#    0.000    0.000    4.400    0.000    0.000    0.000 
#    0.000    0.000    0.000    0.000    0.000    0.000 
#
# Total GULP energy -111342.607950 kJ/mol
# GULP energy per Si atom -5567.130398 kJ/mol
# Density = 2.133462 g / cm^3
# Si number density = 21.383288 Si / 1000 Ang^3
#
#
#
# Elastic Constant Matrix: (Units=GPa)
#
#
# Indices 1 2 3 4 5 6 
#
# 1 70.0677 14.2102 39.0830 0.0000 -29.4428 0.0000
# 2 14.2102 107.8256 -2.4238 0.0000 -13.5183 0.0000
# 3 39.0830 -2.4238 185.2334 0.0000 -44.6334 0.0000
# 4 0.0000 0.0000 0.0000 28.7591 0.0000 1.6208
# 5 -29.4428 -13.5183 -44.6334 0.0000 40.3524 0.0000
# 6 0.0000 0.0000 0.0000 1.6208 0.0000 13.6907
#
#
#
# Elastic Compliance Matrix: (Units=1/GPa)
#
#
# Indices 1 2 3 4 5 6 
#
# 1 0.020830 -0.001068 -0.001136 0.000000 0.013585 0.000000
# 2 -0.001068 0.009948 0.001324 0.000000 0.004018 0.000000
# 3 -0.001136 0.001324 0.007584 0.000000 0.008003 0.000000
# 4 0.000000 0.000000 0.000000 0.035005 0.000000 -0.004144
# 5 0.013585 0.004018 0.008003 0.000000 0.044892 0.000000
# 6 0.000000 0.000000 0.000000 -0.004144 0.000000 0.073533
#
#
# Mechanical properties :
#
#
# Convention : Reuss Voigt Hill
#
# Bulk Modulus (GPa) = 27.31984 51.65172 39.48578
# Shear Modulus (GPa) = 24.30091 37.37758 30.83924
#
# Velocity S-wave (km/s) = 3.37478 4.18542 3.80177
# Velocity P-wave (km/s) = 5.29051 6.89671 6.14630
#
# Compressibility (1/GPa) = 0.03660343
#
# Stress axis : x y z
#
# Youngs Moduli (GPa) = 48.00695 100.51864 131.85646
#
# Poissons Ratio (x) = 0.10731 0.14974
# Poissons Ratio (y) = 0.05125 -0.17452
# Poissons Ratio (z) = 0.05452 -0.13304
#
# Static dielectric constant tensor:
#      x y z
#    x 1.805100 0.000000 0.011200 
#    y 0.000000 1.861560 0.000000 
#    z 0.011200 0.000000 1.918550 
# 
# From -- ./inp_files/75439.got.cif
#   From: 2010.05.17/outbox.cif.g08.bks.cpg/sg14_38_cif.got.tgz:75439.got - 2010.06.03 17:49:19.
