data_PCOD9243656
_publ_section_title
;
Structure prediction by ZEFSAII (Michael W. Deem and Ramdas Pophale) SiO2 
 PCOD9243656
Probable space group: P 21/C
;
_chemical_formula_sum "Si O2"
_cell_formula_units_Z 32
_cell_length_a 14.213995
_cell_length_b 14.148867
_cell_length_c 11.933529
_cell_angle_alpha 90.000000
_cell_angle_beta 136.690883
_cell_angle_gamma 90.000000
_cell_volume 1646.224799
_symmetry_space_group_name_H-M "P 21/C"
_symmetry_group_IT_number 14
_symmetry_cell_setting 'monoclinic'
loop_
_space_group_symop_operation_xyz
x,y,z
-x,1/2+y,1/2-z
-x,-y,-z
x,1/2-y,1/2+z
loop_
_atom_site_type_symbol
_atom_site_label
_atom_site_fract_x
_atom_site_fract_y
_atom_site_fract_z
Si Si1 0.971126 0.251329 0.466317
Si Si2 0.516394 0.846667 0.617134
Si Si3 0.222163 0.902686 0.299175
Si Si4 0.205187 0.117436 0.272292
Si Si5 0.441158 0.137527 0.864069
Si Si6 0.836473 0.411880 0.991240
Si Si7 0.156163 0.125838 0.492001
Si Si8 0.514339 0.430259 0.668467
O O1 0.844434 0.318800 0.328075
O O2 0.923822 0.166461 0.504818
O O3 0.086897 0.316373 0.622083
O O4 0.039195 0.201350 0.417197
O O5 0.386520 0.896131 0.447014
O O6 0.650448 0.855642 0.657590
O O7 0.485128 0.735116 0.602657
O O8 0.538256 0.892309 0.758387
O O9 0.172728 0.892069 0.384618
O O10 0.179575 0.007029 0.223257
O O11 0.207404 0.127650 0.408618
O O12 0.286025 0.145068 0.684692
O O13 0.503972 0.043056 0.862597
O O14 0.448664 0.120214 0.003943
O O15 0.891419 0.518575 0.025358
O O16 0.678957 0.412835 0.810544
#
# Coordination Sequence:
#
# PCOD9243656 Si02
#       8
#     4   4   4   4   4   4   4   4
#     4  12  21  39  63  90 116 166 206 244 302 358
#     4  11  22  40  66  91 118 169 198 245 316 365
#     4  10  23  41  59  86 128 155 201 252 302 363
#     4  11  24  41  62  92 124 159 201 252 303 359
#     4  10  20  38  62  90 123 158 200 259 295 353
#     4   9  20  40  61  87 120 161 199 254 303 357
#     4  10  22  39  62  88 125 157 204 252 299 361
#     4   9  21  40  60  92 129 152 206 259 299 356
#
# _framework density 19.438416
#
# number of rings (size 3 to 8) (size 9 to 14) (size 15 to 20)
#    0.000    1.750    1.250    3.375    1.750    0.000 
#    6.750    0.000    8.250    0.000    0.000    0.000 
#    0.000    0.000    0.000    0.000    0.000    0.000 
#
# Total GULP energy -178762.290125 kJ/mol
# GULP energy per Si atom -5586.321566 kJ/mol
# Density = 1.939417 g / cm^3
# Si number density = 19.438416 Si / 1000 Ang^3
#
#
#
# Elastic Constant Matrix: (Units=GPa)
#
#
# Indices 1 2 3 4 5 6 
#
# 1 88.8735 49.6570 31.5636 0.0000 -9.4452 0.0000
# 2 49.6570 122.3392 41.5437 0.0000 -12.3900 0.0000
# 3 31.5636 41.5437 65.3297 0.0000 -9.4123 0.0000
# 4 0.0000 0.0000 0.0000 33.2035 0.0000 5.3127
# 5 -9.4452 -12.3900 -9.4123 0.0000 12.3818 0.0000
# 6 0.0000 0.0000 0.0000 5.3127 0.0000 26.7872
#
#
#
# Elastic Compliance Matrix: (Units=1/GPa)
#
#
# Indices 1 2 3 4 5 6 
#
# 1 0.015700 -0.004553 -0.004066 0.000000 0.004329 0.000000
# 2 -0.004553 0.012167 -0.004810 0.000000 0.005045 0.000000
# 3 -0.004066 -0.004810 0.021550 0.000000 0.008467 0.000000
# 4 0.000000 0.000000 0.000000 0.031104 0.000000 -0.006169
# 5 0.004329 0.005045 0.008467 0.000000 0.095550 0.000000
# 6 0.000000 0.000000 0.000000 -0.006169 0.000000 0.038555
#
#
# Mechanical properties :
#
#
# Convention : Reuss Voigt Hill
#
# Bulk Modulus (GPa) = 44.33100 58.00787 51.16944
# Shear Modulus (GPa) = 20.07995 24.72638 22.40316
#
# Velocity S-wave (km/s) = 3.21752 3.57043 3.39856
# Velocity P-wave (km/s) = 6.05464 6.84865 6.46385
#
# Compressibility (1/GPa) = 0.02255758
#
# Stress axis : x y z
#
# Youngs Moduli (GPa) = 63.69287 82.19291 46.40348
#
# Poissons Ratio (x) = 0.37426 0.18869
# Poissons Ratio (y) = 0.29002 0.22320
# Poissons Ratio (z) = 0.25899 0.39535
#
# Static dielectric constant tensor:
#      x y z
#    x 1.652280 0.000000 0.001210 
#    y 0.000000 1.691710 0.000000 
#    z 0.001210 0.000000 1.662540 
# 
# From -- ./inp_files/32790.got.cif
#   From: 2010.05.17/outbox.cif.g08.bks.cpg/sg14_17_cif.got.tgz:32790.got - 2010.06.03 17:49:19.
