data_PCOD9243615
_publ_section_title
;
Structure prediction by ZEFSAII (Michael W. Deem and Ramdas Pophale) SiO2 
 PCOD9243615
Probable space group: P 21/C
;
_chemical_formula_sum "Si O2"
_cell_formula_units_Z 32
_cell_length_a 10.206392
_cell_length_b 9.352164
_cell_length_c 16.594004
_cell_angle_alpha 90.000000
_cell_angle_beta 124.730532
_cell_angle_gamma 90.000000
_cell_volume 1301.736619
_symmetry_space_group_name_H-M "P 21/C"
_symmetry_group_IT_number 14
_symmetry_cell_setting 'monoclinic'
loop_
_space_group_symop_operation_xyz
x,y,z
-x,1/2+y,1/2-z
-x,-y,-z
x,1/2-y,1/2+z
loop_
_atom_site_type_symbol
_atom_site_label
_atom_site_fract_x
_atom_site_fract_y
_atom_site_fract_z
Si Si1 0.172666 0.018757 0.596073
Si Si2 0.827950 0.131599 0.681858
Si Si3 0.710745 0.216930 0.474709
Si Si4 0.385075 0.372392 0.930507
Si Si5 0.607990 0.052688 0.834867
Si Si6 0.319066 0.599767 0.309876
Si Si7 0.680197 0.766701 0.780591
Si Si8 0.190267 0.350936 0.347888
O O1 0.285397 0.926560 0.577724
O O2 0.205857 0.949502 0.695647
O O3 0.207750 0.185717 0.617251
O O4 0.000000 0.000000 0.500000
O O5 0.829030 0.190764 0.590290
O O6 0.704937 0.234402 0.684564
O O7 0.000995 0.145461 0.781805
O O8 0.758781 0.973845 0.652312
O O9 0.528769 0.223191 0.442239
O O10 0.738188 0.357306 0.430107
O O11 0.282004 0.252478 0.941720
O O12 0.500000 0.500000 0.000000
O O13 0.494234 0.954614 0.850926
O O14 0.665043 0.935385 0.790295
O O15 0.486439 0.179365 0.764358
O O16 0.256576 0.510807 0.364962
O O17 0.749630 0.722158 0.716760
#
# Coordination Sequence:
#
# PCOD9243615 Si02
#       8
#     4   4   4   4   4   4   4   4
#     4  10  22  41  65  93 130 168 214 271 334 398
#     4  11  24  39  64  92 133 178 213 264 339 400
#     4  11  21  42  62  94 132 165 221 280 317 402
#     4  10  22  39  62  93 121 174 221 266 318 393
#     4  10  20  38  61  94 123 161 215 276 319 386
#     4  10  22  38  62  91 124 168 214 264 331 380
#     4  10  21  36  66  91 127 168 212 272 337 380
#     4  10  20  41  60  89 132 169 214 270 330 392
#
# _framework density 24.582545
#
# number of rings (size 3 to 8) (size 9 to 14) (size 15 to 20)
#    0.000    2.000    2.500    3.750    1.750    2.500 
#    0.000    5.000    0.000    0.000    0.000    0.000 
#    0.000    0.000    0.000    0.000    0.000    0.000 
#
# Total GULP energy -178446.640284 kJ/mol
# GULP energy per Si atom -5576.457509 kJ/mol
# Density = 2.452659 g / cm^3
# Si number density = 24.582545 Si / 1000 Ang^3
#
#
#
# Elastic Constant Matrix: (Units=GPa)
#
#
# Indices 1 2 3 4 5 6 
#
# 1 28.9104 -8.5791 -4.3190 0.0000 6.8848 0.0000
# 2 -8.5791 81.9741 3.8225 0.0000 -7.7817 0.0000
# 3 -4.3190 3.8225 51.7438 0.0000 14.5348 0.0000
# 4 0.0000 0.0000 0.0000 38.9241 0.0000 -3.3790
# 5 6.8848 -7.7817 14.5348 0.0000 33.5922 0.0000
# 6 0.0000 0.0000 0.0000 -3.3790 0.0000 29.1512
#
#
#
# Elastic Compliance Matrix: (Units=1/GPa)
#
#
# Indices 1 2 3 4 5 6 
#
# 1 0.038614 0.002848 0.005749 0.000000 -0.009742 0.000000
# 2 0.002848 0.012863 -0.001577 0.000000 0.003078 0.000000
# 3 0.005749 -0.001577 0.023172 0.000000 -0.011570 0.000000
# 4 0.000000 0.000000 0.000000 0.025952 0.000000 0.003008
# 5 -0.009742 0.003078 -0.011570 0.000000 0.037485 0.000000
# 6 0.000000 0.000000 0.000000 0.003008 0.000000 0.034653
#
#
# Mechanical properties :
#
#
# Convention : Reuss Voigt Hill
#
# Bulk Modulus (GPa) = 11.27533 16.05300 13.66417
# Shear Modulus (GPa) = 26.55888 31.78042 29.16965
#
# Velocity S-wave (km/s) = 3.29050 3.59946 3.44844
# Velocity P-wave (km/s) = 4.36271 4.88050 4.62885
#
# Compressibility (1/GPa) = 0.08868920
#
# Stress axis : x y z
#
# Youngs Moduli (GPa) = 25.89758 77.74330 43.15491
#
# Poissons Ratio (x) = -0.22144 -0.24810
# Poissons Ratio (y) = -0.07376 0.06806
# Poissons Ratio (z) = -0.14889 0.12262
#
# Static dielectric constant tensor:
#      x y z
#    x 2.073980 0.000000 -0.289670 
#    y 0.000000 0.641700 0.000000 
#    z -0.289670 0.000000 2.642050 
# 
# From -- ./inp_files/67067.got.cif
#   From: 2010.05.17/outbox.cif.g08.bks.cpg/sg14_34_cif.got.tgz:67067.got - 2010.06.03 17:49:19.
