data_PCOD9243278
_publ_section_title
;
Structure prediction by ZEFSAII (Michael W. Deem and Ramdas Pophale) SiO2 
 PCOD9243278
Probable space group: P 21/C
;
_chemical_formula_sum "Si O2"
_cell_formula_units_Z 32
_cell_length_a 7.068904
_cell_length_b 25.171834
_cell_length_c 8.991221
_cell_angle_alpha 90.000000
_cell_angle_beta 128.507306
_cell_angle_gamma 90.000000
_cell_volume 1251.946959
_symmetry_space_group_name_H-M "P 21/C"
_symmetry_group_IT_number 14
_symmetry_cell_setting 'monoclinic'
loop_
_space_group_symop_operation_xyz
x,y,z
-x,1/2+y,1/2-z
-x,-y,-z
x,1/2-y,1/2+z
loop_
_atom_site_type_symbol
_atom_site_label
_atom_site_fract_x
_atom_site_fract_y
_atom_site_fract_z
Si Si1 0.223916 0.506518 0.921420
Si Si2 0.713918 0.798077 0.739628
Si Si3 0.340735 0.386392 0.595904
Si Si4 0.002632 0.877069 0.326903
Si Si5 0.948487 0.343624 0.812794
Si Si6 0.481170 0.001172 0.813413
Si Si7 0.899425 0.426995 0.568587
Si Si8 0.980385 0.771960 0.169870
O O1 0.248047 0.484770 0.103778
O O2 0.500000 0.500000 0.000000
O O3 0.135448 0.567121 0.869441
O O4 0.048559 0.469595 0.738971
O O5 0.796584 0.839437 0.652467
O O6 0.740743 0.744430 0.652255
O O7 0.545809 0.835183 0.764130
O O8 0.904620 0.783035 0.963918
O O9 0.477869 0.439626 0.703327
O O10 0.077440 0.397991 0.542300
O O11 0.258333 0.380923 0.384565
O O12 0.998759 0.863418 0.498239
O O13 0.107204 0.823225 0.300830
O O14 0.867779 0.282384 0.757779
O O15 0.799714 0.384526 0.639411
O O16 0.500000 0.000000 0.000000
O O17 0.696263 0.041293 0.881068
#
# Coordination Sequence:
#
# PCOD9243278 Si02
#       8
#     4   4   4   4   4   4   4   4
#     4  12  25  40  64  93 124 180 223 268 329 393
#     4   8  16  29  55  88 119 157 211 261 310 399
#     4  10  20  37  60  84 127 171 207 267 318 383
#     4  11  20  34  61  93 125 163 218 266 321 391
#     4   9  18  32  58  91 120 162 212 261 325 393
#     4  12  25  39  59  95 133 168 218 271 327 388
#     4  11  22  43  61  89 131 169 225 269 323 400
#     4   9  15  32  54  94 118 156 218 259 321 393
#
# _framework density 25.560188
#
# number of rings (size 3 to 8) (size 9 to 14) (size 15 to 20)
#    0.750    1.000    3.750    1.875    1.750    1.000 
#    0.000    0.000    0.000    0.000   32.500    0.000 
#    0.000    0.000    0.000    0.000    0.000    0.000 
#
# Total GULP energy -178430.398811 kJ/mol
# GULP energy per Si atom -5575.949963 kJ/mol
# Density = 2.550201 g / cm^3
# Si number density = 25.560188 Si / 1000 Ang^3
#
#
#
# Elastic Constant Matrix: (Units=GPa)
#
#
# Indices 1 2 3 4 5 6 
#
# 1 43.6374 28.8010 42.8576 0.0000 -4.2948 0.0000
# 2 28.8010 189.1689 50.4604 0.0000 2.6808 0.0000
# 3 42.8576 50.4604 163.3092 0.0000 -18.0530 0.0000
# 4 0.0000 0.0000 0.0000 34.0245 0.0000 -16.9336
# 5 -4.2948 2.6808 -18.0530 0.0000 39.0550 0.0000
# 6 0.0000 0.0000 0.0000 -16.9336 0.0000 33.3915
#
#
#
# Elastic Compliance Matrix: (Units=1/GPa)
#
#
# Indices 1 2 3 4 5 6 
#
# 1 0.032265 -0.002905 -0.007541 0.000000 0.000262 0.000000
# 2 -0.002905 0.006084 -0.001264 0.000000 -0.001321 0.000000
# 3 -0.007541 -0.001264 0.008864 0.000000 0.003355 0.000000
# 4 0.000000 0.000000 0.000000 0.039313 0.000000 0.019936
# 5 0.000262 -0.001321 0.003355 0.000000 0.027275 0.000000
# 6 0.000000 0.000000 0.000000 0.019936 0.000000 0.040058
#
#
# Mechanical properties :
#
#
# Convention : Reuss Voigt Hill
#
# Bulk Modulus (GPa) = 42.02652 71.15037 56.58844
# Shear Modulus (GPa) = 26.99651 39.56065 33.27858
#
# Velocity S-wave (km/s) = 3.25344 3.93841 3.61220
# Velocity P-wave (km/s) = 5.53092 6.96981 6.29163
#
# Compressibility (1/GPa) = 0.02379450
#
# Stress axis : x y z
#
# Youngs Moduli (GPa) = 30.99322 164.35656 112.81980
#
# Poissons Ratio (x) = 0.47738 0.85077
# Poissons Ratio (y) = 0.09002 0.14258
# Poissons Ratio (z) = 0.23372 0.20771
#
# Static dielectric constant tensor:
#      x y z
#    x 2.225810 0.000000 -0.049480 
#    y 0.000000 2.071840 0.000000 
#    z -0.049480 0.000000 1.982240 
# 
# From -- ./inp_files/11088.got.cif
#   From: 2010.05.17/outbox.cif.g08.bks.cpg/sg14_6_cif.got.tgz:11088.got - 2010.06.03 17:49:19.
