data_PCOD9243632
_publ_section_title
;
Structure prediction by ZEFSAII (Michael W. Deem and Ramdas Pophale) SiO2 
 PCOD9243632
Probable space group: P 21/C
;
_chemical_formula_sum "Si O2"
_cell_formula_units_Z 32
_cell_length_a 10.372695
_cell_length_b 9.318161
_cell_length_c 16.491057
_cell_angle_alpha 90.000000
_cell_angle_beta 63.424797
_cell_angle_gamma 90.000000
_cell_volume 1425.531509
_symmetry_space_group_name_H-M "P 21/C"
_symmetry_group_IT_number 14
_symmetry_cell_setting 'monoclinic'
loop_
_space_group_symop_operation_xyz
x,y,z
-x,1/2+y,1/2-z
-x,-y,-z
x,1/2-y,1/2+z
loop_
_atom_site_type_symbol
_atom_site_label
_atom_site_fract_x
_atom_site_fract_y
_atom_site_fract_z
Si Si1 0.284821 0.435856 0.442007
Si Si2 0.366911 0.472565 0.129274
Si Si3 0.377792 0.518094 0.831562
Si Si4 0.986342 0.733094 0.413630
Si Si5 0.121471 0.468246 0.315941
Si Si6 0.145568 0.802096 0.041102
Si Si7 0.202213 0.017726 0.530447
Si Si8 0.546558 0.251995 0.312166
O O1 0.167679 0.340265 0.522291
O O2 0.219809 0.456019 0.369513
O O3 0.277223 0.588802 0.488902
O O4 0.433468 0.353822 0.389792
O O5 0.507427 0.414854 0.135975
O O6 0.222348 0.420953 0.214997
O O7 0.341224 0.433348 0.043638
O O8 0.375589 0.642716 0.149008
O O9 0.360112 0.639230 0.768760
O O10 0.455435 0.367733 0.784837
O O11 0.240951 0.475544 0.924348
O O12 0.940398 0.893999 0.408693
O O13 0.067973 0.633188 0.326887
O O14 0.075299 0.720763 0.471728
O O15 0.978786 0.375821 0.370914
O O16 0.183320 0.646094 0.059780
#
# Coordination Sequence:
#
# PCOD9243632 Si02
#       8
#     4   4   4   4   4   4   4   4
#     4   9  15  36  58  81 107 143 195 239 278 343
#     4  10  23  37  59  81 121 152 189 241 303 342
#     4  10  23  36  63  83 114 149 198 235 296 344
#     4   9  18  34  58  83 109 152 192 237 276 342
#     4   9  18  37  58  80 112 154 194 228 292 341
#     4   9  21  32  61  84 113 153 194 236 288 343
#     4  12  22  37  55  88 124 147 191 248 291 342
#     4  10  20  38  62  85 106 154 197 238 288 352
#
# _framework density 22.447768
#
# number of rings (size 3 to 8) (size 9 to 14) (size 15 to 20)
#    0.750    1.500    2.500    2.250    5.250    1.000 
#    0.000    0.625    5.500    0.000    0.000    0.000 
#    0.000    0.000    0.000    0.000    0.000    0.000 
#
# Total GULP energy -178438.972967 kJ/mol
# GULP energy per Si atom -5576.217905 kJ/mol
# Density = 2.239668 g / cm^3
# Si number density = 22.447768 Si / 1000 Ang^3
#
#
#
# Elastic Constant Matrix: (Units=GPa)
#
#
# Indices 1 2 3 4 5 6 
#
# 1 21.5078 -2.9500 -7.3084 0.0000 1.3735 0.0000
# 2 -2.9500 88.0440 -0.2129 0.0000 5.3350 0.0000
# 3 -7.3084 -0.2129 48.1760 0.0000 -7.5800 0.0000
# 4 0.0000 0.0000 0.0000 16.7465 0.0000 -13.8461
# 5 1.3735 5.3350 -7.5800 0.0000 14.6598 0.0000
# 6 0.0000 0.0000 0.0000 -13.8461 0.0000 23.0120
#
#
#
# Elastic Compliance Matrix: (Units=1/GPa)
#
#
# Indices 1 2 3 4 5 6 
#
# 1 0.049296 0.001761 0.007248 0.000000 -0.001512 0.000000
# 2 0.001761 0.011697 -0.000410 0.000000 -0.004634 0.000000
# 3 0.007248 -0.000410 0.023700 0.000000 0.011724 0.000000
# 4 0.000000 0.000000 0.000000 0.118829 0.000000 0.071498
# 5 -0.001512 -0.004634 0.011724 0.000000 0.076104 0.000000
# 6 0.000000 0.000000 0.000000 0.071498 0.000000 0.086475
#
#
# Mechanical properties :
#
#
# Convention : Reuss Voigt Hill
#
# Bulk Modulus (GPa) = 9.81453 15.19835 12.50644
# Shear Modulus (GPa) = 13.05940 22.09692 17.57816
#
# Velocity S-wave (km/s) = 2.41460 3.14087 2.80137
# Velocity P-wave (km/s) = 3.48646 4.46527 4.00588
#
# Compressibility (1/GPa) = 0.10188976
#
# Stress axis : x y z
#
# Youngs Moduli (GPa) = 20.28570 85.49385 42.19460
#
# Poissons Ratio (x) = -0.15054 -0.30583
# Poissons Ratio (y) = -0.03572 0.01731
# Poissons Ratio (z) = -0.14703 0.03508
#
# Static dielectric constant tensor:
#      x y z
#    x 1.817740 0.000000 -0.011850 
#    y 0.000000 1.868730 0.000000 
#    z -0.011850 0.000000 1.843100 
# 
# From -- ./inp_files/57274.got.cif
#   From: 2010.05.17/outbox.cif.g08.bks.cpg/sg14_29_cif.got.tgz:57274.got - 2010.06.03 17:49:19.
