data_PCOD9243971
_publ_section_title
;
Structure prediction by ZEFSAII (Michael W. Deem and Ramdas Pophale) SiO2 
 PCOD9243971
Probable space group: P 21/C
;
_chemical_formula_sum "Si O2"
_cell_formula_units_Z 24
_cell_length_a 6.677943
_cell_length_b 16.798755
_cell_length_c 10.468071
_cell_angle_alpha 90.000000
_cell_angle_beta 109.214029
_cell_angle_gamma 90.000000
_cell_volume 1108.905481
_symmetry_space_group_name_H-M "P 21/C"
_symmetry_group_IT_number 14
_symmetry_cell_setting 'monoclinic'
loop_
_space_group_symop_operation_xyz
x,y,z
-x,1/2+y,1/2-z
-x,-y,-z
x,1/2-y,1/2+z
loop_
_atom_site_type_symbol
_atom_site_label
_atom_site_fract_x
_atom_site_fract_y
_atom_site_fract_z
Si Si1 0.349331 0.882465 0.480987
Si Si2 0.375755 0.757001 0.289677
Si Si3 0.629779 0.506247 0.217144
Si Si4 0.725235 0.865469 0.919774
Si Si5 0.389925 0.371813 0.313291
Si Si6 0.001484 0.224147 0.611311
O O1 0.470631 0.815776 0.422286
O O2 0.500937 0.932360 0.601688
O O3 0.156222 0.833465 0.501135
O O4 0.258346 0.944172 0.355449
O O5 0.513809 0.678037 0.319857
O O6 0.418256 0.808125 0.171048
O O7 0.140054 0.749047 0.295603
O O8 0.769058 0.557148 0.343654
O O9 0.465378 0.452913 0.263407
O O10 0.907976 0.799961 0.942295
O O11 0.671012 0.884396 0.053601
O O12 0.192641 0.329229 0.203564
#
# Coordination Sequence:
#
# PCOD9243971 Si02
#       6
#     4   4   4   4   4   4
#     4   8  19  41  64  83 120 163 211 246 283 367
#     4   8  20  39  58  86 119 163 201 250 291 353
#     4  10  20  39  63  89 123 164 199 250 311 356
#     4  11  22  35  64  93 123 161 202 252 311 360
#     4  10  21  38  59  90 129 154 199 255 311 362
#     4   9  21  40  60  90 116 167 207 249 290 363
#
# _framework density 21.642965
#
# number of rings (size 3 to 8) (size 9 to 14) (size 15 to 20)
#    1.000    1.667    0.000    0.500    4.667    3.333 
#    3.000    0.833    0.000    0.000    0.000    0.000 
#    0.000    0.000    0.000    0.000    0.000    0.000 
#
# Total GULP energy -133789.631334 kJ/mol
# GULP energy per Si atom -5574.567972 kJ/mol
# Density = 2.159370 g / cm^3
# Si number density = 21.642965 Si / 1000 Ang^3
#
#
#
# Elastic Constant Matrix: (Units=GPa)
#
#
# Indices 1 2 3 4 5 6 
#
# 1 79.7256 16.5289 1.0734 0.0000 -12.6044 0.0000
# 2 16.5289 50.1123 10.1024 0.0000 -13.9049 0.0000
# 3 1.0734 10.1024 53.2253 0.0000 -24.4981 0.0000
# 4 0.0000 0.0000 0.0000 38.1220 0.0000 -5.3308
# 5 -12.6044 -13.9049 -24.4981 0.0000 22.4431 0.0000
# 6 0.0000 0.0000 0.0000 -5.3308 0.0000 28.5041
#
#
#
# Elastic Compliance Matrix: (Units=1/GPa)
#
#
# Indices 1 2 3 4 5 6 
#
# 1 0.015245 -0.002366 0.006848 0.000000 0.014572 0.000000
# 2 -0.002366 0.025043 0.003666 0.000000 0.018189 0.000000
# 3 0.006848 0.003666 0.041741 0.000000 0.051681 0.000000
# 4 0.000000 0.000000 0.000000 0.026936 0.000000 0.005038
# 5 0.014572 0.018189 0.051681 0.000000 0.120423 0.000000
# 6 0.000000 0.000000 0.000000 0.005038 0.000000 0.036025
#
#
# Mechanical properties :
#
#
# Convention : Reuss Voigt Hill
#
# Bulk Modulus (GPa) = 10.17003 26.49695 18.33349
# Shear Modulus (GPa) = 17.73732 28.17109 22.95420
#
# Velocity S-wave (km/s) = 2.86587 3.61172 3.26020
# Velocity P-wave (km/s) = 3.95729 5.44629 4.76037
#
# Compressibility (1/GPa) = 0.09832811
#
# Stress axis : x y z
#
# Youngs Moduli (GPa) = 65.59524 39.93058 23.95705
#
# Poissons Ratio (x) = 0.09447 -0.16407
# Poissons Ratio (y) = 0.15518 -0.08784
# Poissons Ratio (z) = -0.44923 -0.14640
#
# Static dielectric constant tensor:
#      x y z
#    x 1.782620 0.000000 0.013520 
#    y 0.000000 1.778830 0.000000 
#    z 0.013520 0.000000 1.843620 
# 
# From -- ./inp_files/9200.got.cif
#   From: 2010.05.17/outbox.cif.g08.bks.cpg/sg14_5_cif.got.tgz:9200.got - 2010.06.03 17:49:19.
