data_PCOD9243675
_publ_section_title
;
Structure prediction by ZEFSAII (Michael W. Deem and Ramdas Pophale) SiO2 
 PCOD9243675
Probable space group: P 21/C
;
_chemical_formula_sum "Si O2"
_cell_formula_units_Z 24
_cell_length_a 12.975505
_cell_length_b 5.446915
_cell_length_c 14.657847
_cell_angle_alpha 90.000000
_cell_angle_beta 86.324024
_cell_angle_gamma 90.000000
_cell_volume 1033.833519
_symmetry_space_group_name_H-M "P 21/C"
_symmetry_group_IT_number 14
_symmetry_cell_setting 'monoclinic'
loop_
_space_group_symop_operation_xyz
x,y,z
-x,1/2+y,1/2-z
-x,-y,-z
x,1/2-y,1/2+z
loop_
_atom_site_type_symbol
_atom_site_label
_atom_site_fract_x
_atom_site_fract_y
_atom_site_fract_z
Si Si1 0.915604 0.909884 0.213603
Si Si2 0.724323 0.603573 0.170345
Si Si3 0.973951 0.769841 0.906379
Si Si4 0.563229 0.931462 0.246626
Si Si5 0.175026 0.586141 0.001110
Si Si6 0.260287 0.715330 0.184961
O O1 0.999655 0.959139 0.130998
O O2 0.832637 0.120264 0.244696
O O3 0.838877 0.704487 0.181655
O O4 0.968612 0.855762 0.306720
O O5 0.700864 0.454563 0.264287
O O6 0.640088 0.818301 0.165616
O O7 0.736040 0.446235 0.078727
O O8 0.870097 0.677144 0.960069
O O9 0.074504 0.701533 0.958729
O O10 0.506281 0.190332 0.225920
O O11 0.646498 0.018213 0.318062
O O12 0.217063 0.731944 0.085943
#
# Coordination Sequence:
#
# PCOD9243675 Si02
#       6
#     4   4   4   4   4   4
#     4  10  21  37  62  93 136 195 225 283 333 387
#     4  11  22  43  67  99 143 175 225 292 353 405
#     4  10  20  38  62  95 140 185 247 271 325 406
#     4  11  23  46  80 100 128 181 226 283 365 437
#     4  10  22  41  63 103 136 186 231 284 339 400
#     4  10  22  43  67  98 137 177 224 286 347 413
#
# _framework density 23.214568
#
# number of rings (size 3 to 8) (size 9 to 14) (size 15 to 20)
#    0.000    1.667    3.333    1.000    0.000    0.667 
#    9.000    1.667    0.000    0.000    0.000    0.000 
#    0.000    0.000    0.000    0.000    0.000    0.000 
#
# Total GULP energy -133856.804736 kJ/mol
# GULP energy per Si atom -5577.366864 kJ/mol
# Density = 2.316173 g / cm^3
# Si number density = 23.214568 Si / 1000 Ang^3
#
#
#
# Elastic Constant Matrix: (Units=GPa)
#
#
# Indices 1 2 3 4 5 6 
#
# 1 108.4110 46.1297 34.6291 0.0000 7.9102 0.0000
# 2 46.1297 97.0563 37.8908 0.0000 2.2769 0.0000
# 3 34.6291 37.8908 118.5617 0.0000 3.5400 0.0000
# 4 0.0000 0.0000 0.0000 29.0572 0.0000 -3.9129
# 5 7.9102 2.2769 3.5400 0.0000 10.2994 0.0000
# 6 0.0000 0.0000 0.0000 -3.9129 0.0000 59.0922
#
#
#
# Elastic Compliance Matrix: (Units=1/GPa)
#
#
# Indices 1 2 3 4 5 6 
#
# 1 0.012532 -0.005066 -0.001806 0.000000 -0.007884 0.000000
# 2 -0.005066 0.013838 -0.002998 0.000000 0.001862 0.000000
# 3 -0.001806 -0.002998 0.009961 0.000000 -0.001374 0.000000
# 4 0.000000 0.000000 0.000000 0.034725 0.000000 0.002299
# 5 -0.007884 0.001862 -0.001374 0.000000 0.103208 0.000000
# 6 0.000000 0.000000 0.000000 0.002299 0.000000 0.017075
#
#
# Mechanical properties :
#
#
# Convention : Reuss Voigt Hill
#
# Bulk Modulus (GPa) = 60.27611 62.36981 61.32296
# Shear Modulus (GPa) = 23.08293 33.38172 28.23233
#
# Velocity S-wave (km/s) = 3.15672 3.79616 3.49111
# Velocity P-wave (km/s) = 6.26958 6.79260 6.53633
#
# Compressibility (1/GPa) = 0.01659032
#
# Stress axis : x y z
#
# Youngs Moduli (GPa) = 79.79561 72.26399 100.39053
#
# Poissons Ratio (x) = 0.36612 0.18128
# Poissons Ratio (y) = 0.40428 0.30100
# Poissons Ratio (z) = 0.14409 0.21667
#
# Static dielectric constant tensor:
#      x y z
#    x 1.995800 0.000000 -0.055080 
#    y 0.000000 2.085770 0.000000 
#    z -0.055080 0.000000 1.853870 
# 
# From -- ./inp_files/45910.got.cif
#   From: 2010.05.17/outbox.cif.g08.bks.cpg/sg14_23_cif.got.tgz:45910.got - 2010.06.03 17:49:19.
