data_PCOD9243673
_publ_section_title
;
Structure prediction by ZEFSAII (Michael W. Deem and Ramdas Pophale) SiO2 
 PCOD9243673
Probable space group: P 21/C
;
_chemical_formula_sum "Si O2"
_cell_formula_units_Z 26
_cell_length_a 10.910295
_cell_length_b 12.320674
_cell_length_c 9.074597
_cell_angle_alpha 90.000000
_cell_angle_beta 93.831333
_cell_angle_gamma 90.000000
_cell_volume 1217.100963
_symmetry_space_group_name_H-M "P 21/C"
_symmetry_group_IT_number 14
_symmetry_cell_setting 'monoclinic'
loop_
_space_group_symop_operation_xyz
x,y,z
-x,1/2+y,1/2-z
-x,-y,-z
x,1/2-y,1/2+z
loop_
_atom_site_type_symbol
_atom_site_label
_atom_site_fract_x
_atom_site_fract_y
_atom_site_fract_z
Si Si1 0.746534 0.692875 0.305476
Si Si2 0.324543 0.682828 0.961060
Si Si3 0.151749 0.995132 0.342587
Si Si4 0.500000 0.500000 0.500000
Si Si5 0.883903 0.580830 0.827563
Si Si6 0.287013 0.607878 0.293571
Si Si7 0.429986 0.229268 0.949143
O O1 0.823933 0.586912 0.275396
O O2 0.826107 0.801636 0.296433
O O3 0.680914 0.687906 0.456957
O O4 0.633560 0.702202 0.182625
O O5 0.267460 0.583792 0.866609
O O6 0.258018 0.792353 0.900318
O O7 0.470229 0.699957 0.955685
O O8 0.304300 0.658379 0.132191
O O9 0.135373 0.053452 0.500436
O O10 0.027910 0.927935 0.305982
O O11 0.410165 0.554562 0.367633
O O12 0.503069 0.618455 0.589320
O O13 0.813186 0.487049 0.731810
#
# Coordination Sequence:
#
# PCOD9243673 Si02
#       7
#     4   4   4   2   4   4   4
#     4  12  23  42  66  99 126 177 219 273 335 402
#     4  10  23  43  64 103 130 178 214 280 333 407
#     4  10  24  43  69  94 134 178 226 271 338 397
#     4  10  20  38  62  94 132 176 204 276 324 388
#     4  10  22  45  67  93 133 181 220 286 322 400
#     4  10  21  41  67  94 135 173 227 270 343 388
#     4  11  23  38  65  94 136 165 220 269 332 397
#
# _framework density 21.362237
#
# number of rings (size 3 to 8) (size 9 to 14) (size 15 to 20)
#    0.000    1.538    3.077    1.846    2.154    4.308 
#    0.000    0.769    0.000    0.000    0.000    0.000 
#    0.000    0.000    0.000    0.000    0.000    0.000 
#
# Total GULP energy -144767.795726 kJ/mol
# GULP energy per Si atom -5567.992143 kJ/mol
# Density = 2.131362 g / cm^3
# Si number density = 21.362237 Si / 1000 Ang^3
#
#
#
# Elastic Constant Matrix: (Units=GPa)
#
#
# Indices 1 2 3 4 5 6 
#
# 1 74.8947 41.5639 16.3519 0.0000 10.1368 0.0000
# 2 41.5639 92.1295 14.2925 0.0000 6.8781 0.0000
# 3 16.3519 14.2925 54.7212 0.0000 10.8242 0.0000
# 4 0.0000 0.0000 0.0000 25.6220 0.0000 16.6057
# 5 10.1368 6.8781 10.8242 0.0000 18.8117 0.0000
# 6 0.0000 0.0000 0.0000 16.6057 0.0000 2.7967
#
#
#
# Elastic Compliance Matrix: (Units=1/GPa)
#
#
# Indices 1 2 3 4 5 6 
#
# 1 0.018997 -0.007740 -0.002471 0.000000 -0.005985 0.000000
# 2 -0.007740 0.014594 -0.001431 0.000000 -0.000342 0.000000
# 3 -0.002471 -0.001431 0.021463 0.000000 -0.010494 0.000000
# 4 0.000000 0.000000 0.000000 -0.013703 0.000000 0.081363
# 5 -0.005985 -0.000342 -0.010494 0.000000 0.062547 0.000000
# 6 0.000000 0.000000 0.000000 0.081363 0.000000 -0.125540
#
#
# Mechanical properties :
#
#
# Convention : Reuss Voigt Hill
#
# Bulk Modulus (GPa) = 31.47820 40.68466 36.08143
# Shear Modulus (GPa) = 408.75760 19.41522 214.08641
#
# Velocity S-wave (km/s) = 13.84779 3.01800 10.02172
# Velocity P-wave (km/s) = 16.44534 5.58846 12.28169
#
# Compressibility (1/GPa) = 0.03176801
#
# Stress axis : x y z
#
# Youngs Moduli (GPa) = 52.63906 68.52204 46.59269
#
# Poissons Ratio (x) = 0.53039 0.11515
# Poissons Ratio (y) = 0.40745 0.06668
# Poissons Ratio (z) = 0.13009 0.09807
#
# Static dielectric constant tensor:
#      x y z
#    x 1.782020 0.000000 -0.015730 
#    y 0.000000 1.774870 0.000000 
#    z -0.015730 0.000000 1.768510 
# 
# From -- ./inp_files/12473.got.cif
#   From: 2010.05.17/outbox.cif.g08.bks.cpg/sg14_7_cif.got.tgz:12473.got - 2010.06.03 17:49:19.
