data_PCOD9243550
_publ_section_title
;
Structure prediction by ZEFSAII (Michael W. Deem and Ramdas Pophale) SiO2 
 PCOD9243550
Probable space group: P 21/C
;
_chemical_formula_sum "Si O2"
_cell_formula_units_Z 20
_cell_length_a 7.610816
_cell_length_b 11.068333
_cell_length_c 11.425691
_cell_angle_alpha 90.000000
_cell_angle_beta 56.286210
_cell_angle_gamma 90.000000
_cell_volume 800.618393
_symmetry_space_group_name_H-M "P 21/C"
_symmetry_group_IT_number 14
_symmetry_cell_setting 'monoclinic'
loop_
_space_group_symop_operation_xyz
x,y,z
-x,1/2+y,1/2-z
-x,-y,-z
x,1/2-y,1/2+z
loop_
_atom_site_type_symbol
_atom_site_label
_atom_site_fract_x
_atom_site_fract_y
_atom_site_fract_z
Si Si1 0.268983 0.521105 0.670407
Si Si2 0.116001 0.553526 0.070294
Si Si3 0.837277 0.603689 0.519445
Si Si4 0.469241 0.500887 0.208731
Si Si5 0.165281 0.716454 0.239387
O O1 0.298386 0.455597 0.536875
O O2 0.389006 0.456093 0.732309
O O3 0.297218 0.662375 0.680711
O O4 0.011400 0.516654 0.781781
O O5 0.086080 0.686869 0.136251
O O6 0.360068 0.538556 0.949951
O O7 0.000000 0.500000 0.000000
O O8 0.677311 0.608408 0.687840
O O9 0.000000 0.500000 0.500000
O O10 0.974820 0.709112 0.405852
O O11 0.324418 0.609583 0.217946
#
# Coordination Sequence:
#
# PCOD9243550 Si02
#       5
#     4   4   4   4   4
#     4  10  21  38  59  83 115 153 189 231 284 336
#     4   9  20  38  58  83 115 147 189 237 280 335
#     4   9  20  38  58  83 115 147 189 237 280 335
#     4  10  20  38  60  86 116 148 190 236 278 336
#     4  10  21  38  59  83 115 153 189 231 284 336
#
# _framework density 24.980688000000001
#
# number of rings (size 3 to 8) (size 9 to 14) (size 15 to 20)
#    0.000    2.400    0.000    1.200    0.000    8.000 
#    0.000   16.000    0.000    0.000    0.000    0.000 
#    0.000    0.000    0.000    0.000    0.000    0.000 
#
# Total GULP energy -111399.320647 kJ/mol
# GULP energy per Si atom -5569.966032 kJ/mol
# Density = 2.492383 g / cm^3
# Si number density = 24.980688 Si / 1000 Ang^3
#
#
#
# Elastic Constant Matrix: (Units=GPa)
#
#
# Indices 1 2 3 4 5 6 
#
# 1 99.4811 14.0044 20.1843 0.0000 18.7284 0.0000
# 2 14.0044 64.8409 17.1446 0.0000 -3.6740 0.0000
# 3 20.1843 17.1446 144.9763 0.0000 -36.0604 0.0000
# 4 0.0000 0.0000 0.0000 23.3202 0.0000 -3.5806
# 5 18.7284 -3.6740 -36.0604 0.0000 56.2999 0.0000
# 6 0.0000 0.0000 0.0000 -3.5806 0.0000 24.5548
#
#
#
# Elastic Compliance Matrix: (Units=1/GPa)
#
#
# Indices 1 2 3 4 5 6 
#
# 1 0.012090 -0.002179 -0.002928 0.000000 -0.006039 0.000000
# 2 -0.002179 0.016315 -0.001405 0.000000 0.000890 0.000000
# 3 -0.002928 -0.001405 0.009148 0.000000 0.006742 0.000000
# 4 0.000000 0.000000 0.000000 0.043863 0.000000 0.006396
# 5 -0.006039 0.000890 0.006742 0.000000 0.024147 0.000000
# 6 0.000000 0.000000 0.000000 0.006396 0.000000 0.041658
#
#
# Mechanical properties :
#
#
# Convention : Reuss Voigt Hill
#
# Bulk Modulus (GPa) = 40.76635 45.77389 43.27012
# Shear Modulus (GPa) = 29.68749 38.03264 33.86006
#
# Velocity S-wave (km/s) = 3.45108 3.90613 3.68564
# Velocity P-wave (km/s) = 5.67755 6.22152 5.95575
#
# Compressibility (1/GPa) = 0.02453004
#
# Stress axis : x y z
#
# Youngs Moduli (GPa) = 82.71379 61.29377 109.31027
#
# Poissons Ratio (x) = 0.13358 0.32002
# Poissons Ratio (y) = 0.18026 0.15354
# Poissons Ratio (z) = 0.24215 0.08609
#
# Static dielectric constant tensor:
#      x y z
#    x 2.141550 0.000000 -0.073550 
#    y 0.000000 2.135100 0.000000 
#    z -0.073550 0.000000 2.095140 
# 
# From -- ./inp_files/23740.got.cif
#   From: 2010.05.17/outbox.cif.g08.bks.cpg/sg14_12_cif.got.tgz:23740.got - 2010.06.03 17:49:19.
