data_PCOD9243981
_publ_section_title
;
Structure prediction by ZEFSAII (Michael W. Deem and Ramdas Pophale) SiO2 
 PCOD9243981
Probable space group: P 21/C
;
_chemical_formula_sum "Si O2"
_cell_formula_units_Z 32
_cell_length_a 11.848905
_cell_length_b 22.215623
_cell_length_c 8.016029
_cell_angle_alpha 90.000000
_cell_angle_beta 133.074391
_cell_angle_gamma 90.000000
_cell_volume 1541.334686
_symmetry_space_group_name_H-M "P 21/C"
_symmetry_group_IT_number 14
_symmetry_cell_setting 'monoclinic'
loop_
_space_group_symop_operation_xyz
x,y,z
-x,1/2+y,1/2-z
-x,-y,-z
x,1/2-y,1/2+z
loop_
_atom_site_type_symbol
_atom_site_label
_atom_site_fract_x
_atom_site_fract_y
_atom_site_fract_z
Si Si1 0.573768 0.497331 0.320979
Si Si2 0.006049 0.253907 0.970334
Si Si3 0.669611 0.075315 0.221699
Si Si4 0.339269 0.418176 0.870878
Si Si5 0.566009 0.313905 0.044553
Si Si6 0.175881 0.327490 0.886235
Si Si7 0.837412 0.329070 0.056106
Si Si8 0.520491 0.317048 0.369750
O O1 0.445308 0.542882 0.265168
O O2 0.677481 0.470791 0.574470
O O3 0.674386 0.531324 0.283831
O O4 0.467277 0.446015 0.127166
O O5 0.862833 0.279565 0.934557
O O6 0.964533 0.196666 0.813134
O O7 0.057410 0.311133 0.912951
O O8 0.140075 0.227124 0.222701
O O9 0.822720 0.104905 0.457606
O O10 0.581931 0.132452 0.054435
O O11 0.422703 0.359322 0.878752
O O12 0.185643 0.392083 0.803741
O O13 0.689441 0.328563 0.027145
O O14 0.523433 0.245773 0.966295
O O15 0.614302 0.318313 0.288628
O O16 0.344634 0.325088 0.136152
#
# Coordination Sequence:
#
# PCOD9243981 Si02
#       8
#     4   4   4   4   4   4   4   4
#     4  10  21  39  59  96 119 158 193 246 327 348
#     4  10  23  40  59  82 125 170 199 234 294 353
#     4  11  21  37  61  94 123 153 191 256 315 356
#     4  10  20  39  63  91 121 154 194 255 312 358
#     4  11  20  34  56  94 123 145 188 252 325 357
#     4  10  20  40  56  87 119 161 199 241 288 369
#     4  11  22  38  56  87 121 162 198 242 287 371
#     4  11  21  33  59  96 123 145 188 257 326 363
#
# _framework density 20.761227000000002
#
# number of rings (size 3 to 8) (size 9 to 14) (size 15 to 20)
#    0.000    1.500    3.750    3.750    0.000    1.000 
#    4.500    0.000    0.000    4.500    0.000    0.000 
#    0.000    0.000    0.000    0.000    0.000    0.000 
#
# Total GULP energy -178213.583216 kJ/mol
# GULP energy per Si atom -5569.174476 kJ/mol
# Density = 2.071397 g / cm^3
# Si number density = 20.761227 Si / 1000 Ang^3
#
#
#
# Elastic Constant Matrix: (Units=GPa)
#
#
# Indices 1 2 3 4 5 6 
#
# 1 79.4000 27.2060 26.3323 0.0000 -12.7450 0.0000
# 2 27.2060 89.8663 7.6008 0.0000 -8.8951 0.0000
# 3 26.3323 7.6008 28.4246 0.0000 -10.8355 0.0000
# 4 0.0000 0.0000 0.0000 36.2097 0.0000 -4.5475
# 5 -12.7450 -8.8951 -10.8355 0.0000 22.4694 0.0000
# 6 0.0000 0.0000 0.0000 -4.5475 0.0000 36.9291
#
#
#
# Elastic Compliance Matrix: (Units=1/GPa)
#
#
# Indices 1 2 3 4 5 6 
#
# 1 0.019889 -0.004465 -0.016669 0.000000 0.001476 0.000000
# 2 -0.004465 0.012648 0.002080 0.000000 0.003477 0.000000
# 3 -0.016669 0.002080 0.057312 0.000000 0.019006 0.000000
# 4 0.000000 0.000000 0.000000 0.028051 0.000000 0.003454
# 5 0.001476 0.003477 0.019006 0.000000 0.055884 0.000000
# 6 0.000000 0.000000 0.000000 0.003454 0.000000 0.027504
#
#
# Mechanical properties :
#
#
# Convention : Reuss Voigt Hill
#
# Bulk Modulus (GPa) = 19.32716 35.55212 27.43964
# Shear Modulus (GPa) = 19.48236 28.22510 23.85373
#
# Velocity S-wave (km/s) = 3.06666 3.69115 3.39330
# Velocity P-wave (km/s) = 4.67639 5.94370 5.34772
#
# Compressibility (1/GPa) = 0.05174067
#
# Stress axis : x y z
#
# Youngs Moduli (GPa) = 50.27798 79.06554 17.44850
#
# Poissons Ratio (x) = 0.35306 0.29085
# Poissons Ratio (y) = 0.22451 -0.03630
# Poissons Ratio (z) = 0.83807 -0.16447
#
# Static dielectric constant tensor:
#      x y z
#    x 1.790860 0.000000 -0.051350 
#    y 0.000000 1.761930 0.000000 
#    z -0.051350 0.000000 1.790480 
# 
# From -- ./inp_files/14335.got.cif
#   From: 2010.05.17/outbox.cif.g08.bks.cpg/sg14_8_cif.got.tgz:14335.got - 2010.06.03 17:49:19.
