data_PCOD9243948
_publ_section_title
;
Structure prediction by ZEFSAII (Michael W. Deem and Ramdas Pophale) SiO2 
 PCOD9243948
Probable space group: P 21/C
;
_chemical_formula_sum "Si O2"
_cell_formula_units_Z 26
_cell_length_a 20.025958
_cell_length_b 7.400392
_cell_length_c 7.114039
_cell_angle_alpha 90.000000
_cell_angle_beta 63.786594
_cell_angle_gamma 90.000000
_cell_volume 945.870694
_symmetry_space_group_name_H-M "P 21/C"
_symmetry_group_IT_number 14
_symmetry_cell_setting 'monoclinic'
loop_
_space_group_symop_operation_xyz
x,y,z
-x,1/2+y,1/2-z
-x,-y,-z
x,1/2-y,1/2+z
loop_
_atom_site_type_symbol
_atom_site_label
_atom_site_fract_x
_atom_site_fract_y
_atom_site_fract_z
Si Si1 0.411710 0.057024 0.269424
Si Si2 0.904442 0.985010 0.317203
Si Si3 0.277923 0.517429 0.414828
Si Si4 0.112526 0.605564 0.568703
Si Si5 0.434198 0.020170 0.800340
Si Si6 0.258928 0.103482 0.366052
Si Si7 0.000000 0.000000 0.500000
O O1 0.418703 0.273285 0.268214
O O2 0.324962 0.017802 0.410273
O O3 0.476670 0.000504 0.331441
O O4 0.425920 0.994630 0.037154
O O5 0.913285 0.186296 0.395615
O O6 0.821676 0.919767 0.450084
O O7 0.965085 0.884667 0.365391
O O8 0.915267 0.009859 0.084472
O O9 0.203135 0.619845 0.446846
O O10 0.364068 0.585487 0.295185
O O11 0.272389 0.317595 0.332059
O O12 0.265680 0.482783 0.652744
O O13 0.081512 0.496112 0.784549
#
# Coordination Sequence:
#
# PCOD9243948 Si02
#       7
#     4   4   4   4   4   4   2
#     4   9  19  35  57  87 126 165 211 260 309 368
#     4  12  25  47  70  96 131 168 213 264 319 385
#     4  10  20  39  62  92 128 169 214 263 319 381
#     4  12  25  47  70  96 131 168 213 264 319 385
#     4   9  19  35  57  87 126 165 211 260 309 368
#     4  10  20  39  62  92 128 169 214 263 319 381
#     4  12  26  48  68 100 130 164 206 274 318 390
#
# _framework density 27.487902999999999
#
# number of rings (size 3 to 8) (size 9 to 14) (size 15 to 20)
#    0.000    1.538    3.077    1.385    0.000    4.308 
#    5.538    3.077    0.000    0.000    0.000    0.000 
#    0.000    0.000    0.000    0.000    0.000    0.000 
#
# Total GULP energy -145087.941390 kJ/mol
# GULP energy per Si atom -5580.305438 kJ/mol
# Density = 2.742534 g / cm^3
# Si number density = 27.487903 Si / 1000 Ang^3
#
#
#
# Elastic Constant Matrix: (Units=GPa)
#
#
# Indices 1 2 3 4 5 6 
#
# 1 179.3422 3.8507 73.8881 0.0000 -25.6578 0.0000
# 2 3.8507 40.1474 3.9972 0.0000 -0.2464 0.0000
# 3 73.8881 3.9972 106.6072 0.0000 3.0962 0.0000
# 4 0.0000 0.0000 0.0000 -117.8462 0.0000 183.8265
# 5 -25.6578 -0.2464 3.0962 0.0000 61.3922 0.0000
# 6 0.0000 0.0000 0.0000 183.8265 0.0000 -337.3940
#
#
#
# Elastic Compliance Matrix: (Units=1/GPa)
#
#
# Indices 1 2 3 4 5 6 
#
# 1 0.008658 -0.000198 -0.006107 0.000000 0.003926 0.000000
# 2 -0.000198 0.025007 -0.000802 0.000000 0.000058 0.000000
# 3 -0.006107 -0.000802 0.013738 0.000000 -0.003248 0.000000
# 4 0.000000 0.000000 0.000000 -0.056530 0.000000 -0.030800
# 5 0.003926 0.000058 -0.003248 0.000000 0.018093 0.000000
# 6 0.000000 0.000000 0.000000 -0.030800 0.000000 -0.019745
#
#
# Mechanical properties :
#
#
# Convention : Reuss Voigt Hill
#
# Bulk Modulus (GPa) = 30.13142 54.39655 42.26398
# Shear Modulus (GPa) = 344.85442 -62.47888 141.18777
#
# Velocity S-wave (km/s) = 11.21290 -4.77273 7.17462
# Velocity P-wave (km/s) = 13.36504 3.24649 9.16746
#
# Compressibility (1/GPa) = 0.03318795
#
# Stress axis : x y z
#
# Youngs Moduli (GPa) = 115.49995 39.98812 72.79317
#
# Poissons Ratio (x) = 0.00793 0.44457
# Poissons Ratio (y) = 0.02290 0.05837
# Poissons Ratio (z) = 0.70540 0.03207
#
# Static dielectric constant tensor:
#      x y z
#    x 0.917110 0.000000 -0.674400 
#    y 0.000000 2.203850 0.000000 
#    z -0.674400 0.000000 1.850830 
# 
# From -- ./inp_files/18485.got.cif
#   From: 2010.05.17/outbox.cif.g08.bks.cpg/sg14_10_cif.got.tgz:18485.got - 2010.06.03 17:49:19.
