data_PCOD9243329
_publ_section_title
;
Structure prediction by ZEFSAII (Michael W. Deem and Ramdas Pophale) SiO2 
 PCOD9243329
Probable space group: P 21/C
;
_chemical_formula_sum "Si O2"
_cell_formula_units_Z 24
_cell_length_a 15.532654
_cell_length_b 14.009488
_cell_length_c 5.593393
_cell_angle_alpha 90.000000
_cell_angle_beta 126.843803
_cell_angle_gamma 90.000000
_cell_volume 974.050623
_symmetry_space_group_name_H-M "P 21/C"
_symmetry_group_IT_number 14
_symmetry_cell_setting 'monoclinic'
loop_
_space_group_symop_operation_xyz
x,y,z
-x,1/2+y,1/2-z
-x,-y,-z
x,1/2-y,1/2+z
loop_
_atom_site_type_symbol
_atom_site_label
_atom_site_fract_x
_atom_site_fract_y
_atom_site_fract_z
Si Si1 0.125870 0.509491 0.658335
Si Si2 0.872496 0.295739 0.130666
Si Si3 0.620314 0.037255 0.223896
Si Si4 0.445448 0.747451 0.877482
Si Si5 0.866130 0.793038 0.898032
Si Si6 0.704512 0.057945 0.872224
O O1 0.159190 0.593346 0.895814
O O2 0.160978 0.400465 0.722715
O O3 0.167843 0.554232 0.476423
O O4 0.000000 0.500000 0.500000
O O5 0.834867 0.245557 0.314674
O O6 0.002673 0.286725 0.360700
O O7 0.618290 0.152869 0.224192
O O8 0.661117 0.009363 0.554909
O O9 0.676466 0.005867 0.070866
O O10 0.500000 0.000000 0.000000
O O11 0.508094 0.751176 0.731921
O O12 0.363187 0.657654 0.737498
O O13 0.829832 0.730344 0.608803
#
# Coordination Sequence:
#
# PCOD9243329 Si02
#       6
#     4   4   4   4   4   4
#     4  10  22  39  62  92 130 175 214 256 313 374
#     4   9  19  33  52  82 116 155 205 253 303 362
#     4  10  20  37  61  87 119 154 193 252 318 375
#     4   8  16  31  53  83 118 147 184 240 300 362
#     4   9  19  36  55  75 109 160 214 260 297 347
#     4  10  21  36  58  89 122 155 201 249 296 366
#
# _framework density 24.639377
#
# number of rings (size 3 to 8) (size 9 to 14) (size 15 to 20)
#    0.000    2.667    0.000    0.500    0.000    8.000 
#    0.000   10.833    0.000   18.000    0.000    0.000 
#    0.000    0.000    0.000    0.000    0.000    0.000 
#
# Total GULP energy -133770.754775 kJ/mol
# GULP energy per Si atom -5573.781449 kJ/mol
# Density = 2.458330 g / cm^3
# Si number density = 24.639377 Si / 1000 Ang^3
#
#
#
# Elastic Constant Matrix: (Units=GPa)
#
#
# Indices 1 2 3 4 5 6 
#
# 1 117.4905 13.8040 74.0156 0.0000 -35.5417 0.0000
# 2 13.8040 86.9174 41.8648 0.0000 0.3758 0.0000
# 3 74.0156 41.8648 163.5052 0.0000 -57.8726 0.0000
# 4 0.0000 0.0000 0.0000 9.0132 0.0000 -5.2135
# 5 -35.5417 0.3758 -57.8726 0.0000 48.6496 0.0000
# 6 0.0000 0.0000 0.0000 -5.2135 0.0000 15.7345
#
#
#
# Elastic Compliance Matrix: (Units=1/GPa)
#
#
# Indices 1 2 3 4 5 6 
#
# 1 0.012363 0.000019 -0.004154 0.000000 0.004091 0.000000
# 2 0.000019 0.014705 -0.006580 0.000000 -0.007926 0.000000
# 3 -0.004154 -0.006580 0.014897 0.000000 0.014738 0.000000
# 4 0.000000 0.000000 0.000000 0.137253 0.000000 0.045478
# 5 0.004091 -0.007926 0.014738 0.000000 0.041137 0.000000
# 6 0.000000 0.000000 0.000000 0.045478 0.000000 0.078623
#
#
# Mechanical properties :
#
#
# Convention : Reuss Voigt Hill
#
# Bulk Modulus (GPa) = 48.68852 69.69799 59.19325
# Shear Modulus (GPa) = 15.27867 30.56139 22.92003
#
# Velocity S-wave (km/s) = 2.49286 3.52568 3.05326
# Velocity P-wave (km/s) = 5.29992 6.70243 6.04201
#
# Compressibility (1/GPa) = 0.02053872
#
# Stress axis : x y z
#
# Youngs Moduli (GPa) = 80.88507 68.00178 67.12549
#
# Poissons Ratio (x) = -0.00132 0.27881
# Poissons Ratio (y) = -0.00157 0.44166
# Poissons Ratio (z) = 0.33596 0.44742
#
# Static dielectric constant tensor:
#      x y z
#    x 2.071120 0.000000 0.014840 
#    y 0.000000 1.985810 0.000000 
#    z 0.014840 0.000000 2.010560 
# 
# From -- ./inp_files/3564.got.cif
#   From: 2010.05.17/outbox.cif.g08.bks.cpg/sg14_2_cif.got.tgz:3564.got - 2010.06.03 17:49:19.
