data_PCOD9243758
_publ_section_title
;
Structure prediction by ZEFSAII (Michael W. Deem and Ramdas Pophale) SiO2 
 PCOD9243758
Probable space group: P 21/C
;
_chemical_formula_sum "Si O2"
_cell_formula_units_Z 30
_cell_length_a 6.006219
_cell_length_b 15.793673
_cell_length_c 15.771696
_cell_angle_alpha 90.000000
_cell_angle_beta 52.447323
_cell_angle_gamma 90.000000
_cell_volume 1186.103763
_symmetry_space_group_name_H-M "P 21/C"
_symmetry_group_IT_number 14
_symmetry_cell_setting 'monoclinic'
loop_
_space_group_symop_operation_xyz
x,y,z
-x,1/2+y,1/2-z
-x,-y,-z
x,1/2-y,1/2+z
loop_
_atom_site_type_symbol
_atom_site_label
_atom_site_fract_x
_atom_site_fract_y
_atom_site_fract_z
Si Si1 0.000000 0.000000 0.000000
Si Si2 0.530253 0.973070 0.192537
Si Si3 0.294990 0.388240 0.181603
Si Si4 0.830653 0.152397 0.915299
Si Si5 0.920236 0.450455 0.843726
Si Si6 0.760805 0.139109 0.211039
Si Si7 0.148974 0.318997 0.904149
Si Si8 0.722934 0.744791 0.950536
O O1 0.159715 0.928492 0.026742
O O2 0.703176 0.940375 0.074050
O O3 0.233402 0.015354 0.251716
O O4 0.767181 0.049905 0.156516
O O5 0.529313 0.914484 0.275826
O O6 0.366031 0.305543 0.113197
O O7 0.984859 0.372024 0.292176
O O8 0.278389 0.468895 0.123094
O O9 0.012323 0.230025 0.912236
O O10 0.530157 0.193200 0.971731
O O11 0.951100 0.397174 0.922327
O O12 0.835837 0.386026 0.789359
O O13 0.442081 0.171189 0.284932
O O14 0.986750 0.205538 0.128805
O O15 0.224984 0.319830 0.984875
#
# Coordination Sequence:
#
# PCOD9243758 Si02
#       8
#     2   4   4   4   4   4   4   4
#     4  10  20  38  64  96 126 162 212 262 320 388
#     4   9  20  38  63  92 125 166 213 269 330 392
#     4  10  24  41  63  96 131 172 221 274 338 404
#     4  11  25  44  67 101 138 173 224 278 332 402
#     4  10  21  43  66  89 129 173 218 277 334 398
#     4  10  22  42  64  91 127 168 216 270 329 387
#     4  11  24  42  66  96 131 174 223 275 334 403
#     4  12  24  40  66  98 134 178 223 276 339 401
#
# _framework density 25.292898000000001
#
# number of rings (size 3 to 8) (size 9 to 14) (size 15 to 20)
#    0.000    1.600    0.000    4.000    0.000   10.133 
#    0.000   15.333    0.000    0.000    0.000    0.000 
#    0.000    0.000    0.000    0.000    0.000    0.000 
#
# Total GULP energy -167649.109665 kJ/mol
# GULP energy per Si atom -5588.303656 kJ/mol
# Density = 2.523533 g / cm^3
# Si number density = 25.292898 Si / 1000 Ang^3
#
#
#
# Elastic Constant Matrix: (Units=GPa)
#
#
# Indices 1 2 3 4 5 6 
#
# 1 78.0363 39.3805 24.9681 0.0000 0.4497 0.0000
# 2 39.3805 72.2042 30.9880 0.0000 18.7303 0.0000
# 3 24.9681 30.9880 51.7275 0.0000 12.6938 0.0000
# 4 0.0000 0.0000 0.0000 44.3513 0.0000 12.8732
# 5 0.4497 18.7303 12.6938 0.0000 29.8981 0.0000
# 6 0.0000 0.0000 0.0000 12.8732 0.0000 55.4317
#
#
#
# Elastic Compliance Matrix: (Units=1/GPa)
#
#
# Indices 1 2 3 4 5 6 
#
# 1 0.019941 -0.010895 -0.005246 0.000000 0.008753 0.000000
# 2 -0.010895 0.026353 -0.007275 0.000000 -0.013257 0.000000
# 3 -0.005246 -0.007275 0.028002 0.000000 -0.007252 0.000000
# 4 0.000000 0.000000 0.000000 0.024177 0.000000 -0.005615
# 5 0.008753 -0.013257 -0.007252 0.000000 0.044699 0.000000
# 6 0.000000 0.000000 0.000000 -0.005615 0.000000 0.019344
#
#
# Mechanical properties :
#
#
# Convention : Reuss Voigt Hill
#
# Bulk Modulus (GPa) = 36.41197 43.62679 40.01938
# Shear Modulus (GPa) = 22.88298 33.04497 27.96398
#
# Velocity S-wave (km/s) = 3.01112 3.61846 3.32867
# Velocity P-wave (km/s) = 5.14942 5.89439 5.53445
#
# Compressibility (1/GPa) = 0.02746350
#
# Stress axis : x y z
#
# Youngs Moduli (GPa) = 50.14891 37.94671 35.71120
#
# Poissons Ratio (x) = 0.41342 0.18735
# Poissons Ratio (y) = 0.54635 0.25980
# Poissons Ratio (z) = 0.26310 0.27607
#
# Static dielectric constant tensor:
#      x y z
#    x 2.011370 0.000000 0.000970 
#    y 0.000000 1.927460 0.000000 
#    z 0.000970 0.000000 1.276600 
# 
# From -- ./inp_files/37828.got.cif
#   From: 2010.05.17/outbox.cif.g08.bks.cpg/sg14_19_cif.got.tgz:37828.got - 2010.06.03 17:49:19.
