data_PCOD9243424
_publ_section_title
;
Structure prediction by ZEFSAII (Michael W. Deem and Ramdas Pophale) SiO2 
 PCOD9243424
Probable space group: P 21/C
;
_chemical_formula_sum "Si O2"
_cell_formula_units_Z 28
_cell_length_a 5.312721
_cell_length_b 33.623851
_cell_length_c 9.096659
_cell_angle_alpha 90.000000
_cell_angle_beta 50.169813
_cell_angle_gamma 90.000000
_cell_volume 1247.892441
_symmetry_space_group_name_H-M "P 21/C"
_symmetry_group_IT_number 14
_symmetry_cell_setting 'monoclinic'
loop_
_space_group_symop_operation_xyz
x,y,z
-x,1/2+y,1/2-z
-x,-y,-z
x,1/2-y,1/2+z
loop_
_atom_site_type_symbol
_atom_site_label
_atom_site_fract_x
_atom_site_fract_y
_atom_site_fract_z
Si Si1 0.285341 0.298143 0.523860
Si Si2 0.158839 0.841797 0.583785
Si Si3 0.093222 0.663069 0.787876
Si Si4 0.891107 0.003962 0.870837
Si Si5 0.951583 0.917888 0.803357
Si Si6 0.305688 0.224405 0.696359
Si Si7 0.156910 0.590262 0.566908
O O1 0.517568 0.333440 0.381334
O O2 0.417513 0.266321 0.592763
O O3 0.214638 0.274415 0.400946
O O4 0.999314 0.319425 0.719080
O O5 0.969916 0.844423 0.498068
O O6 0.448076 0.811801 0.430954
O O7 0.176502 0.887196 0.629001
O O8 0.009037 0.628428 0.705434
O O9 0.000094 0.708101 0.780804
O O10 0.961054 0.049817 0.806947
O O11 0.025981 0.964401 0.741742
O O12 0.500000 0.000000 0.000000
O O13 0.000000 0.000000 0.000000
O O14 0.560073 0.910181 0.918828
O O15 0.031709 0.911188 0.946025
#
# Coordination Sequence:
#
# PCOD9243424 Si02
#       7
#     4   4   4   4   4   4   4
#     4  11  23  43  60  87 120 160 209 257 317 370
#     4  11  24  39  61  91 123 161 210 255 317 373
#     4  11  24  39  61  90 124 161 209 257 316 372
#     4   8  16  32  57  91 119 161 209 251 306 369
#     4  10  20  37  64  91 125 167 209 257 312 371
#     4  11  25  39  62  87 120 160 205 265 308 379
#     4  10  20  37  64  90 127 165 210 258 310 372
#
# _framework density 22.437832
#
# number of rings (size 3 to 8) (size 9 to 14) (size 15 to 20)
#    0.000    1.714    1.429    2.571    4.000    5.714 
#    0.000    0.714    0.000    0.857    0.000    0.000 
#    0.000    0.000    0.000    0.000    0.000    0.000 
#
# Total GULP energy -155938.055806 kJ/mol
# GULP energy per Si atom -5569.216279 kJ/mol
# Density = 2.238676 g / cm^3
# Si number density = 22.437832 Si / 1000 Ang^3
#
#
#
# Elastic Constant Matrix: (Units=GPa)
#
#
# Indices 1 2 3 4 5 6 
#
# 1 71.7974 -9.8280 8.6750 0.0000 12.5798 0.0000
# 2 -9.8280 81.6560 5.9040 0.0000 3.1985 0.0000
# 3 8.6750 5.9040 90.9851 0.0000 16.5827 0.0000
# 4 0.0000 0.0000 0.0000 21.7772 0.0000 2.2591
# 5 12.5798 3.1985 16.5827 0.0000 29.5494 0.0000
# 6 0.0000 0.0000 0.0000 2.2591 0.0000 28.9890
#
#
#
# Elastic Compliance Matrix: (Units=1/GPa)
#
#
# Indices 1 2 3 4 5 6 
#
# 1 0.015422 0.002143 -0.000413 0.000000 -0.006566 0.000000
# 2 0.002143 0.012628 -0.000678 0.000000 -0.001899 0.000000
# 3 -0.000413 -0.000678 0.012285 0.000000 -0.006645 0.000000
# 4 0.000000 0.000000 0.000000 0.046294 0.000000 -0.003608
# 5 -0.006566 -0.001899 -0.006645 0.000000 0.040572 0.000000
# 6 0.000000 0.000000 0.000000 -0.003608 0.000000 0.034777
#
#
# Mechanical properties :
#
#
# Convention : Reuss Voigt Hill
#
# Bulk Modulus (GPa) = 23.56252 28.21559 25.88905
# Shear Modulus (GPa) = 28.73255 32.04228 30.38741
#
# Velocity S-wave (km/s) = 3.58235 3.78305 3.68407
# Velocity P-wave (km/s) = 5.25690 5.62888 5.44606
#
# Compressibility (1/GPa) = 0.04244028
#
# Stress axis : x y z
#
# Youngs Moduli (GPa) = 64.84356 79.19016 81.39816
#
# Poissons Ratio (x) = -0.16972 0.03360
# Poissons Ratio (y) = -0.13897 0.05516
# Poissons Ratio (z) = 0.02677 0.05366
#
# Static dielectric constant tensor:
#      x y z
#    x 2.066970 0.000000 -0.037340 
#    y 0.000000 1.850480 0.000000 
#    z -0.037340 0.000000 1.762870 
# 
# From -- ./inp_files/6885.got.cif
#   From: 2010.05.17/outbox.cif.g08.bks.cpg/sg14_4_cif.got.tgz:6885.got - 2010.06.03 17:49:19.
