data_PCOD9243106
_publ_section_title
;
Structure prediction by ZEFSAII (Michael W. Deem and Ramdas Pophale) SiO2 
 PCOD9243106
Probable space group: P 21/C
;
_chemical_formula_sum "Si O2"
_cell_formula_units_Z 32
_cell_length_a 15.185302
_cell_length_b 8.682249
_cell_length_c 19.437713
_cell_angle_alpha 90.000000
_cell_angle_beta 30.588141
_cell_angle_gamma 90.000000
_cell_volume 1304.073059
_symmetry_space_group_name_H-M "P 21/C"
_symmetry_group_IT_number 14
_symmetry_cell_setting 'monoclinic'
loop_
_space_group_symop_operation_xyz
x,y,z
-x,1/2+y,1/2-z
-x,-y,-z
x,1/2-y,1/2+z
loop_
_atom_site_type_symbol
_atom_site_label
_atom_site_fract_x
_atom_site_fract_y
_atom_site_fract_z
Si Si1 0.773732 0.083470 0.808396
Si Si2 0.506910 0.906860 0.904431
Si Si3 0.971156 0.982861 0.174312
Si Si4 0.949754 0.153046 0.326944
Si Si5 0.133110 0.681384 0.373879
Si Si6 0.710402 0.350415 0.113080
Si Si7 0.226963 0.168555 0.386438
Si Si8 0.653722 0.613265 0.590817
O O1 0.653163 0.947058 0.860358
O O2 0.809853 0.193724 0.720952
O O3 0.941285 0.996514 0.722568
O O4 0.657971 0.160830 0.945904
O O5 0.431970 0.068286 0.923717
O O6 0.608053 0.821135 0.775329
O O7 0.928849 0.112703 0.260581
O O8 0.876442 0.026500 0.166257
O O9 0.175738 0.008916 0.021783
O O10 0.950347 0.812561 0.220524
O O11 0.783417 0.164404 0.488033
O O12 0.253836 0.706581 0.359410
O O13 0.936572 0.730224 0.525558
O O14 0.815470 0.488975 0.079360
O O15 0.512596 0.406591 0.248298
O O16 0.276899 0.223340 0.429979
#
# Coordination Sequence:
#
# PCOD9243106 Si02
#       8
#     4   4   4   4   4   4   4   4
#     4  11  20  38  70  93 129 169 222 267 327 389
#     4  10  21  36  62  98 125 172 212 267 328 388
#     4  11  27  43  66  95 141 170 223 272 345 383
#     4  12  25  42  66  98 128 177 219 278 323 408
#     4  11  21  43  65  99 128 173 218 281 317 404
#     4  11  23  38  70  93 132 171 227 262 340 385
#     4  10  20  36  63  96 127 167 215 269 321 394
#     4  10  22  39  61  94 133 167 214 270 324 389
#
# _framework density 24.538504
#
# number of rings (size 3 to 8) (size 9 to 14) (size 15 to 20)
#    0.000    1.250    5.000    1.875    5.250    0.500 
#    0.000    0.000    0.000    5.250    0.000    0.000 
#    0.000    0.000    0.000    0.000    0.000    0.000 
#
# Total GULP energy -178582.468037 kJ/mol
# GULP energy per Si atom -5580.702126 kJ/mol
# Density = 2.448265 g / cm^3
# Si number density = 24.538504 Si / 1000 Ang^3
#
#
#
# Elastic Constant Matrix: (Units=GPa)
#
#
# Indices 1 2 3 4 5 6 
#
# 1 55.9619 13.1202 47.5339 0.0000 22.1112 0.0000
# 2 13.1202 69.7877 42.0832 0.0000 22.3093 0.0000
# 3 47.5339 42.0832 171.8102 0.0000 26.2782 0.0000
# 4 0.0000 0.0000 0.0000 33.7979 0.0000 17.5126
# 5 22.1112 22.3093 26.2782 0.0000 36.7786 0.0000
# 6 0.0000 0.0000 0.0000 17.5126 0.0000 39.5784
#
#
#
# Elastic Compliance Matrix: (Units=1/GPa)
#
#
# Indices 1 2 3 4 5 6 
#
# 1 0.028203 0.003111 -0.006380 0.000000 -0.014284 0.000000
# 2 0.003111 0.019652 -0.004003 0.000000 -0.010932 0.000000
# 3 -0.006380 -0.004003 0.008541 0.000000 0.000161 0.000000
# 4 0.000000 0.000000 0.000000 0.038389 0.000000 -0.016986
# 5 -0.014284 -0.010932 0.000161 0.000000 0.042294 0.000000
# 6 0.000000 0.000000 0.000000 -0.016986 0.000000 0.032782
#
#
# Mechanical properties :
#
#
# Convention : Reuss Voigt Hill
#
# Bulk Modulus (GPa) = 23.89237 55.89272 39.89254
# Shear Modulus (GPa) = 25.20723 35.01915 30.11319
#
# Velocity S-wave (km/s) = 3.20855 3.78181 3.50692
# Velocity P-wave (km/s) = 4.84606 6.47275 5.71755
#
# Compressibility (1/GPa) = 0.04185437
#
# Stress axis : x y z
#
# Youngs Moduli (GPa) = 35.45717 50.88448 117.07795
#
# Poissons Ratio (x) = -0.15833 0.74697
# Poissons Ratio (y) = -0.11032 0.46861
# Poissons Ratio (z) = 0.22622 0.20367
#
# Static dielectric constant tensor:
#      x y z
#    x 1.997040 0.000000 0.015210 
#    y 0.000000 1.993280 0.000000 
#    z 0.015210 0.000000 1.964170 
# 
# From -- ./inp_files/69135.got.cif
#   From: 2010.05.17/outbox.cif.g08.bks.cpg/sg14_35_cif.got.tgz:69135.got - 2010.06.03 17:49:19.
