data_PCOD9243921
_publ_section_title
;
Structure prediction by ZEFSAII (Michael W. Deem and Ramdas Pophale) SiO2 
 PCOD9243921
Probable space group: P 21/C
;
_chemical_formula_sum "Si O2"
_cell_formula_units_Z 20
_cell_length_a 7.097717
_cell_length_b 23.967549
_cell_length_c 5.351036
_cell_angle_alpha 90.000000
_cell_angle_beta 106.568033
_cell_angle_gamma 90.000000
_cell_volume 872.497227
_symmetry_space_group_name_H-M "P 21/C"
_symmetry_group_IT_number 14
_symmetry_cell_setting 'monoclinic'
loop_
_space_group_symop_operation_xyz
x,y,z
-x,1/2+y,1/2-z
-x,-y,-z
x,1/2-y,1/2+z
loop_
_atom_site_type_symbol
_atom_site_label
_atom_site_fract_x
_atom_site_fract_y
_atom_site_fract_z
Si Si1 0.865208 0.718894 0.819153
Si Si2 0.473477 0.952328 0.189588
Si Si3 0.438797 0.826747 0.160191
Si Si4 0.216856 0.650148 0.092904
Si Si5 0.202811 0.523495 0.977458
O O1 0.916509 0.736982 0.557052
O O2 0.631272 0.710706 0.738460
O O3 0.991533 0.665060 0.947340
O O4 0.516412 0.889500 0.137799
O O5 0.251799 0.956842 0.214079
O O6 0.644492 0.972008 0.443856
O O7 0.500000 0.000000 0.000000
O O8 0.337197 0.829485 0.393616
O O9 0.293770 0.818283 0.869955
O O10 0.242491 0.583066 0.129401
O O11 0.000000 0.500000 0.000000
#
# Coordination Sequence:
#
# PCOD9243921 Si02
#       5
#     4   4   4   4   4
#     4  12  27  46  68  98 126 170 227 278 332 392
#     4  10  20  39  61  95 131 169 216 260 313 405
#     4  11  24  44  69  96 136 173 216 271 336 384
#     4  11  24  44  67  98 132 172 218 272 326 396
#     4  10  21  38  61  94 133 176 212 260 325 384
#
# _framework density 22.922708
#
# number of rings (size 3 to 8) (size 9 to 14) (size 15 to 20)
#    0.000    1.200    2.000    3.600    0.000    5.600 
#    7.200    0.000    0.000    0.000    0.000    0.000 
#    0.000    0.000    0.000    0.000    0.000    0.000 
#
# Total GULP energy -111533.322893 kJ/mol
# GULP energy per Si atom -5576.666145 kJ/mol
# Density = 2.287054 g / cm^3
# Si number density = 22.922708 Si / 1000 Ang^3
#
#
#
# Elastic Constant Matrix: (Units=GPa)
#
#
# Indices 1 2 3 4 5 6 
#
# 1 105.2207 9.1478 23.8827 0.0000 -0.0227 0.0000
# 2 9.1478 54.3326 21.1627 0.0000 6.2737 0.0000
# 3 23.8827 21.1627 122.0531 0.0000 2.1998 0.0000
# 4 0.0000 0.0000 0.0000 30.5710 0.0000 8.5350
# 5 -0.0227 6.2737 2.1998 0.0000 25.2491 0.0000
# 6 0.0000 0.0000 0.0000 8.5350 0.0000 42.7173
#
#
#
# Elastic Compliance Matrix: (Units=1/GPa)
#
#
# Indices 1 2 3 4 5 6 
#
# 1 0.009999 -0.001037 -0.001784 0.000000 0.000422 0.000000
# 2 -0.001037 0.020397 -0.003247 0.000000 -0.004786 0.000000
# 3 -0.001784 -0.003247 0.009105 0.000000 0.000012 0.000000
# 4 0.000000 0.000000 0.000000 0.034643 0.000000 -0.006922
# 5 0.000422 -0.004786 0.000012 0.000000 0.040794 0.000000
# 6 0.000000 0.000000 0.000000 -0.006922 0.000000 0.024793
#
#
# Mechanical properties :
#
#
# Convention : Reuss Voigt Hill
#
# Bulk Modulus (GPa) = 36.54502 43.33253 39.93878
# Shear Modulus (GPa) = 31.05766 34.86835 32.96301
#
# Velocity S-wave (km/s) = 3.68487 3.90439 3.79622
# Velocity P-wave (km/s) = 5.83795 6.26662 6.05608
#
# Compressibility (1/GPa) = 0.02736351
#
# Stress axis : x y z
#
# Youngs Moduli (GPa) = 100.00899 49.02598 109.82777
#
# Poissons Ratio (x) = 0.05085 0.19597
# Poissons Ratio (y) = 0.10374 0.35666
# Poissons Ratio (z) = 0.17845 0.15921
#
# Static dielectric constant tensor:
#      x y z
#    x 1.895860 0.000000 0.029660 
#    y 0.000000 1.929800 0.000000 
#    z 0.029660 0.000000 2.057600 
# 
# From -- ./inp_files/563.got.cif
#   From: 2010.05.17/outbox.cif.g08.bks.cpg/sg14_1_cif.got.tgz:563.got - 2010.06.03 17:49:19.
