data_PCOD9243059
_publ_section_title
;
Structure prediction by ZEFSAII (Michael W. Deem and Ramdas Pophale) SiO2 
 PCOD9243059
Probable space group: P 21/C
;
_chemical_formula_sum "Si O2"
_cell_formula_units_Z 28
_cell_length_a 6.859196
_cell_length_b 14.741545
_cell_length_c 12.045805
_cell_angle_alpha 90.000000
_cell_angle_beta 109.841098
_cell_angle_gamma 90.000000
_cell_volume 1145.709084
_symmetry_space_group_name_H-M "P 21/C"
_symmetry_group_IT_number 14
_symmetry_cell_setting 'monoclinic'
loop_
_space_group_symop_operation_xyz
x,y,z
-x,1/2+y,1/2-z
-x,-y,-z
x,1/2-y,1/2+z
loop_
_atom_site_type_symbol
_atom_site_label
_atom_site_fract_x
_atom_site_fract_y
_atom_site_fract_z
Si Si1 0.417852 0.102238 0.989430
Si Si2 0.776662 0.455848 0.963219
Si Si3 0.708447 0.691113 0.302150
Si Si4 0.847879 0.332821 0.590548
Si Si5 0.740359 0.285105 0.813426
Si Si6 0.347114 0.008564 0.315982
Si Si7 0.037375 0.598853 0.604858
O O1 0.193097 0.096605 0.889146
O O2 0.350653 0.134924 0.098750
O O3 0.609478 0.170196 0.998379
O O4 0.500000 0.000000 0.000000
O O5 0.772170 0.352948 0.921374
O O6 0.594922 0.500630 0.852824
O O7 0.707341 0.466379 0.076327
O O8 0.000000 0.500000 0.000000
O O9 0.498878 0.747934 0.244523
O O10 0.707659 0.615737 0.203820
O O11 0.940708 0.728867 0.363987
O O12 0.800667 0.340082 0.712613
O O13 0.933863 0.411145 0.523993
O O14 0.890751 0.201969 0.860184
O O15 0.206747 0.960426 0.199100
#
# Coordination Sequence:
#
# PCOD9243059 Si02
#       7
#     4   4   4   4   4   4   4
#     4  10  20  36  61  93 126 160 208 264 323 388
#     4  10  22  42  63  89 121 173 216 260 314 384
#     4   9  19  39  62  86 122 165 211 261 320 377
#     4  10  21  39  60  86 124 166 202 264 323 377
#     4  10  23  40  60  88 129 168 215 263 328 387
#     4  10  21  38  63  92 122 159 216 261 312 383
#     4  11  24  38  60  99 127 167 213 269 333 387
#
# _framework density 24.439014
#
# number of rings (size 3 to 8) (size 9 to 14) (size 15 to 20)
#    0.000    2.000    0.000    2.571    2.000    6.857 
#    7.714    0.000    0.000    0.000    0.000    0.000 
#    0.000    0.000    0.000    0.000    0.000    0.000 
#
# Total GULP energy -156017.337439 kJ/mol
# GULP energy per Si atom -5572.047766 kJ/mol
# Density = 2.438339 g / cm^3
# Si number density = 24.439014 Si / 1000 Ang^3
#
#
#
# Elastic Constant Matrix: (Units=GPa)
#
#
# Indices 1 2 3 4 5 6 
#
# 1 222.7551 39.8875 44.1322 0.0000 63.4639 0.0000
# 2 39.8875 49.2822 17.5566 0.0000 19.7884 0.0000
# 3 44.1322 17.5566 92.5755 0.0000 20.8077 0.0000
# 4 0.0000 0.0000 0.0000 34.0722 0.0000 12.5674
# 5 63.4639 19.7884 20.8077 0.0000 61.2769 0.0000
# 6 0.0000 0.0000 0.0000 12.5674 0.0000 33.5368
#
#
#
# Elastic Compliance Matrix: (Units=1/GPa)
#
#
# Indices 1 2 3 4 5 6 
#
# 1 0.006921 -0.002756 -0.001479 0.000000 -0.005776 0.000000
# 2 -0.002756 0.025183 -0.002464 0.000000 -0.004442 0.000000
# 3 -0.001479 -0.002464 0.012397 0.000000 -0.001883 0.000000
# 4 0.000000 0.000000 0.000000 0.034057 0.000000 -0.012762
# 5 -0.005776 -0.004442 -0.001883 0.000000 0.024376 0.000000
# 6 0.000000 0.000000 0.000000 -0.012762 0.000000 0.034600
#
#
# Mechanical properties :
#
#
# Convention : Reuss Voigt Hill
#
# Bulk Modulus (GPa) = 32.14891 63.08504 47.61697
# Shear Modulus (GPa) = 30.99833 43.31295 37.15564
#
# Velocity S-wave (km/s) = 3.56532 4.21442 3.90339
# Velocity P-wave (km/s) = 5.48926 7.03925 6.31201
#
# Compressibility (1/GPa) = 0.03110526
#
# Stress axis : x y z
#
# Youngs Moduli (GPa) = 144.48071 39.70945 80.66292
#
# Poissons Ratio (x) = 0.10943 0.11927
# Poissons Ratio (y) = 0.39816 0.19874
# Poissons Ratio (z) = 0.21362 0.09784
#
# Static dielectric constant tensor:
#      x y z
#    x 2.037970 0.000000 0.056530 
#    y 0.000000 2.004270 0.000000 
#    z 0.056530 0.000000 2.052910 
# 
# From -- ./inp_files/21840.got.cif
#   From: 2010.05.17/outbox.cif.g08.bks.cpg/sg14_11_cif.got.tgz:21840.got - 2010.06.03 17:49:19.
