data_PCOD9243345
_publ_section_title
;
Structure prediction by ZEFSAII (Michael W. Deem and Ramdas Pophale) SiO2 
 PCOD9243345
Probable space group: P 21/C
;
_chemical_formula_sum "Si O2"
_cell_formula_units_Z 32
_cell_length_a 9.359375
_cell_length_b 17.412792
_cell_length_c 11.717544
_cell_angle_alpha 90.000000
_cell_angle_beta 38.817481
_cell_angle_gamma 90.000000
_cell_volume 1197.042681
_symmetry_space_group_name_H-M "P 21/C"
_symmetry_group_IT_number 14
_symmetry_cell_setting 'monoclinic'
loop_
_space_group_symop_operation_xyz
x,y,z
-x,1/2+y,1/2-z
-x,-y,-z
x,1/2-y,1/2+z
loop_
_atom_site_type_symbol
_atom_site_label
_atom_site_fract_x
_atom_site_fract_y
_atom_site_fract_z
Si Si1 0.361837 0.166572 0.515940
Si Si2 0.122928 0.889496 0.115289
Si Si3 0.247551 0.315389 0.466577
Si Si4 0.487384 0.760540 0.887300
Si Si5 0.654086 0.980088 0.587418
Si Si6 0.897800 0.878752 0.617883
Si Si7 0.984740 0.051845 0.213597
Si Si8 0.335371 0.606926 0.734345
O O1 0.225627 0.228207 0.521914
O O2 0.544191 0.213370 0.476280
O O3 0.475097 0.095598 0.377855
O O4 0.142240 0.134855 0.720667
O O5 0.226112 0.905541 0.178038
O O6 0.104322 0.977383 0.081350
O O7 0.278866 0.816413 0.980790
O O8 0.408981 0.306430 0.256805
O O9 0.034384 0.372781 0.605554
O O10 0.431841 0.351499 0.436788
O O11 0.706959 0.815986 0.752678
O O12 0.842789 0.935162 0.547024
O O13 0.584626 0.038744 0.729664
O O14 0.742051 0.023669 0.418690
O O15 0.913929 0.925452 0.724735
O O16 0.146099 0.848157 0.427559
#
# Coordination Sequence:
#
# PCOD9243345 Si02
#       8
#     4   4   4   4   4   4   4   4
#     4  11  23  43  63  93 133 170 206 268 326 386
#     4  11  22  40  68  95 127 165 217 272 323 362
#     4  12  25  37  61  93 134 167 212 263 326 378
#     4  12  26  40  61  97 135 169 209 260 327 393
#     4  10  20  38  65  94 126 160 212 266 334 357
#     4  11  18  36  64  94 128 149 205 275 322 362
#     4  10  20  37  61  97 123 162 210 273 314 373
#     4  11  20  37  65  98 121 162 214 269 315 372
#
# _framework density 26.732544999999998
#
# number of rings (size 3 to 8) (size 9 to 14) (size 15 to 20)
#    0.000    1.000    7.500    0.750    3.500    1.000 
#    0.000    3.125    0.000    0.000    0.000    0.000 
#    0.000    0.000    0.000    0.000    0.000    0.000 
#
# Total GULP energy -178166.062363 kJ/mol
# GULP energy per Si atom -5567.689449 kJ/mol
# Density = 2.667170 g / cm^3
# Si number density = 26.732545 Si / 1000 Ang^3
#
#
#
# Elastic Constant Matrix: (Units=GPa)
#
#
# Indices 1 2 3 4 5 6 
#
# 1 33.0569 19.6243 15.0498 0.0000 2.2583 0.0000
# 2 19.6243 126.8820 26.1137 0.0000 21.1635 0.0000
# 3 15.0498 26.1137 69.5090 0.0000 9.1055 0.0000
# 4 0.0000 0.0000 0.0000 55.1845 0.0000 8.7340
# 5 2.2583 21.1635 9.1055 0.0000 30.0910 0.0000
# 6 0.0000 0.0000 0.0000 8.7340 0.0000 23.4101
#
#
#
# Elastic Compliance Matrix: (Units=1/GPa)
#
#
# Indices 1 2 3 4 5 6 
#
# 1 0.035710 -0.004639 -0.006316 0.000000 0.002494 0.000000
# 2 -0.004639 0.010021 -0.001960 0.000000 -0.006106 0.000000
# 3 -0.006316 -0.001960 0.016918 0.000000 -0.003267 0.000000
# 4 0.000000 0.000000 0.000000 0.019258 0.000000 -0.007185
# 5 0.002494 -0.006106 -0.003267 0.000000 0.038329 0.000000
# 6 0.000000 0.000000 0.000000 -0.007185 0.000000 0.045397
#
#
# Mechanical properties :
#
#
# Convention : Reuss Voigt Hill
#
# Bulk Modulus (GPa) = 27.15993 39.00260 33.08126
# Shear Modulus (GPa) = 24.54153 32.98114 28.76134
#
# Velocity S-wave (km/s) = 3.03320 3.51628 3.28364
# Velocity P-wave (km/s) = 4.73804 5.57739 5.17476
#
# Compressibility (1/GPa) = 0.03681895
#
# Stress axis : x y z
#
# Youngs Moduli (GPa) = 28.00352 99.79176 59.10706
#
# Poissons Ratio (x) = 0.46296 0.37329
# Poissons Ratio (y) = 0.12992 0.11587
# Poissons Ratio (z) = 0.17686 0.19562
#
# Static dielectric constant tensor:
#      x y z
#    x 2.198400 0.000000 0.042560 
#    y 0.000000 2.281620 0.000000 
#    z 0.042560 0.000000 2.170600 
# 
# From -- ./inp_files/45362.got.cif
#   From: 2010.05.17/outbox.cif.g08.bks.cpg/sg14_23_cif.got.tgz:45362.got - 2010.06.03 17:49:19.
