data_PCOD9243492
_publ_section_title
;
Structure prediction by ZEFSAII (Michael W. Deem and Ramdas Pophale) SiO2 
 PCOD9243492
Probable space group: P 21/C
;
_chemical_formula_sum "Si O2"
_cell_formula_units_Z 32
_cell_length_a 15.336737
_cell_length_b 9.944479
_cell_length_c 10.220733
_cell_angle_alpha 90.000000
_cell_angle_beta 96.060315
_cell_angle_gamma 90.000000
_cell_volume 1550.112086
_symmetry_space_group_name_H-M "P 21/C"
_symmetry_group_IT_number 14
_symmetry_cell_setting 'monoclinic'
loop_
_space_group_symop_operation_xyz
x,y,z
-x,1/2+y,1/2-z
-x,-y,-z
x,1/2-y,1/2+z
loop_
_atom_site_type_symbol
_atom_site_label
_atom_site_fract_x
_atom_site_fract_y
_atom_site_fract_z
Si Si1 0.538681 0.052799 0.669848
Si Si2 0.256244 0.385965 0.155934
Si Si3 0.661009 0.213363 0.075916
Si Si4 0.232820 0.796079 0.653697
Si Si5 0.611895 0.659019 0.021691
Si Si6 0.967118 0.178829 0.371526
Si Si7 0.414465 0.078202 0.875812
Si Si8 0.942463 0.861047 0.334599
O O1 0.595262 0.170066 0.612766
O O2 0.444530 0.060179 0.581130
O O3 0.505299 0.074386 0.810796
O O4 0.590426 0.914051 0.655069
O O5 0.245687 0.545264 0.135665
O O6 0.332831 0.364721 0.275018
O O7 0.161803 0.333480 0.182533
O O8 0.291663 0.335455 0.021911
O O9 0.740192 0.229562 0.192574
O O10 0.616348 0.069128 0.089629
O O11 0.700789 0.227641 0.937795
O O12 0.130996 0.766806 0.616165
O O13 0.575714 0.809066 0.013019
O O14 0.011572 0.272881 0.269864
O O15 0.019936 0.175374 0.516066
O O16 0.958221 0.022707 0.321945
#
# Coordination Sequence:
#
# PCOD9243492 Si02
#       8
#     4   4   4   4   4   4   4   4
#     4  10  21  37  60  79 115 166 193 236 305 353
#     4   9  20  39  58  82 122 164 187 241 307 361
#     4  11  22  39  62  85 117 160 201 242 295 351
#     4  10  21  41  62  85 120 159 199 243 299 359
#     4  10  20  38  57  80 119 155 199 238 300 349
#     4  10  22  42  64  93 123 160 204 255 305 369
#     4  10  22  36  56  87 119 148 204 253 284 344
#     4  10  22  40  66  91 124 161 204 249 310 368
#
# _framework density 20.643667000000001
#
# number of rings (size 3 to 8) (size 9 to 14) (size 15 to 20)
#    0.000    2.000    1.250    1.500    5.250    1.000 
#    6.750    0.000    0.000    0.000    0.000    0.000 
#    0.000    0.000    0.000    0.000    0.000    0.000 
#
# Total GULP energy -178559.106141 kJ/mol
# GULP energy per Si atom -5579.972067 kJ/mol
# Density = 2.059668 g / cm^3
# Si number density = 20.643667 Si / 1000 Ang^3
#
#
#
# Elastic Constant Matrix: (Units=GPa)
#
#
# Indices 1 2 3 4 5 6 
#
# 1 124.3326 40.9528 35.9579 0.0000 -18.4309 0.0000
# 2 40.9528 88.1727 19.0849 0.0000 -15.1035 0.0000
# 3 35.9579 19.0849 62.2235 0.0000 -12.9105 0.0000
# 4 0.0000 0.0000 0.0000 27.8456 0.0000 -8.2780
# 5 -18.4309 -15.1035 -12.9105 0.0000 37.6546 0.0000
# 6 0.0000 0.0000 0.0000 -8.2780 0.0000 27.1234
#
#
#
# Elastic Compliance Matrix: (Units=1/GPa)
#
#
# Indices 1 2 3 4 5 6 
#
# 1 0.010960 -0.003677 -0.004735 0.000000 0.002266 0.000000
# 2 -0.003677 0.013929 -0.001466 0.000000 0.003285 0.000000
# 3 -0.004735 -0.001466 0.020083 0.000000 0.003980 0.000000
# 4 0.000000 0.000000 0.000000 0.039496 0.000000 0.012054
# 5 0.002266 0.003285 0.003980 0.000000 0.030348 0.000000
# 6 0.000000 0.000000 0.000000 0.012054 0.000000 0.040547
#
#
# Mechanical properties :
#
#
# Convention : Reuss Voigt Hill
#
# Bulk Modulus (GPa) = 39.65886 51.85779 45.75833
# Shear Modulus (GPa) = 27.24426 30.44026 28.84226
#
# Velocity S-wave (km/s) = 3.63676 3.84416 3.74190
# Velocity P-wave (km/s) = 6.07351 6.69914 6.39398
#
# Compressibility (1/GPa) = 0.02521504
#
# Stress axis : x y z
#
# Youngs Moduli (GPa) = 91.24485 71.79165 49.79344
#
# Poissons Ratio (x) = 0.26399 0.23579
# Poissons Ratio (y) = 0.33552 0.07299
# Poissons Ratio (z) = 0.43208 0.10523
#
# Static dielectric constant tensor:
#      x y z
#    x 1.762410 0.000000 0.012140 
#    y 0.000000 1.737990 0.000000 
#    z 0.012140 0.000000 1.861860 
# 
# From -- ./inp_files/31820.got.cif
#   From: 2010.05.17/outbox.cif.g08.bks.cpg/sg14_16_cif.got.tgz:31820.got - 2010.06.03 17:49:19.
