data_PCOD9243906
_publ_section_title
;
Structure prediction by ZEFSAII (Michael W. Deem and Ramdas Pophale) SiO2 
 PCOD9243906
Probable space group: P 21/C
;
_chemical_formula_sum "Si O2"
_cell_formula_units_Z 28
_cell_length_a 14.006089
_cell_length_b 16.354133
_cell_length_c 6.962958
_cell_angle_alpha 90.000000
_cell_angle_beta 141.249072
_cell_angle_gamma 90.000000
_cell_volume 998.316352
_symmetry_space_group_name_H-M "P 21/C"
_symmetry_group_IT_number 14
_symmetry_cell_setting 'monoclinic'
loop_
_space_group_symop_operation_xyz
x,y,z
-x,1/2+y,1/2-z
-x,-y,-z
x,1/2-y,1/2+z
loop_
_atom_site_type_symbol
_atom_site_label
_atom_site_fract_x
_atom_site_fract_y
_atom_site_fract_z
Si Si1 0.662652 0.403716 0.831201
Si Si2 0.609883 0.693001 0.510062
Si Si3 0.251076 0.102733 0.075830
Si Si4 0.813413 0.563306 0.945708
Si Si5 0.044304 0.824409 0.301718
Si Si6 0.551695 0.368054 0.223859
Si Si7 0.890855 0.138534 0.153983
O O1 0.518261 0.377222 0.726542
O O2 0.730183 0.493644 0.932145
O O3 0.598144 0.386250 0.515263
O O4 0.809885 0.347450 0.096895
O O5 0.713400 0.811282 0.982109
O O6 0.723603 0.648474 0.836457
O O7 0.513184 0.774518 0.383214
O O8 0.405483 0.080169 0.426344
O O9 0.211740 0.047710 0.827007
O O10 0.111266 0.128354 0.991730
O O11 0.994033 0.572157 0.252851
O O12 0.047436 0.727053 0.315847
O O13 0.077895 0.858278 0.567646
O O14 0.710113 0.373222 0.354967
#
# Coordination Sequence:
#
# PCOD9243906 Si02
#       7
#     4   4   4   4   4   4   4
#     4  11  22  38  68  85 119 158 205 233 309 347
#     4  10  20  39  61  86 121 155 203 239 289 356
#     4   9  22  36  56  85 124 148 196 247 297 336
#     4   9  22  40  60  86 123 160 192 247 296 359
#     4  10  21  38  59  88 114 162 193 250 286 364
#     4  11  21  35  63  94 114 161 196 255 283 356
#     4  10  21  37  61  88 121 152 205 241 298 347
#
# _framework density 28.047222000000001
#
# number of rings (size 3 to 8) (size 9 to 14) (size 15 to 20)
#    0.857    1.143    1.429    2.143    2.000    5.714 
#    0.000    0.000    0.000    1.714    0.000    0.000 
#    0.000    0.000    0.000    0.000    0.000    0.000 
#
# Total GULP energy -156645.524493 kJ/mol
# GULP energy per Si atom -5594.483018 kJ/mol
# Density = 2.798338 g / cm^3
# Si number density = 28.047222 Si / 1000 Ang^3
#
#
#
# Elastic Constant Matrix: (Units=GPa)
#
#
# Indices 1 2 3 4 5 6 
#
# 1 96.0945 1.9314 29.5891 0.0000 30.4966 0.0000
# 2 1.9314 91.5856 10.4428 0.0000 1.9544 0.0000
# 3 29.5891 10.4428 154.6334 0.0000 25.6913 0.0000
# 4 0.0000 0.0000 0.0000 1.0172 0.0000 -10.8437
# 5 30.4966 1.9544 25.6913 0.0000 45.7977 0.0000
# 6 0.0000 0.0000 0.0000 -10.8437 0.0000 19.8365
#
#
#
# Elastic Compliance Matrix: (Units=1/GPa)
#
#
# Indices 1 2 3 4 5 6 
#
# 1 0.013391 0.000030 -0.001194 0.000000 -0.008249 0.000000
# 2 0.000030 0.011004 -0.000736 0.000000 -0.000076 0.000000
# 3 -0.001194 -0.000736 0.007287 0.000000 -0.003261 0.000000
# 4 0.000000 0.000000 0.000000 -0.203643 0.000000 -0.111322
# 5 -0.008249 -0.000076 -0.003261 0.000000 0.029161 0.000000
# 6 0.000000 0.000000 0.000000 -0.111322 0.000000 -0.010442
#
#
# Mechanical properties :
#
#
# Convention : Reuss Voigt Hill
#
# Bulk Modulus (GPa) = 35.86636 47.36001 41.61318
# Shear Modulus (GPa) = -35.67650 33.35360 -1.16145
#
# Velocity S-wave (km/s) = -3.57040 3.45221 -0.64421
# Velocity P-wave (km/s) = 2.04485 5.72825 3.78361
#
# Compressibility (1/GPa) = 0.02788128
#
# Stress axis : x y z
#
# Youngs Moduli (GPa) = 74.67546 90.87862 137.23202
#
# Poissons Ratio (x) = -0.00270 0.16385
# Poissons Ratio (y) = -0.00222 0.10102
# Poissons Ratio (z) = 0.08916 0.06690
#
# Static dielectric constant tensor:
#      x y z
#    x 2.180280 0.000000 -0.064830 
#    y 0.000000 2.219890 0.000000 
#    z -0.064830 0.000000 2.215590 
# 
# From -- ./inp_files/18180.got.cif
#   From: 2010.05.17/outbox.cif.g08.bks.cpg/sg14_10_cif.got.tgz:18180.got - 2010.06.03 17:49:19.
