data_PCOD9243244
_publ_section_title
;
Structure prediction by ZEFSAII (Michael W. Deem and Ramdas Pophale) SiO2 
 PCOD9243244
Probable space group: P 21/C
;
_chemical_formula_sum "Si O2"
_cell_formula_units_Z 32
_cell_length_a 17.723780
_cell_length_b 15.547887
_cell_length_c 12.501602
_cell_angle_alpha 90.000000
_cell_angle_beta 24.670019
_cell_angle_gamma 90.000000
_cell_volume 1437.927947
_symmetry_space_group_name_H-M "P 21/C"
_symmetry_group_IT_number 14
_symmetry_cell_setting 'monoclinic'
loop_
_space_group_symop_operation_xyz
x,y,z
-x,1/2+y,1/2-z
-x,-y,-z
x,1/2-y,1/2+z
loop_
_atom_site_type_symbol
_atom_site_label
_atom_site_fract_x
_atom_site_fract_y
_atom_site_fract_z
Si Si1 0.582905 0.634870 0.905384
Si Si2 0.823749 0.725793 0.060090
Si Si3 0.212778 0.554929 0.916607
Si Si4 0.751825 0.033257 0.252891
Si Si5 0.132715 0.663368 0.222983
Si Si6 0.546268 0.603014 0.356727
Si Si7 0.402928 0.813042 0.844833
Si Si8 0.923844 0.420683 0.309662
O O1 0.709753 0.692591 0.667791
O O2 0.695318 0.565704 0.830110
O O3 0.435078 0.584480 0.027847
O O4 0.484596 0.693284 0.120916
O O5 0.669565 0.654798 0.283508
O O6 0.961133 0.666373 0.816995
O O7 0.959888 0.774772 0.965703
O O8 0.340485 0.595304 0.661651
O O9 0.357383 0.488655 0.785004
O O10 0.138107 0.624804 0.095942
O O11 0.048419 0.492673 0.093817
O O12 0.851407 0.082190 0.219495
O O13 0.864210 0.042310 0.999503
O O14 0.304268 0.726664 0.009105
O O15 0.545010 0.656283 0.249369
O O16 0.251360 0.888445 0.028020
#
# Coordination Sequence:
#
# PCOD9243244 Si02
#       8
#     4   4   4   4   4   4   4   4
#     4  10  20  37  59  85 116 153 197 249 292 352
#     4  10  21  35  54  80 115 149 189 232 286 343
#     4  10  21  38  60  82 114 151 195 239 291 351
#     4  10  21  37  59  85 118 153 196 244 297 349
#     4  11  22  36  57  86 118 158 194 237 295 357
#     4  10  21  39  60  83 114 154 192 245 294 346
#     4  10  21  37  59  84 117 151 194 242 297 350
#     4   9  21  39  56  85 116 146 191 245 290 350
#
# _framework density 22.254244
#
# number of rings (size 3 to 8) (size 9 to 14) (size 15 to 20)
#    0.000    2.000    0.000    3.000    0.000    6.500 
#    0.000    3.750    0.000    3.000    0.000    0.000 
#    0.000    0.000    0.000    0.000    0.000    0.000 
#
# Total GULP energy -178361.239916 kJ/mol
# GULP energy per Si atom -5573.788747 kJ/mol
# Density = 2.220359 g / cm^3
# Si number density = 22.254244 Si / 1000 Ang^3
#
#
#
# Elastic Constant Matrix: (Units=GPa)
#
#
# Indices 1 2 3 4 5 6 
#
# 1 34.5919 8.9233 11.0688 0.0000 -5.8818 0.0000
# 2 8.9233 64.9345 20.0263 0.0000 0.2434 0.0000
# 3 11.0688 20.0263 69.8125 0.0000 -11.3845 0.0000
# 4 0.0000 0.0000 0.0000 45.4191 0.0000 -9.1448
# 5 -5.8818 0.2434 -11.3845 0.0000 11.8331 0.0000
# 6 0.0000 0.0000 0.0000 -9.1448 0.0000 27.7010
#
#
#
# Elastic Compliance Matrix: (Units=1/GPa)
#
#
# Indices 1 2 3 4 5 6 
#
# 1 0.033024 -0.004092 -0.001627 0.000000 0.014934 0.000000
# 2 -0.004092 0.017762 -0.005738 0.000000 -0.007920 0.000000
# 3 -0.001627 -0.005738 0.019114 0.000000 0.017699 0.000000
# 4 0.000000 0.000000 0.000000 0.023585 0.000000 0.007786
# 5 0.014934 -0.007920 0.017699 0.000000 0.109123 0.000000
# 6 0.000000 0.000000 0.000000 0.007786 0.000000 0.038670
#
#
# Mechanical properties :
#
#
# Convention : Reuss Voigt Hill
#
# Bulk Modulus (GPa) = 21.28286 27.70841 24.49563
# Shear Modulus (GPa) = 17.86647 25.61200 21.73924
#
# Velocity S-wave (km/s) = 2.83651 3.39614 3.12886
# Velocity P-wave (km/s) = 4.50688 5.27790 4.90756
#
# Compressibility (1/GPa) = 0.04698618
#
# Stress axis : x y z
#
# Youngs Moduli (GPa) = 30.28098 56.30074 52.31739
#
# Poissons Ratio (x) = 0.23041 0.08510
# Poissons Ratio (y) = 0.12392 0.30018
# Poissons Ratio (z) = 0.04926 0.32304
#
# Static dielectric constant tensor:
#      x y z
#    x 1.805050 0.000000 -0.035320 
#    y 0.000000 1.817730 0.000000 
#    z -0.035320 0.000000 1.867440 
# 
# From -- ./inp_files/41242.got.cif
#   From: 2010.05.17/outbox.cif.g08.bks.cpg/sg14_21_cif.got.tgz:41242.got - 2010.06.03 17:49:19.
