data_PCOD9243991
_publ_section_title
;
Structure prediction by ZEFSAII (Michael W. Deem and Ramdas Pophale) SiO2 
 PCOD9243991
Probable space group: P 21/C
;
_chemical_formula_sum "Si O2"
_cell_formula_units_Z 32
_cell_length_a 12.668201
_cell_length_b 18.260146
_cell_length_c 9.295060
_cell_angle_alpha 90.000000
_cell_angle_beta 143.650379
_cell_angle_gamma 90.000000
_cell_volume 1274.425126
_symmetry_space_group_name_H-M "P 21/C"
_symmetry_group_IT_number 14
_symmetry_cell_setting 'monoclinic'
loop_
_space_group_symop_operation_xyz
x,y,z
-x,1/2+y,1/2-z
-x,-y,-z
x,1/2-y,1/2+z
loop_
_atom_site_type_symbol
_atom_site_label
_atom_site_fract_x
_atom_site_fract_y
_atom_site_fract_z
Si Si1 0.594104 0.746930 0.282777
Si Si2 0.935578 0.082330 0.237568
Si Si3 0.687788 0.906967 0.452447
Si Si4 0.796844 0.288359 0.765327
Si Si5 0.392281 0.630881 0.210634
Si Si6 0.770187 0.605011 0.364747
Si Si7 0.370951 0.007046 0.029625
Si Si8 0.150678 0.879818 0.180602
O O1 0.694028 0.820055 0.435106
O O2 0.532554 0.697119 0.349484
O O3 0.707060 0.689409 0.313396
O O4 0.404909 0.773277 0.010799
O O5 0.142795 0.062788 0.448600
O O6 0.905195 0.162934 0.271354
O O7 0.856961 0.084269 0.986414
O O8 0.819168 0.029045 0.210506
O O9 0.710735 0.922915 0.644877
O O10 0.498156 0.939980 0.208020
O O11 0.771853 0.335625 0.882012
O O12 0.871026 0.207375 0.870751
O O13 0.493569 0.564054 0.398712
O O14 0.320521 0.610008 0.971760
O O15 0.683845 0.558885 0.396378
O O16 0.981865 0.596577 0.589437
#
# Coordination Sequence:
#
# PCOD9243991 Si02
#       8
#     4   4   4   4   4   4   4   4
#     4  10  20  39  63  93 125 168 214 266 316 377
#     4  11  25  40  66  94 129 168 212 265 317 382
#     4  11  23  41  66  95 127 166 216 264 321 373
#     4  11  21  41  64  94 129 167 214 263 320 378
#     4  10  24  39  66  93 130 170 211 262 320 379
#     4  10  23  38  65  95 129 164 214 268 320 375
#     4  11  25  41  62  95 132 168 212 260 322 379
#     4  10  22  39  67  99 123 161 219 269 316 373
#
# _framework density 25.109361
#
# number of rings (size 3 to 8) (size 9 to 14) (size 15 to 20)
#    0.000    1.500    1.250    3.375    8.750    2.500 
#    0.000    3.125    0.000    0.000    0.000    0.000 
#    0.000    0.000    0.000    0.000    0.000    0.000 
#
# Total GULP energy -178979.093212 kJ/mol
# GULP energy per Si atom -5593.096663 kJ/mol
# Density = 2.505221 g / cm^3
# Si number density = 25.109361 Si / 1000 Ang^3
#
#
#
# Elastic Constant Matrix: (Units=GPa)
#
#
# Indices 1 2 3 4 5 6 
#
# 1 39.0875 17.3303 10.4375 0.0000 10.7029 0.0000
# 2 17.3303 98.0501 14.1204 0.0000 -0.1345 0.0000
# 3 10.4375 14.1204 40.4696 0.0000 15.4218 0.0000
# 4 0.0000 0.0000 0.0000 13.5740 0.0000 -0.7402
# 5 10.7029 -0.1345 15.4218 0.0000 27.4644 0.0000
# 6 0.0000 0.0000 0.0000 -0.7402 0.0000 31.6154
#
#
#
# Elastic Compliance Matrix: (Units=1/GPa)
#
#
# Indices 1 2 3 4 5 6 
#
# 1 0.031534 -0.005297 -0.002025 0.000000 -0.011178 0.000000
# 2 -0.005297 0.011793 -0.004526 0.000000 0.004663 0.000000
# 3 -0.002025 -0.004526 0.033738 0.000000 -0.018178 0.000000
# 4 0.000000 0.000000 0.000000 0.073765 0.000000 0.001727
# 5 -0.011178 0.004663 -0.018178 0.000000 0.050997 0.000000
# 6 0.000000 0.000000 0.000000 0.001727 0.000000 0.031671
#
#
# Mechanical properties :
#
#
# Convention : Reuss Voigt Hill
#
# Bulk Modulus (GPa) = 18.73741 29.04262 23.89002
# Shear Modulus (GPa) = 18.18294 23.57869 20.88082
#
# Velocity S-wave (km/s) = 2.69392 3.06770 2.88687
# Velocity P-wave (km/s) = 4.14184 4.91317 4.54390
#
# Compressibility (1/GPa) = 0.05336916
#
# Stress axis : x y z
#
# Youngs Moduli (GPa) = 31.71218 84.79376 29.63986
#
# Poissons Ratio (x) = 0.44917 0.06002
# Poissons Ratio (y) = 0.16799 0.13414
# Poissons Ratio (z) = 0.06422 0.38376
#
# Static dielectric constant tensor:
#      x y z
#    x 2.018390 0.000000 -0.025600 
#    y 0.000000 2.020470 0.000000 
#    z -0.025600 0.000000 1.946350 
# 
# From -- ./inp_files/33012.got.cif
#   From: 2010.05.17/outbox.cif.g08.bks.cpg/sg14_17_cif.got.tgz:33012.got - 2010.06.03 17:49:19.
