data_PCOD9243913
_publ_section_title
;
Structure prediction by ZEFSAII (Michael W. Deem and Ramdas Pophale) SiO2 
 PCOD9243913
Probable space group: P 21/C
;
_chemical_formula_sum "Si O2"
_cell_formula_units_Z 28
_cell_length_a 7.504089
_cell_length_b 27.046911
_cell_length_c 5.660471
_cell_angle_alpha 90.000000
_cell_angle_beta 87.747237
_cell_angle_gamma 90.000000
_cell_volume 1147.975026
_symmetry_space_group_name_H-M "P 21/C"
_symmetry_group_IT_number 14
_symmetry_cell_setting 'monoclinic'
loop_
_space_group_symop_operation_xyz
x,y,z
-x,1/2+y,1/2-z
-x,-y,-z
x,1/2-y,1/2+z
loop_
_atom_site_type_symbol
_atom_site_label
_atom_site_fract_x
_atom_site_fract_y
_atom_site_fract_z
Si Si1 0.202786 0.630715 0.464483
Si Si2 0.100139 0.965123 0.732800
Si Si3 0.724157 0.524334 0.378889
Si Si4 0.085492 0.764988 0.843262
Si Si5 0.680052 0.767821 0.778464
Si Si6 0.422513 0.377176 0.791564
Si Si7 0.614199 0.427396 0.157484
O O1 0.090111 0.582523 0.407173
O O2 0.376242 0.637037 0.290152
O O3 0.290898 0.616856 0.708176
O O4 0.089281 0.679210 0.437906
O O5 0.245177 0.945435 0.544626
O O6 0.894284 0.975133 0.687088
O O7 0.185557 0.008979 0.880384
O O8 0.640201 0.578344 0.373631
O O9 0.598241 0.478218 0.308122
O O10 0.164901 0.762860 0.571142
O O11 0.881946 0.748286 0.806171
O O12 0.598883 0.742336 0.545581
O O13 0.683699 0.826434 0.722370
O O14 0.440714 0.404934 0.041928
#
# Coordination Sequence:
#
# PCOD9243913 Si02
#       7
#     4   4   4   4   4   4   4
#     4  10  23  39  58  90 126 164 211 260 326 393
#     4   9  20  38  62  86 123 165 218 267 313 378
#     4  10  20  39  61  90 124 166 215 265 317 378
#     4  10  23  43  70  95 123 167 219 277 325 381
#     4  10  24  47  68  96 128 165 219 271 323 384
#     4  11  24  38  62  91 130 169 206 262 328 391
#     4  10  22  38  57  93 126 169 211 258 321 386
#
# _framework density 24.390774
#
# number of rings (size 3 to 8) (size 9 to 14) (size 15 to 20)
#    0.000    2.000    0.000    1.714    6.000    7.429 
#    2.571    0.000    0.000    0.000    0.000    0.000 
#    0.000    0.000    0.000    0.000    0.000    0.000 
#
# Total GULP energy -156228.954672 kJ/mol
# GULP energy per Si atom -5579.605524 kJ/mol
# Density = 2.433526 g / cm^3
# Si number density = 24.390774 Si / 1000 Ang^3
#
#
#
# Elastic Constant Matrix: (Units=GPa)
#
#
# Indices 1 2 3 4 5 6 
#
# 1 42.9770 20.9981 9.1902 0.0000 4.9426 0.0000
# 2 20.9981 134.8480 58.2366 0.0000 28.0116 0.0000
# 3 9.1902 58.2366 141.9945 0.0000 10.1956 0.0000
# 4 0.0000 0.0000 0.0000 28.7400 0.0000 12.9113
# 5 4.9426 28.0116 10.1956 0.0000 26.0323 0.0000
# 6 0.0000 0.0000 0.0000 12.9113 0.0000 34.8129
#
#
#
# Elastic Compliance Matrix: (Units=1/GPa)
#
#
# Indices 1 2 3 4 5 6 
#
# 1 0.025195 -0.003756 -0.000038 0.000000 -0.000727 0.000000
# 2 -0.003756 0.011857 -0.003864 0.000000 -0.010532 0.000000
# 3 -0.000038 -0.003864 0.008572 0.000000 0.000808 0.000000
# 4 0.000000 0.000000 0.000000 0.041751 0.000000 -0.015485
# 5 -0.000727 -0.010532 0.000808 0.000000 0.049569 0.000000
# 6 0.000000 0.000000 0.000000 -0.015485 0.000000 0.034468
#
#
# Mechanical properties :
#
#
# Convention : Reuss Voigt Hill
#
# Bulk Modulus (GPa) = 32.99375 55.18548 44.08961
# Shear Modulus (GPa) = 25.40276 33.34335 29.37305
#
# Velocity S-wave (km/s) = 3.23071 3.70137 3.47402
# Velocity P-wave (km/s) = 5.24149 6.39856 5.84871
#
# Compressibility (1/GPa) = 0.03030877
#
# Stress axis : x y z
#
# Youngs Moduli (GPa) = 39.69026 84.33846 116.66425
#
# Poissons Ratio (x) = 0.31675 0.00445
# Poissons Ratio (y) = 0.14907 0.45075
# Poissons Ratio (z) = 0.00151 0.32585
#
# Static dielectric constant tensor:
#      x y z
#    x 1.988820 0.000000 -0.057910 
#    y 0.000000 1.981050 0.000000 
#    z -0.057910 0.000000 2.154860 
# 
# From -- ./inp_files/1944.got.cif
#   From: 2010.05.17/outbox.cif.g08.bks.cpg/sg14_1_cif.got.tgz:1944.got - 2010.06.03 17:49:19.
