data_PCOD9243252
_publ_section_title
;
Structure prediction by ZEFSAII (Michael W. Deem and Ramdas Pophale) SiO2 
 PCOD9243252
Probable space group: P 21/C
;
_chemical_formula_sum "Si O2"
_cell_formula_units_Z 20
_cell_length_a 13.097323
_cell_length_b 5.305160
_cell_length_c 18.259202
_cell_angle_alpha 90.000000
_cell_angle_beta 141.019147
_cell_angle_gamma 90.000000
_cell_volume 798.096374
_symmetry_space_group_name_H-M "P 21/C"
_symmetry_group_IT_number 14
_symmetry_cell_setting 'monoclinic'
loop_
_space_group_symop_operation_xyz
x,y,z
-x,1/2+y,1/2-z
-x,-y,-z
x,1/2-y,1/2+z
loop_
_atom_site_type_symbol
_atom_site_label
_atom_site_fract_x
_atom_site_fract_y
_atom_site_fract_z
Si Si1 0.537851 0.180796 0.847525
Si Si2 0.204867 0.550950 0.916236
Si Si3 0.259386 0.492647 0.663246
Si Si4 0.666571 0.554423 0.550610
Si Si5 0.992539 0.683232 0.066241
O O1 0.640230 0.399697 0.944399
O O2 0.350823 0.252789 0.747407
O O3 0.603019 0.149977 0.802248
O O4 0.597769 0.947833 0.929104
O O5 0.248333 0.319212 0.887814
O O6 0.205032 0.822201 0.876273
O O7 0.064491 0.466909 0.894023
O O8 0.137790 0.394770 0.531995
O O9 0.160329 0.664409 0.663668
O O10 0.500000 0.500000 0.500000
O O11 0.000000 0.500000 0.000000
#
# Coordination Sequence:
#
# PCOD9243252 Si02
#       5
#     4   4   4   4   4
#     4  10  22  34  59  89 125 158 202 257 308 366
#     4  10  20  37  59  87 117 156 206 255 298 371
#     4  11  22  34  55  89 130 157 197 250 320 384
#     4  10  21  38  61  89 115 157 216 257 301 346
#     4  11  20  35  53  87 123 167 194 240 320 388
#
# _framework density 25.059628
#
# number of rings (size 3 to 8) (size 9 to 14) (size 15 to 20)
#    1.200    0.400    4.000    1.800    2.800    0.000 
#    0.000    0.000    0.000    0.000   10.400    0.000 
#    0.000    0.000    0.000    0.000    0.000    0.000 
#
# Total GULP energy -111660.630455 kJ/mol
# GULP energy per Si atom -5583.031523 kJ/mol
# Density = 2.500259 g / cm^3
# Si number density = 25.059628 Si / 1000 Ang^3
#
#
#
# Elastic Constant Matrix: (Units=GPa)
#
#
# Indices 1 2 3 4 5 6 
#
# 1 89.8416 4.3678 -0.9948 0.0000 15.9440 0.0000
# 2 4.3678 118.1656 -4.2004 0.0000 -3.8198 0.0000
# 3 -0.9948 -4.2004 53.6546 0.0000 0.2111 0.0000
# 4 0.0000 0.0000 0.0000 31.6959 0.0000 19.0706
# 5 15.9440 -3.8198 0.2111 0.0000 18.8229 0.0000
# 6 0.0000 0.0000 0.0000 19.0706 0.0000 35.0995
#
#
#
# Elastic Compliance Matrix: (Units=1/GPa)
#
#
# Indices 1 2 3 4 5 6 
#
# 1 0.013188 -0.000846 0.000223 0.000000 -0.011345 0.000000
# 2 -0.000846 0.008596 0.000648 0.000000 0.002454 0.000000
# 3 0.000223 0.000648 0.018694 0.000000 -0.000267 0.000000
# 4 0.000000 0.000000 0.000000 0.046873 0.000000 -0.025468
# 5 -0.011345 0.002454 -0.000267 0.000000 0.063238 0.000000
# 6 0.000000 0.000000 0.000000 -0.025468 0.000000 0.042328
#
#
# Mechanical properties :
#
#
# Convention : Reuss Voigt Hill
#
# Bulk Modulus (GPa) = 24.67547 28.88967 26.78257
# Shear Modulus (GPa) = 24.22760 34.62294 29.42527
#
# Velocity S-wave (km/s) = 3.11271 3.72105 3.43039
# Velocity P-wave (km/s) = 4.77354 5.47860 5.13818
#
# Compressibility (1/GPa) = 0.04052608
#
# Stress axis : x y z
#
# Youngs Moduli (GPa) = 75.82838 116.32871 53.49424
#
# Poissons Ratio (x) = 0.09845 -0.01192
# Poissons Ratio (y) = 0.06417 -0.03464
# Poissons Ratio (z) = -0.01690 -0.07534
#
# Static dielectric constant tensor:
#      x y z
#    x 2.019290 0.000000 0.022850 
#    y 0.000000 2.079360 0.000000 
#    z 0.022850 0.000000 2.042020 
# 
# From -- ./inp_files/50952.got.cif
#   From: 2010.05.17/outbox.cif.g08.bks.cpg/sg14_26_cif.got.tgz:50952.got - 2010.06.03 17:49:19.
