data_PCOD9243644
_publ_section_title
;
Structure prediction by ZEFSAII (Michael W. Deem and Ramdas Pophale) SiO2 
 PCOD9243644
Probable space group: P 21/C
;
_chemical_formula_sum "Si O2"
_cell_formula_units_Z 32
_cell_length_a 14.282098
_cell_length_b 17.460039
_cell_length_c 5.724533
_cell_angle_alpha 90.000000
_cell_angle_beta 98.439734
_cell_angle_gamma 90.000000
_cell_volume 1412.045086
_symmetry_space_group_name_H-M "P 21/C"
_symmetry_group_IT_number 14
_symmetry_cell_setting 'monoclinic'
loop_
_space_group_symop_operation_xyz
x,y,z
-x,1/2+y,1/2-z
-x,-y,-z
x,1/2-y,1/2+z
loop_
_atom_site_type_symbol
_atom_site_label
_atom_site_fract_x
_atom_site_fract_y
_atom_site_fract_z
Si Si1 0.696162 0.269142 0.776105
Si Si2 0.371566 0.937315 0.854952
Si Si3 0.129608 0.373704 0.109189
Si Si4 0.969826 0.260992 0.566673
Si Si5 0.332152 0.096918 0.601866
Si Si6 0.432915 0.469222 0.770382
Si Si7 0.518553 0.785260 0.256126
Si Si8 0.063265 0.073861 0.080757
O O1 0.739380 0.240636 0.548268
O O2 0.676640 0.359111 0.731117
O O3 0.595399 0.222982 0.770328
O O4 0.483793 0.929212 0.842592
O O5 0.327424 0.010950 0.706041
O O6 0.376340 0.963189 0.124417
O O7 0.058832 0.300204 0.092633
O O8 0.239911 0.354321 0.119640
O O9 0.122692 0.415032 0.360498
O O10 0.106967 0.424207 0.863241
O O11 0.921699 0.247367 0.300421
O O12 0.003038 0.348327 0.567661
O O13 0.353245 0.086908 0.336147
O O14 0.427453 0.134746 0.730297
O O15 0.500000 0.500000 0.000000
O O16 0.547694 0.753341 0.522292
O O17 0.000000 0.000000 0.000000
#
# Coordination Sequence:
#
# PCOD9243644 Si02
#       8
#     4   4   4   4   4   4   4   4
#     4  10  22  36  54  77 106 143 206 269 313 347
#     4  10  22  36  57  79 114 160 217 264 302 360
#     4  10  22  36  58  92 130 155 189 237 300 364
#     4   8  16  32  53  83 122 157 184 222 277 340
#     4  11  24  36  58  85 122 165 198 250 315 370
#     4   9  20  33  55  75 111 154 215 255 301 346
#     4  10  23  35  51  76 114 153 199 245 301 361
#     4  10  20  38  62  88 121 160 199 232 273 354
#
# _framework density 22.662165999999999
#
# number of rings (size 3 to 8) (size 9 to 14) (size 15 to 20)
#    0.000    2.250    0.000    1.875   17.500    3.000 
#    0.000    0.000    0.000    0.000    0.000   15.750 
#    0.000    0.000    0.000    0.000    0.000    0.000 
#
# Total GULP energy -178138.093902 kJ/mol
# GULP energy per Si atom -5566.815434 kJ/mol
# Density = 2.261059 g / cm^3
# Si number density = 22.662166 Si / 1000 Ang^3
#
#
#
# Elastic Constant Matrix: (Units=GPa)
#
#
# Indices 1 2 3 4 5 6 
#
# 1 39.5820 20.7511 27.3577 0.0000 7.9610 0.0000
# 2 20.7511 53.8407 27.7335 0.0000 3.7196 0.0000
# 3 27.3577 27.7335 177.4542 0.0000 -3.9821 0.0000
# 4 0.0000 0.0000 0.0000 33.1457 0.0000 0.8359
# 5 7.9610 3.7196 -3.9821 0.0000 19.7860 0.0000
# 6 0.0000 0.0000 0.0000 0.8359 0.0000 1.7815
#
#
#
# Elastic Compliance Matrix: (Units=1/GPa)
#
#
# Indices 1 2 3 4 5 6 
#
# 1 0.036698 -0.011025 -0.004239 0.000000 -0.013546 0.000000
# 2 -0.011025 0.023910 -0.002048 0.000000 -0.000471 0.000000
# 3 -0.004239 -0.002048 0.006686 0.000000 0.003436 0.000000
# 4 0.000000 0.000000 0.000000 0.030531 0.000000 -0.014326
# 5 -0.013546 -0.000471 0.003436 0.000000 0.056771 0.000000
# 6 0.000000 0.000000 0.000000 -0.014326 0.000000 0.568045
#
#
# Mechanical properties :
#
#
# Convention : Reuss Voigt Hill
#
# Bulk Modulus (GPa) = 30.60785 46.95127 38.77956
# Shear Modulus (GPa) = 6.50912 23.94496 15.22704
#
# Velocity S-wave (km/s) = 1.69661 3.25407 2.59494
# Velocity P-wave (km/s) = 4.16814 5.90606 5.11151
#
# Compressibility (1/GPa) = 0.03267136
#
# Stress axis : x y z
#
# Youngs Moduli (GPa) = 27.24954 41.82397 149.57012
#
# Poissons Ratio (x) = 0.46110 0.63396
# Poissons Ratio (y) = 0.30042 0.30627
# Poissons Ratio (z) = 0.11550 0.08564
#
# Static dielectric constant tensor:
#      x y z
#    x 1.835770 0.000000 -0.037360 
#    y 0.000000 1.999070 0.000000 
#    z -0.037360 0.000000 1.993520 
# 
# From -- ./inp_files/3809.got.cif
#   From: 2010.05.17/outbox.cif.g08.bks.cpg/sg14_2_cif.got.tgz:3809.got - 2010.06.03 17:49:19.
