data_PCOD9243718
_publ_section_title
;
Structure prediction by ZEFSAII (Michael W. Deem and Ramdas Pophale) SiO2 
 PCOD9243718
Probable space group: P 21/C
;
_chemical_formula_sum "Si O2"
_cell_formula_units_Z 32
_cell_length_a 7.896144
_cell_length_b 22.060879
_cell_length_c 8.291317
_cell_angle_alpha 90.000000
_cell_angle_beta 111.214853
_cell_angle_gamma 90.000000
_cell_volume 1346.432167
_symmetry_space_group_name_H-M "P 21/C"
_symmetry_group_IT_number 14
_symmetry_cell_setting 'monoclinic'
loop_
_space_group_symop_operation_xyz
x,y,z
-x,1/2+y,1/2-z
-x,-y,-z
x,1/2-y,1/2+z
loop_
_atom_site_type_symbol
_atom_site_label
_atom_site_fract_x
_atom_site_fract_y
_atom_site_fract_z
Si Si1 0.315435 0.335675 0.646165
Si Si2 0.031458 0.655677 0.006854
Si Si3 0.098268 0.043394 0.405795
Si Si4 0.695698 0.202111 0.149813
Si Si5 0.426367 0.676321 0.741665
Si Si6 0.213265 0.270278 0.293231
Si Si7 0.751457 0.076957 0.660108
Si Si8 0.983826 0.929980 0.959035
O O1 0.527254 0.333981 0.676962
O O2 0.221631 0.293728 0.477142
O O3 0.263636 0.300133 0.790846
O O4 0.213840 0.399306 0.603722
O O5 0.963252 0.705870 0.858194
O O6 0.183667 0.613941 0.973195
O O7 0.872717 0.606641 0.992161
O O8 0.122240 0.688404 0.190123
O O9 0.969846 0.068180 0.215378
O O10 0.241795 0.995246 0.376260
O O11 0.000000 0.000000 0.500000
O O12 0.639821 0.272270 0.155917
O O13 0.696661 0.183127 0.963544
O O14 0.619463 0.696503 0.739415
O O15 0.421676 0.610500 0.823105
O O16 0.898723 0.093871 0.850945
O O17 0.000000 0.000000 0.000000
#
# Coordination Sequence:
#
# PCOD9243718 Si02
#       8
#     4   4   4   4   4   4   4   4
#     4  10  22  41  60  96 129 167 206 266 324 381
#     4  11  21  38  62  93 120 163 206 259 310 384
#     4   9  21  38  61  90 121 159 208 267 307 367
#     4  10  22  37  62  91 132 162 208 259 325 377
#     4  10  21  40  58  88 126 166 201 259 313 380
#     4  10  23  38  61  92 129 160 205 258 318 377
#     4  10  20  38  64  85 123 162 211 253 314 374
#     4  10  20  38  65  87 126 167 216 262 315 377
#
# _framework density 23.766515999999999
#
# number of rings (size 3 to 8) (size 9 to 14) (size 15 to 20)
#    0.000    2.000    1.250    1.500    3.500    2.000 
#    0.000    0.625   13.750    7.500    0.000    0.000 
#    0.000    0.000    0.000    0.000    0.000    0.000 
#
# Total GULP energy -178490.017592 kJ/mol
# GULP energy per Si atom -5577.813050 kJ/mol
# Density = 2.371242 g / cm^3
# Si number density = 23.766516 Si / 1000 Ang^3
#
#
#
# Elastic Constant Matrix: (Units=GPa)
#
#
# Indices 1 2 3 4 5 6 
#
# 1 55.6327 27.1732 7.9908 0.0000 -2.8135 0.0000
# 2 27.1732 99.7612 19.8122 0.0000 -12.3702 0.0000
# 3 7.9908 19.8122 82.5754 0.0000 -7.2371 0.0000
# 4 0.0000 0.0000 0.0000 44.0421 0.0000 -11.8630
# 5 -2.8135 -12.3702 -7.2371 0.0000 33.6039 0.0000
# 6 0.0000 0.0000 0.0000 -11.8630 0.0000 44.3883
#
#
#
# Elastic Compliance Matrix: (Units=1/GPa)
#
#
# Indices 1 2 3 4 5 6 
#
# 1 0.020777 -0.005575 -0.000714 0.000000 -0.000467 0.000000
# 2 -0.005575 0.012416 -0.002120 0.000000 0.003647 0.000000
# 3 -0.000714 -0.002120 0.012857 0.000000 0.001929 0.000000
# 4 0.000000 0.000000 0.000000 0.024467 0.000000 0.006539
# 5 -0.000467 0.003647 0.001929 0.000000 0.031477 0.000000
# 6 0.000000 0.000000 0.000000 0.006539 0.000000 0.024276
#
#
# Mechanical properties :
#
#
# Convention : Reuss Voigt Hill
#
# Bulk Modulus (GPa) = 34.20913 38.65795 36.43354
# Shear Modulus (GPa) = 32.71568 36.60642 34.66105
#
# Velocity S-wave (km/s) = 3.71421 3.92886 3.82304
# Velocity P-wave (km/s) = 5.72878 6.07308 5.90344
#
# Compressibility (1/GPa) = 0.02923196
#
# Stress axis : x y z
#
# Youngs Moduli (GPa) = 48.12964 80.54252 77.77957
#
# Poissons Ratio (x) = 0.44906 0.05552
# Poissons Ratio (y) = 0.26834 0.16487
# Poissons Ratio (z) = 0.03435 0.17073
#
# Static dielectric constant tensor:
#      x y z
#    x 2.029350 0.000000 -0.084320 
#    y 0.000000 2.097110 0.000000 
#    z -0.084320 0.000000 2.045830 
# 
# From -- ./inp_files/10717.got.cif
#   From: 2010.05.17/outbox.cif.g08.bks.cpg/sg14_6_cif.got.tgz:10717.got - 2010.06.03 17:49:19.
