data_PCOD9243908
_publ_section_title
;
Structure prediction by ZEFSAII (Michael W. Deem and Ramdas Pophale) SiO2 
 PCOD9243908
Probable space group: P 21/C
;
_chemical_formula_sum "Si O2"
_cell_formula_units_Z 16
_cell_length_a 10.093540
_cell_length_b 7.192032
_cell_length_c 9.294830
_cell_angle_alpha 90.000000
_cell_angle_beta 118.887015
_cell_angle_gamma 90.000000
_cell_volume 590.784977
_symmetry_space_group_name_H-M "P 21/C"
_symmetry_group_IT_number 14
_symmetry_cell_setting 'monoclinic'
loop_
_space_group_symop_operation_xyz
x,y,z
-x,1/2+y,1/2-z
-x,-y,-z
x,1/2-y,1/2+z
loop_
_atom_site_type_symbol
_atom_site_label
_atom_site_fract_x
_atom_site_fract_y
_atom_site_fract_z
Si Si1 0.944563 0.488638 0.257460
Si Si2 0.493589 0.885960 0.273688
Si Si3 0.662483 0.729781 0.139518
Si Si4 0.168319 0.718376 0.524227
O O1 0.836667 0.669274 0.224460
O O2 0.895663 0.405151 0.079903
O O3 0.899003 0.339484 0.356972
O O4 0.111166 0.555884 0.385513
O O5 0.614355 0.906606 0.207910
O O6 0.585162 0.774764 0.444238
O O7 0.415750 0.058043 0.314296
O O8 0.347545 0.785113 0.128736
#
# Coordination Sequence:
#
# PCOD9243908 Si02
#       4
#     4   4   4   4
#     4  10  23  41  61  87 118 156 196 239 292 347
#     4  10  20  39  61  87 120 153 194 241 290 347
#     4  10  22  39  61  87 118 155 195 240 292 344
#     4  10  21  40  61  86 120 154 195 241 290 347
#
# _framework density 27.082612999999998
#
# number of rings (size 3 to 8) (size 9 to 14) (size 15 to 20)
#    0.000    2.000    0.000    4.500    0.000    8.000 
#    0.000   10.000    0.000    0.000    0.000    0.000 
#    0.000    0.000    0.000    0.000    0.000    0.000 
#
# Total GULP energy -89621.715272 kJ/mol
# GULP energy per Si atom -5601.357205 kJ/mol
# Density = 2.702097 g / cm^3
# Si number density = 27.082613 Si / 1000 Ang^3
#
#
#
# Elastic Constant Matrix: (Units=GPa)
#
#
# Indices 1 2 3 4 5 6 
#
# 1 71.1855 13.3374 55.6726 0.0000 16.8299 0.0000
# 2 13.3374 49.7828 21.8746 0.0000 2.2372 0.0000
# 3 55.6726 21.8746 176.3989 0.0000 19.4283 0.0000
# 4 0.0000 0.0000 0.0000 54.2747 0.0000 -2.7837
# 5 16.8299 2.2372 19.4283 0.0000 43.3293 0.0000
# 6 0.0000 0.0000 0.0000 -2.7837 0.0000 45.8279
#
#
#
# Elastic Compliance Matrix: (Units=1/GPa)
#
#
# Indices 1 2 3 4 5 6 
#
# 1 0.020022 -0.002756 -0.005403 0.000000 -0.005212 0.000000
# 2 -0.002756 0.021624 -0.001901 0.000000 0.000806 0.000000
# 3 -0.005403 -0.001901 0.007751 0.000000 -0.001278 0.000000
# 4 0.000000 0.000000 0.000000 0.018482 0.000000 0.001123
# 5 -0.005212 0.000806 -0.001278 0.000000 0.025635 0.000000
# 6 0.000000 0.000000 0.000000 0.001123 0.000000 0.021889
#
#
# Mechanical properties :
#
#
# Convention : Reuss Voigt Hill
#
# Bulk Modulus (GPa) = 34.15531 53.23738 43.69634
# Shear Modulus (GPa) = 34.41567 42.45189 38.43378
#
# Velocity S-wave (km/s) = 3.56865 3.96346 3.77122
# Velocity P-wave (km/s) = 5.44236 6.37537 5.92725
#
# Compressibility (1/GPa) = 0.02927802
#
# Stress axis : x y z
#
# Youngs Moduli (GPa) = 49.94461 46.24391 129.01889
#
# Poissons Ratio (x) = 0.12743 0.69714
# Poissons Ratio (y) = 0.13763 0.24522
# Poissons Ratio (z) = 0.26987 0.08789
#
# Static dielectric constant tensor:
#      x y z
#    x 2.081340 0.000000 -0.058760 
#    y 0.000000 2.238460 0.000000 
#    z -0.058760 0.000000 1.987590 
# 
# From -- ./inp_files/11665.got.cif
#   From: 2010.05.17/outbox.cif.g08.bks.cpg/sg14_6_cif.got.tgz:11665.got - 2010.06.03 17:49:19.
