data_PCOD9243033
_publ_section_title
;
Structure prediction by ZEFSAII (Michael W. Deem and Ramdas Pophale) SiO2 
 PCOD9243033
Probable space group: P 21/C
;
_chemical_formula_sum "Si O2"
_cell_formula_units_Z 28
_cell_length_a 14.392524
_cell_length_b 5.235917
_cell_length_c 17.746829
_cell_angle_alpha 90.000000
_cell_angle_beta 113.529616
_cell_angle_gamma 90.000000
_cell_volume 1226.169724
_symmetry_space_group_name_H-M "P 21/C"
_symmetry_group_IT_number 14
_symmetry_cell_setting 'monoclinic'
loop_
_space_group_symop_operation_xyz
x,y,z
-x,1/2+y,1/2-z
-x,-y,-z
x,1/2-y,1/2+z
loop_
_atom_site_type_symbol
_atom_site_label
_atom_site_fract_x
_atom_site_fract_y
_atom_site_fract_z
Si Si1 0.952710 0.428472 0.201491
Si Si2 0.764352 0.736905 0.197475
Si Si3 0.614049 0.102641 0.725971
Si Si4 0.855359 0.997591 0.525159
Si Si5 0.589508 0.830603 0.868840
Si Si6 0.233056 0.502234 0.155385
Si Si7 0.257324 0.506873 0.462816
O O1 0.841860 0.528653 0.190631
O O2 0.949936 0.446027 0.109914
O O3 0.024728 0.645653 0.261129
O O4 0.658274 0.623021 0.190182
O O5 0.810436 0.836305 0.290671
O O6 0.743817 0.941954 0.125648
O O7 0.520450 0.219676 0.651445
O O8 0.710803 0.270355 0.782432
O O9 0.571287 0.022653 0.793662
O O10 0.774122 0.205390 0.529641
O O11 0.850947 0.055348 0.434937
O O12 0.821889 0.703695 0.528400
O O13 0.674803 0.639116 0.860562
O O14 0.640154 0.950040 0.958728
#
# Coordination Sequence:
#
# PCOD9243033 Si02
#       7
#     4   4   4   4   4   4   4
#     4  11  24  45  71  93 126 165 216 269 336 403
#     4  10  25  39  63  97 126 170 214 279 328 370
#     4  11  20  36  61  91 133 171 222 265 308 372
#     4  10  21  41  67  94 123 173 211 257 327 397
#     4  10  20  36  60  92 126 184 222 252 306 377
#     4  10  21  38  64  89 132 171 216 260 314 383
#     4  10  21  39  63  92 133 171 220 256 313 384
#
# _framework density 22.835339999999999
#
# number of rings (size 3 to 8) (size 9 to 14) (size 15 to 20)
#    0.000    1.714    2.857    1.714    6.000    0.571 
#    0.000    2.143    0.000    0.000    0.000    0.000 
#    0.000    0.000    0.000    0.000    0.000    0.000 
#
# Total GULP energy -156318.615145 kJ/mol
# GULP energy per Si atom -5582.807684 kJ/mol
# Density = 2.278337 g / cm^3
# Si number density = 22.835340 Si / 1000 Ang^3
#
#
#
# Elastic Constant Matrix: (Units=GPa)
#
#
# Indices 1 2 3 4 5 6 
#
# 1 49.6001 3.0338 47.4656 0.0000 -6.3440 0.0000
# 2 3.0338 48.6507 22.7616 0.0000 -6.2483 0.0000
# 3 47.4656 22.7616 146.1693 0.0000 -5.4550 0.0000
# 4 0.0000 0.0000 0.0000 12.4096 0.0000 15.6590
# 5 -6.3440 -6.2483 -5.4550 0.0000 30.4967 0.0000
# 6 0.0000 0.0000 0.0000 15.6590 0.0000 19.9480
#
#
#
# Elastic Compliance Matrix: (Units=1/GPa)
#
#
# Indices 1 2 3 4 5 6 
#
# 1 0.030404 0.003563 -0.010233 0.000000 0.005224 0.000000
# 2 0.003563 0.023071 -0.004576 0.000000 0.004649 0.000000
# 3 -0.010233 -0.004576 0.010835 0.000000 -0.001128 0.000000
# 4 0.000000 0.000000 0.000000 8.519907 0.000000 -6.688082
# 5 0.005224 0.004649 -0.001128 0.000000 0.034628 0.000000
# 6 0.000000 0.000000 0.000000 -6.688082 0.000000 5.300239
#
#
# Mechanical properties :
#
#
# Convention : Reuss Voigt Hill
#
# Bulk Modulus (GPa) = 23.91379 43.43800 33.67589
# Shear Modulus (GPa) = 0.35828 23.98148 12.16988
#
# Velocity S-wave (km/s) = 0.39653 3.24418 2.31105
# Velocity P-wave (km/s) = 3.27180 5.75296 4.67981
#
# Compressibility (1/GPa) = 0.04181687
#
# Stress axis : x y z
#
# Youngs Moduli (GPa) = 32.89029 43.34533 92.29525
#
# Poissons Ratio (x) = -0.15442 0.94445
# Poissons Ratio (y) = -0.11717 0.42234
# Poissons Ratio (z) = 0.33656 0.19834
#
# Static dielectric constant tensor:
#      x y z
#    x 1.867280 0.000000 0.023770 
#    y 0.000000 1.899490 0.000000 
#    z 0.023770 0.000000 1.847890 
# 
# From -- ./inp_files/58660.got.cif
#   From: 2010.05.17/outbox.cif.g08.bks.cpg/sg14_30_cif.got.tgz:58660.got - 2010.06.03 17:49:19.
