data_PCOD9243769
_publ_section_title
;
Structure prediction by ZEFSAII (Michael W. Deem and Ramdas Pophale) SiO2 
 PCOD9243769
Probable space group: P 21/C
;
_chemical_formula_sum "Si O2"
_cell_formula_units_Z 32
_cell_length_a 16.167666
_cell_length_b 6.583273
_cell_length_c 18.911447
_cell_angle_alpha 90.000000
_cell_angle_beta 59.240533
_cell_angle_gamma 90.000000
_cell_volume 1729.696247
_symmetry_space_group_name_H-M "P 21/C"
_symmetry_group_IT_number 14
_symmetry_cell_setting 'monoclinic'
loop_
_space_group_symop_operation_xyz
x,y,z
-x,1/2+y,1/2-z
-x,-y,-z
x,1/2-y,1/2+z
loop_
_atom_site_type_symbol
_atom_site_label
_atom_site_fract_x
_atom_site_fract_y
_atom_site_fract_z
Si Si1 0.002371 0.200989 0.043478
Si Si2 0.800805 0.887913 0.736987
Si Si3 0.956334 0.191547 0.711999
Si Si4 0.167102 0.500770 0.932342
Si Si5 0.154892 0.457005 0.185972
Si Si6 0.536197 0.688171 0.031642
Si Si7 0.357212 0.931810 0.088186
Si Si8 0.298709 0.924889 0.504959
O O1 0.981878 0.166548 0.134582
O O2 0.915191 0.338788 0.052950
O O3 0.103981 0.315882 0.991523
O O4 0.000000 0.000000 0.000000
O O5 0.905817 0.988857 0.705122
O O6 0.782515 0.925518 0.662178
O O7 0.725987 0.000797 0.821570
O O8 0.805458 0.656306 0.762106
O O9 0.876854 0.311162 0.790526
O O10 0.055068 0.147626 0.707649
O O11 0.237383 0.594697 0.960328
O O12 0.232605 0.452471 0.090036
O O13 0.438832 0.805288 0.095488
O O14 0.500000 0.500000 0.000000
O O15 0.609511 0.569775 0.050732
O O16 0.594979 0.863026 0.964020
O O17 0.326329 0.782467 0.035988
#
# Coordination Sequence:
#
# PCOD9243769 Si02
#       8
#     4   4   4   4   4   4   4   4
#     4  10  21  37  51  74 117 164 191 229 287 340
#     4  11  22  37  55  84 118 152 188 246 295 343
#     4  11  22  33  52  82 113 150 199 241 276 337
#     4  10  23  37  55  82 122 153 194 238 289 350
#     4  12  21  33  55  83 112 151 202 244 280 339
#     4   9  20  38  64  92 113 144 192 248 301 354
#     4  10  20  38  65  87 114 148 195 245 301 355
#     4  11  21  37  62  87 111 152 200 244 290 358
#
# _framework density 18.500359
#
# number of rings (size 3 to 8) (size 9 to 14) (size 15 to 20)
#    0.000    1.500    5.000    0.750    0.000    3.000 
#    0.000    0.000    8.250    0.000    0.000    0.000 
#    0.000    0.000    0.000    0.000    0.000    0.000 
#
# Total GULP energy -178263.590141 kJ/mol
# GULP energy per Si atom -5570.737192 kJ/mol
# Density = 1.845825 g / cm^3
# Si number density = 18.500359 Si / 1000 Ang^3
#
#
#
# Elastic Constant Matrix: (Units=GPa)
#
#
# Indices 1 2 3 4 5 6 
#
# 1 85.4140 25.0032 28.0577 0.0000 2.0861 0.0000
# 2 25.0032 56.1434 4.8820 0.0000 -5.4639 0.0000
# 3 28.0577 4.8820 51.2012 0.0000 5.1266 0.0000
# 4 0.0000 0.0000 0.0000 27.0999 0.0000 -5.8397
# 5 2.0861 -5.4639 5.1266 0.0000 22.0583 0.0000
# 6 0.0000 0.0000 0.0000 -5.8397 0.0000 29.5128
#
#
#
# Elastic Compliance Matrix: (Units=1/GPa)
#
#
# Indices 1 2 3 4 5 6 
#
# 1 0.016406 -0.006719 -0.008219 0.000000 -0.001306 0.000000
# 2 -0.006719 0.021259 0.001089 0.000000 0.005648 0.000000
# 3 -0.008219 0.001089 0.024394 0.000000 -0.004622 0.000000
# 4 0.000000 0.000000 0.000000 0.038544 0.000000 0.007627
# 5 -0.001306 0.005648 -0.004622 0.000000 0.047931 0.000000
# 6 0.000000 0.000000 0.000000 0.007627 0.000000 0.035393
#
#
# Mechanical properties :
#
#
# Convention : Reuss Voigt Hill
#
# Bulk Modulus (GPa) = 29.10236 34.29381 31.69809
# Shear Modulus (GPa) = 22.41375 24.72193 23.56784
#
# Velocity S-wave (km/s) = 3.48448 3.65950 3.57306
# Velocity P-wave (km/s) = 5.65276 6.03598 5.84751
#
# Compressibility (1/GPa) = 0.03436148
#
# Stress axis : x y z
#
# Youngs Moduli (GPa) = 60.95238 47.03963 40.99418
#
# Poissons Ratio (x) = 0.31605 0.33693
# Poissons Ratio (y) = 0.40953 -0.04466
# Poissons Ratio (z) = 0.50097 -0.05124
#
# Static dielectric constant tensor:
#      x y z
#    x 1.656250 0.000000 -0.011480 
#    y 0.000000 1.687240 0.000000 
#    z -0.011480 0.000000 1.628470 
# 
# From -- ./inp_files/59962.got.cif
#   From: 2010.05.17/outbox.cif.g08.bks.cpg/sg14_30_cif.got.tgz:59962.got - 2010.06.03 17:49:19.
