data_PCOD9243021
_publ_section_title
;
Structure prediction by ZEFSAII (Michael W. Deem and Ramdas Pophale) SiO2 
 PCOD9243021
Probable space group: P 21/C
;
_chemical_formula_sum "Si O2"
_cell_formula_units_Z 28
_cell_length_a 14.933299
_cell_length_b 10.171433
_cell_length_c 10.798349
_cell_angle_alpha 90.000000
_cell_angle_beta 48.970082
_cell_angle_gamma 90.000000
_cell_volume 1237.308197
_symmetry_space_group_name_H-M "P 21/C"
_symmetry_group_IT_number 14
_symmetry_cell_setting 'monoclinic'
loop_
_space_group_symop_operation_xyz
x,y,z
-x,1/2+y,1/2-z
-x,-y,-z
x,1/2-y,1/2+z
loop_
_atom_site_type_symbol
_atom_site_label
_atom_site_fract_x
_atom_site_fract_y
_atom_site_fract_z
Si Si1 0.865114 0.505850 0.756370
Si Si2 0.287568 0.750122 0.636319
Si Si3 0.465835 0.100869 0.843101
Si Si4 0.125045 0.466441 0.539471
Si Si5 0.351707 0.635062 0.329823
Si Si6 0.315257 0.488492 0.718663
Si Si7 0.728827 0.710101 0.041297
O O1 0.809697 0.359985 0.802803
O O2 0.883871 0.556963 0.599929
O O3 0.773979 0.603711 0.903272
O O4 0.993373 0.498060 0.704921
O O5 0.363988 0.721666 0.443623
O O6 0.364908 0.805438 0.681443
O O7 0.240011 0.609398 0.730590
O O8 0.425992 0.997663 0.774930
O O9 0.598392 0.058548 0.759365
O O10 0.393345 0.063306 0.033936
O O11 0.405736 0.239549 0.860703
O O12 0.214149 0.589116 0.467944
O O13 0.188331 0.339294 0.539687
O O14 0.259587 0.364781 0.838056
#
# Coordination Sequence:
#
# PCOD9243021 Si02
#       7
#     4   4   4   4   4   4   4
#     4  10  21  38  59  88 121 163 203 254 312 366
#     4  10  20  36  60  88 122 152 204 254 302 370
#     4   9  21  39  58  85 126 160 199 257 312 358
#     4   9  21  39  58  85 126 160 199 257 312 358
#     4   9  19  36  60  84 121 161 196 256 306 361
#     4  10  21  38  59  88 121 163 203 254 312 366
#     4  11  21  38  64  88 117 161 212 252 300 383
#
# _framework density 22.629769
#
# number of rings (size 3 to 8) (size 9 to 14) (size 15 to 20)
#    0.000    2.286    0.000    1.714    4.000    0.000 
#    5.143    1.429    0.000    0.000    0.000    0.000 
#    0.000    0.000    0.000    0.000    0.000    0.000 
#
# Total GULP energy -156256.687172 kJ/mol
# GULP energy per Si atom -5580.595970 kJ/mol
# Density = 2.257826 g / cm^3
# Si number density = 22.629769 Si / 1000 Ang^3
#
#
#
# Elastic Constant Matrix: (Units=GPa)
#
#
# Indices 1 2 3 4 5 6 
#
# 1 78.8853 23.1625 21.5426 0.0000 -3.2933 0.0000
# 2 23.1625 103.0680 31.2214 0.0000 -4.2676 0.0000
# 3 21.5426 31.2214 52.1100 0.0000 8.9006 0.0000
# 4 0.0000 0.0000 0.0000 33.5058 0.0000 10.7825
# 5 -3.2933 -4.2676 8.9006 0.0000 32.5433 0.0000
# 6 0.0000 0.0000 0.0000 10.7825 0.0000 27.3585
#
#
#
# Elastic Compliance Matrix: (Units=1/GPa)
#
#
# Indices 1 2 3 4 5 6 
#
# 1 0.014791 -0.001472 -0.005723 0.000000 0.002869 0.000000
# 2 -0.001472 0.012433 -0.007441 0.000000 0.003517 0.000000
# 3 -0.005723 -0.007441 0.027568 0.000000 -0.009095 0.000000
# 4 0.000000 0.000000 0.000000 0.034181 0.000000 -0.013471
# 5 0.002869 0.003517 -0.009095 0.000000 0.033967 0.000000
# 6 0.000000 0.000000 0.000000 -0.013471 0.000000 0.041861
#
#
# Mechanical properties :
#
#
# Convention : Reuss Voigt Hill
#
# Bulk Modulus (GPa) = 39.18503 42.87960 41.03232
# Shear Modulus (GPa) = 24.68157 29.22398 26.95277
#
# Velocity S-wave (km/s) = 3.30611 3.59750 3.45488
# Velocity P-wave (km/s) = 5.65041 6.02042 5.83834
#
# Compressibility (1/GPa) = 0.02551995
#
# Stress axis : x y z
#
# Youngs Moduli (GPa) = 67.60656 80.43258 36.27387
#
# Poissons Ratio (x) = 0.11836 0.20761
# Poissons Ratio (y) = 0.09949 0.26992
# Poissons Ratio (z) = 0.38693 0.59852
#
# Static dielectric constant tensor:
#      x y z
#    x 1.921260 0.000000 -0.003450 
#    y 0.000000 1.931820 0.000000 
#    z -0.003450 0.000000 1.816260 
# 
# From -- ./inp_files/31708.got.cif
#   From: 2010.05.17/outbox.cif.g08.bks.cpg/sg14_16_cif.got.tgz:31708.got - 2010.06.03 17:49:19.
