data_PCOD9243088
_publ_section_title
;
Structure prediction by ZEFSAII (Michael W. Deem and Ramdas Pophale) SiO2 
 PCOD9243088
Probable space group: P 21/C
;
_chemical_formula_sum "Si O2"
_cell_formula_units_Z 28
_cell_length_a 11.181144
_cell_length_b 17.498865
_cell_length_c 13.502530
_cell_angle_alpha 90.000000
_cell_angle_beta 31.837213
_cell_angle_gamma 90.000000
_cell_volume 1393.606167
_symmetry_space_group_name_H-M "P 21/C"
_symmetry_group_IT_number 14
_symmetry_cell_setting 'monoclinic'
loop_
_space_group_symop_operation_xyz
x,y,z
-x,1/2+y,1/2-z
-x,-y,-z
x,1/2-y,1/2+z
loop_
_atom_site_type_symbol
_atom_site_label
_atom_site_fract_x
_atom_site_fract_y
_atom_site_fract_z
Si Si1 0.626894 0.184873 0.673152
Si Si2 0.132525 0.335695 0.533959
Si Si3 0.098396 0.233613 0.382772
Si Si4 0.005771 0.311364 0.239930
Si Si5 0.407834 0.426394 0.933796
Si Si6 0.533780 0.153540 0.159037
Si Si7 0.296184 0.904271 0.584142
O O1 0.866147 0.184885 0.560731
O O2 0.568502 0.274419 0.708162
O O3 0.663300 0.154472 0.534941
O O4 0.394095 0.149347 0.877789
O O5 0.031239 0.254278 0.641055
O O6 0.124456 0.314318 0.423660
O O7 0.962582 0.397750 0.696548
O O8 0.084913 0.264088 0.280834
O O9 0.308997 0.178274 0.257966
O O10 0.176310 0.379017 0.096229
O O11 0.755627 0.344138 0.434924
O O12 0.361329 0.513707 0.994429
O O13 0.512215 0.416390 0.750471
O O14 0.558783 0.392249 0.917691
#
# Coordination Sequence:
#
# PCOD9243088 Si02
#       7
#     4   4   4   4   4   4   4
#     4  10  20  38  58  89 116 156 203 247 287 351
#     4  11  21  36  62  89 121 156 201 247 292 354
#     4  10  20  36  62  92 116 152 210 250 288 344
#     4  11  21  36  62  89 121 156 201 247 292 354
#     4  11  23  39  60  90 126 158 193 248 307 355
#     4  10  20  38  58  89 116 156 203 247 287 351
#     4  11  23  39  60  90 126 158 193 248 307 355
#
# _framework density 20.091760000000001
#
# number of rings (size 3 to 8) (size 9 to 14) (size 15 to 20)
#    0.000    1.429    5.714    3.429    0.000    1.143 
#    0.000    4.286    0.000    1.714    0.000    0.000 
#    0.000    0.000    0.000    0.000    0.000    0.000 
#
# Total GULP energy -156043.005684 kJ/mol
# GULP energy per Si atom -5572.964489 kJ/mol
# Density = 2.004603 g / cm^3
# Si number density = 20.091760 Si / 1000 Ang^3
#
#
#
# Elastic Constant Matrix: (Units=GPa)
#
#
# Indices 1 2 3 4 5 6 
#
# 1 63.9374 3.4486 22.1642 0.0000 -18.7793 0.0000
# 2 3.4486 19.7864 -13.1408 0.0000 0.6863 0.0000
# 3 22.1642 -13.1408 97.9893 0.0000 -26.5747 0.0000
# 4 0.0000 0.0000 0.0000 15.1154 0.0000 -2.5995
# 5 -18.7793 0.6863 -26.5747 0.0000 30.4498 0.0000
# 6 0.0000 0.0000 0.0000 -2.5995 0.0000 20.5178
#
#
#
# Elastic Compliance Matrix: (Units=1/GPa)
#
#
# Indices 1 2 3 4 5 6 
#
# 1 0.019769 -0.005416 -0.002434 0.000000 0.010190 0.000000
# 2 -0.005416 0.058084 0.010158 0.000000 0.004216 0.000000
# 3 -0.002434 0.010158 0.015261 0.000000 0.011588 0.000000
# 4 0.000000 0.000000 0.000000 0.067631 0.000000 0.008568
# 5 0.010190 0.004216 0.011588 0.000000 0.049144 0.000000
# 6 0.000000 0.000000 0.000000 0.008568 0.000000 0.049824
#
#
# Mechanical properties :
#
#
# Convention : Reuss Voigt Hill
#
# Bulk Modulus (GPa) = 10.23246 22.96187 16.59716
# Shear Modulus (GPa) = 17.38081 24.49934 20.94007
#
# Velocity S-wave (km/s) = 2.94440 3.49574 3.23185
# Velocity P-wave (km/s) = 4.08206 5.26753 4.71223
#
# Compressibility (1/GPa) = 0.09772824
#
# Stress axis : x y z
#
# Youngs Moduli (GPa) = 50.58379 17.21658 65.52738
#
# Poissons Ratio (x) = 0.09324 0.15952
# Poissons Ratio (y) = 0.27395 -0.66560
# Poissons Ratio (z) = 0.12314 -0.17488
#
# Static dielectric constant tensor:
#      x y z
#    x 1.741520 0.000000 -0.010410 
#    y 0.000000 1.698220 0.000000 
#    z -0.010410 0.000000 1.784220 
# 
# From -- ./inp_files/45266.got.cif
#   From: 2010.05.17/outbox.cif.g08.bks.cpg/sg14_23_cif.got.tgz:45266.got - 2010.06.03 17:49:19.
