data_PCOD9243642
_publ_section_title
;
Structure prediction by ZEFSAII (Michael W. Deem and Ramdas Pophale) SiO2 
 PCOD9243642
Probable space group: P 21/C
;
_chemical_formula_sum "Si O2"
_cell_formula_units_Z 32
_cell_length_a 12.172034
_cell_length_b 13.217773
_cell_length_c 15.867517
_cell_angle_alpha 90.000000
_cell_angle_beta 141.156497
_cell_angle_gamma 90.000000
_cell_volume 1601.154552
_symmetry_space_group_name_H-M "P 21/C"
_symmetry_group_IT_number 14
_symmetry_cell_setting 'monoclinic'
loop_
_space_group_symop_operation_xyz
x,y,z
-x,1/2+y,1/2-z
-x,-y,-z
x,1/2-y,1/2+z
loop_
_atom_site_type_symbol
_atom_site_label
_atom_site_fract_x
_atom_site_fract_y
_atom_site_fract_z
Si Si1 0.767935 0.381372 0.077614
Si Si2 0.915548 0.542585 0.035585
Si Si3 0.975295 0.608008 0.440386
Si Si4 0.405677 0.051180 0.302073
Si Si5 0.570297 0.969644 0.244499
Si Si6 0.262428 0.849927 0.983494
Si Si7 0.774518 0.338146 0.270138
Si Si8 0.271047 0.879503 0.795688
O O1 0.875919 0.456692 0.082055
O O2 0.758109 0.270384 0.031568
O O3 0.841416 0.367143 0.215983
O O4 0.565848 0.419984 0.958589
O O5 0.060378 0.617060 0.158086
O O6 0.727484 0.580324 0.891707
O O7 0.000000 0.500000 0.000000
O O8 0.769555 0.618943 0.298719
O O9 0.000000 0.500000 0.500000
O O10 0.086418 0.608923 0.421351
O O11 0.076443 0.676883 0.569272
O O12 0.484769 0.052662 0.255428
O O13 0.343829 0.935036 0.277519
O O14 0.644766 0.031055 0.208799
O O15 0.425858 0.888287 0.134669
O O16 0.298754 0.889062 0.911351
O O17 0.672584 0.232382 0.199943
#
# Coordination Sequence:
#
# PCOD9243642 Si02
#       8
#     4   4   4   4   4   4   4   4
#     4  10  23  39  62  87 122 154 199 246 294 350
#     4   9  21  37  59  85 118 158 190 245 296 346
#     4  10  21  37  62  86 119 156 199 238 298 346
#     4  10  21  38  63  88 117 159 197 242 294 348
#     4  10  20  38  62  87 118 158 198 241 296 353
#     4  11  22  40  62  89 119 159 194 248 295 350
#     4  10  21  39  61  88 116 159 191 244 294 352
#     4  10  23  39  62  87 122 154 197 247 300 347
#
# _framework density 19.985578
#
# number of rings (size 3 to 8) (size 9 to 14) (size 15 to 20)
#    0.000    2.000    2.500    0.750    8.750    1.000 
#    2.250    1.250    5.500    0.000    0.000    0.000 
#    0.000    0.000    0.000    0.000    0.000    0.000 
#
# Total GULP energy -178371.858009 kJ/mol
# GULP energy per Si atom -5574.120563 kJ/mol
# Density = 1.994009 g / cm^3
# Si number density = 19.985578 Si / 1000 Ang^3
#
#
#
# Elastic Constant Matrix: (Units=GPa)
#
#
# Indices 1 2 3 4 5 6 
#
# 1 76.9234 14.2020 15.3422 0.0000 2.7754 0.0000
# 2 14.2020 41.0087 -4.9049 0.0000 -2.5522 0.0000
# 3 15.3422 -4.9049 42.6870 0.0000 2.0307 0.0000
# 4 0.0000 0.0000 0.0000 19.1931 0.0000 -5.7781
# 5 2.7754 -2.5522 2.0307 0.0000 35.7602 0.0000
# 6 0.0000 0.0000 0.0000 -5.7781 0.0000 29.1991
#
#
#
# Elastic Compliance Matrix: (Units=1/GPa)
#
#
# Indices 1 2 3 4 5 6 
#
# 1 0.015418 -0.006159 -0.006188 0.000000 -0.001285 0.000000
# 2 -0.006159 0.027278 0.005247 0.000000 0.002127 0.000000
# 3 -0.006188 0.005247 0.026284 0.000000 -0.000638 0.000000
# 4 0.000000 0.000000 0.000000 0.055403 0.000000 0.010963
# 5 -0.001285 0.002127 -0.000638 0.000000 0.028252 0.000000
# 6 0.000000 0.000000 0.000000 0.010963 0.000000 0.036417
#
#
# Mechanical properties :
#
#
# Convention : Reuss Voigt Hill
#
# Bulk Modulus (GPa) = 18.25533 23.32198 20.78866
# Shear Modulus (GPa) = 22.57222 25.89579 24.23400
#
# Velocity S-wave (km/s) = 3.36434 3.60352 3.48598
# Velocity P-wave (km/s) = 4.92400 5.38596 5.16015
#
# Compressibility (1/GPa) = 0.05477851
#
# Stress axis : x y z
#
# Youngs Moduli (GPa) = 64.86064 36.65940 38.04655
#
# Poissons Ratio (x) = 0.22580 0.23543
# Poissons Ratio (y) = 0.39951 -0.19963
# Poissons Ratio (z) = 0.40135 -0.19235
#
# Static dielectric constant tensor:
#      x y z
#    x 1.714970 0.000000 -0.028900 
#    y 0.000000 1.716430 0.000000 
#    z -0.028900 0.000000 1.640860 
# 
# From -- ./inp_files/45110.got.cif
#   From: 2010.05.17/outbox.cif.g08.bks.cpg/sg14_23_cif.got.tgz:45110.got - 2010.06.03 17:49:19.
