data_PCOD9243957
_publ_section_title
;
Structure prediction by ZEFSAII (Michael W. Deem and Ramdas Pophale) SiO2 
 PCOD9243957
Probable space group: P 21/C
;
_chemical_formula_sum "Si O2"
_cell_formula_units_Z 32
_cell_length_a 11.928487
_cell_length_b 11.664148
_cell_length_c 12.207594
_cell_angle_alpha 90.000000
_cell_angle_beta 109.304901
_cell_angle_gamma 90.000000
_cell_volume 1603.008628
_symmetry_space_group_name_H-M "P 21/C"
_symmetry_group_IT_number 14
_symmetry_cell_setting 'monoclinic'
loop_
_space_group_symop_operation_xyz
x,y,z
-x,1/2+y,1/2-z
-x,-y,-z
x,1/2-y,1/2+z
loop_
_atom_site_type_symbol
_atom_site_label
_atom_site_fract_x
_atom_site_fract_y
_atom_site_fract_z
Si Si1 0.175259 0.491629 0.773398
Si Si2 0.138496 0.871308 0.845371
Si Si3 0.190554 0.050818 0.040771
Si Si4 0.892934 0.732110 0.340950
Si Si5 0.560230 0.425531 0.112204
Si Si6 0.535775 0.485557 0.351195
Si Si7 0.955791 0.983614 0.362211
Si Si8 0.592351 0.174259 0.057249
O O1 0.149536 0.519911 0.636716
O O2 0.179908 0.351650 0.765290
O O3 0.299518 0.546104 0.843973
O O4 0.070892 0.525939 0.820491
O O5 0.114224 0.909181 0.712838
O O6 0.265641 0.814261 0.902482
O O7 0.029487 0.798083 0.856550
O O8 0.144152 0.988664 0.918527
O O9 0.142529 0.177286 0.052854
O O10 0.333669 0.043451 0.089825
O O11 0.879449 0.867125 0.330564
O O12 0.516710 0.459589 0.218723
O O13 0.539625 0.292518 0.081250
O O14 0.500000 0.500000 0.000000
O O15 0.440041 0.571024 0.371102
O O16 0.542740 0.369559 0.424903
O O17 0.000000 0.000000 0.500000
#
# Coordination Sequence:
#
# PCOD9243957 Si02
#       8
#     4   4   4   4   4   4   4   4
#     4   8  20  41  55  87 120 152 209 244 294 371
#     4  10  20  39  63  85 111 165 201 239 302 366
#     4   8  17  38  61  82 111 154 212 235 292 361
#     4   9  19  37  59  84 118 156 190 252 300 345
#     4  11  23  41  67  93 120 166 212 257 313 366
#     4   9  21  43  59  93 124 160 208 256 313 372
#     4  11  23  37  53  93 128 150 199 250 311 361
#     4  10  22  42  64  90 125 161 207 261 306 373
#
# _framework density 19.962461999999999
#
# number of rings (size 3 to 8) (size 9 to 14) (size 15 to 20)
#    0.750    1.750    0.000    1.125    1.750    3.000 
#   18.000    0.000    0.000    0.000    0.000    0.000 
#    0.000    0.000    0.000    0.000    0.000    0.000 
#
# Total GULP energy -178383.714340 kJ/mol
# GULP energy per Si atom -5574.491073 kJ/mol
# Density = 1.991703 g / cm^3
# Si number density = 19.962462 Si / 1000 Ang^3
#
#
#
# Elastic Constant Matrix: (Units=GPa)
#
#
# Indices 1 2 3 4 5 6 
#
# 1 29.1277 -12.0287 6.0865 0.0000 -12.6560 0.0000
# 2 -12.0287 56.0368 16.4459 0.0000 1.1637 0.0000
# 3 6.0865 16.4459 111.1934 0.0000 -10.4759 0.0000
# 4 0.0000 0.0000 0.0000 13.2819 0.0000 2.1864
# 5 -12.6560 1.1637 -10.4759 0.0000 19.8010 0.0000
# 6 0.0000 0.0000 0.0000 2.1864 0.0000 9.7349
#
#
#
# Elastic Compliance Matrix: (Units=1/GPa)
#
#
# Indices 1 2 3 4 5 6 
#
# 1 0.053523 0.011252 -0.001508 0.000000 0.032751 0.000000
# 2 0.011252 0.021158 -0.003352 0.000000 0.004175 0.000000
# 3 -0.001508 -0.003352 0.009998 0.000000 0.004522 0.000000
# 4 0.000000 0.000000 0.000000 0.078181 0.000000 -0.017559
# 5 0.032751 0.004175 0.004522 0.000000 0.073582 0.000000
# 6 0.000000 0.000000 0.000000 -0.017559 0.000000 0.106667
#
#
# Mechanical properties :
#
#
# Convention : Reuss Voigt Hill
#
# Bulk Modulus (GPa) = 10.26043 24.15170 17.20607
# Shear Modulus (GPa) = 13.78119 20.95384 17.36751
#
# Velocity S-wave (km/s) = 2.63031 3.24336 2.95279
# Velocity P-wave (km/s) = 3.79154 5.11378 4.50147
#
# Compressibility (1/GPa) = 0.09746180
#
# Stress axis : x y z
#
# Youngs Moduli (GPa) = 18.68339 47.26411 100.02280
#
# Poissons Ratio (x) = -0.53180 0.15088
# Poissons Ratio (y) = -0.21022 0.33526
# Poissons Ratio (z) = 0.02818 0.15842
#
# Static dielectric constant tensor:
#      x y z
#    x 1.726010 0.000000 0.010860 
#    y 0.000000 1.664630 0.000000 
#    z 0.010860 0.000000 1.713720 
# 
# From -- ./inp_files/29402.got.cif
#   From: 2010.05.17/outbox.cif.g08.bks.cpg/sg14_15_cif.got.tgz:29402.got - 2010.06.03 17:49:19.
