data_PCOD9243501
_publ_section_title
;
Structure prediction by ZEFSAII (Michael W. Deem and Ramdas Pophale) SiO2 
 PCOD9243501
Probable space group: P 21/C
;
_chemical_formula_sum "Si O2"
_cell_formula_units_Z 30
_cell_length_a 15.845528
_cell_length_b 12.866718
_cell_length_c 8.689829
_cell_angle_alpha 90.000000
_cell_angle_beta 127.560174
_cell_angle_gamma 90.000000
_cell_volume 1404.436202
_symmetry_space_group_name_H-M "P 21/C"
_symmetry_group_IT_number 14
_symmetry_cell_setting 'monoclinic'
loop_
_space_group_symop_operation_xyz
x,y,z
-x,1/2+y,1/2-z
-x,-y,-z
x,1/2-y,1/2+z
loop_
_atom_site_type_symbol
_atom_site_label
_atom_site_fract_x
_atom_site_fract_y
_atom_site_fract_z
Si Si1 0.449194 0.392311 0.257716
Si Si2 0.639595 0.070388 0.187931
Si Si3 0.500000 0.500000 0.000000
Si Si4 0.519568 0.341657 0.843236
Si Si5 0.065249 0.126756 0.436393
Si Si6 0.840853 0.445794 0.749278
Si Si7 0.184053 0.211773 0.276425
Si Si8 0.285467 0.109367 0.093460
O O1 0.354441 0.450287 0.245349
O O2 0.555656 0.433742 0.457476
O O3 0.467606 0.270229 0.294255
O O4 0.443864 0.435179 0.082317
O O5 0.583382 0.137173 0.259377
O O6 0.748882 0.112569 0.242235
O O7 0.579430 0.392773 0.051173
O O8 0.412594 0.416275 0.747747
O O9 0.108061 0.023577 0.567811
O O10 0.123557 0.146975 0.339875
O O11 0.099352 0.219542 0.587949
O O12 0.937850 0.117691 0.285316
O O13 0.780049 0.515318 0.554049
O O14 0.243034 0.144958 0.211883
O O15 0.262613 0.293282 0.451600
#
# Coordination Sequence:
#
# PCOD9243501 Si02
#       8
#     4   4   2   4   4   4   4   4
#     4  10  21  37  58  80 121 158 195 244 291 347
#     4  10  22  38  56  85 121 160 195 235 294 361
#     4  10  22  34  52  84 114 150 202 236 276 352
#     4  11  23  37  58  87 122 160 195 247 290 353
#     4   9  20  38  61  81 115 146 192 244 296 338
#     4  10  20  38  58  83 115 156 185 239 300 345
#     4   9  20  36  57  90 109 142 195 245 284 354
#     4  10  21  33  60  89 110 144 197 238 294 345
#
# _framework density 21.360886000000001
#
# number of rings (size 3 to 8) (size 9 to 14) (size 15 to 20)
#    0.000    2.133    0.000    3.200    9.333    1.600 
#    2.400    0.000    0.000    0.000    0.000    0.000 
#    0.000    0.000    0.000    0.000    0.000    0.000 
#
# Total GULP energy -167009.738226 kJ/mol
# GULP energy per Si atom -5566.991274 kJ/mol
# Density = 2.131227 g / cm^3
# Si number density = 21.360886 Si / 1000 Ang^3
#
#
#
# Elastic Constant Matrix: (Units=GPa)
#
#
# Indices 1 2 3 4 5 6 
#
# 1 115.1763 17.1851 48.2995 0.0000 -0.9088 0.0000
# 2 17.1851 84.3395 12.4685 0.0000 -8.2959 0.0000
# 3 48.2995 12.4685 74.8235 0.0000 -13.9231 0.0000
# 4 0.0000 0.0000 0.0000 6.4726 0.0000 -9.2299
# 5 -0.9088 -8.2959 -13.9231 0.0000 33.6208 0.0000
# 6 0.0000 0.0000 0.0000 -9.2299 0.0000 24.0829
#
#
#
# Elastic Compliance Matrix: (Units=1/GPa)
#
#
# Indices 1 2 3 4 5 6 
#
# 1 0.012425 -0.001638 -0.008408 0.000000 -0.003550 0.000000
# 2 -0.001638 0.012545 -0.000504 0.000000 0.002842 0.000000
# 3 -0.008408 -0.000504 0.020381 0.000000 0.008089 0.000000
# 4 0.000000 0.000000 0.000000 0.340694 0.000000 0.130573
# 5 -0.003550 0.002842 0.008089 0.000000 0.033698 0.000000
# 6 0.000000 0.000000 0.000000 0.130573 0.000000 0.091566
#
#
# Mechanical properties :
#
#
# Convention : Reuss Voigt Hill
#
# Bulk Modulus (GPa) = 41.23625 47.80507 44.52066
# Shear Modulus (GPa) = 9.25083 25.92769 17.58926
#
# Velocity S-wave (km/s) = 2.08330 3.48773 2.87267
# Velocity P-wave (km/s) = 5.01331 6.21670 5.64715
#
# Compressibility (1/GPa) = 0.02425051
#
# Stress axis : x y z
#
# Youngs Moduli (GPa) = 80.48561 79.71499 49.06451
#
# Poissons Ratio (x) = 0.13056 0.41253
# Poissons Ratio (y) = 0.13182 0.02474
# Poissons Ratio (z) = 0.67671 0.04020
#
# Static dielectric constant tensor:
#      x y z
#    x 0.000000 0.000000 0.000000 
#    y 0.000000 0.000000 0.000000 
#    z 0.000000 0.000000 0.000000 
# 
# From -- ./inp_files/13161.got.cif
#   From: 2010.05.17/outbox.cif.g08.bks.cpg/sg14_7_cif.got.tgz:13161.got - 2010.06.03 17:49:19.
