data_PCOD9243992
_publ_section_title
;
Structure prediction by ZEFSAII (Michael W. Deem and Ramdas Pophale) SiO2 
 PCOD9243992
Probable space group: P 21/C
;
_chemical_formula_sum "Si O2"
_cell_formula_units_Z 32
_cell_length_a 5.472135
_cell_length_b 11.207119
_cell_length_c 21.733654
_cell_angle_alpha 90.000000
_cell_angle_beta 93.213806
_cell_angle_gamma 90.000000
_cell_volume 1330.760728
_symmetry_space_group_name_H-M "P 21/C"
_symmetry_group_IT_number 14
_symmetry_cell_setting 'monoclinic'
loop_
_space_group_symop_operation_xyz
x,y,z
-x,1/2+y,1/2-z
-x,-y,-z
x,1/2-y,1/2+z
loop_
_atom_site_type_symbol
_atom_site_label
_atom_site_fract_x
_atom_site_fract_y
_atom_site_fract_z
Si Si1 0.352637 0.356132 0.695081
Si Si2 0.465333 0.307272 0.430500
Si Si3 0.832456 0.259432 0.633712
Si Si4 0.170288 0.601522 0.654798
Si Si5 0.005726 0.989181 0.395618
Si Si6 0.872200 0.698857 0.182248
Si Si7 0.831632 0.027177 0.055976
Si Si8 0.304345 0.101478 0.508020
O O1 0.603662 0.303912 0.671487
O O2 0.349600 0.499596 0.682559
O O3 0.312459 0.334191 0.766517
O O4 0.103604 0.295163 0.663440
O O5 0.719825 0.316491 0.398318
O O6 0.286047 0.252190 0.376207
O O7 0.403347 0.442621 0.447430
O O8 0.418505 0.225774 0.488713
O O9 0.817521 0.118033 0.622418
O O10 0.807452 0.333736 0.569404
O O11 0.056371 0.693350 0.701632
O O12 0.965482 0.523045 0.618696
O O13 0.786355 0.915246 0.423936
O O14 0.983292 0.081873 0.339500
O O15 0.096630 0.069701 0.454453
O O16 0.000000 0.000000 0.000000
O O17 0.500000 0.000000 0.500000
#
# Coordination Sequence:
#
# PCOD9243992 Si02
#       8
#     4   4   4   4   4   4   4   4
#     4  11  26  45  68  97 134 181 226 285 340 393
#     4  10  20  39  63  93 127 170 227 271 338 414
#     4  11  25  46  65 102 139 172 229 282 338 407
#     4  10  22  43  64  94 133 170 232 278 333 420
#     4  10  23  42  62  97 137 169 229 277 343 408
#     4  10  24  41  67  93 125 183 224 282 342 404
#     4  10  21  40  64  94 130 175 216 274 343 404
#     4  10  21  38  64  97 130 177 216 283 340 406
#
# _framework density 24.046396000000001
#
# number of rings (size 3 to 8) (size 9 to 14) (size 15 to 20)
#    0.000    1.750    1.250    1.500    5.250    3.500 
#    0.000    0.000    0.000    0.000    0.000    0.000 
#    0.000    0.000    0.000    0.000    0.000    0.000 
#
# Total GULP energy -178702.760603 kJ/mol
# GULP energy per Si atom -5584.461269 kJ/mol
# Density = 2.399167 g / cm^3
# Si number density = 24.046396 Si / 1000 Ang^3
#
#
#
# Elastic Constant Matrix: (Units=GPa)
#
#
# Indices 1 2 3 4 5 6 
#
# 1 70.3005 17.9917 23.4332 0.0000 -17.7817 0.0000
# 2 17.9917 118.1914 31.8364 0.0000 1.3891 0.0000
# 3 23.4332 31.8364 100.1317 0.0000 -28.4477 0.0000
# 4 0.0000 0.0000 0.0000 32.6562 0.0000 -9.7006
# 5 -17.7817 1.3891 -28.4477 0.0000 36.9827 0.0000
# 6 0.0000 0.0000 0.0000 -9.7006 0.0000 29.2254
#
#
#
# Elastic Compliance Matrix: (Units=1/GPa)
#
#
# Indices 1 2 3 4 5 6 
#
# 1 0.017093 -0.002386 -0.001128 0.000000 0.007441 0.000000
# 2 -0.002386 0.009920 -0.003874 0.000000 -0.004500 0.000000
# 3 -0.001128 -0.003874 0.014549 0.000000 0.010795 0.000000
# 4 0.000000 0.000000 0.000000 0.033972 0.000000 0.011276
# 5 0.007441 -0.004500 0.010795 0.000000 0.039090 0.000000
# 6 0.000000 0.000000 0.000000 0.011276 0.000000 0.037960
#
#
# Mechanical properties :
#
#
# Convention : Reuss Voigt Hill
#
# Bulk Modulus (GPa) = 37.33057 48.34956 42.84006
# Shear Modulus (GPa) = 28.36251 34.13033 31.24642
#
# Velocity S-wave (km/s) = 3.43810 3.77152 3.60866
# Velocity P-wave (km/s) = 5.59632 6.25430 5.93443
#
# Compressibility (1/GPa) = 0.02678769
#
# Stress axis : x y z
#
# Youngs Moduli (GPa) = 58.50285 100.80143 68.73098
#
# Poissons Ratio (x) = 0.24048 0.07751
# Poissons Ratio (y) = 0.13957 0.26628
# Poissons Ratio (z) = 0.06598 0.39053
#
# Static dielectric constant tensor:
#      x y z
#    x 1.925670 0.000000 0.119770 
#    y 0.000000 1.953260 0.000000 
#    z 0.119770 0.000000 1.850380 
# 
# From -- ./inp_files/71251.got.cif
#   From: 2010.05.17/outbox.cif.g08.bks.cpg/sg14_36_cif.got.tgz:71251.got - 2010.06.03 17:49:19.
