data_PCOD9243796
_publ_section_title
;
Structure prediction by ZEFSAII (Michael W. Deem and Ramdas Pophale) SiO2 
 PCOD9243796
Probable space group: P 21/C
;
_chemical_formula_sum "Si O2"
_cell_formula_units_Z 24
_cell_length_a 8.605884
_cell_length_b 14.060466
_cell_length_c 13.156451
_cell_angle_alpha 90.000000
_cell_angle_beta 126.543203
_cell_angle_gamma 90.000000
_cell_volume 1278.998895
_symmetry_space_group_name_H-M "P 21/C"
_symmetry_group_IT_number 14
_symmetry_cell_setting 'monoclinic'
loop_
_space_group_symop_operation_xyz
x,y,z
-x,1/2+y,1/2-z
-x,-y,-z
x,1/2-y,1/2+z
loop_
_atom_site_type_symbol
_atom_site_label
_atom_site_fract_x
_atom_site_fract_y
_atom_site_fract_z
Si Si1 0.877002 0.242379 0.586369
Si Si2 0.470464 0.149205 0.430921
Si Si3 0.907364 0.759202 0.635683
Si Si4 0.541264 0.049208 0.676578
Si Si5 0.116631 0.403517 0.062317
Si Si6 0.936208 0.102894 0.938303
O O1 0.661703 0.207367 0.478722
O O2 0.925146 0.328983 0.531409
O O3 0.913877 0.268716 0.717421
O O4 0.022457 0.155474 0.617237
O O5 0.285416 0.216162 0.375915
O O6 0.516051 0.099270 0.557037
O O7 0.435587 0.063328 0.338112
O O8 0.912976 0.836989 0.548240
O O9 0.924176 0.656936 0.587612
O O10 0.342737 0.071562 0.658561
O O11 0.727431 0.090650 0.804678
O O12 0.000000 0.500000 0.000000
O O13 0.000000 0.000000 0.000000
#
# Coordination Sequence:
#
# PCOD9243796 Si02
#       6
#     4   4   4   4   4   4
#     4  11  22  39  64  89 124 164 200 255 308 357
#     4  10  20  38  66  88 114 166 200 244 313 354
#     4  10  23  40  60  89 123 158 205 255 294 374
#     4  10  20  39  63  87 123 156 203 251 297 373
#     4  10  21  39  61  93 117 157 208 249 302 364
#     4  11  24  42  58  91 127 164 202 254 309 355
#
# _framework density 18.764678
#
# number of rings (size 3 to 8) (size 9 to 14) (size 15 to 20)
#    0.000    1.667    3.333    1.000    2.333    1.333 
#    6.000    0.833    0.000    0.000    0.000    0.000 
#    0.000    0.000    0.000    0.000    0.000    0.000 
#
# Total GULP energy -133970.988754 kJ/mol
# GULP energy per Si atom -5582.124531 kJ/mol
# Density = 1.872197 g / cm^3
# Si number density = 18.764678 Si / 1000 Ang^3
#
#
#
# Elastic Constant Matrix: (Units=GPa)
#
#
# Indices 1 2 3 4 5 6 
#
# 1 57.8116 39.4944 3.7288 0.0000 21.3905 0.0000
# 2 39.4944 126.7643 32.2554 0.0000 18.7324 0.0000
# 3 3.7288 32.2554 60.0055 0.0000 4.6086 0.0000
# 4 0.0000 0.0000 0.0000 27.8690 0.0000 9.4129
# 5 21.3905 18.7324 4.6086 0.0000 26.1899 0.0000
# 6 0.0000 0.0000 0.0000 9.4129 0.0000 25.6036
#
#
#
# Elastic Compliance Matrix: (Units=1/GPa)
#
#
# Indices 1 2 3 4 5 6 
#
# 1 0.029043 -0.007089 0.003485 0.000000 -0.019264 0.000000
# 2 -0.007089 0.011811 -0.005782 0.000000 -0.001641 0.000000
# 3 0.003485 -0.005782 0.019724 0.000000 -0.002182 0.000000
# 4 0.000000 0.000000 0.000000 0.040969 0.000000 -0.015062
# 5 -0.019264 -0.001641 -0.002182 0.000000 0.055474 0.000000
# 6 0.000000 0.000000 0.000000 -0.015062 0.000000 0.044594
#
#
# Mechanical properties :
#
#
# Convention : Reuss Voigt Hill
#
# Bulk Modulus (GPa) = 23.91953 43.94871 33.93412
# Shear Modulus (GPa) = 21.33800 27.20601 24.27200
#
# Velocity S-wave (km/s) = 3.37580 3.81182 3.60042
# Velocity P-wave (km/s) = 5.28862 6.54562 5.95041
#
# Compressibility (1/GPa) = 0.04180685
#
# Stress axis : x y z
#
# Youngs Moduli (GPa) = 34.43140 84.66692 50.69868
#
# Poissons Ratio (x) = 0.60018 -0.17670
# Poissons Ratio (y) = 0.24408 0.29316
# Poissons Ratio (z) = -0.12000 0.48958
#
# Static dielectric constant tensor:
#      x y z
#    x 1.673430 0.000000 -0.009180 
#    y 0.000000 1.633790 0.000000 
#    z -0.009180 0.000000 1.633620 
# 
# From -- ./inp_files/40794.got.cif
#   From: 2010.05.17/outbox.cif.g08.bks.cpg/sg14_21_cif.got.tgz:40794.got - 2010.06.03 17:49:19.
