data_PCOD9243962
_publ_section_title
;
Structure prediction by ZEFSAII (Michael W. Deem and Ramdas Pophale) SiO2 
 PCOD9243962
Probable space group: P 21/C
;
_chemical_formula_sum "Si O2"
_cell_formula_units_Z 32
_cell_length_a 17.862711
_cell_length_b 13.764196
_cell_length_c 12.722677
_cell_angle_alpha 90.000000
_cell_angle_beta 30.855352
_cell_angle_gamma 90.000000
_cell_volume 1604.301865
_symmetry_space_group_name_H-M "P 21/C"
_symmetry_group_IT_number 14
_symmetry_cell_setting 'monoclinic'
loop_
_space_group_symop_operation_xyz
x,y,z
-x,1/2+y,1/2-z
-x,-y,-z
x,1/2-y,1/2+z
loop_
_atom_site_type_symbol
_atom_site_label
_atom_site_fract_x
_atom_site_fract_y
_atom_site_fract_z
Si Si1 0.134751 0.585537 0.424215
Si Si2 0.614285 0.239373 0.703277
Si Si3 0.088398 0.134513 0.986427
Si Si4 0.585735 0.899592 0.913314
Si Si5 0.188978 0.303572 0.719219
Si Si6 0.586951 0.747186 0.736699
Si Si7 0.951638 0.265304 0.851869
Si Si8 0.462014 0.610937 0.050582
O O1 0.149987 0.472610 0.437637
O O2 0.050814 0.650926 0.612604
O O3 0.296407 0.625613 0.212019
O O4 0.049557 0.603070 0.419012
O O5 0.565510 0.237101 0.642113
O O6 0.782316 0.218674 0.526440
O O7 0.553437 0.344003 0.815314
O O8 0.523369 0.165505 0.884901
O O9 0.040844 0.196974 0.144182
O O10 0.179965 0.207324 0.802459
O O11 0.736173 0.888184 0.800281
O O12 0.607975 0.847811 0.773381
O O13 0.500000 0.000000 0.000000
O O14 0.292054 0.278051 0.495694
O O15 0.028148 0.316988 0.860939
O O16 0.575561 0.668240 0.842215
O O17 0.500000 0.500000 0.000000
#
# Coordination Sequence:
#
# PCOD9243962 Si02
#       8
#     4   4   4   4   4   4   4   4
#     4   9  21  37  59  95 114 164 204 250 320 366
#     4   9  21  39  58  88 116 159 202 247 318 365
#     4  10  20  39  63  87 127 154 210 259 300 384
#     4  10  22  42  58  88 129 160 203 254 309 382
#     4  10  22  38  63  90 120 165 204 251 315 362
#     4  10  21  39  60  86 121 162 197 251 315 366
#     4  10  20  40  61  87 126 156 203 265 315 367
#     4  10  21  34  61  87 119 148 202 257 297 369
#
# _framework density 19.946370000000002
#
# number of rings (size 3 to 8) (size 9 to 14) (size 15 to 20)
#    0.000    2.250    0.000    1.500    7.000    3.000 
#   11.250    0.625    0.000    0.000    0.000    0.000 
#    0.000    0.000    0.000    0.000    0.000    0.000 
#
# Total GULP energy -178169.694631 kJ/mol
# GULP energy per Si atom -5567.802957 kJ/mol
# Density = 1.990097 g / cm^3
# Si number density = 19.946370 Si / 1000 Ang^3
#
#
#
# Elastic Constant Matrix: (Units=GPa)
#
#
# Indices 1 2 3 4 5 6 
#
# 1 127.3244 16.2276 29.4988 0.0000 -7.8458 0.0000
# 2 16.2276 73.1596 16.5988 0.0000 14.0770 0.0000
# 3 29.4988 16.5988 64.2444 0.0000 11.1979 0.0000
# 4 0.0000 0.0000 0.0000 24.6385 0.0000 -6.7120
# 5 -7.8458 14.0770 11.1979 0.0000 33.2175 0.0000
# 6 0.0000 0.0000 0.0000 -6.7120 0.0000 22.9915
#
#
#
# Elastic Compliance Matrix: (Units=1/GPa)
#
#
# Indices 1 2 3 4 5 6 
#
# 1 0.009463 -0.001933 -0.004651 0.000000 0.004622 0.000000
# 2 -0.001933 0.015810 -0.002072 0.000000 -0.006458 0.000000
# 3 -0.004651 -0.002072 0.019416 0.000000 -0.006766 0.000000
# 4 0.000000 0.000000 0.000000 0.044094 0.000000 0.012873
# 5 0.004622 -0.006458 -0.006766 0.000000 0.036214 0.000000
# 6 0.000000 0.000000 0.000000 0.012873 0.000000 0.047252
#
#
# Mechanical properties :
#
#
# Convention : Reuss Voigt Hill
#
# Bulk Modulus (GPa) = 36.52693 43.26432 39.89563
# Shear Modulus (GPa) = 25.16534 29.66305 27.41420
#
# Velocity S-wave (km/s) = 3.55582 3.86053 3.71131
# Velocity P-wave (km/s) = 5.93387 6.45050 6.19757
#
# Compressibility (1/GPa) = 0.02737706
#
# Stress axis : x y z
#
# Youngs Moduli (GPa) = 105.67777 63.25034 51.50459
#
# Poissons Ratio (x) = 0.12226 0.23956
# Poissons Ratio (y) = 0.20428 0.10670
# Poissons Ratio (z) = 0.49153 0.13103
#
# Static dielectric constant tensor:
#      x y z
#    x 1.691230 0.000000 -0.075950 
#    y 0.000000 1.718590 0.000000 
#    z -0.075950 0.000000 1.710820 
# 
# From -- ./inp_files/34226.got.cif
#   From: 2010.05.17/outbox.cif.g08.bks.cpg/sg14_18_cif.got.tgz:34226.got - 2010.06.03 17:49:19.
