data_PCOD9243362
_publ_section_title
;
Structure prediction by ZEFSAII (Michael W. Deem and Ramdas Pophale) SiO2 
 PCOD9243362
Probable space group: P 21/C
;
_chemical_formula_sum "Si O2"
_cell_formula_units_Z 28
_cell_length_a 8.273387
_cell_length_b 20.308664
_cell_length_c 7.345224
_cell_angle_alpha 90.000000
_cell_angle_beta 85.996878
_cell_angle_gamma 90.000000
_cell_volume 1231.144057
_symmetry_space_group_name_H-M "P 21/C"
_symmetry_group_IT_number 14
_symmetry_cell_setting 'monoclinic'
loop_
_space_group_symop_operation_xyz
x,y,z
-x,1/2+y,1/2-z
-x,-y,-z
x,1/2-y,1/2+z
loop_
_atom_site_type_symbol
_atom_site_label
_atom_site_fract_x
_atom_site_fract_y
_atom_site_fract_z
Si Si1 0.215436 0.458020 0.360885
Si Si2 0.424487 0.548253 0.776448
Si Si3 0.954609 0.093646 0.144390
Si Si4 0.100963 0.385167 0.023695
Si Si5 0.428232 0.402505 0.852007
Si Si6 0.297644 0.811297 0.745767
Si Si7 0.214015 0.832278 0.332853
O O1 0.407078 0.446286 0.345828
O O2 0.166018 0.533654 0.391519
O O3 0.112167 0.414456 0.508289
O O4 0.150571 0.440620 0.164001
O O5 0.371903 0.471963 0.768635
O O6 0.286274 0.600961 0.742017
O O7 0.474925 0.568970 0.979407
O O8 0.854181 0.160807 0.128285
O O9 0.007947 0.089633 0.351805
O O10 0.274250 0.361322 0.935091
O O11 0.980944 0.336471 0.141571
O O12 0.542990 0.354664 0.726461
O O13 0.261947 0.828772 0.540333
O O14 0.297139 0.732929 0.749709
#
# Coordination Sequence:
#
# PCOD9243362 Si02
#       7
#     4   4   4   4   4   4   4
#     4  10  20  37  62  89 118 152 193 250 302 349
#     4   9  18  36  60  90 115 154 198 245 304 357
#     4  10  21  37  59  89 119 152 197 245 299 355
#     4  10  22  37  60  90 113 156 199 243 297 360
#     4   9  18  36  64  84 117 153 198 250 298 352
#     4  10  21  42  57  82 123 160 194 250 304 364
#     4  10  23  38  60  86 117 160 203 242 308 361
#
# _framework density 22.743074
#
# number of rings (size 3 to 8) (size 9 to 14) (size 15 to 20)
#    0.000    2.286    1.429    0.429   10.000    0.000 
#    5.143    3.571    0.000    0.000    0.000    0.000 
#    0.000    0.000    0.000    0.000    0.000    0.000 
#
# Total GULP energy -156285.848299 kJ/mol
# GULP energy per Si atom -5581.637439 kJ/mol
# Density = 2.269131 g / cm^3
# Si number density = 22.743074 Si / 1000 Ang^3
#
#
#
# Elastic Constant Matrix: (Units=GPa)
#
#
# Indices 1 2 3 4 5 6 
#
# 1 95.7390 57.5566 19.9823 0.0000 -36.2458 0.0000
# 2 57.5566 93.6560 14.3073 0.0000 -19.6194 0.0000
# 3 19.9823 14.3073 74.8057 0.0000 -8.9010 0.0000
# 4 0.0000 0.0000 0.0000 31.0261 0.0000 -6.9537
# 5 -36.2458 -19.6194 -8.9010 0.0000 39.0634 0.0000
# 6 0.0000 0.0000 0.0000 -6.9537 0.0000 20.5046
#
#
#
# Elastic Compliance Matrix: (Units=1/GPa)
#
#
# Indices 1 2 3 4 5 6 
#
# 1 0.023297 -0.010669 -0.002311 0.000000 0.015732 0.000000
# 2 -0.010669 0.017011 -0.000581 0.000000 -0.001488 0.000000
# 3 -0.002311 -0.000581 0.014191 0.000000 0.000798 0.000000
# 4 0.000000 0.000000 0.000000 0.034882 0.000000 0.011830
# 5 0.015732 -0.001488 0.000798 0.000000 0.039631 0.000000
# 6 0.000000 0.000000 0.000000 0.011830 0.000000 0.052781
#
#
# Mechanical properties :
#
#
# Convention : Reuss Voigt Hill
#
# Bulk Modulus (GPa) = 36.52455 49.76592 43.14524
# Shear Modulus (GPa) = 22.93145 29.60910 26.27028
#
# Velocity S-wave (km/s) = 3.17879 3.61209 3.40235
# Velocity P-wave (km/s) = 5.43760 6.27101 5.86912
#
# Compressibility (1/GPa) = 0.02737884
#
# Stress axis : x y z
#
# Youngs Moduli (GPa) = 42.92354 58.78577 70.46611
#
# Poissons Ratio (x) = 0.62717 0.16283
# Poissons Ratio (y) = 0.45794 0.04092
# Poissons Ratio (z) = 0.09919 0.03413
#
# Static dielectric constant tensor:
#      x y z
#    x 1.898260 0.000000 0.015020 
#    y 0.000000 1.838070 0.000000 
#    z 0.015020 0.000000 1.918720 
# 
# From -- ./inp_files/9372.got.cif
#   From: 2010.05.17/outbox.cif.g08.bks.cpg/sg14_5_cif.got.tgz:9372.got - 2010.06.03 17:49:19.
