data_PCOD9243723
_publ_section_title
;
Structure prediction by ZEFSAII (Michael W. Deem and Ramdas Pophale) SiO2 
 PCOD9243723
Probable space group: P 21/C
;
_chemical_formula_sum "Si O2"
_cell_formula_units_Z 26
_cell_length_a 9.383675
_cell_length_b 23.600033
_cell_length_c 5.155699
_cell_angle_alpha 90.000000
_cell_angle_beta 57.355446
_cell_angle_gamma 90.000000
_cell_volume 961.396044
_symmetry_space_group_name_H-M "P 21/C"
_symmetry_group_IT_number 14
_symmetry_cell_setting 'monoclinic'
loop_
_space_group_symop_operation_xyz
x,y,z
-x,1/2+y,1/2-z
-x,-y,-z
x,1/2-y,1/2+z
loop_
_atom_site_type_symbol
_atom_site_label
_atom_site_fract_x
_atom_site_fract_y
_atom_site_fract_z
Si Si1 0.541070 0.122180 0.968369
Si Si2 0.414795 0.212704 0.704035
Si Si3 0.000000 0.500000 0.500000
Si Si4 0.212789 0.405267 0.010234
Si Si5 0.007014 0.284970 0.554538
Si Si6 0.757440 0.020082 0.787023
Si Si7 0.907895 0.122112 0.491058
O O1 0.479322 0.154163 0.770947
O O2 0.392656 0.126941 0.327966
O O3 0.589537 0.055476 0.905907
O O4 0.736894 0.140996 0.806386
O O5 0.466223 0.257684 0.883061
O O6 0.210445 0.207656 0.878216
O O7 0.866237 0.557127 0.685918
O O8 0.853129 0.470830 0.459548
O O9 0.070985 0.367644 0.008439
O O10 0.248005 0.455578 0.772143
O O11 0.958701 0.256533 0.336191
O O12 0.922582 0.343802 0.714195
O O13 0.888309 0.053233 0.458542
#
# Coordination Sequence:
#
# PCOD9243723 Si02
#       7
#     4   4   2   4   4   4   4
#     4  10  22  40  67  96 127 170 224 272 336 404
#     4  10  22  45  66  97 135 172 218 283 342 394
#     4  10  20  38  64  86 128 174 204 274 320 388
#     4  11  20  44  61  89 138 163 221 271 320 401
#     4  10  21  42  69  96 130 174 221 278 341 402
#     4   9  22  41  59  95 126 173 216 262 334 383
#     4   9  20  38  60  98 120 173 216 267 342 388
#
# _framework density 27.044004000000001
#
# number of rings (size 3 to 8) (size 9 to 14) (size 15 to 20)
#    0.923    1.231    1.538    2.308    0.000    1.846 
#   16.615    0.000    0.000    0.000    0.000    0.000 
#    0.000    0.000    0.000    0.000    0.000    0.000 
#
# Total GULP energy -144828.049442 kJ/mol
# GULP energy per Si atom -5570.309594 kJ/mol
# Density = 2.698245 g / cm^3
# Si number density = 27.044004 Si / 1000 Ang^3
#
#
#
# Elastic Constant Matrix: (Units=GPa)
#
#
# Indices 1 2 3 4 5 6 
#
# 1 70.6016 44.4487 54.5528 0.0000 -15.5932 0.0000
# 2 44.4487 103.1440 14.2451 0.0000 10.5132 0.0000
# 3 54.5528 14.2451 88.3745 0.0000 -12.1015 0.0000
# 4 0.0000 0.0000 0.0000 49.5570 0.0000 -1.2963
# 5 -15.5932 10.5132 -12.1015 0.0000 53.6270 0.0000
# 6 0.0000 0.0000 0.0000 -1.2963 0.0000 46.0978
#
#
#
# Elastic Compliance Matrix: (Units=1/GPa)
#
#
# Indices 1 2 3 4 5 6 
#
# 1 0.047153 -0.018119 -0.024582 0.000000 0.011716 0.000000
# 2 -0.018119 0.017181 0.007463 0.000000 -0.006953 0.000000
# 3 -0.024582 0.007463 0.024877 0.000000 -0.002997 0.000000
# 4 0.000000 0.000000 0.000000 0.020194 0.000000 0.000568
# 5 0.011716 -0.006953 -0.002997 0.000000 0.022741 0.000000
# 6 0.000000 0.000000 0.000000 0.000568 0.000000 0.021709
#
#
# Mechanical properties :
#
#
# Convention : Reuss Voigt Hill
#
# Bulk Modulus (GPa) = 53.37728 54.29037 53.83383
# Shear Modulus (GPa) = 21.68479 39.78125 30.73302
#
# Velocity S-wave (km/s) = 2.83474 3.83950 3.37472
# Velocity P-wave (km/s) = 5.52217 6.30667 5.92741
#
# Compressibility (1/GPa) = 0.01873456
#
# Stress axis : x y z
#
# Youngs Moduli (GPa) = 21.20735 58.20235 40.19852
#
# Poissons Ratio (x) = 1.05459 0.98818
# Poissons Ratio (y) = 0.38426 -0.30002
# Poissons Ratio (z) = 0.52133 -0.43439
#
# Static dielectric constant tensor:
#      x y z
#    x 2.021590 0.000000 -0.066280 
#    y 0.000000 2.186930 0.000000 
#    z -0.066280 0.000000 2.135080 
# 
# From -- ./inp_files/3271.got.cif
#   From: 2010.05.17/outbox.cif.g08.bks.cpg/sg14_2_cif.got.tgz:3271.got - 2010.06.03 17:49:19.
