data_PCOD9243347
_publ_section_title
;
Structure prediction by ZEFSAII (Michael W. Deem and Ramdas Pophale) SiO2 
 PCOD9243347
Probable space group: P 21/C
;
_chemical_formula_sum "Si O2"
_cell_formula_units_Z 28
_cell_length_a 10.523462
_cell_length_b 5.033029
_cell_length_c 26.121764
_cell_angle_alpha 90.000000
_cell_angle_beta 81.079715
_cell_angle_gamma 90.000000
_cell_volume 1366.802512
_symmetry_space_group_name_H-M "P 21/C"
_symmetry_group_IT_number 14
_symmetry_cell_setting 'monoclinic'
loop_
_space_group_symop_operation_xyz
x,y,z
-x,1/2+y,1/2-z
-x,-y,-z
x,1/2-y,1/2+z
loop_
_atom_site_type_symbol
_atom_site_label
_atom_site_fract_x
_atom_site_fract_y
_atom_site_fract_z
Si Si1 0.915593 0.977679 0.454527
Si Si2 0.049416 0.782800 0.774197
Si Si3 0.924567 0.479930 0.381853
Si Si4 0.626707 0.429432 0.961495
Si Si5 0.670653 0.093223 0.718501
Si Si6 0.452510 0.089468 0.819955
Si Si7 0.635045 0.563613 0.397865
O O1 0.933008 0.694413 0.426682
O O2 0.764764 0.010803 0.477901
O O3 0.945063 0.197228 0.408294
O O4 0.000000 0.000000 0.500000
O O5 0.042917 0.033228 0.735213
O O6 0.013819 0.923493 0.830083
O O7 0.187406 0.640595 0.769342
O O8 0.778483 0.498580 0.369078
O O9 0.626102 0.118460 0.948703
O O10 0.625904 0.625161 0.911734
O O11 0.500000 0.500000 0.000000
O O12 0.569365 0.092318 0.771603
O O13 0.635594 0.339966 0.685671
O O14 0.637353 0.838813 0.686416
O O15 0.523492 0.045086 0.868771
#
# Coordination Sequence:
#
# PCOD9243347 Si02
#       7
#     4   4   4   4   4   4   4
#     4  10  21  41  63  86 120 165 196 253 315 356
#     4  12  24  40  62  90 125 162 202 250 302 347
#     4  10  22  39  62  91 119 155 211 241 289 385
#     4  10  21  38  58  88 117 143 203 248 293 365
#     4  10  22  37  57  85 123 153 197 247 282 358
#     4  10  20  38  58  83 117 158 196 236 302 345
#     4  10  20  37  62  83 113 155 193 238 298 351
#
# _framework density 20.485771
#
# number of rings (size 3 to 8) (size 9 to 14) (size 15 to 20)
#    0.000    1.714    0.000    4.286    0.000    4.571 
#    7.714    0.000    0.000    0.000    0.000    0.000 
#    0.000    0.000    0.000    0.000    0.000    0.000 
#
# Total GULP energy -156272.409649 kJ/mol
# GULP energy per Si atom -5581.157487 kJ/mol
# Density = 2.043914 g / cm^3
# Si number density = 20.485771 Si / 1000 Ang^3
#
#
#
# Elastic Constant Matrix: (Units=GPa)
#
#
# Indices 1 2 3 4 5 6 
#
# 1 112.7374 33.6479 36.7391 0.0000 17.0150 0.0000
# 2 33.6479 117.2241 0.9148 0.0000 9.5716 0.0000
# 3 36.7391 0.9148 35.5982 0.0000 10.0103 0.0000
# 4 0.0000 0.0000 0.0000 22.9071 0.0000 -1.9777
# 5 17.0150 9.5716 10.0103 0.0000 24.0494 0.0000
# 6 0.0000 0.0000 0.0000 -1.9777 0.0000 26.1025
#
#
#
# Elastic Compliance Matrix: (Units=1/GPa)
#
#
# Indices 1 2 3 4 5 6 
#
# 1 0.015413 -0.004057 -0.014939 0.000000 -0.003072 0.000000
# 2 -0.004057 0.009908 0.004795 0.000000 -0.003069 0.000000
# 3 -0.014939 0.004795 0.046379 0.000000 -0.010644 0.000000
# 4 0.000000 0.000000 0.000000 0.043942 0.000000 0.003329
# 5 -0.003072 -0.003069 -0.010644 0.000000 0.049407 0.000000
# 6 0.000000 0.000000 0.000000 0.003329 0.000000 0.038563
#
#
# Mechanical properties :
#
#
# Convention : Reuss Voigt Hill
#
# Bulk Modulus (GPa) = 23.09496 45.35147 34.22322
# Shear Modulus (GPa) = 20.28849 27.56231 23.92540
#
# Velocity S-wave (km/s) = 3.15043 3.67200 3.42117
# Velocity P-wave (km/s) = 4.95295 6.33752 5.68753
#
# Compressibility (1/GPa) = 0.04329949
#
# Stress axis : x y z
#
# Youngs Moduli (GPa) = 64.88090 100.92550 21.56155
#
# Poissons Ratio (x) = 0.40942 0.32210
# Poissons Ratio (y) = 0.26320 -0.10339
# Poissons Ratio (z) = 0.96924 -0.48396
#
# Static dielectric constant tensor:
#      x y z
#    x 1.737220 0.000000 -0.032030 
#    y 0.000000 1.712870 0.000000 
#    z -0.032030 0.000000 1.719660 
# 
# From -- ./inp_files/70053.got.cif
#   From: 2010.05.17/outbox.cif.g08.bks.cpg/sg14_36_cif.got.tgz:70053.got - 2010.06.03 17:49:19.
