data_PCOD9243964
_publ_section_title
;
Structure prediction by ZEFSAII (Michael W. Deem and Ramdas Pophale) SiO2 
 PCOD9243964
Probable space group: P 21/C
;
_chemical_formula_sum "Si O2"
_cell_formula_units_Z 24
_cell_length_a 9.489993
_cell_length_b 24.016865
_cell_length_c 5.100283
_cell_angle_alpha 90.000000
_cell_angle_beta 70.856357
_cell_angle_gamma 90.000000
_cell_volume 1098.171375
_symmetry_space_group_name_H-M "P 21/C"
_symmetry_group_IT_number 14
_symmetry_cell_setting 'monoclinic'
loop_
_space_group_symop_operation_xyz
x,y,z
-x,1/2+y,1/2-z
-x,-y,-z
x,1/2-y,1/2+z
loop_
_atom_site_type_symbol
_atom_site_label
_atom_site_fract_x
_atom_site_fract_y
_atom_site_fract_z
Si Si1 0.202126 0.126575 0.222642
Si Si2 0.067301 0.584425 0.352415
Si Si3 0.425407 0.212859 0.270004
Si Si4 0.383972 0.606562 0.370736
Si Si5 0.818645 0.525928 0.865961
Si Si6 0.440807 0.071579 0.752536
O O1 0.271757 0.177718 0.334678
O O2 0.213187 0.068066 0.377321
O O3 0.031812 0.130076 0.235655
O O4 0.316264 0.117211 0.912491
O O5 0.208458 0.603935 0.431147
O O6 0.125705 0.536443 0.116989
O O7 0.948172 0.554757 0.616043
O O8 0.433457 0.238350 0.552511
O O9 0.556165 0.169080 0.120819
O O10 0.449507 0.568463 0.566106
O O11 0.464935 0.590677 0.051314
O O12 0.667976 0.522542 0.782185
#
# Coordination Sequence:
#
# PCOD9243964 Si02
#       6
#     4   4   4   4   4   4
#     4  10  21  42  66  92 129 164 220 255 314 386
#     4  10  24  37  65  97 139 169 204 258 325 382
#     4  11  23  42  70  88 116 166 220 267 322 374
#     4  11  23  42  62  98 126 163 208 276 316 367
#     4  10  20  42  63  97 131 183 206 248 312 396
#     4  10  20  39  63  87 132 163 216 248 307 378
#
# _framework density 21.854514999999999
#
# number of rings (size 3 to 8) (size 9 to 14) (size 15 to 20)
#    0.000    1.667    3.333    2.500    4.667    1.333 
#    0.000    1.667    0.000    0.000    0.000    0.000 
#    0.000    0.000    0.000    0.000    0.000    0.000 
#
# Total GULP energy -134089.924273 kJ/mol
# GULP energy per Si atom -5587.080178 kJ/mol
# Density = 2.180477 g / cm^3
# Si number density = 21.854515 Si / 1000 Ang^3
#
#
#
# Elastic Constant Matrix: (Units=GPa)
#
#
# Indices 1 2 3 4 5 6 
#
# 1 194.6350 30.3188 6.0253 0.0000 3.7708 0.0000
# 2 30.3188 59.2940 -2.4212 0.0000 -3.8566 0.0000
# 3 6.0253 -2.4212 66.3962 0.0000 13.1114 0.0000
# 4 0.0000 0.0000 0.0000 11.4613 0.0000 6.3425
# 5 3.7708 -3.8566 13.1114 0.0000 27.1368 0.0000
# 6 0.0000 0.0000 0.0000 6.3425 0.0000 38.4490
#
#
#
# Elastic Compliance Matrix: (Units=1/GPa)
#
#
# Indices 1 2 3 4 5 6 
#
# 1 0.005632 -0.002962 -0.000422 0.000000 -0.001000 0.000000
# 2 -0.002962 0.018582 0.000380 0.000000 0.002869 0.000000
# 3 -0.000422 0.000380 0.016683 0.000000 -0.007948 0.000000
# 4 0.000000 0.000000 0.000000 0.096015 0.000000 -0.015838
# 5 -0.001000 0.002869 -0.007948 0.000000 0.041237 0.000000
# 6 0.000000 0.000000 0.000000 -0.015838 0.000000 0.028621
#
#
# Mechanical properties :
#
#
# Convention : Reuss Voigt Hill
#
# Bulk Modulus (GPa) = 28.66251 43.13011 35.89631
# Shear Modulus (GPa) = 22.28108 34.50290 28.39199
#
# Velocity S-wave (km/s) = 3.19645 3.97766 3.60826
# Velocity P-wave (km/s) = 5.17365 6.39325 5.81551
#
# Compressibility (1/GPa) = 0.03488877
#
# Stress axis : x y z
#
# Youngs Moduli (GPa) = 177.56872 53.81632 59.94236
#
# Poissons Ratio (x) = 0.15940 0.02527
# Poissons Ratio (y) = 0.52593 -0.02277
# Poissons Ratio (z) = 0.07487 -0.02044
#
# Static dielectric constant tensor:
#      x y z
#    x 1.856030 0.000000 0.041110 
#    y 0.000000 1.828910 0.000000 
#    z 0.041110 0.000000 1.815240 
# 
# From -- ./inp_files/1799.got.cif
#   From: 2010.05.17/outbox.cif.g08.bks.cpg/sg14_1_cif.got.tgz:1799.got - 2010.06.03 17:49:19.
