data_PCOD9243393
_publ_section_title
;
Structure prediction by ZEFSAII (Michael W. Deem and Ramdas Pophale) SiO2 
 PCOD9243393
Probable space group: P 21/C
;
_chemical_formula_sum "Si O2"
_cell_formula_units_Z 18
_cell_length_a 12.647237
_cell_length_b 6.993085
_cell_length_c 7.287706
_cell_angle_alpha 90.000000
_cell_angle_beta 92.699559
_cell_angle_gamma 90.000000
_cell_volume 643.832768
_symmetry_space_group_name_H-M "P 21/C"
_symmetry_group_IT_number 14
_symmetry_cell_setting 'monoclinic'
loop_
_space_group_symop_operation_xyz
x,y,z
-x,1/2+y,1/2-z
-x,-y,-z
x,1/2-y,1/2+z
loop_
_atom_site_type_symbol
_atom_site_label
_atom_site_fract_x
_atom_site_fract_y
_atom_site_fract_z
Si Si1 0.500000 0.500000 0.000000
Si Si2 0.671492 0.069848 0.796779
Si Si3 0.105802 0.623604 0.817937
Si Si4 0.646092 0.521897 0.705697
Si Si5 0.125883 0.039770 0.726380
O O1 0.386355 0.480140 0.883013
O O2 0.549670 0.600426 0.815914
O O3 0.798058 0.041023 0.792039
O O4 0.654866 0.301820 0.784262
O O5 0.628756 0.999893 0.988197
O O6 0.132821 0.845188 0.842410
O O7 0.986285 0.630594 0.729869
O O8 0.112287 0.518292 0.012575
O O9 0.758094 0.626261 0.743629
#
# Coordination Sequence:
#
# PCOD9243393 Si02
#       5
#     2   4   4   4   4
#     4  12  22  40  62  88 118 164 208 254 294 368
#     4  11  21  39  65  88 120 165 206 250 311 373
#     4  10  20  37  63  91 125 160 202 255 308 373
#     4  11  21  39  65  88 120 165 206 250 311 373
#     4  10  20  37  63  91 125 160 202 255 308 373
#
# _framework density 27.957574000000001
#
# number of rings (size 3 to 8) (size 9 to 14) (size 15 to 20)
#    0.000    1.333    4.444    4.667    0.000    3.556 
#    0.000    2.222    0.000    0.000    0.000    0.000 
#    0.000    0.000    0.000    0.000    0.000    0.000 
#
# Total GULP energy -100424.369521 kJ/mol
# GULP energy per Si atom -5579.131640 kJ/mol
# Density = 2.789394 g / cm^3
# Si number density = 27.957574 Si / 1000 Ang^3
#
#
#
# Elastic Constant Matrix: (Units=GPa)
#
#
# Indices 1 2 3 4 5 6 
#
# 1 236.1365 8.5144 68.0614 0.0000 0.9429 0.0000
# 2 8.5144 77.4769 12.7702 0.0000 -2.7367 0.0000
# 3 68.0614 12.7702 188.7871 0.0000 -4.2146 0.0000
# 4 0.0000 0.0000 0.0000 -9.1954 0.0000 4.5269
# 5 0.9429 -2.7367 -4.2146 0.0000 51.7015 0.0000
# 6 0.0000 0.0000 0.0000 4.5269 0.0000 10.3740
#
#
#
# Elastic Compliance Matrix: (Units=1/GPa)
#
#
# Indices 1 2 3 4 5 6 
#
# 1 0.004733 -0.000249 -0.001695 0.000000 -0.000238 0.000000
# 2 -0.000249 0.013086 -0.000781 0.000000 0.000634 0.000000
# 3 -0.001695 -0.000781 0.005971 0.000000 0.000476 0.000000
# 4 0.000000 0.000000 0.000000 -0.089519 0.000000 0.039063
# 5 -0.000238 0.000634 0.000476 0.000000 0.019418 0.000000
# 6 0.000000 0.000000 0.000000 0.039063 0.000000 0.079349
#
#
# Mechanical properties :
#
#
# Convention : Reuss Voigt Hill
#
# Bulk Modulus (GPa) = 54.52607 75.67694 65.10151
# Shear Modulus (GPa) = 112.10039 38.11298 75.10668
#
# Velocity S-wave (km/s) = 6.33906 3.69622 5.18872
# Velocity P-wave (km/s) = 8.55124 6.73374 7.69633
#
# Compressibility (1/GPa) = 0.01833985
#
# Stress axis : x y z
#
# Youngs Moduli (GPa) = 211.26958 76.41990 167.46247
#
# Poissons Ratio (x) = 0.01904 0.28383
# Poissons Ratio (y) = 0.05265 0.13082
# Poissons Ratio (z) = 0.35808 0.05970
#
# Static dielectric constant tensor:
#      x y z
#    x 2.270760 0.000000 -0.080640 
#    y 0.000000 2.311030 0.000000 
#    z -0.080640 0.000000 2.105000 
# 
# From -- ./inp_files/11640.got.cif
#   From: 2010.05.17/outbox.cif.g08.bks.cpg/sg14_6_cif.got.tgz:11640.got - 2010.06.03 17:49:19.
