data_PCOD9243319
_publ_section_title
;
Structure prediction by ZEFSAII (Michael W. Deem and Ramdas Pophale) SiO2 
 PCOD9243319
Probable space group: P 21/C
;
_chemical_formula_sum "Si O2"
_cell_formula_units_Z 32
_cell_length_a 5.881768
_cell_length_b 20.495365
_cell_length_c 11.911929
_cell_angle_alpha 90.000000
_cell_angle_beta 72.913636
_cell_angle_gamma 90.000000
_cell_volume 1372.591419
_symmetry_space_group_name_H-M "P 21/C"
_symmetry_group_IT_number 14
_symmetry_cell_setting 'monoclinic'
loop_
_space_group_symop_operation_xyz
x,y,z
-x,1/2+y,1/2-z
-x,-y,-z
x,1/2-y,1/2+z
loop_
_atom_site_type_symbol
_atom_site_label
_atom_site_fract_x
_atom_site_fract_y
_atom_site_fract_z
Si Si1 0.268501 0.714410 0.367474
Si Si2 0.343445 0.956684 0.441464
Si Si3 0.138141 0.498737 0.596745
Si Si4 0.977652 0.815024 0.716263
Si Si5 0.520790 0.112572 0.986801
Si Si6 0.351294 0.266604 0.369111
Si Si7 0.095464 0.449964 0.829670
Si Si8 0.590071 0.322929 0.995011
O O1 0.378335 0.655776 0.424478
O O2 0.442241 0.745233 0.248016
O O3 0.252597 0.773671 0.455549
O O4 0.025449 0.694944 0.340464
O O5 0.089831 0.946562 0.540822
O O6 0.463875 0.885801 0.422932
O O7 0.500000 0.000000 0.500000
O O8 0.295277 0.998284 0.337619
O O9 0.264474 0.568746 0.593456
O O10 0.333639 0.441377 0.555736
O O11 0.000000 0.500000 0.500000
O O12 0.990325 0.477896 0.728532
O O13 0.881105 0.750087 0.670653
O O14 0.815482 0.876469 0.706009
O O15 0.233331 0.839353 0.633137
O O16 0.406124 0.162589 0.912881
O O17 0.374044 0.216355 0.471055
#
# Coordination Sequence:
#
# PCOD9243319 Si02
#       8
#     4   4   4   4   4   4   4   4
#     4  10  21  38  61  86 122 160 202 256 310 367
#     4  10  21  39  62  89 124 158 202 261 317 373
#     4  11  24  42  64  89 130 173 218 260 312 381
#     4  10  20  37  61  86 116 159 204 249 309 373
#     4  10  24  41  60  94 128 166 213 259 315 376
#     4  10  21  38  61  89 117 159 206 253 311 373
#     4  10  22  38  61  92 120 163 211 252 310 376
#     4   9  21  37  57  85 121 152 196 256 309 362
#
# _framework density 23.313566999999999
#
# number of rings (size 3 to 8) (size 9 to 14) (size 15 to 20)
#    0.000    2.000    0.000    2.250    1.750   10.000 
#    0.000    0.000    0.000    0.000    0.000    0.000 
#    0.000    0.000    0.000    0.000    0.000    0.000 
#
# Total GULP energy -178527.913327 kJ/mol
# GULP energy per Si atom -5578.997291 kJ/mol
# Density = 2.326050 g / cm^3
# Si number density = 23.313567 Si / 1000 Ang^3
#
#
#
# Elastic Constant Matrix: (Units=GPa)
#
#
# Indices 1 2 3 4 5 6 
#
# 1 27.6901 18.1959 8.7074 0.0000 17.7106 0.0000
# 2 18.1959 150.2622 31.7185 0.0000 25.4571 0.0000
# 3 8.7074 31.7185 75.0840 0.0000 28.0732 0.0000
# 4 0.0000 0.0000 0.0000 34.0879 0.0000 7.5943
# 5 17.7106 25.4571 28.0732 0.0000 42.9869 0.0000
# 6 0.0000 0.0000 0.0000 7.5943 0.0000 16.8384
#
#
#
# Elastic Compliance Matrix: (Units=1/GPa)
#
#
# Indices 1 2 3 4 5 6 
#
# 1 0.050755 -0.003277 0.003428 0.000000 -0.021209 0.000000
# 2 -0.003277 0.007835 -0.002249 0.000000 -0.001821 0.000000
# 3 0.003428 -0.002249 0.018392 0.000000 -0.012092 0.000000
# 4 0.000000 0.000000 0.000000 0.032613 0.000000 -0.014709
# 5 -0.021209 -0.001821 -0.012092 0.000000 0.040976 0.000000
# 6 0.000000 0.000000 0.000000 -0.014709 0.000000 0.066022
#
#
# Mechanical properties :
#
#
# Convention : Reuss Voigt Hill
#
# Bulk Modulus (GPa) = 13.73870 41.14221 27.44046
# Shear Modulus (GPa) = 20.40406 31.74360 26.07383
#
# Velocity S-wave (km/s) = 2.96159 3.69398 3.34787
# Velocity P-wave (km/s) = 4.19529 5.98996 5.17108
#
# Compressibility (1/GPa) = 0.07278710
#
# Stress axis : x y z
#
# Youngs Moduli (GPa) = 19.70263 127.63095 54.37196
#
# Poissons Ratio (x) = 0.41818 -0.18640
# Poissons Ratio (y) = 0.06456 0.12228
# Poissons Ratio (z) = -0.06754 0.28703
#
# Static dielectric constant tensor:
#      x y z
#    x 1.980170 0.000000 -0.049990 
#    y 0.000000 1.971540 0.000000 
#    z -0.049990 0.000000 1.940880 
# 
# From -- ./inp_files/21797.got.cif
#   From: 2010.05.17/outbox.cif.g08.bks.cpg/sg14_11_cif.got.tgz:21797.got - 2010.06.03 17:49:19.
