data_PCOD9243144
_publ_section_title
;
Structure prediction by ZEFSAII (Michael W. Deem and Ramdas Pophale) SiO2 
 PCOD9243144
Probable space group: P 21/C
;
_chemical_formula_sum "Si O2"
_cell_formula_units_Z 28
_cell_length_a 16.014387
_cell_length_b 11.413049
_cell_length_c 8.613950
_cell_angle_alpha 90.000000
_cell_angle_beta 130.277728
_cell_angle_gamma 90.000000
_cell_volume 1201.138735
_symmetry_space_group_name_H-M "P 21/C"
_symmetry_group_IT_number 14
_symmetry_cell_setting 'monoclinic'
loop_
_space_group_symop_operation_xyz
x,y,z
-x,1/2+y,1/2-z
-x,-y,-z
x,1/2-y,1/2+z
loop_
_atom_site_type_symbol
_atom_site_label
_atom_site_fract_x
_atom_site_fract_y
_atom_site_fract_z
Si Si1 0.887775 0.754667 0.349846
Si Si2 0.729413 0.842368 0.898687
Si Si3 0.989717 0.401897 0.739501
Si Si4 0.161816 0.914967 0.431613
Si Si5 0.592349 0.472787 0.391699
Si Si6 0.789029 0.179655 0.167066
Si Si7 0.639438 0.915701 0.286881
O O1 0.808710 0.665240 0.346352
O O2 0.945046 0.843077 0.537561
O O3 0.976468 0.681494 0.361114
O O4 0.810699 0.828958 0.143163
O O5 0.660847 0.721880 0.812008
O O6 0.646883 0.948572 0.824222
O O7 0.864404 0.394408 0.637897
O O8 0.041817 0.528805 0.775211
O O9 0.185905 0.814009 0.338137
O O10 0.178726 0.858801 0.621690
O O11 0.250713 0.018329 0.528418
O O12 0.663252 0.354250 0.488346
O O13 0.464021 0.448632 0.231709
O O14 0.613700 0.540964 0.580668
#
# Coordination Sequence:
#
# PCOD9243144 Si02
#       7
#     4   4   4   4   4   4   4
#     4  10  20  36  66  93 122 163 216 253 319 379
#     4  11  19  40  65  95 123 163 218 269 319 389
#     4  11  22  42  66  94 131 172 210 268 317 386
#     4  11  23  44  64  92 136 167 215 268 323 381
#     4  10  23  40  65  93 125 169 217 263 322 394
#     4  11  25  42  65  96 131 174 211 260 332 383
#     4  10  21  42  66  89 126 172 208 269 327 375
#
# _framework density 23.311212000000001
#
# number of rings (size 3 to 8) (size 9 to 14) (size 15 to 20)
#    0.000    1.429    4.286    2.143    2.000    3.429 
#    0.000    2.857    0.000    0.000    0.000    0.000 
#    0.000    0.000    0.000    0.000    0.000    0.000 
#
# Total GULP energy -156927.072277 kJ/mol
# GULP energy per Si atom -5604.538296 kJ/mol
# Density = 2.325815 g / cm^3
# Si number density = 23.311212 Si / 1000 Ang^3
#
#
#
# Elastic Constant Matrix: (Units=GPa)
#
#
# Indices 1 2 3 4 5 6 
#
# 1 110.4513 -9.6499 31.3036 0.0000 6.0115 0.0000
# 2 -9.6499 51.5222 14.2207 0.0000 -11.2005 0.0000
# 3 31.3036 14.2207 37.9802 0.0000 -1.8065 0.0000
# 4 0.0000 0.0000 0.0000 13.3741 0.0000 -7.4607
# 5 6.0115 -11.2005 -1.8065 0.0000 26.8739 0.0000
# 6 0.0000 0.0000 0.0000 -7.4607 0.0000 29.0677
#
#
#
# Elastic Compliance Matrix: (Units=1/GPa)
#
#
# Indices 1 2 3 4 5 6 
#
# 1 0.013426 0.005881 -0.013337 0.000000 -0.001449 0.000000
# 2 0.005881 0.026350 -0.014299 0.000000 0.008705 0.000000
# 3 -0.013337 -0.014299 0.042671 0.000000 -0.000108 0.000000
# 4 0.000000 0.000000 0.000000 0.087266 0.000000 0.022398
# 5 -0.001449 0.008705 -0.000108 0.000000 0.041156 0.000000
# 6 0.000000 0.000000 0.000000 0.022398 0.000000 0.040151
#
#
# Mechanical properties :
#
#
# Convention : Reuss Voigt Hill
#
# Bulk Modulus (GPa) = 25.68277 30.18917 27.93597
# Shear Modulus (GPa) = 16.25968 24.80175 20.53072
#
# Velocity S-wave (km/s) = 2.64390 3.26535 2.97092
# Velocity P-wave (km/s) = 4.51237 5.21491 4.87631
#
# Compressibility (1/GPa) = 0.03893662
#
# Stress axis : x y z
#
# Youngs Moduli (GPa) = 74.48063 37.95106 23.43530
#
# Poissons Ratio (x) = -0.22319 0.31255
# Poissons Ratio (y) = -0.43801 0.33510
# Poissons Ratio (z) = 0.99334 0.54266
#
# Static dielectric constant tensor:
#      x y z
#    x 1.870790 0.000000 -0.014840 
#    y 0.000000 1.865140 0.000000 
#    z -0.014840 0.000000 1.871130 
# 
# From -- ./inp_files/15875.got.cif
#   From: 2010.05.17/outbox.cif.g08.bks.cpg/sg14_8_cif.got.tgz:15875.got - 2010.06.03 17:49:19.
