data_PCOD9243158
_publ_section_title
;
Structure prediction by ZEFSAII (Michael W. Deem and Ramdas Pophale) SiO2 
 PCOD9243158
Probable space group: P 21/C
;
_chemical_formula_sum "Si O2"
_cell_formula_units_Z 20
_cell_length_a 7.593111
_cell_length_b 18.872625
_cell_length_c 5.189637
_cell_angle_alpha 90.000000
_cell_angle_beta 84.637438
_cell_angle_gamma 90.000000
_cell_volume 740.430104
_symmetry_space_group_name_H-M "P 21/C"
_symmetry_group_IT_number 14
_symmetry_cell_setting 'monoclinic'
loop_
_space_group_symop_operation_xyz
x,y,z
-x,1/2+y,1/2-z
-x,-y,-z
x,1/2-y,1/2+z
loop_
_atom_site_type_symbol
_atom_site_label
_atom_site_fract_x
_atom_site_fract_y
_atom_site_fract_z
Si Si1 0.020275 0.567413 0.686202
Si Si2 0.335417 0.096693 0.941523
Si Si3 0.249768 0.282460 0.859031
Si Si4 0.851391 0.278377 0.469239
Si Si5 0.638940 0.033743 0.679993
O O1 0.155925 0.552595 0.903381
O O2 0.000000 0.500000 0.500000
O O3 0.817078 0.589636 0.755174
O O4 0.103256 0.638510 0.545015
O O5 0.531495 0.101087 0.801792
O O6 0.282049 0.149984 0.175915
O O7 0.338384 0.021891 0.092591
O O8 0.319644 0.224050 0.640629
O O9 0.039917 0.265803 0.929353
O O10 0.754981 0.247739 0.234813
O O11 0.500000 0.000000 0.500000
#
# Coordination Sequence:
#
# PCOD9243158 Si02
#       5
#     4   4   4   4   4
#     4  10  21  43  68  99 136 189 233 288 363 419
#     4  10  21  42  63  92 136 176 229 283 352 417
#     4  10  20  36  68  98 130 178 233 283 349 420
#     4  10  20  40  66 100 138 178 237 297 349 427
#     4  10  24  41  63  98 135 175 232 292 342 425
#
# _framework density 27.011327999999999
#
# number of rings (size 3 to 8) (size 9 to 14) (size 15 to 20)
#    0.000    2.000    4.000    0.000    2.800    0.800 
#   10.800    2.000    0.000    0.000    0.000    0.000 
#    0.000    0.000    0.000    0.000    0.000    0.000 
#
# Total GULP energy -111549.781434 kJ/mol
# GULP energy per Si atom -5577.489072 kJ/mol
# Density = 2.694985 g / cm^3
# Si number density = 27.011328 Si / 1000 Ang^3
#
#
#
# Elastic Constant Matrix: (Units=GPa)
#
#
# Indices 1 2 3 4 5 6 
#
# 1 139.3789 17.0047 18.9543 0.0000 48.5031 0.0000
# 2 17.0047 109.7343 -19.7876 0.0000 11.5681 0.0000
# 3 18.9543 -19.7876 108.0018 0.0000 9.2716 0.0000
# 4 0.0000 0.0000 0.0000 32.8698 0.0000 -4.8768
# 5 48.5031 11.5681 9.2716 0.0000 37.7403 0.0000
# 6 0.0000 0.0000 0.0000 -4.8768 0.0000 36.6158
#
#
#
# Elastic Compliance Matrix: (Units=1/GPa)
#
#
# Indices 1 2 3 4 5 6 
#
# 1 0.013081 -0.000470 -0.000972 0.000000 -0.016429 0.000000
# 2 -0.000470 0.009884 0.002147 0.000000 -0.002953 0.000000
# 3 -0.000972 0.002147 0.009983 0.000000 -0.001862 0.000000
# 4 0.000000 0.000000 0.000000 0.031036 0.000000 0.004134
# 5 -0.016429 -0.002953 -0.001862 0.000000 0.048974 0.000000
# 6 0.000000 0.000000 0.000000 0.004134 0.000000 0.027861
#
#
# Mechanical properties :
#
#
# Convention : Reuss Voigt Hill
#
# Bulk Modulus (GPa) = 29.10489 43.27309 36.18899
# Shear Modulus (GPa) = 33.14277 44.17476 38.65876
#
# Velocity S-wave (km/s) = 3.50665 4.04842 3.78723
# Velocity P-wave (km/s) = 5.21478 6.15695 5.70535
#
# Compressibility (1/GPa) = 0.03435848
#
# Stress axis : x y z
#
# Youngs Moduli (GPa) = 76.44423 101.17138 100.17217
#
# Poissons Ratio (x) = 0.04759 0.09733
# Poissons Ratio (y) = 0.03596 -0.21507
# Poissons Ratio (z) = 0.07427 -0.21721
#
# Static dielectric constant tensor:
#      x y z
#    x 2.154480 0.000000 0.047820 
#    y 0.000000 2.370910 0.000000 
#    z 0.047820 0.000000 2.226010 
# 
# From -- ./inp_files/1334.got.cif
#   From: 2010.05.17/outbox.cif.g08.bks.cpg/sg14_1_cif.got.tgz:1334.got - 2010.06.03 17:49:19.
