data_PCOD9243289
_publ_section_title
;
Structure prediction by ZEFSAII (Michael W. Deem and Ramdas Pophale) SiO2 
 PCOD9243289
Probable space group: P 21/C
;
_chemical_formula_sum "Si O2"
_cell_formula_units_Z 32
_cell_length_a 9.822650
_cell_length_b 14.244433
_cell_length_c 9.369861
_cell_angle_alpha 90.000000
_cell_angle_beta 89.198594
_cell_angle_gamma 90.000000
_cell_volume 1310.884717
_symmetry_space_group_name_H-M "P 21/C"
_symmetry_group_IT_number 14
_symmetry_cell_setting 'monoclinic'
loop_
_space_group_symop_operation_xyz
x,y,z
-x,1/2+y,1/2-z
-x,-y,-z
x,1/2-y,1/2+z
loop_
_atom_site_type_symbol
_atom_site_label
_atom_site_fract_x
_atom_site_fract_y
_atom_site_fract_z
Si Si1 0.180964 0.163185 0.078708
Si Si2 0.875621 0.153872 0.145171
Si Si3 0.632687 0.203235 0.700075
Si Si4 0.474885 0.858253 0.602841
Si Si5 0.369387 0.042548 0.590474
Si Si6 0.192807 0.945878 0.147174
Si Si7 0.277554 0.334167 0.255229
Si Si8 0.056517 0.016605 0.657483
O O1 0.251651 0.240399 0.174230
O O2 0.022041 0.190406 0.088116
O O3 0.206340 0.058200 0.135526
O O4 0.228414 0.163965 0.914446
O O5 0.773959 0.234595 0.191085
O O6 0.821313 0.093165 0.012324
O O7 0.916086 0.082828 0.271081
O O8 0.530427 0.274504 0.782451
O O9 0.595513 0.186130 0.536388
O O10 0.688704 0.108925 0.775218
O O11 0.632556 0.881328 0.549551
O O12 0.364901 0.936379 0.661141
O O13 0.415441 0.111828 0.720316
O O14 0.500000 0.000000 0.500000
O O15 0.052723 0.931969 0.240509
O O16 0.199671 0.422605 0.156733
O O17 0.000000 0.000000 0.500000
#
# Coordination Sequence:
#
# PCOD9243289 Si02
#       8
#     4   4   4   4   4   4   4   4
#     4  11  22  35  61  92 130 168 198 257 315 384
#     4  11  18  36  62  87 128 161 204 245 324 376
#     4  12  24  38  65  97 124 161 210 259 312 381
#     4  11  24  43  66  90 124 167 212 263 311 368
#     4   9  21  44  66  83 120 169 211 256 312 364
#     4  11  20  38  60  95 130 160 205 253 320 385
#     4  10  20  37  60  87 119 162 212 247 312 368
#     4   9  17  38  64  88 118 173 198 255 314 372
#
# _framework density 24.410993000000001
#
# number of rings (size 3 to 8) (size 9 to 14) (size 15 to 20)
#    0.750    0.750    5.000    1.500    0.000    2.000 
#    0.000    1.875    0.000    5.250    0.000    0.000 
#    0.000    0.000    0.000    0.000    0.000    0.000 
#
# Total GULP energy -178221.865299 kJ/mol
# GULP energy per Si atom -5569.433291 kJ/mol
# Density = 2.435543 g / cm^3
# Si number density = 24.410993 Si / 1000 Ang^3
#
#
#
# Elastic Constant Matrix: (Units=GPa)
#
#
# Indices 1 2 3 4 5 6 
#
# 1 65.8051 32.4308 24.0763 0.0000 -6.5985 0.0000
# 2 32.4308 134.9978 65.3675 0.0000 2.7450 0.0000
# 3 24.0763 65.3675 125.3007 0.0000 0.9033 0.0000
# 4 0.0000 0.0000 0.0000 30.7085 0.0000 18.1974
# 5 -6.5985 2.7450 0.9033 0.0000 48.9110 0.0000
# 6 0.0000 0.0000 0.0000 18.1974 0.0000 6.6389
#
#
#
# Elastic Compliance Matrix: (Units=1/GPa)
#
#
# Indices 1 2 3 4 5 6 
#
# 1 0.017794 -0.003564 -0.001579 0.000000 0.002630 0.000000
# 2 -0.003564 0.010635 -0.004856 0.000000 -0.000988 0.000000
# 3 -0.001579 -0.004856 0.010819 0.000000 -0.000140 0.000000
# 4 0.000000 0.000000 0.000000 -0.052162 0.000000 0.142977
# 5 0.002630 -0.000988 -0.000140 0.000000 0.020858 0.000000
# 6 0.000000 0.000000 0.000000 0.142977 0.000000 -0.241276
#
#
# Mechanical properties :
#
#
# Convention : Reuss Voigt Hill
#
# Bulk Modulus (GPa) = 51.94787 63.31697 57.63242
# Shear Modulus (GPa) = -24.16425 30.86695 3.35135
#
# Velocity S-wave (km/s) = -3.14967 3.55980 1.17297
# Velocity P-wave (km/s) = 2.84596 6.54908 5.04925
#
# Compressibility (1/GPa) = 0.01925007
#
# Stress axis : x y z
#
# Youngs Moduli (GPa) = 56.19853 94.02718 92.43252
#
# Poissons Ratio (x) = 0.33508 0.14595
# Poissons Ratio (y) = 0.20027 0.44889
# Poissons Ratio (z) = 0.08874 0.45663
#
# Static dielectric constant tensor:
#      x y z
#    x 2.164210 0.000000 0.046560 
#    y 0.000000 1.347650 0.000000 
#    z 0.046560 0.000000 1.691540 
# 
# From -- ./inp_files/13329.got.cif
#   From: 2010.05.17/outbox.cif.g08.bks.cpg/sg14_7_cif.got.tgz:13329.got - 2010.06.03 17:49:19.
