data_PCOD9243182
_publ_section_title
;
Structure prediction by ZEFSAII (Michael W. Deem and Ramdas Pophale) SiO2 
 PCOD9243182
Probable space group: P 21/C
;
_chemical_formula_sum "Si O2"
_cell_formula_units_Z 24
_cell_length_a 23.829381
_cell_length_b 7.373539
_cell_length_c 12.471208
_cell_angle_alpha 90.000000
_cell_angle_beta 150.563708
_cell_angle_gamma 90.000000
_cell_volume 1076.915085
_symmetry_space_group_name_H-M "P 21/C"
_symmetry_group_IT_number 14
_symmetry_cell_setting 'monoclinic'
loop_
_space_group_symop_operation_xyz
x,y,z
-x,1/2+y,1/2-z
-x,-y,-z
x,1/2-y,1/2+z
loop_
_atom_site_type_symbol
_atom_site_label
_atom_site_fract_x
_atom_site_fract_y
_atom_site_fract_z
Si Si1 0.953283 0.102696 0.818235
Si Si2 0.868792 0.446617 0.780955
Si Si3 0.446213 0.731592 0.412471
Si Si4 0.647240 0.580124 0.346689
Si Si5 0.145621 0.137541 0.532493
Si Si6 0.386024 0.422346 0.460225
O O1 0.864088 0.253394 0.714759
O O2 0.055065 0.214917 0.926794
O O3 0.899629 0.954297 0.650199
O O4 0.000000 0.000000 0.000000
O O5 0.784300 0.587567 0.581484
O O6 0.842577 0.469635 0.862732
O O7 0.000000 0.500000 0.000000
O O8 0.384130 0.918400 0.285932
O O9 0.372886 0.594797 0.360244
O O10 0.493653 0.659627 0.378208
O O11 0.564922 0.758770 0.675268
O O12 0.612225 0.535913 0.411217
O O13 0.276579 0.206187 0.752304
#
# Coordination Sequence:
#
# PCOD9243182 Si02
#       6
#     4   4   4   4   4   4
#     4  11  22  38  59  85 119 159 202 248 301 358
#     4   9  20  38  59  84 118 152 193 244 294 356
#     4  10  21  36  58  83 113 151 191 239 292 343
#     4  10  20  37  57  82 113 149 190 237 291 347
#     4  10  22  38  58  85 118 156 201 248 299 359
#     4  10  21  37  56  83 114 147 192 241 290 349
#
# _framework density 22.285879000000001
#
# number of rings (size 3 to 8) (size 9 to 14) (size 15 to 20)
#    0.000    2.000    0.000    3.000    0.000    6.667 
#    0.000    8.333    0.000    0.000    0.000    0.000 
#    0.000    0.000    0.000    0.000    0.000    0.000 
#
# Total GULP energy -133792.205013 kJ/mol
# GULP energy per Si atom -5574.675209 kJ/mol
# Density = 2.223515 g / cm^3
# Si number density = 22.285879 Si / 1000 Ang^3
#
#
#
# Elastic Constant Matrix: (Units=GPa)
#
#
# Indices 1 2 3 4 5 6 
#
# 1 66.9299 13.1642 20.7624 0.0000 -0.3818 0.0000
# 2 13.1642 56.4480 13.8426 0.0000 -5.9263 0.0000
# 3 20.7624 13.8426 100.8519 0.0000 -7.7365 0.0000
# 4 0.0000 0.0000 0.0000 33.0720 0.0000 -7.8546
# 5 -0.3818 -5.9263 -7.7365 0.0000 37.8608 0.0000
# 6 0.0000 0.0000 0.0000 -7.8546 0.0000 35.6193
#
#
#
# Elastic Compliance Matrix: (Units=1/GPa)
#
#
# Indices 1 2 3 4 5 6 
#
# 1 0.016507 -0.003206 -0.003031 0.000000 -0.000955 0.000000
# 2 -0.003206 0.019171 -0.001771 0.000000 0.002607 0.000000
# 3 -0.003031 -0.001771 0.010930 0.000000 0.001926 0.000000
# 4 0.000000 0.000000 0.000000 0.031908 0.000000 0.007036
# 5 -0.000955 0.002607 0.001926 0.000000 0.027204 0.000000
# 6 0.000000 0.000000 0.000000 0.007036 0.000000 0.029626
#
#
# Mechanical properties :
#
#
# Convention : Reuss Voigt Hill
#
# Bulk Modulus (GPa) = 32.69031 35.52980 34.11005
# Shear Modulus (GPa) = 30.94790 33.07445 32.01118
#
# Velocity S-wave (km/s) = 3.73054 3.85658 3.79408
# Velocity P-wave (km/s) = 5.76683 5.98400 5.87642
#
# Compressibility (1/GPa) = 0.03059011
#
# Stress axis : x y z
#
# Youngs Moduli (GPa) = 60.58198 52.16159 91.48766
#
# Poissons Ratio (x) = 0.16725 0.27733
# Poissons Ratio (y) = 0.19425 0.16205
# Poissons Ratio (z) = 0.18365 0.09239
#
# Static dielectric constant tensor:
#      x y z
#    x 1.924550 0.000000 0.081960 
#    y 0.000000 1.870440 0.000000 
#    z 0.081960 0.000000 1.876270 
# 
# From -- ./inp_files/35766.got.cif
#   From: 2010.05.17/outbox.cif.g08.bks.cpg/sg14_18_cif.got.tgz:35766.got - 2010.06.03 17:49:19.
