data_PCOD9243105
_publ_section_title
;
Structure prediction by ZEFSAII (Michael W. Deem and Ramdas Pophale) SiO2 
 PCOD9243105
Probable space group: P 21/C
;
_chemical_formula_sum "Si O2"
_cell_formula_units_Z 28
_cell_length_a 5.221319
_cell_length_b 16.455158
_cell_length_c 14.025243
_cell_angle_alpha 90.000000
_cell_angle_beta 122.275481
_cell_angle_gamma 90.000000
_cell_volume 1018.829174
_symmetry_space_group_name_H-M "P 21/C"
_symmetry_group_IT_number 14
_symmetry_cell_setting 'monoclinic'
loop_
_space_group_symop_operation_xyz
x,y,z
-x,1/2+y,1/2-z
-x,-y,-z
x,1/2-y,1/2+z
loop_
_atom_site_type_symbol
_atom_site_label
_atom_site_fract_x
_atom_site_fract_y
_atom_site_fract_z
Si Si1 0.194797 0.718656 0.322029
Si Si2 0.132904 0.022668 0.906693
Si Si3 0.190653 0.124193 0.404832
Si Si4 0.335928 0.406148 0.630691
Si Si5 0.373039 0.652594 0.715471
Si Si6 0.805389 0.518049 0.805139
Si Si7 0.237352 0.783220 0.535105
O O1 0.964995 0.657685 0.223880
O O2 0.526586 0.680974 0.364539
O O3 0.200099 0.802672 0.266142
O O4 0.139988 0.735287 0.421245
O O5 0.852629 0.085435 0.871849
O O6 0.993865 0.935099 0.903646
O O7 0.164664 0.034279 0.801297
O O8 0.373613 0.051241 0.033423
O O9 0.099914 0.029665 0.400211
O O10 0.025879 0.177740 0.453352
O O11 0.537425 0.147862 0.460685
O O12 0.548750 0.447088 0.753936
O O13 0.660633 0.601794 0.812170
O O14 0.415448 0.720334 0.641321
#
# Coordination Sequence:
#
# PCOD9243105 Si02
#       7
#     4   4   4   4   4   4   4
#     4  10  23  42  67  93 135 178 220 278 340 400
#     4  10  20  36  63  95 132 166 220 283 339 400
#     4  10  26  44  69  96 132 181 222 273 339 405
#     4   9  20  36  60  98 126 172 215 276 352 401
#     4  10  24  39  64 100 130 175 226 279 333 401
#     4  10  21  39  63  91 133 173 222 278 331 399
#     4  11  25  46  65 100 137 172 226 281 332 402
#
# _framework density 27.482524999999999
#
# number of rings (size 3 to 8) (size 9 to 14) (size 15 to 20)
#    0.000    2.000    0.000    1.286   16.000    8.000 
#    0.000    1.429    0.000    0.000    0.000    0.000 
#    0.000    0.000    0.000    0.000    0.000    0.000 
#
# Total GULP energy -156732.982930 kJ/mol
# GULP energy per Si atom -5597.606533 kJ/mol
# Density = 2.741997 g / cm^3
# Si number density = 27.482525 Si / 1000 Ang^3
#
#
#
# Elastic Constant Matrix: (Units=GPa)
#
#
# Indices 1 2 3 4 5 6 
#
# 1 80.9294 12.3579 10.3836 0.0000 -19.5568 0.0000
# 2 12.3579 113.2419 34.0684 0.0000 -13.0589 0.0000
# 3 10.3836 34.0684 82.5530 0.0000 -19.6349 0.0000
# 4 0.0000 0.0000 0.0000 27.8043 0.0000 7.7575
# 5 -19.5568 -13.0589 -19.6349 0.0000 22.0579 0.0000
# 6 0.0000 0.0000 0.0000 7.7575 0.0000 50.1714
#
#
#
# Elastic Compliance Matrix: (Units=1/GPa)
#
#
# Indices 1 2 3 4 5 6 
#
# 1 0.015942 -0.000522 0.001901 0.000000 0.015518 0.000000
# 2 -0.000522 0.010245 -0.003590 0.000000 0.002407 0.000000
# 3 0.001901 -0.003590 0.016810 0.000000 0.014524 0.000000
# 4 0.000000 0.000000 0.000000 0.037587 0.000000 -0.005812
# 5 0.015518 0.002407 0.014524 0.000000 0.073447 0.000000
# 6 0.000000 0.000000 0.000000 -0.005812 0.000000 0.020830
#
#
# Mechanical properties :
#
#
# Convention : Reuss Voigt Hill
#
# Bulk Modulus (GPa) = 25.92308 43.37156 34.64732
# Shear Modulus (GPa) = 26.02235 34.66768 30.34501
#
# Velocity S-wave (km/s) = 3.08046 3.55554 3.32649
# Velocity P-wave (km/s) = 4.70164 5.71590 5.23340
#
# Compressibility (1/GPa) = 0.03857566
#
# Stress axis : x y z
#
# Youngs Moduli (GPa) = 62.72677 97.60664 59.48743
#
# Poissons Ratio (x) = 0.05097 -0.11309
# Poissons Ratio (y) = 0.03276 0.21355
# Poissons Ratio (z) = -0.11925 0.35040
#
# Static dielectric constant tensor:
#      x y z
#    x 2.256540 0.000000 0.075560 
#    y 0.000000 2.240220 0.000000 
#    z 0.075560 0.000000 2.153120 
# 
# From -- ./inp_files/37904.got.cif
#   From: 2010.05.17/outbox.cif.g08.bks.cpg/sg14_19_cif.got.tgz:37904.got - 2010.06.03 17:49:19.
