data_PCOD9243056
_publ_section_title
;
Structure prediction by ZEFSAII (Michael W. Deem and Ramdas Pophale) SiO2 
 PCOD9243056
Probable space group: P 21/C
;
_chemical_formula_sum "Si O2"
_cell_formula_units_Z 28
_cell_length_a 8.127379
_cell_length_b 13.221296
_cell_length_c 11.615733
_cell_angle_alpha 90.000000
_cell_angle_beta 121.354933
_cell_angle_gamma 90.000000
_cell_volume 1065.881352
_symmetry_space_group_name_H-M "P 21/C"
_symmetry_group_IT_number 14
_symmetry_cell_setting 'monoclinic'
loop_
_space_group_symop_operation_xyz
x,y,z
-x,1/2+y,1/2-z
-x,-y,-z
x,1/2-y,1/2+z
loop_
_atom_site_type_symbol
_atom_site_label
_atom_site_fract_x
_atom_site_fract_y
_atom_site_fract_z
Si Si1 0.665685 0.778534 0.225999
Si Si2 0.150742 0.947367 0.641558
Si Si3 0.428203 0.284062 0.567885
Si Si4 0.217232 0.911706 0.905251
Si Si5 0.421060 0.530860 0.680391
Si Si6 0.919855 0.295753 0.049722
Si Si7 0.361480 0.579527 0.888931
O O1 0.692977 0.768100 0.096626
O O2 0.634659 0.696201 0.320145
O O3 0.486711 0.855484 0.165592
O O4 0.863644 0.824913 0.341763
O O5 0.097906 0.957347 0.756049
O O6 0.132582 0.829113 0.598081
O O7 0.371448 0.984516 0.709843
O O8 0.000000 0.000000 0.500000
O O9 0.604192 0.357227 0.596834
O O10 0.505257 0.170458 0.605833
O O11 0.107373 0.821716 0.930358
O O12 0.299504 0.996802 0.021917
O O13 0.286982 0.531806 0.743241
O O14 0.781284 0.364637 0.077307
O O15 0.500000 0.500000 0.000000
#
# Coordination Sequence:
#
# PCOD9243056 Si02
#       7
#     4   4   4   4   4   4   4
#     4  10  21  38  59  91 131 168 213 277 327 399
#     4  12  24  42  69  97 130 174 222 276 340 396
#     4   9  22  38  61  89 128 168 220 267 332 388
#     4  10  25  40  68  94 131 172 224 274 328 400
#     4  10  21  42  63  93 128 168 220 272 327 391
#     4  11  24  38  64  96 129 171 218 268 335 387
#     4  10  20  36  61  91 124 166 220 264 318 399
#
# _framework density 26.26934
#
# number of rings (size 3 to 8) (size 9 to 14) (size 15 to 20)
#    0.000    1.714    2.857    0.429   12.000    0.000 
#    0.000    0.000    0.000    0.857    0.000    0.000 
#    0.000    0.000    0.000    0.000    0.000    0.000 
#
# Total GULP energy -156169.382054 kJ/mol
# GULP energy per Si atom -5577.477931 kJ/mol
# Density = 2.620955 g / cm^3
# Si number density = 26.269340 Si / 1000 Ang^3
#
#
#
# Elastic Constant Matrix: (Units=GPa)
#
#
# Indices 1 2 3 4 5 6 
#
# 1 54.7798 -2.7285 26.0038 0.0000 -4.5618 0.0000
# 2 -2.7285 34.8229 14.1730 0.0000 1.9741 0.0000
# 3 26.0038 14.1730 212.3704 0.0000 -17.0519 0.0000
# 4 0.0000 0.0000 0.0000 47.2954 0.0000 -7.2382
# 5 -4.5618 1.9741 -17.0519 0.0000 25.8539 0.0000
# 6 0.0000 0.0000 0.0000 -7.2382 0.0000 30.5537
#
#
#
# Elastic Compliance Matrix: (Units=1/GPa)
#
#
# Indices 1 2 3 4 5 6 
#
# 1 0.019673 0.002438 -0.002437 0.000000 0.001678 0.000000
# 2 0.002438 0.030169 -0.002600 0.000000 -0.003588 0.000000
# 3 -0.002437 -0.002600 0.005451 0.000000 0.003364 0.000000
# 4 0.000000 0.000000 0.000000 0.021939 0.000000 0.005197
# 5 0.001678 -0.003588 0.003364 0.000000 0.041467 0.000000
# 6 0.000000 0.000000 0.000000 0.005197 0.000000 0.033961
#
#
# Mechanical properties :
#
#
# Convention : Reuss Voigt Hill
#
# Bulk Modulus (GPa) = 19.96191 41.87442 30.91816
# Shear Modulus (GPa) = 28.64408 38.37558 33.50983
#
# Velocity S-wave (km/s) = 3.30570 3.82625 3.57546
# Velocity P-wave (km/s) = 4.71017 5.95779 5.37033
#
# Compressibility (1/GPa) = 0.05009541
#
# Stress axis : x y z
#
# Youngs Moduli (GPa) = 50.83150 33.14614 183.46158
#
# Poissons Ratio (x) = -0.08082 0.44707
# Poissons Ratio (y) = -0.12393 0.47702
# Poissons Ratio (z) = 0.12387 0.08618
#
# Static dielectric constant tensor:
#      x y z
#    x 2.108810 0.000000 -0.117930 
#    y 0.000000 2.264040 0.000000 
#    z -0.117930 0.000000 2.204140 
# 
# From -- ./inp_files/25574.got.cif
#   From: 2010.05.17/outbox.cif.g08.bks.cpg/sg14_13_cif.got.tgz:25574.got - 2010.06.03 17:49:19.
