data_PCOD9243050
_publ_section_title
;
Structure prediction by ZEFSAII (Michael W. Deem and Ramdas Pophale) SiO2 
 PCOD9243050
Probable space group: P 21/C
;
_chemical_formula_sum "Si O2"
_cell_formula_units_Z 30
_cell_length_a 5.163323
_cell_length_b 14.746452
_cell_length_c 16.350780
_cell_angle_alpha 90.000000
_cell_angle_beta 110.940858
_cell_angle_gamma 90.000000
_cell_volume 1162.729964
_symmetry_space_group_name_H-M "P 21/C"
_symmetry_group_IT_number 14
_symmetry_cell_setting 'monoclinic'
loop_
_space_group_symop_operation_xyz
x,y,z
-x,1/2+y,1/2-z
-x,-y,-z
x,1/2-y,1/2+z
loop_
_atom_site_type_symbol
_atom_site_label
_atom_site_fract_x
_atom_site_fract_y
_atom_site_fract_z
Si Si1 0.787937 0.422738 0.212202
Si Si2 0.099954 0.384972 0.694094
Si Si3 0.832507 0.858916 0.104269
Si Si4 0.308860 0.656047 0.222151
Si Si5 0.464591 0.798622 0.564371
Si Si6 0.777519 0.124711 0.000456
Si Si7 0.500000 0.000000 0.500000
Si Si8 0.803206 0.958339 0.371490
O O1 0.811937 0.525243 0.247343
O O2 0.006865 0.372905 0.293571
O O3 0.895842 0.426410 0.129598
O O4 0.465793 0.398174 0.186797
O O5 0.924005 0.324649 0.737137
O O6 0.901037 0.411483 0.597760
O O7 0.392568 0.345077 0.698774
O O8 0.753444 0.753489 0.084852
O O9 0.528347 0.904286 0.062978
O O10 0.015942 0.891739 0.050142
O O11 0.368962 0.713568 0.147782
O O12 0.233770 0.556105 0.176861
O O13 0.254855 0.734479 0.490403
O O14 0.499584 0.902011 0.547361
O O15 0.262558 0.037620 0.540401
#
# Coordination Sequence:
#
# PCOD9243050 Si02
#       8
#     4   4   4   4   4   4   2   4
#     4  10  20  39  60  90 126 159 205 240 300 372
#     4  10  20  36  61  89 114 157 202 243 288 367
#     4  10  22  39  58  86 128 157 195 253 297 371
#     4   9  19  36  60  79 115 155 198 238 303 353
#     4   9  23  41  61  87 118 164 197 255 311 368
#     4  10  22  39  57  89 123 153 206 247 305 362
#     4  10  20  48  66  90 124 164 210 270 310 364
#     4   9  20  37  61  92 114 157 207 251 294 360
#
# _framework density 25.801345999999999
#
# number of rings (size 3 to 8) (size 9 to 14) (size 15 to 20)
#    0.800    1.600    0.000    1.600    1.867    1.600 
#    9.600    0.000    0.000    0.000    0.000    0.000 
#    0.000    0.000    0.000    0.000    0.000    0.000 
#
# Total GULP energy -167237.510160 kJ/mol
# GULP energy per Si atom -5574.583672 kJ/mol
# Density = 2.574262 g / cm^3
# Si number density = 25.801346 Si / 1000 Ang^3
#
#
#
# Elastic Constant Matrix: (Units=GPa)
#
#
# Indices 1 2 3 4 5 6 
#
# 1 106.1365 44.3885 -24.8975 0.0000 -14.5683 0.0000
# 2 44.3885 16.1991 30.6716 0.0000 4.5238 0.0000
# 3 -24.8975 30.6716 53.8796 0.0000 -12.5678 0.0000
# 4 0.0000 0.0000 0.0000 24.3304 0.0000 2.8351
# 5 -14.5683 4.5238 -12.5678 0.0000 39.0948 0.0000
# 6 0.0000 0.0000 0.0000 2.8351 0.0000 3.4029
#
#
#
# Elastic Compliance Matrix: (Units=1/GPa)
#
#
# Indices 1 2 3 4 5 6 
#
# 1 0.001079 0.013973 -0.008366 0.000000 -0.003904 0.000000
# 2 0.013973 -0.017836 0.019791 0.000000 0.013633 0.000000
# 3 -0.008366 0.019791 0.002342 0.000000 -0.004655 0.000000
# 4 0.000000 0.000000 0.000000 0.045520 0.000000 -0.037924
# 5 -0.003904 0.013633 -0.004655 0.000000 0.021050 0.000000
# 6 0.000000 0.000000 0.000000 -0.037924 0.000000 0.325462
#
#
# Mechanical properties :
#
#
# Convention : Reuss Voigt Hill
#
# Bulk Modulus (GPa) = 27.48749 30.72671 29.10710
# Shear Modulus (GPa) = 14.75147 21.76914 18.26030
#
# Velocity S-wave (km/s) = 2.39369 2.90784 2.66320
# Velocity P-wave (km/s) = 4.27975 4.81756 4.55660
#
# Compressibility (1/GPa) = 0.03638019
#
# Stress axis : x y z
#
# Youngs Moduli (GPa) = 926.38593 -56.06511 426.96651
#
# Poissons Ratio (x) = 0.78341 3.57213
# Poissons Ratio (y) = -12.94465 -8.44990
# Poissons Ratio (z) = 7.75043 1.10956
#
# Static dielectric constant tensor:
#      x y z
#    x 1.838990 0.000000 -0.148120 
#    y 0.000000 2.080370 0.000000 
#    z -0.148120 0.000000 1.759880 
# 
# From -- ./inp_files/37880.got.cif
#   From: 2010.05.17/outbox.cif.g08.bks.cpg/sg14_19_cif.got.tgz:37880.got - 2010.06.03 17:49:19.
