data_PCOD9243191
_publ_section_title
;
Structure prediction by ZEFSAII (Michael W. Deem and Ramdas Pophale) SiO2 
 PCOD9243191
Probable space group: P 21/C
;
_chemical_formula_sum "Si O2"
_cell_formula_units_Z 24
_cell_length_a 7.453993
_cell_length_b 8.120597
_cell_length_c 14.504093
_cell_angle_alpha 90.000000
_cell_angle_beta 93.140285
_cell_angle_gamma 90.000000
_cell_volume 876.627092
_symmetry_space_group_name_H-M "P 21/C"
_symmetry_group_IT_number 14
_symmetry_cell_setting 'monoclinic'
loop_
_space_group_symop_operation_xyz
x,y,z
-x,1/2+y,1/2-z
-x,-y,-z
x,1/2-y,1/2+z
loop_
_atom_site_type_symbol
_atom_site_label
_atom_site_fract_x
_atom_site_fract_y
_atom_site_fract_z
Si Si1 0.020857 0.951857 0.724398
Si Si2 0.520578 0.832162 0.444645
Si Si3 0.051545 0.163855 0.559135
Si Si4 0.425954 0.666698 0.271973
Si Si5 0.951295 0.869532 0.104236
Si Si6 0.462495 0.124477 0.890398
O O1 0.234464 0.910035 0.738391
O O2 0.946166 0.798258 0.665744
O O3 0.994304 0.114547 0.660209
O O4 0.957026 0.997639 0.825739
O O5 0.733423 0.818458 0.433138
O O6 0.417658 0.815856 0.345480
O O7 0.454368 0.690596 0.513242
O O8 0.500000 0.000000 0.500000
O O9 0.978331 0.314095 0.494048
O O10 0.000000 0.000000 0.500000
O O11 0.520994 0.728565 0.183138
O O12 0.531434 0.531291 0.335398
O O13 0.742988 0.913265 0.091182
#
# Coordination Sequence:
#
# PCOD9243191 Si02
#       6
#     4   4   4   4   4   4
#     4  10  20  37  57  84 115 151 194 243 292 349
#     4  11  21  36  58  85 115 151 190 237 293 349
#     4   9  19  37  59  81 113 153 193 237 288 344
#     4  11  22  37  58  85 116 150 193 240 289 348
#     4   9  20  36  57  81 112 152 195 241 292 346
#     4  10  21  37  56  82 113 151 193 240 292 346
#
# _framework density 27.377661
#
# number of rings (size 3 to 8) (size 9 to 14) (size 15 to 20)
#    0.000    2.000    0.000    4.500    0.000    5.333 
#    0.000    0.833    0.000    0.000    0.000    0.000 
#    0.000    0.000    0.000    0.000    0.000    0.000 
#
# Total GULP energy -134357.720840 kJ/mol
# GULP energy per Si atom -5598.238368 kJ/mol
# Density = 2.731535 g / cm^3
# Si number density = 27.377661 Si / 1000 Ang^3
#
#
#
# Elastic Constant Matrix: (Units=GPa)
#
#
# Indices 1 2 3 4 5 6 
#
# 1 124.5731 20.6902 26.0379 0.0000 5.7499 0.0000
# 2 20.6902 97.8780 30.8014 0.0000 6.8217 0.0000
# 3 26.0379 30.8014 202.2247 0.0000 9.7440 0.0000
# 4 0.0000 0.0000 0.0000 75.7588 0.0000 2.5500
# 5 5.7499 6.8217 9.7440 0.0000 18.2982 0.0000
# 6 0.0000 0.0000 0.0000 2.5500 0.0000 26.9320
#
#
#
# Elastic Compliance Matrix: (Units=1/GPa)
#
#
# Indices 1 2 3 4 5 6 
#
# 1 0.008510 -0.001429 -0.000795 0.000000 -0.001718 0.000000
# 2 -0.001429 0.011158 -0.001372 0.000000 -0.002980 0.000000
# 3 -0.000795 -0.001372 0.005357 0.000000 -0.002091 0.000000
# 4 0.000000 0.000000 0.000000 0.013242 0.000000 -0.001254
# 5 -0.001718 -0.002980 -0.002091 0.000000 0.057415 0.000000
# 6 0.000000 0.000000 0.000000 -0.001254 0.000000 0.037249
#
#
# Mechanical properties :
#
#
# Convention : Reuss Voigt Hill
#
# Bulk Modulus (GPa) = 56.07503 64.41497 60.24500
# Shear Modulus (GPa) = 34.23047 47.34090 40.78568
#
# Velocity S-wave (km/s) = 3.53980 4.16285 3.86391
# Velocity P-wave (km/s) = 6.10192 6.83265 6.47760
#
# Compressibility (1/GPa) = 0.01783325
#
# Stress axis : x y z
#
# Youngs Moduli (GPa) = 117.50493 89.61924 186.66688
#
# Poissons Ratio (x) = 0.12806 0.14846
# Poissons Ratio (y) = 0.16791 0.25610
# Poissons Ratio (z) = 0.09346 0.12295
#
# Static dielectric constant tensor:
#      x y z
#    x 2.028240 0.000000 -0.003490 
#    y 0.000000 2.263540 0.000000 
#    z -0.003490 0.000000 2.147860 
# 
# From -- ./inp_files/38988.got.cif
#   From: 2010.05.17/outbox.cif.g08.bks.cpg/sg14_20_cif.got.tgz:38988.got - 2010.06.03 17:49:19.
