data_PCOD9243234
_publ_section_title
;
Structure prediction by ZEFSAII (Michael W. Deem and Ramdas Pophale) SiO2 
 PCOD9243234
Probable space group: P 21/C
;
_chemical_formula_sum "Si O2"
_cell_formula_units_Z 20
_cell_length_a 12.733689
_cell_length_b 11.035768
_cell_length_c 19.032591
_cell_angle_alpha 90.000000
_cell_angle_beta 18.807723
_cell_angle_gamma 90.000000
_cell_volume 862.264912
_symmetry_space_group_name_H-M "P 21/C"
_symmetry_group_IT_number 14
_symmetry_cell_setting 'monoclinic'
loop_
_space_group_symop_operation_xyz
x,y,z
-x,1/2+y,1/2-z
-x,-y,-z
x,1/2-y,1/2+z
loop_
_atom_site_type_symbol
_atom_site_label
_atom_site_fract_x
_atom_site_fract_y
_atom_site_fract_z
Si Si1 0.316383 0.382148 0.151839
Si Si2 0.813211 0.200865 0.243519
Si Si3 0.677691 0.010357 0.061630
Si Si4 0.210153 0.524528 0.738798
Si Si5 0.507476 0.009195 0.332059
O O1 0.323829 0.402032 0.230186
O O2 0.941474 0.390125 0.369335
O O3 0.500000 0.500000 0.000000
O O4 0.540965 0.281444 0.977097
O O5 0.897986 0.337630 0.174051
O O6 0.634021 0.129210 0.293251
O O7 0.118573 0.117417 0.074441
O O8 0.358351 0.022248 0.217726
O O9 0.601018 0.017682 0.192228
O O10 0.500000 0.500000 0.500000
O O11 0.872873 0.476559 0.921600
#
# Coordination Sequence:
#
# PCOD9243234 Si02
#       5
#     4   4   4   4   4
#     4   8  16  35  60  79 103 146 192 224 264 334
#     4  10  20  38  60  80 108 154 190 219 273 342
#     4  10  20  37  59  83 112 144 185 236 282 325
#     4  12  23  37  55  83 119 148 181 231 280 326
#     4  10  20  37  59  83 112 144 185 236 282 325
#
# _framework density 23.194727
#
# number of rings (size 3 to 8) (size 9 to 14) (size 15 to 20)
#    0.000    2.400    0.000    7.800    0.000    0.000 
#    0.000   12.000    0.000    0.000    0.000    0.000 
#    0.000    0.000    0.000    0.000    0.000    0.000 
#
# Total GULP energy -111503.207824 kJ/mol
# GULP energy per Si atom -5575.160391 kJ/mol
# Density = 2.314193 g / cm^3
# Si number density = 23.194727 Si / 1000 Ang^3
#
#
#
# Elastic Constant Matrix: (Units=GPa)
#
#
# Indices 1 2 3 4 5 6 
#
# 1 96.9695 2.5514 -4.6063 0.0000 -3.0321 0.0000
# 2 2.5514 30.9348 -4.3982 0.0000 -4.1977 0.0000
# 3 -4.6063 -4.3982 80.8319 0.0000 -13.8377 0.0000
# 4 0.0000 0.0000 0.0000 52.9526 0.0000 37.8744
# 5 -3.0321 -4.1977 -13.8377 0.0000 55.1239 0.0000
# 6 0.0000 0.0000 0.0000 37.8744 0.0000 50.9299
#
#
#
# Elastic Compliance Matrix: (Units=1/GPa)
#
#
# Indices 1 2 3 4 5 6 
#
# 1 0.010384 -0.000667 0.000673 0.000000 0.000689 0.000000
# 2 -0.000667 0.033122 0.002288 0.000000 0.003060 0.000000
# 3 0.000673 0.002288 0.013135 0.000000 0.003509 0.000000
# 4 0.000000 0.000000 0.000000 0.040344 0.000000 -0.030002
# 5 0.000689 0.003060 0.003509 0.000000 0.019293 0.000000
# 6 0.000000 0.000000 0.000000 -0.030002 0.000000 0.041946
#
#
# Mechanical properties :
#
#
# Convention : Reuss Voigt Hill
#
# Bulk Modulus (GPa) = 16.33217 21.75888 19.04552
# Shear Modulus (GPa) = 28.72850 46.14722 37.43786
#
# Velocity S-wave (km/s) = 3.52316 4.46528 4.02190
# Velocity P-wave (km/s) = 4.85869 5.99886 5.45863
#
# Compressibility (1/GPa) = 0.06122886
#
# Stress axis : x y z
#
# Youngs Moduli (GPa) = 96.30552 30.19175 76.13332
#
# Poissons Ratio (x) = 0.02014 -0.05127
# Poissons Ratio (y) = 0.06425 -0.17420
# Poissons Ratio (z) = -0.06486 -0.06908
#
# Static dielectric constant tensor:
#      x y z
#    x 1.896730 0.000000 -0.007550 
#    y 0.000000 2.154290 0.000000 
#    z -0.007550 0.000000 1.965580 
# 
# From -- ./inp_files/57905.got.cif
#   From: 2010.05.17/outbox.cif.g08.bks.cpg/sg14_29_cif.got.tgz:57905.got - 2010.06.03 17:49:19.
