data_PCOD9243655
_publ_section_title
;
Structure prediction by ZEFSAII (Michael W. Deem and Ramdas Pophale) SiO2 
 PCOD9243655
Probable space group: P 21/C
;
_chemical_formula_sum "Si O2"
_cell_formula_units_Z 28
_cell_length_a 9.058000
_cell_length_b 14.353391
_cell_length_c 7.505173
_cell_angle_alpha 90.000000
_cell_angle_beta 81.964462
_cell_angle_gamma 90.000000
_cell_volume 966.189630
_symmetry_space_group_name_H-M "P 21/C"
_symmetry_group_IT_number 14
_symmetry_cell_setting 'monoclinic'
loop_
_space_group_symop_operation_xyz
x,y,z
-x,1/2+y,1/2-z
-x,-y,-z
x,1/2-y,1/2+z
loop_
_atom_site_type_symbol
_atom_site_label
_atom_site_fract_x
_atom_site_fract_y
_atom_site_fract_z
Si Si1 0.749747 0.514755 0.841726
Si Si2 0.748374 0.844553 0.619970
Si Si3 0.049857 0.194824 0.096386
Si Si4 0.069106 0.934686 0.201892
Si Si5 0.557983 0.662810 0.659625
Si Si6 0.656340 0.101872 0.060849
Si Si7 0.237211 0.711208 0.853771
O O1 0.716863 0.555083 0.042591
O O2 0.928003 0.503598 0.782566
O O3 0.678613 0.601206 0.740532
O O4 0.666736 0.427500 0.765064
O O5 0.870454 0.789860 0.478755
O O6 0.831289 0.850596 0.793309
O O7 0.616922 0.768293 0.635428
O O8 0.011309 0.132536 0.932150
O O9 0.893075 0.221923 0.214057
O O10 0.219156 0.958492 0.063855
O O11 0.138390 0.882120 0.361534
O O12 0.508915 0.607810 0.488989
O O13 0.400949 0.670537 0.786427
O O14 0.712459 0.208426 0.016037
#
# Coordination Sequence:
#
# PCOD9243655 Si02
#       7
#     4   4   4   4   4   4   4
#     4  12  22  40  60  95 126 159 205 257 307 357
#     4  12  21  37  66  92 117 160 212 250 292 373
#     4  11  19  38  63  91 115 153 212 252 287 359
#     4  10  20  39  66  87 119 164 207 249 300 373
#     4  11  22  37  63  87 122 167 209 242 301 370
#     4  10  24  37  61  95 127 159 200 262 310 350
#     4  10  20  38  62  90 119 158 209 251 297 363
#
# _framework density 28.979817000000001
#
# number of rings (size 3 to 8) (size 9 to 14) (size 15 to 20)
#    0.000    1.143    5.714    1.714    0.000    0.000 
#    0.000    3.571    0.000    3.429    0.000    0.000 
#    0.000    0.000    0.000    0.000    0.000    0.000 
#
# Total GULP energy -156358.250441 kJ/mol
# GULP energy per Si atom -5584.223230 kJ/mol
# Density = 2.891386 g / cm^3
# Si number density = 28.979817 Si / 1000 Ang^3
#
#
#
# Elastic Constant Matrix: (Units=GPa)
#
#
# Indices 1 2 3 4 5 6 
#
# 1 207.1721 46.5555 30.3896 0.0000 0.8767 0.0000
# 2 46.5555 129.4441 43.8583 0.0000 9.0446 0.0000
# 3 30.3896 43.8583 62.6333 0.0000 17.8308 0.0000
# 4 0.0000 0.0000 0.0000 62.4849 0.0000 10.6138
# 5 0.8767 9.0446 17.8308 0.0000 39.1323 0.0000
# 6 0.0000 0.0000 0.0000 10.6138 0.0000 40.7969
#
#
#
# Elastic Compliance Matrix: (Units=1/GPa)
#
#
# Indices 1 2 3 4 5 6 
#
# 1 0.005418 -0.001349 -0.001998 0.000000 0.001101 0.000000
# 2 -0.001349 0.010500 -0.006912 0.000000 0.000753 0.000000
# 3 -0.001998 -0.006912 0.024484 0.000000 -0.009514 0.000000
# 4 0.000000 0.000000 0.000000 0.016744 0.000000 -0.004356
# 5 0.001101 0.000753 -0.009514 0.000000 0.029691 0.000000
# 6 0.000000 0.000000 0.000000 -0.004356 0.000000 0.025645
#
#
# Mechanical properties :
#
#
# Convention : Reuss Voigt Hill
#
# Bulk Modulus (GPa) = 50.29095 71.20626 60.74861
# Shear Modulus (GPa) = 35.80944 47.04591 41.42767
#
# Velocity S-wave (km/s) = 3.51902 4.03352 3.78502
# Velocity P-wave (km/s) = 5.82261 6.80564 6.33323
#
# Compressibility (1/GPa) = 0.01988429
#
# Stress axis : x y z
#
# Youngs Moduli (GPa) = 184.55617 95.23936 40.84280
#
# Poissons Ratio (x) = 0.12845 0.08160
# Poissons Ratio (y) = 0.24892 0.28232
# Poissons Ratio (z) = 0.36873 0.65833
#
# Static dielectric constant tensor:
#      x y z
#    x 2.155340 0.000000 -0.032880 
#    y 0.000000 2.312950 0.000000 
#    z -0.032880 0.000000 2.471420 
# 
# From -- ./inp_files/9462.got.cif
#   From: 2010.05.17/outbox.cif.g08.bks.cpg/sg14_5_cif.got.tgz:9462.got - 2010.06.03 17:49:19.
