data_PCOD9243305
_publ_section_title
;
Structure prediction by ZEFSAII (Michael W. Deem and Ramdas Pophale) SiO2 
 PCOD9243305
Probable space group: P 21/C
;
_chemical_formula_sum "Si O2"
_cell_formula_units_Z 26
_cell_length_a 8.756384
_cell_length_b 7.659533
_cell_length_c 19.450722
_cell_angle_alpha 90.000000
_cell_angle_beta 46.345147
_cell_angle_gamma 90.000000
_cell_volume 943.861219
_symmetry_space_group_name_H-M "P 21/C"
_symmetry_group_IT_number 14
_symmetry_cell_setting 'monoclinic'
loop_
_space_group_symop_operation_xyz
x,y,z
-x,1/2+y,1/2-z
-x,-y,-z
x,1/2-y,1/2+z
loop_
_atom_site_type_symbol
_atom_site_label
_atom_site_fract_x
_atom_site_fract_y
_atom_site_fract_z
Si Si1 0.981756 0.295794 0.479173
Si Si2 0.940969 0.067462 0.853098
Si Si3 0.433629 0.060508 0.823800
Si Si4 0.383042 0.930603 0.693683
Si Si5 0.979446 0.572555 0.904738
Si Si6 0.218993 0.104037 0.217676
Si Si7 0.500000 0.500000 0.000000
O O1 0.851268 0.372209 0.454306
O O2 0.184009 0.425066 0.414348
O O3 0.954963 0.228801 0.565043
O O4 0.037323 0.106663 0.427482
O O5 0.135789 0.935072 0.787759
O O6 0.061086 0.235984 0.781882
O O7 0.766644 0.969351 0.863177
O O8 0.474705 0.041495 0.729631
O O9 0.515323 0.240890 0.830296
O O10 0.547041 0.895636 0.823683
O O11 0.411490 0.001671 0.607828
O O12 0.734495 0.564507 0.958417
O O13 0.111615 0.550691 0.794811
#
# Coordination Sequence:
#
# PCOD9243305 Si02
#       7
#     4   4   4   4   4   4   2
#     4   9  20  35  59  85 125 158 213 270 319 376
#     4  10  21  38  60  97 128 167 220 270 327 400
#     4  11  22  39  63  94 131 173 217 280 332 400
#     4  11  22  40  63  97 126 172 222 267 335 389
#     4  10  20  37  60  95 123 165 223 272 319 390
#     4  11  22  37  64  94 128 171 218 280 329 397
#     4  12  22  36  66  98 130 172 226 282 314 408
#
# _framework density 27.546423000000001
#
# number of rings (size 3 to 8) (size 9 to 14) (size 15 to 20)
#    0.000    1.538    3.077    3.692    4.308    0.000 
#    0.000    0.000    0.000   20.308    0.000    0.000 
#    0.000    0.000    0.000    0.000    0.000    0.000 
#
# Total GULP energy -144804.110746 kJ/mol
# GULP energy per Si atom -5569.388875 kJ/mol
# Density = 2.748373 g / cm^3
# Si number density = 27.546423 Si / 1000 Ang^3
#
#
#
# Elastic Constant Matrix: (Units=GPa)
#
#
# Indices 1 2 3 4 5 6 
#
# 1 119.4627 15.3967 25.1720 0.0000 27.2847 0.0000
# 2 15.3967 76.9469 2.1616 0.0000 30.7265 0.0000
# 3 25.1720 2.1616 136.8555 0.0000 36.0544 0.0000
# 4 0.0000 0.0000 0.0000 29.3039 0.0000 17.1695
# 5 27.2847 30.7265 36.0544 0.0000 53.6903 0.0000
# 6 0.0000 0.0000 0.0000 17.1695 0.0000 32.1354
#
#
#
# Elastic Compliance Matrix: (Units=1/GPa)
#
#
# Indices 1 2 3 4 5 6 
#
# 1 0.009509 -0.000153 -0.000603 0.000000 -0.004340 0.000000
# 2 -0.000153 0.017754 0.002921 0.000000 -0.012044 0.000000
# 3 -0.000603 0.002921 0.009393 0.000000 -0.007673 0.000000
# 4 0.000000 0.000000 0.000000 0.049676 0.000000 -0.026541
# 5 -0.004340 -0.012044 -0.007673 0.000000 0.032876 0.000000
# 6 0.000000 0.000000 0.000000 -0.026541 0.000000 0.045299
#
#
# Mechanical properties :
#
#
# Convention : Reuss Voigt Hill
#
# Bulk Modulus (GPa) = 24.39905 46.52507 35.46206
# Shear Modulus (GPa) = 28.76228 42.39491 35.57860
#
# Velocity S-wave (km/s) = 3.23482 3.92731 3.59776
# Velocity P-wave (km/s) = 4.77794 6.12302 5.49182
#
# Compressibility (1/GPa) = 0.04098520
#
# Stress axis : x y z
#
# Youngs Moduli (GPa) = 105.16596 56.32541 106.46049
#
# Poissons Ratio (x) = 0.00861 0.06422
# Poissons Ratio (y) = 0.01607 -0.31094
# Poissons Ratio (z) = 0.06344 -0.16451
#
# Static dielectric constant tensor:
#      x y z
#    x 2.329750 0.000000 -0.050040 
#    y 0.000000 2.260900 0.000000 
#    z -0.050040 0.000000 2.128140 
# 
# From -- ./inp_files/64493.got.cif
#   From: 2010.05.17/outbox.cif.g08.bks.cpg/sg14_33_cif.got.tgz:64493.got - 2010.06.03 17:49:19.
