data_PCOD9243138
_publ_section_title
;
Structure prediction by ZEFSAII (Michael W. Deem and Ramdas Pophale) SiO2 
 PCOD9243138
Probable space group: P 21/C
;
_chemical_formula_sum "Si O2"
_cell_formula_units_Z 32
_cell_length_a 11.440750
_cell_length_b 18.029624
_cell_length_c 9.518053
_cell_angle_alpha 90.000000
_cell_angle_beta 50.478313
_cell_angle_gamma 90.000000
_cell_volume 1514.466877
_symmetry_space_group_name_H-M "P 21/C"
_symmetry_group_IT_number 14
_symmetry_cell_setting 'monoclinic'
loop_
_space_group_symop_operation_xyz
x,y,z
-x,1/2+y,1/2-z
-x,-y,-z
x,1/2-y,1/2+z
loop_
_atom_site_type_symbol
_atom_site_label
_atom_site_fract_x
_atom_site_fract_y
_atom_site_fract_z
Si Si1 0.866365 0.121603 0.262132
Si Si2 0.522195 0.486786 0.200582
Si Si3 0.160220 0.313900 0.405543
Si Si4 0.566151 0.395046 0.529724
Si Si5 0.751063 0.966301 0.303200
Si Si6 0.326098 0.286508 0.572427
Si Si7 0.388740 0.804009 0.720343
Si Si8 0.723757 0.360112 0.146218
O O1 0.708502 0.152682 0.320386
O O2 0.862138 0.127161 0.434602
O O3 0.869709 0.034387 0.220286
O O4 0.993471 0.172398 0.095058
O O5 0.478324 0.525259 0.378184
O O6 0.376827 0.486461 0.213395
O O7 0.587108 0.405261 0.176309
O O8 0.657585 0.531852 0.020708
O O9 0.188021 0.387214 0.290125
O O10 0.263879 0.307805 0.466444
O O11 0.198650 0.243854 0.277038
O O12 0.425662 0.352651 0.563292
O O13 0.601834 0.349655 0.644065
O O14 0.709672 0.391618 0.314857
O O15 0.446331 0.219038 0.461988
O O16 0.309015 0.726240 0.816521
#
# Coordination Sequence:
#
# PCOD9243138 Si02
#       8
#     4   4   4   4   4   4   4   4
#     4  11  25  42  65  92 132 173 215 256 328 395
#     4  10  20  36  66 101 123 162 222 267 317 377
#     4  12  26  44  64  94 135 170 214 259 338 382
#     4  11  20  37  65  96 127 156 219 273 317 361
#     4  10  21  39  68  93 128 171 211 267 315 392
#     4  11  25  42  67  94 128 171 212 274 316 383
#     4  11  21  41  65  94 124 166 219 270 316 375
#     4  10  22  35  59  93 127 164 205 269 316 371
#
# _framework density 21.129548
#
# number of rings (size 3 to 8) (size 9 to 14) (size 15 to 20)
#    0.000    1.250    2.500    4.500    7.000    0.000 
#    0.000    0.000    0.000    2.250    0.000    0.000 
#    0.000    0.000    0.000    0.000    0.000    0.000 
#
# Total GULP energy -178702.131426 kJ/mol
# GULP energy per Si atom -5584.441607 kJ/mol
# Density = 2.108146 g / cm^3
# Si number density = 21.129548 Si / 1000 Ang^3
#
#
#
# Elastic Constant Matrix: (Units=GPa)
#
#
# Indices 1 2 3 4 5 6 
#
# 1 30.0830 -1.0891 8.5238 0.0000 11.2647 0.0000
# 2 -1.0891 68.8524 15.5869 0.0000 8.9320 0.0000
# 3 8.5238 15.5869 118.8780 0.0000 13.3224 0.0000
# 4 0.0000 0.0000 0.0000 -39.4651 0.0000 16.0928
# 5 11.2647 8.9320 13.3224 0.0000 30.2647 0.0000
# 6 0.0000 0.0000 0.0000 16.0928 0.0000 23.9927
#
#
#
# Elastic Compliance Matrix: (Units=1/GPa)
#
#
# Indices 1 2 3 4 5 6 
#
# 1 0.039330 0.002892 -0.001539 0.000000 -0.014815 0.000000
# 2 0.002892 0.015594 -0.001699 0.000000 -0.004931 0.000000
# 3 -0.001539 -0.001699 0.009072 0.000000 -0.002919 0.000000
# 4 0.000000 0.000000 0.000000 -0.019897 0.000000 0.013346
# 5 -0.014815 -0.004931 -0.002919 0.000000 0.041296 0.000000
# 6 0.000000 0.000000 0.000000 0.013346 0.000000 0.032728
#
#
# Mechanical properties :
#
#
# Convention : Reuss Voigt Hill
#
# Bulk Modulus (GPa) = 15.79681 29.31737 22.55709
# Shear Modulus (GPa) = 35.73561 15.94459 25.84010
#
# Velocity S-wave (km/s) = 4.11696 2.75000 3.50084
# Velocity P-wave (km/s) = 5.48557 4.89781 5.20000
#
# Compressibility (1/GPa) = 0.06330392
#
# Stress axis : x y z
#
# Youngs Moduli (GPa) = 25.42610 64.12742 110.22551
#
# Poissons Ratio (x) = -0.18548 0.16963
# Poissons Ratio (y) = -0.07354 0.18732
# Poissons Ratio (z) = 0.03913 0.10898
#
# Static dielectric constant tensor:
#      x y z
#    x 1.732370 0.000000 -0.007630 
#    y 0.000000 1.786660 0.000000 
#    z -0.007630 0.000000 1.817250 
# 
# From -- ./inp_files/14290.got.cif
#   From: 2010.05.17/outbox.cif.g08.bks.cpg/sg14_8_cif.got.tgz:14290.got - 2010.06.03 17:49:19.
