data_PCOD9243075
_publ_section_title
;
Structure prediction by ZEFSAII (Michael W. Deem and Ramdas Pophale) SiO2 
 PCOD9243075
Probable space group: P 21/C
;
_chemical_formula_sum "Si O2"
_cell_formula_units_Z 24
_cell_length_a 6.905925
_cell_length_b 15.616219
_cell_length_c 16.510536
_cell_angle_alpha 90.000000
_cell_angle_beta 132.448935
_cell_angle_gamma 90.000000
_cell_volume 1313.845109
_symmetry_space_group_name_H-M "P 21/C"
_symmetry_group_IT_number 14
_symmetry_cell_setting 'monoclinic'
loop_
_space_group_symop_operation_xyz
x,y,z
-x,1/2+y,1/2-z
-x,-y,-z
x,1/2-y,1/2+z
loop_
_atom_site_type_symbol
_atom_site_label
_atom_site_fract_x
_atom_site_fract_y
_atom_site_fract_z
Si Si1 0.638451 0.472328 0.956897
Si Si2 0.862639 0.865039 0.424989
Si Si3 0.275882 0.447086 0.704574
Si Si4 0.755723 0.558768 0.584878
Si Si5 0.933058 0.825603 0.987973
Si Si6 0.513461 0.895487 0.179254
O O1 0.757536 0.559662 0.953063
O O2 0.443717 0.434981 0.833128
O O3 0.500000 0.500000 0.000000
O O4 0.869260 0.403919 0.035642
O O5 0.907624 0.775970 0.482284
O O6 0.652113 0.851639 0.294461
O O7 0.191116 0.364885 0.629096
O O8 0.440263 0.509016 0.690428
O O9 0.013570 0.499656 0.653525
O O10 0.500000 0.500000 0.500000
O O11 0.793320 0.627953 0.524365
O O12 0.708810 0.600825 0.658803
O O13 0.238525 0.852768 0.077515
#
# Coordination Sequence:
#
# PCOD9243075 Si02
#       6
#     4   4   4   4   4   4
#     4  10  22  44  63  81 118 165 204 231 301 366
#     4  10  24  40  59  85 121 159 193 250 295 349
#     4  10  20  36  62  88 116 153 193 245 295 351
#     4  11  18  36  62  89 116 154 194 238 300 357
#     4  11  22  36  57  95 119 145 202 247 295 346
#     4  10  20  39  60  82 122 155 187 243 298 346
#
# _framework density 18.266992999999999
#
# number of rings (size 3 to 8) (size 9 to 14) (size 15 to 20)
#    0.000    1.667    3.333    2.000    2.333    1.333 
#    0.000    0.000    0.000    0.000    0.000    0.000 
#    0.000    0.000    0.000    0.000    0.000    0.000 
#
# Total GULP energy -133974.539917 kJ/mol
# GULP energy per Si atom -5582.272497 kJ/mol
# Density = 1.822542 g / cm^3
# Si number density = 18.266993 Si / 1000 Ang^3
#
#
#
# Elastic Constant Matrix: (Units=GPa)
#
#
# Indices 1 2 3 4 5 6 
#
# 1 112.7532 22.9816 23.3181 0.0000 -12.1686 0.0000
# 2 22.9816 72.1895 26.4763 0.0000 3.0864 0.0000
# 3 23.3181 26.4763 84.2191 0.0000 5.3355 0.0000
# 4 0.0000 0.0000 0.0000 11.0320 0.0000 -2.2981
# 5 -12.1686 3.0864 5.3355 0.0000 23.9920 0.0000
# 6 0.0000 0.0000 0.0000 -2.2981 0.0000 13.6283
#
#
#
# Elastic Compliance Matrix: (Units=1/GPa)
#
#
# Indices 1 2 3 4 5 6 
#
# 1 0.010619 -0.002741 -0.002477 0.000000 0.006289 0.000000
# 2 -0.002741 0.016386 -0.004230 0.000000 -0.002557 0.000000
# 3 -0.002477 -0.004230 0.014134 0.000000 -0.003855 0.000000
# 4 0.000000 0.000000 0.000000 0.093946 0.000000 0.015842
# 5 0.006289 -0.002557 -0.003855 0.000000 0.046057 0.000000
# 6 0.000000 0.000000 0.000000 0.015842 0.000000 0.076048
#
#
# Mechanical properties :
#
#
# Convention : Reuss Voigt Hill
#
# Bulk Modulus (GPa) = 44.96003 46.07931 45.51967
# Shear Modulus (GPa) = 17.63680 22.82286 20.22983
#
# Velocity S-wave (km/s) = 3.11062 3.53853 3.33145
# Velocity P-wave (km/s) = 6.12923 6.47882 6.30645
#
# Compressibility (1/GPa) = 0.02224198
#
# Stress axis : x y z
#
# Youngs Moduli (GPa) = 94.17502 61.02816 70.75290
#
# Poissons Ratio (x) = 0.16727 0.17524
# Poissons Ratio (y) = 0.25813 0.29931
# Poissons Ratio (z) = 0.23325 0.25817
#
# Static dielectric constant tensor:
#      x y z
#    x 1.615320 0.000000 0.004570 
#    y 0.000000 1.604130 0.000000 
#    z 0.004570 0.000000 1.641770 
# 
# From -- ./inp_files/32533.got.cif
#   From: 2010.05.17/outbox.cif.g08.bks.cpg/sg14_17_cif.got.tgz:32533.got - 2010.06.03 17:49:19.
