data_PCOD9243646
_publ_section_title
;
Structure prediction by ZEFSAII (Michael W. Deem and Ramdas Pophale) SiO2 
 PCOD9243646
Probable space group: P 21/C
;
_chemical_formula_sum "Si O2"
_cell_formula_units_Z 30
_cell_length_a 16.493836
_cell_length_b 7.636319
_cell_length_c 29.587401
_cell_angle_alpha 90.000000
_cell_angle_beta 161.567765
_cell_angle_gamma 90.000000
_cell_volume 1178.286321
_symmetry_space_group_name_H-M "P 21/C"
_symmetry_group_IT_number 14
_symmetry_cell_setting 'monoclinic'
loop_
_space_group_symop_operation_xyz
x,y,z
-x,1/2+y,1/2-z
-x,-y,-z
x,1/2-y,1/2+z
loop_
_atom_site_type_symbol
_atom_site_label
_atom_site_fract_x
_atom_site_fract_y
_atom_site_fract_z
Si Si1 0.671537 0.839474 0.850431
Si Si2 0.087864 0.617129 0.415828
Si Si3 0.500000 0.500000 0.500000
Si Si4 0.082617 0.721868 0.817601
Si Si5 0.743358 0.842734 0.565038
Si Si6 0.133962 0.761565 0.033245
Si Si7 0.021177 0.247931 0.405179
Si Si8 0.401037 0.931768 0.847649
O O1 0.375235 0.842666 0.680437
O O2 0.768210 0.038220 0.907429
O O3 0.746408 0.743795 0.936948
O O4 0.861489 0.750816 0.914066
O O5 0.004395 0.690517 0.323589
O O6 0.104379 0.759713 0.463713
O O7 0.936142 0.451021 0.355851
O O8 0.364381 0.532489 0.551496
O O9 0.721001 0.349763 0.603959
O O10 0.630999 0.525173 0.621247
O O11 0.224690 0.537756 0.900592
O O12 0.832477 0.710018 0.652306
O O13 0.912784 0.813987 0.610412
O O14 0.481414 0.762041 0.408844
O O15 0.797456 0.112168 0.296866
#
# Coordination Sequence:
#
# PCOD9243646 Si02
#       8
#     4   4   2   4   4   4   4   4
#     4  10  24  43  74  96 142 170 238 279 361 406
#     4   9  22  43  61  88 138 164 223 289 338 397
#     4  10  20  38  62  88 124 168 214 268 318 394
#     4  11  22  42  59  95 131 173 220 276 330 409
#     4  11  23  39  63  90 133 172 220 271 339 397
#     4  10  23  47  66 104 132 184 221 300 338 428
#     4  10  21  41  66  95 123 176 222 281 334 416
#     4  10  21  39  64  91 128 175 221 273 337 400
#
# _framework density 25.460702999999999
#
# number of rings (size 3 to 8) (size 9 to 14) (size 15 to 20)
#    0.000    1.867    1.333    2.400    5.600    2.133 
#    9.600    0.000    0.000    0.000    0.000    0.000 
#    0.000    0.000    0.000    0.000    0.000    0.000 
#
# Total GULP energy -167278.872367 kJ/mol
# GULP energy per Si atom -5575.962412 kJ/mol
# Density = 2.540275 g / cm^3
# Si number density = 25.460703 Si / 1000 Ang^3
#
#
#
# Elastic Constant Matrix: (Units=GPa)
#
#
# Indices 1 2 3 4 5 6 
#
# 1 102.9823 8.5468 7.1155 0.0000 -27.7788 0.0000
# 2 8.5468 99.0721 16.4496 0.0000 0.3235 0.0000
# 3 7.1155 16.4496 38.2889 0.0000 -4.5734 0.0000
# 4 0.0000 0.0000 0.0000 30.5425 0.0000 -0.8668
# 5 -27.7788 0.3235 -4.5734 0.0000 26.2843 0.0000
# 6 0.0000 0.0000 0.0000 -0.8668 0.0000 24.6458
#
#
#
# Elastic Compliance Matrix: (Units=1/GPa)
#
#
# Indices 1 2 3 4 5 6 
#
# 1 0.013735 -0.001180 -0.000317 0.000000 0.014475 0.000000
# 2 -0.001180 0.010994 -0.004768 0.000000 -0.002212 0.000000
# 3 -0.000317 -0.004768 0.028790 0.000000 0.004733 0.000000
# 4 0.000000 0.000000 0.000000 0.032774 0.000000 0.001153
# 5 0.014475 -0.002212 0.004733 0.000000 0.054195 0.000000
# 6 0.000000 0.000000 0.000000 0.001153 0.000000 0.040615
#
#
# Mechanical properties :
#
#
# Convention : Reuss Voigt Hill
#
# Bulk Modulus (GPa) = 24.39622 33.84079 29.11850
# Shear Modulus (GPa) = 24.12016 30.17661 27.14839
#
# Velocity S-wave (km/s) = 3.08124 3.44644 3.26895
# Velocity P-wave (km/s) = 4.71820 5.39977 5.07045
#
# Compressibility (1/GPa) = 0.04098996
#
# Stress axis : x y z
#
# Youngs Moduli (GPa) = 72.80801 90.95584 34.73432
#
# Poissons Ratio (x) = 0.10729 0.01100
# Poissons Ratio (y) = 0.08588 0.16562
# Poissons Ratio (z) = 0.02306 0.43371
#
# Static dielectric constant tensor:
#      x y z
#    x -0.176640 0.000000 -1.589220 
#    y 0.000000 2.066290 0.000000 
#    z -1.589220 0.000000 0.866750 
# 
# From -- ./inp_files/80414.got.cif
#   From: 2010.05.17/outbox.cif.g08.bks.cpg/sg14_41_cif.got.tgz:80414.got - 2010.06.03 17:49:19.
