data_PCOD9243730
_publ_section_title
;
Structure prediction by ZEFSAII (Michael W. Deem and Ramdas Pophale) SiO2 
 PCOD9243730
Probable space group: P 21/C
;
_chemical_formula_sum "Si O2"
_cell_formula_units_Z 28
_cell_length_a 5.388152
_cell_length_b 18.010519
_cell_length_c 14.073023
_cell_angle_alpha 90.000000
_cell_angle_beta 117.212862
_cell_angle_gamma 90.000000
_cell_volume 1214.530613
_symmetry_space_group_name_H-M "P 21/C"
_symmetry_group_IT_number 14
_symmetry_cell_setting 'monoclinic'
loop_
_space_group_symop_operation_xyz
x,y,z
-x,1/2+y,1/2-z
-x,-y,-z
x,1/2-y,1/2+z
loop_
_atom_site_type_symbol
_atom_site_label
_atom_site_fract_x
_atom_site_fract_y
_atom_site_fract_z
Si Si1 0.536331 0.835182 0.176757
Si Si2 0.485890 0.775632 0.952370
Si Si3 0.420861 0.605292 0.147100
Si Si4 0.447015 0.598006 0.940701
Si Si5 0.900566 0.699494 0.268597
Si Si6 0.044150 0.755079 0.590554
Si Si7 0.816989 0.543064 0.830829
O O1 0.756424 0.778993 0.265338
O O2 0.234875 0.811235 0.163780
O O3 0.633225 0.916974 0.217632
O O4 0.501976 0.814176 0.059610
O O5 0.430052 0.687531 0.934510
O O6 0.218450 0.810282 0.854602
O O7 0.813274 0.777768 0.979519
O O8 0.683969 0.634311 0.253286
O O9 0.242495 0.679086 0.090880
O O10 0.241030 0.544210 0.169864
O O11 0.514220 0.574896 0.060885
O O12 0.684109 0.575167 0.906327
O O13 0.136359 0.565631 0.869703
O O14 0.898883 0.705386 0.153654
#
# Coordination Sequence:
#
# PCOD9243730 Si02
#       7
#     4   4   4   4   4   4   4
#     4  10  22  40  62  91 130 168 219 271 322 384
#     4  11  21  38  67  95 126 165 226 266 327 374
#     4  11  24  41  61  96 137 171 213 266 334 395
#     4  12  23  40  67  97 134 170 214 272 331 392
#     4  10  21  39  63  92 124 174 214 273 318 389
#     4  10  20  38  64  89 130 167 216 269 323 379
#     4  12  27  40  67  99 136 173 217 265 337 393
#
# _framework density 23.054172999999999
#
# number of rings (size 3 to 8) (size 9 to 14) (size 15 to 20)
#    0.000    1.143    5.714    2.571    4.000    2.286 
#    0.000    0.714    0.000    1.714    0.000    0.000 
#    0.000    0.000    0.000    0.000    0.000    0.000 
#
# Total GULP energy -156321.429491 kJ/mol
# GULP energy per Si atom -5582.908196 kJ/mol
# Density = 2.300170 g / cm^3
# Si number density = 23.054173 Si / 1000 Ang^3
#
#
#
# Elastic Constant Matrix: (Units=GPa)
#
#
# Indices 1 2 3 4 5 6 
#
# 1 84.7402 10.0126 24.3260 0.0000 34.1543 0.0000
# 2 10.0126 52.5932 18.5829 0.0000 23.8150 0.0000
# 3 24.3260 18.5829 114.1810 0.0000 39.9819 0.0000
# 4 0.0000 0.0000 0.0000 28.4771 0.0000 8.9037
# 5 34.1543 23.8150 39.9819 0.0000 50.8907 0.0000
# 6 0.0000 0.0000 0.0000 8.9037 0.0000 30.9212
#
#
#
# Elastic Compliance Matrix: (Units=1/GPa)
#
#
# Indices 1 2 3 4 5 6 
#
# 1 0.016425 0.002368 0.000501 0.000000 -0.012525 0.000000
# 2 0.002368 0.024468 0.000109 0.000000 -0.013125 0.000000
# 3 0.000501 0.000109 0.012097 0.000000 -0.009892 0.000000
# 4 0.000000 0.000000 0.000000 0.038590 0.000000 -0.011112
# 5 -0.012525 -0.013125 -0.009892 0.000000 0.041969 0.000000
# 6 0.000000 0.000000 0.000000 -0.011112 0.000000 0.035540
#
#
# Mechanical properties :
#
#
# Convention : Reuss Voigt Hill
#
# Bulk Modulus (GPa) = 16.96461 39.70638 28.33549
# Shear Modulus (GPa) = 27.35494 35.29733 31.32613
#
# Velocity S-wave (km/s) = 3.44837 3.91712 3.69020
# Velocity P-wave (km/s) = 4.81971 6.14157 5.52035
#
# Compressibility (1/GPa) = 0.05894625
#
# Stress axis : x y z
#
# Youngs Moduli (GPa) = 60.88107 40.87029 82.66447
#
# Poissons Ratio (x) = -0.09676 -0.04143
# Poissons Ratio (y) = -0.14414 -0.00904
# Poissons Ratio (z) = -0.03051 -0.00447
#
# Static dielectric constant tensor:
#      x y z
#    x 2.025510 0.000000 -0.017270 
#    y 0.000000 1.872540 0.000000 
#    z -0.017270 0.000000 1.894890 
# 
# From -- ./inp_files/38121.got.cif
#   From: 2010.05.17/outbox.cif.g08.bks.cpg/sg14_20_cif.got.tgz:38121.got - 2010.06.03 17:49:19.
