data_PCOD9243731
_publ_section_title
;
Structure prediction by ZEFSAII (Michael W. Deem and Ramdas Pophale) SiO2 
 PCOD9243731
Probable space group: P 21/C
;
_chemical_formula_sum "Si O2"
_cell_formula_units_Z 16
_cell_length_a 19.874968
_cell_length_b 7.147825
_cell_length_c 12.667269
_cell_angle_alpha 90.000000
_cell_angle_beta 26.689131
_cell_angle_gamma 90.000000
_cell_volume 808.265944
_symmetry_space_group_name_H-M "P 21/C"
_symmetry_group_IT_number 14
_symmetry_cell_setting 'monoclinic'
loop_
_space_group_symop_operation_xyz
x,y,z
-x,1/2+y,1/2-z
-x,-y,-z
x,1/2-y,1/2+z
loop_
_atom_site_type_symbol
_atom_site_label
_atom_site_fract_x
_atom_site_fract_y
_atom_site_fract_z
Si Si1 0.195979 0.067354 0.962693
Si Si2 0.340203 0.086933 0.199429
Si Si3 0.172182 0.964580 0.227317
Si Si4 0.142929 0.827986 0.606572
O O1 0.205423 0.087260 0.076527
O O2 0.034601 0.141746 0.150643
O O3 0.190740 0.842193 0.960504
O O4 0.323876 0.188753 0.728427
O O5 0.277709 0.015400 0.175527
O O6 0.227541 0.008368 0.446962
O O7 0.500000 0.000000 0.000000
O O8 0.184504 0.754026 0.163015
O O9 0.000000 0.000000 0.500000
#
# Coordination Sequence:
#
# PCOD9243731 Si02
#       4
#     4   4   4   4
#     4  10  20  38  64  90 115 152 211 235 280 377
#     4  12  24  42  60  87 129 156 186 261 301 323
#     4  10  20  38  64  90 115 152 211 235 280 377
#     4  10  20  38  64  90 115 152 211 235 280 377
#
# _framework density 19.795463999999999
#
# number of rings (size 3 to 8) (size 9 to 14) (size 15 to 20)
#    1.500    0.000    7.500    0.000    0.000    3.000 
#    4.500    3.750    0.000    0.000    0.000    0.000 
#    0.000    0.000    0.000    0.000    0.000    0.000 
#
# Total GULP energy -89107.388865 kJ/mol
# GULP energy per Si atom -5569.211804 kJ/mol
# Density = 1.975041 g / cm^3
# Si number density = 19.795464 Si / 1000 Ang^3
#
#
#
# Elastic Constant Matrix: (Units=GPa)
#
#
# Indices 1 2 3 4 5 6 
#
# 1 107.4687 -16.0761 9.2489 0.0000 -7.5739 0.0000
# 2 -16.0761 52.9239 -13.8034 0.0000 -2.3610 0.0000
# 3 9.2489 -13.8034 28.3845 0.0000 -17.1504 0.0000
# 4 0.0000 0.0000 0.0000 33.2439 0.0000 16.5158
# 5 -7.5739 -2.3610 -17.1504 0.0000 31.9008 0.0000
# 6 0.0000 0.0000 0.0000 16.5158 0.0000 25.6876
#
#
#
# Elastic Compliance Matrix: (Units=1/GPa)
#
#
# Indices 1 2 3 4 5 6 
#
# 1 0.009959 0.003060 -0.000284 0.000000 0.002438 0.000000
# 2 0.003060 0.025393 0.019145 0.000000 0.012899 0.000000
# 3 -0.000284 0.019145 0.067315 0.000000 0.037539 0.000000
# 4 0.000000 0.000000 0.000000 0.044199 0.000000 -0.028418
# 5 0.002438 0.012899 0.037539 0.000000 0.053063 0.000000
# 6 0.000000 0.000000 0.000000 -0.028418 0.000000 0.057200
#
#
# Mechanical properties :
#
#
# Convention : Reuss Voigt Hill
#
# Bulk Modulus (GPa) = 6.82543 16.39068 11.60806
# Shear Modulus (GPa) = 19.07498 32.12697 25.60098
#
# Velocity S-wave (km/s) = 3.10756 4.03295 3.60011
# Velocity P-wave (km/s) = 4.04121 5.47579 4.81226
#
# Compressibility (1/GPa) = 0.14651090
#
# Stress axis : x y z
#
# Youngs Moduli (GPa) = 100.41146 39.38033 14.85545
#
# Poissons Ratio (x) = -0.12050 0.00422
# Poissons Ratio (y) = -0.30725 -0.28441
# Poissons Ratio (z) = 0.02849 -0.75395
#
# Static dielectric constant tensor:
#      x y z
#    x 1.678470 0.000000 0.013940 
#    y 0.000000 1.739620 0.000000 
#    z 0.013940 0.000000 1.689020 
# 
# From -- ./inp_files/22682.got.cif
#   From: 2010.05.17/outbox.cif.g08.bks.cpg/sg14_12_cif.got.tgz:22682.got - 2010.06.03 17:49:19.
