data_PCOD9243946
_publ_section_title
;
Structure prediction by ZEFSAII (Michael W. Deem and Ramdas Pophale) SiO2 
 PCOD9243946
Probable space group: P 21/C
;
_chemical_formula_sum "Si O2"
_cell_formula_units_Z 24
_cell_length_a 23.610587
_cell_length_b 9.295243
_cell_length_c 11.011492
_cell_angle_alpha 90.000000
_cell_angle_beta 25.014194
_cell_angle_gamma 90.000000
_cell_volume 1021.862847
_symmetry_space_group_name_H-M "P 21/C"
_symmetry_group_IT_number 14
_symmetry_cell_setting 'monoclinic'
loop_
_space_group_symop_operation_xyz
x,y,z
-x,1/2+y,1/2-z
-x,-y,-z
x,1/2-y,1/2+z
loop_
_atom_site_type_symbol
_atom_site_label
_atom_site_fract_x
_atom_site_fract_y
_atom_site_fract_z
Si Si1 0.440933 0.846822 0.264424
Si Si2 0.240106 0.306293 0.617383
Si Si3 0.294638 0.471139 0.881073
Si Si4 0.479565 0.512780 0.182315
Si Si5 0.059486 0.093215 0.273823
Si Si6 0.043212 0.383801 0.211600
O O1 0.461635 0.679239 0.248575
O O2 0.331520 0.878864 0.372973
O O3 0.412992 0.931225 0.443342
O O4 0.577947 0.918147 0.945065
O O5 0.288745 0.145898 0.500935
O O6 0.346326 0.418668 0.459335
O O7 0.199260 0.356486 0.560136
O O8 0.121952 0.312701 0.944519
O O9 0.155137 0.461532 0.078709
O O10 0.500000 0.500000 0.000000
O O11 0.984750 0.245697 0.395500
O O12 0.000000 0.000000 0.500000
O O13 0.053236 0.997954 0.165160
#
# Coordination Sequence:
#
# PCOD9243946 Si02
#       6
#     4   4   4   4   4   4
#     4  11  24  37  60  93 127 168 213 254 304 379
#     4  10  20  39  62  92 123 167 205 257 317 373
#     4  10  21  39  62  87 125 167 208 253 317 368
#     4  12  24  39  62  93 131 167 214 258 311 373
#     4   9  21  39  63  92 120 161 212 259 316 376
#     4  10  20  40  66  88 125 163 202 264 318 372
#
# _framework density 23.486516999999999
#
# number of rings (size 3 to 8) (size 9 to 14) (size 15 to 20)
#    0.000    1.667    3.333    1.000    2.333    1.333 
#    0.000   12.500    0.000    0.000    0.000    0.000 
#    0.000    0.000    0.000    0.000    0.000    0.000 
#
# Total GULP energy -133991.695174 kJ/mol
# GULP energy per Si atom -5582.987299 kJ/mol
# Density = 2.343306 g / cm^3
# Si number density = 23.486517 Si / 1000 Ang^3
#
#
#
# Elastic Constant Matrix: (Units=GPa)
#
#
# Indices 1 2 3 4 5 6 
#
# 1 147.4692 78.4115 2.7089 0.0000 -3.9580 0.0000
# 2 78.4115 80.5136 -3.5078 0.0000 -5.0468 0.0000
# 3 2.7089 -3.5078 27.9802 0.0000 11.3221 0.0000
# 4 0.0000 0.0000 0.0000 21.6377 0.0000 -2.0464
# 5 -3.9580 -5.0468 11.3221 0.0000 23.3336 0.0000
# 6 0.0000 0.0000 0.0000 -2.0464 0.0000 45.6208
#
#
#
# Elastic Compliance Matrix: (Units=1/GPa)
#
#
# Indices 1 2 3 4 5 6 
#
# 1 0.014360 -0.014071 -0.003619 0.000000 0.001149 0.000000
# 2 -0.014071 0.026386 0.004140 0.000000 0.001312 0.000000
# 3 -0.003619 0.004140 0.045411 0.000000 -0.021753 0.000000
# 4 0.000000 0.000000 0.000000 0.046413 0.000000 0.002082
# 5 0.001149 0.001312 -0.021753 0.000000 0.053891 0.000000
# 6 0.000000 0.000000 0.000000 0.002082 0.000000 0.022013
#
#
# Mechanical properties :
#
#
# Convention : Reuss Voigt Hill
#
# Bulk Modulus (GPa) = 16.93279 45.68758 31.31018
# Shear Modulus (GPa) = 19.58783 30.00844 24.79813
#
# Velocity S-wave (km/s) = 2.89104 3.57835 3.25290
# Velocity P-wave (km/s) = 4.28596 6.04713 5.24105
#
# Compressibility (1/GPa) = 0.05905703
#
# Stress axis : x y z
#
# Youngs Moduli (GPa) = 69.63772 37.89850 22.02089
#
# Poissons Ratio (x) = 0.53326 0.07970
# Poissons Ratio (y) = 0.97986 -0.09116
# Poissons Ratio (z) = 0.25203 -0.15688
#
# Static dielectric constant tensor:
#      x y z
#    x 1.992880 0.000000 -0.074770 
#    y 0.000000 1.879570 0.000000 
#    z -0.074770 0.000000 2.014500 
# 
# From -- ./inp_files/28202.got.cif
#   From: 2010.05.17/outbox.cif.g08.bks.cpg/sg14_15_cif.got.tgz:28202.got - 2010.06.03 17:49:19.
