data_PCOD9243534
_publ_section_title
;
Structure prediction by ZEFSAII (Michael W. Deem and Ramdas Pophale) SiO2 
 PCOD9243534
Probable space group: P 21/C
;
_chemical_formula_sum "Si O2"
_cell_formula_units_Z 20
_cell_length_a 11.861356
_cell_length_b 17.044741
_cell_length_c 13.803702
_cell_angle_alpha 90.000000
_cell_angle_beta 158.809724
_cell_angle_gamma 90.000000
_cell_volume 1008.760754
_symmetry_space_group_name_H-M "P 21/C"
_symmetry_group_IT_number 14
_symmetry_cell_setting 'monoclinic'
loop_
_space_group_symop_operation_xyz
x,y,z
-x,1/2+y,1/2-z
-x,-y,-z
x,1/2-y,1/2+z
loop_
_atom_site_type_symbol
_atom_site_label
_atom_site_fract_x
_atom_site_fract_y
_atom_site_fract_z
Si Si1 0.734820 0.145230 0.492593
Si Si2 0.423017 0.316945 0.551285
Si Si3 0.265184 0.145230 0.507412
Si Si4 0.628240 0.500000 0.210621
Si Si5 0.576987 0.316945 0.448720
O O1 0.681025 0.154626 0.334275
O O2 0.637499 0.226387 0.467106
O O3 0.513854 0.076234 0.351519
O O4 0.099773 0.135955 0.808271
O O5 0.362505 0.226387 0.532899
O O6 0.500003 0.321690 0.500003
O O7 0.486147 0.076233 0.648483
O O8 0.318979 0.154626 0.665731
O O9 0.900230 0.135954 0.191734
O O10 0.000000 0.500000 0.500000
O O11 0.500000 0.500000 0.000000
#
# Coordination Sequence:
#
# PCOD9243534 Si02
#       5
#     4   4   4   4   4
#     4  10  22  37  58  87 114 148 198 234 280 348
#     4  10  20  38  60  83 115 153 191 237 282 335
#     4  10  22  37  58  87 114 148 198 234 280 348
#     4  12  24  40  61  86 119 152 188 244 296 336
#     4  10  20  38  60  83 115 153 191 237 282 335
#
# _framework density 19.826308000000001
#
# number of rings (size 3 to 8) (size 9 to 14) (size 15 to 20)
#    0.000    1.600    0.000    4.800    0.000    6.400 
#    0.000    6.000    0.000    0.000    0.000    0.000 
#    0.000    0.000    0.000    0.000    0.000    0.000 
#
# Total GULP energy -111711.523885 kJ/mol
# GULP energy per Si atom -5585.576194 kJ/mol
# Density = 1.978118 g / cm^3
# Si number density = 19.826308 Si / 1000 Ang^3
#
#
#
# Elastic Constant Matrix: (Units=GPa)
#
#
# Indices 1 2 3 4 5 6 
#
# 1 123.3153 33.9125 16.5568 0.0000 -10.6735 0.0000
# 2 33.9125 68.5365 41.3695 0.0000 13.0466 0.0000
# 3 16.5568 41.3695 115.0823 0.0000 -1.2665 0.0000
# 4 0.0000 0.0000 0.0000 12.3613 0.0000 -2.8742
# 5 -10.6735 13.0466 -1.2665 0.0000 35.2172 0.0000
# 6 0.0000 0.0000 0.0000 -2.8742 0.0000 14.4406
#
#
#
# Elastic Compliance Matrix: (Units=1/GPa)
#
#
# Indices 1 2 3 4 5 6 
#
# 1 0.010340 -0.006821 0.001027 0.000000 0.005698 0.000000
# 2 -0.006821 0.025124 -0.008179 0.000000 -0.011669 0.000000
# 3 0.001027 -0.008179 0.011523 0.000000 0.003755 0.000000
# 4 0.000000 0.000000 0.000000 0.084823 0.000000 0.016883
# 5 0.005698 -0.011669 0.003755 0.000000 0.034580 0.000000
# 6 0.000000 0.000000 0.000000 0.016883 0.000000 0.072610
#
#
# Mechanical properties :
#
#
# Convention : Reuss Voigt Hill
#
# Bulk Modulus (GPa) = 52.51516 54.51241 53.51379
# Shear Modulus (GPa) = 18.29542 26.74352 22.51947
#
# Velocity S-wave (km/s) = 3.04103 3.67671 3.37388
# Velocity P-wave (km/s) = 6.23503 6.75122 6.49825
#
# Compressibility (1/GPa) = 0.01904212
#
# Stress axis : x y z
#
# Youngs Moduli (GPa) = 96.70790 39.80280 86.78305
#
# Poissons Ratio (x) = 0.27150 -0.08913
# Poissons Ratio (y) = 0.65966 0.70976
# Poissons Ratio (z) = -0.09933 0.32553
#
# Static dielectric constant tensor:
#      x y z
#    x 1.668960 0.000000 0.000890 
#    y 0.000000 1.689800 0.000000 
#    z 0.000890 0.000000 1.678760 
# 
# From -- ./inp_files/21354.got.cif
#   From: 2010.05.17/outbox.cif.g08.bks.cpg/sg14_11_cif.got.tgz:21354.got - 2010.06.03 17:49:19.
