data_PCOD9243902
_publ_section_title
;
Structure prediction by ZEFSAII (Michael W. Deem and Ramdas Pophale) SiO2 
 PCOD9243902
Probable space group: P 21/C
;
_chemical_formula_sum "Si O2"
_cell_formula_units_Z 28
_cell_length_a 18.227179
_cell_length_b 19.183128
_cell_length_c 8.771316
_cell_angle_alpha 90.000000
_cell_angle_beta 152.356966
_cell_angle_gamma 90.000000
_cell_volume 1422.936769
_symmetry_space_group_name_H-M "P 21/C"
_symmetry_group_IT_number 14
_symmetry_cell_setting 'monoclinic'
loop_
_space_group_symop_operation_xyz
x,y,z
-x,1/2+y,1/2-z
-x,-y,-z
x,1/2-y,1/2+z
loop_
_atom_site_type_symbol
_atom_site_label
_atom_site_fract_x
_atom_site_fract_y
_atom_site_fract_z
Si Si1 0.337761 0.926715 0.075589
Si Si2 0.959479 0.162509 0.449064
Si Si3 0.762745 0.921386 0.160602
Si Si4 0.116555 0.808285 0.046404
Si Si5 0.911221 0.565152 0.261284
Si Si6 0.406122 0.029235 0.681547
Si Si7 0.420575 0.882989 0.558827
O O1 0.470173 0.927251 0.189951
O O2 0.401259 0.888373 0.341715
O O3 0.172889 0.890338 0.732173
O O4 0.300730 0.008461 0.035711
O O5 0.942553 0.233252 0.511013
O O6 0.127963 0.124179 0.748254
O O7 0.919698 0.179869 0.198958
O O8 0.862241 0.944949 0.493036
O O9 0.607637 0.880039 0.933827
O O10 0.303930 0.824230 0.409117
O O11 0.020807 0.866987 0.963135
O O12 0.000000 0.500000 0.500000
O O13 0.746926 0.571268 0.049429
O O14 0.360384 0.958226 0.508690
O O15 0.500000 0.000000 0.000000
#
# Coordination Sequence:
#
# PCOD9243902 Si02
#       7
#     4   4   4   4   4   4   4
#     4  10  21  39  61  88 119 152 194 248 298 346
#     4  10  23  42  57  84 118 159 199 239 296 352
#     4  10  20  39  63  89 119 151 197 247 291 349
#     4  10  23  42  57  81 121 158 198 242 292 356
#     4  11  21  36  61  90 121 153 192 245 293 343
#     4  11  19  35  60  92 116 148 196 242 293 346
#     4  10  20  39  61  85 121 149 192 248 295 346
#
# _framework density 19.677613000000001
#
# number of rings (size 3 to 8) (size 9 to 14) (size 15 to 20)
#    0.000    1.714    4.286    2.143    0.000    2.286 
#   10.286    2.857    0.000    0.000    0.000    0.000 
#    0.000    0.000    0.000    0.000    0.000    0.000 
#
# Total GULP energy -156263.301510 kJ/mol
# GULP energy per Si atom -5580.832197 kJ/mol
# Density = 1.963283 g / cm^3
# Si number density = 19.677613 Si / 1000 Ang^3
#
#
#
# Elastic Constant Matrix: (Units=GPa)
#
#
# Indices 1 2 3 4 5 6 
#
# 1 112.0822 45.7455 30.0769 0.0000 33.7668 0.0000
# 2 45.7455 72.2791 22.6254 0.0000 31.6642 0.0000
# 3 30.0769 22.6254 72.8185 0.0000 26.9846 0.0000
# 4 0.0000 0.0000 0.0000 16.4576 0.0000 5.5086
# 5 33.7668 31.6642 26.9846 0.0000 36.1721 0.0000
# 6 0.0000 0.0000 0.0000 5.5086 0.0000 40.9387
#
#
#
# Elastic Compliance Matrix: (Units=1/GPa)
#
#
# Indices 1 2 3 4 5 6 
#
# 1 0.013485 -0.004928 -0.001344 0.000000 -0.007271 0.000000
# 2 -0.004928 0.024252 0.000916 0.000000 -0.017312 0.000000
# 3 -0.001344 0.000916 0.019122 0.000000 -0.013812 0.000000
# 4 0.000000 0.000000 0.000000 0.063628 0.000000 -0.008562
# 5 -0.007271 -0.017312 -0.013812 0.000000 0.059892 0.000000
# 6 0.000000 0.000000 0.000000 -0.008562 0.000000 0.025579
#
#
# Mechanical properties :
#
#
# Convention : Reuss Voigt Hill
#
# Bulk Modulus (GPa) = 21.67074 50.45281 36.06177
# Shear Modulus (GPa) = 21.54694 29.29582 25.42138
#
# Velocity S-wave (km/s) = 3.31266 3.86267 3.59819
# Velocity P-wave (km/s) = 5.06641 6.75196 5.96898
#
# Compressibility (1/GPa) = 0.04614517
#
# Stress axis : x y z
#
# Youngs Moduli (GPa) = 74.15784 41.23390 52.29668
#
# Poissons Ratio (x) = 0.20322 0.07028
# Poissons Ratio (y) = 0.36548 -0.04789
# Poissons Ratio (z) = 0.09966 -0.03776
#
# Static dielectric constant tensor:
#      x y z
#    x 1.706830 0.000000 -0.007310 
#    y 0.000000 1.662520 0.000000 
#    z -0.007310 0.000000 1.744790 
# 
# From -- ./inp_files/18183.got.cif
#   From: 2010.05.17/outbox.cif.g08.bks.cpg/sg14_10_cif.got.tgz:18183.got - 2010.06.03 17:49:19.
