data_PCOD9243654
_publ_section_title
;
Structure prediction by ZEFSAII (Michael W. Deem and Ramdas Pophale) SiO2 
 PCOD9243654
Probable space group: P 21/C
;
_chemical_formula_sum "Si O2"
_cell_formula_units_Z 32
_cell_length_a 14.031548
_cell_length_b 13.868230
_cell_length_c 8.048235
_cell_angle_alpha 90.000000
_cell_angle_beta 65.984752
_cell_angle_gamma 90.000000
_cell_volume 1430.559601
_symmetry_space_group_name_H-M "P 21/C"
_symmetry_group_IT_number 14
_symmetry_cell_setting 'monoclinic'
loop_
_space_group_symop_operation_xyz
x,y,z
-x,1/2+y,1/2-z
-x,-y,-z
x,1/2-y,1/2+z
loop_
_atom_site_type_symbol
_atom_site_label
_atom_site_fract_x
_atom_site_fract_y
_atom_site_fract_z
Si Si1 0.428738 0.716950 0.372935
Si Si2 0.763157 0.697035 0.270526
Si Si3 0.908282 0.676925 0.467674
Si Si4 0.298436 0.650855 0.755690
Si Si5 0.735103 0.537021 0.000332
Si Si6 0.061098 0.856380 0.373928
Si Si7 0.575442 0.667392 0.978557
Si Si8 0.958865 0.467895 0.765051
O O1 0.386414 0.651681 0.551216
O O2 0.330011 0.758051 0.345069
O O3 0.509118 0.666135 0.194024
O O4 0.491164 0.810560 0.397395
O O5 0.829976 0.652493 0.371795
O O6 0.754271 0.624802 0.119922
O O7 0.653519 0.739989 0.410681
O O8 0.831520 0.789351 0.166701
O O9 0.983302 0.769392 0.389743
O O10 0.987776 0.589074 0.422782
O O11 0.297942 0.554157 0.865035
O O12 0.182635 0.666057 0.767272
O O13 0.648125 0.574066 0.933827
O O14 0.841626 0.506700 0.834060
O O15 0.045937 0.891427 0.575865
O O16 0.029301 0.945727 0.282520
#
# Coordination Sequence:
#
# PCOD9243654 Si02
#       8
#     4   4   4   4   4   4   4   4
#     4  10  23  44  64  96 123 165 222 266 328 375
#     4  12  21  38  67  97 121 169 213 259 319 382
#     4  12  21  35  65  93 129 168 210 253 323 380
#     4  10  24  39  67  90 128 170 213 261 315 388
#     4  11  22  41  68  96 129 167 217 258 321 389
#     4  10  20  38  62  89 130 169 208 250 317 383
#     4  11  21  43  69  90 127 160 213 279 321 370
#     4  10  20  39  60  97 128 169 207 257 307 403
#
# _framework density 22.368867999999999
#
# number of rings (size 3 to 8) (size 9 to 14) (size 15 to 20)
#    0.000    1.250    5.000    1.500    3.500    1.000 
#    0.000    2.500   11.000    0.000    0.000    0.000 
#    0.000    0.000    0.000    0.000    0.000    0.000 
#
# Total GULP energy -178873.825502 kJ/mol
# GULP energy per Si atom -5589.807047 kJ/mol
# Density = 2.231796 g / cm^3
# Si number density = 22.368868 Si / 1000 Ang^3
#
#
#
# Elastic Constant Matrix: (Units=GPa)
#
#
# Indices 1 2 3 4 5 6 
#
# 1 85.6294 6.5256 18.2477 0.0000 -30.2577 0.0000
# 2 6.5256 61.2096 9.0483 0.0000 -24.9320 0.0000
# 3 18.2477 9.0483 53.8062 0.0000 -29.6897 0.0000
# 4 0.0000 0.0000 0.0000 29.2303 0.0000 -9.8778
# 5 -30.2577 -24.9320 -29.6897 0.0000 28.7229 0.0000
# 6 0.0000 0.0000 0.0000 -9.8778 0.0000 27.1304
#
#
#
# Elastic Compliance Matrix: (Units=1/GPa)
#
#
# Indices 1 2 3 4 5 6 
#
# 1 0.064716 0.068703 0.086172 0.000000 0.216882 0.000000
# 2 0.068703 0.109338 0.117815 0.000000 0.289062 0.000000
# 3 0.086172 0.117815 0.177050 0.000000 0.376051 0.000000
# 4 0.000000 0.000000 0.000000 0.039011 0.000000 0.014203
# 5 0.216882 0.289062 0.376051 0.000000 0.902906 0.000000
# 6 0.000000 0.000000 0.000000 0.014203 0.000000 0.042030
#
#
# Mechanical properties :
#
#
# Convention : Reuss Voigt Hill
#
# Bulk Modulus (GPa) = 1.11547 29.80983 15.46265
# Shear Modulus (GPa) = 4.59348 28.13830 16.36589
#
# Velocity S-wave (km/s) = 1.43456 3.55057 2.70781
# Velocity P-wave (km/s) = 1.80103 5.49219 4.08704
#
# Compressibility (1/GPa) = 0.89648348
#
# Stress axis : x y z
#
# Youngs Moduli (GPa) = 15.45213 9.14596 5.64813
#
# Poissons Ratio (x) = -0.62836 -0.48671
# Poissons Ratio (y) = -1.06161 -0.66543
# Poissons Ratio (z) = -1.33155 -1.07753
#
# Static dielectric constant tensor:
#      x y z
#    x 1.824200 0.000000 0.007260 
#    y 0.000000 1.814720 0.000000 
#    z 0.007260 0.000000 1.844680 
# 
# From -- ./inp_files/16237.got.cif
#   From: 2010.05.17/outbox.cif.g08.bks.cpg/sg14_9_cif.got.tgz:16237.got - 2010.06.03 17:49:19.
