data_PCOD9243574
_publ_section_title
;
Structure prediction by ZEFSAII (Michael W. Deem and Ramdas Pophale) SiO2 
 PCOD9243574
Probable space group: P 21/C
;
_chemical_formula_sum "Si O2"
_cell_formula_units_Z 28
_cell_length_a 11.414113
_cell_length_b 16.520282
_cell_length_c 14.008863
_cell_angle_alpha 90.000000
_cell_angle_beta 31.700586
_cell_angle_gamma 90.000000
_cell_volume 1388.094378
_symmetry_space_group_name_H-M "P 21/C"
_symmetry_group_IT_number 14
_symmetry_cell_setting 'monoclinic'
loop_
_space_group_symop_operation_xyz
x,y,z
-x,1/2+y,1/2-z
-x,-y,-z
x,1/2-y,1/2+z
loop_
_atom_site_type_symbol
_atom_site_label
_atom_site_fract_x
_atom_site_fract_y
_atom_site_fract_z
Si Si1 0.594519 0.284748 0.876472
Si Si2 0.889840 0.703143 0.779983
Si Si3 0.945097 0.786607 0.023284
Si Si4 0.960383 0.508067 0.171905
Si Si5 0.033036 0.632788 0.277792
Si Si6 0.667324 0.124328 0.944615
Si Si7 0.232287 0.391076 0.863344
O O1 0.785356 0.276387 0.664113
O O2 0.577852 0.198005 0.941218
O O3 0.712606 0.345910 0.869475
O O4 0.355156 0.313366 0.008970
O O5 0.950713 0.795000 0.766284
O O6 0.866424 0.692929 0.682791
O O7 0.097129 0.652215 0.674167
O O8 0.905679 0.852090 0.966764
O O9 0.842086 0.700644 0.064299
O O10 0.001584 0.549918 0.244798
O O11 0.739743 0.452391 0.331719
O O12 0.913979 0.576542 0.125118
O O13 0.161942 0.452185 0.995536
O O14 0.485320 0.106997 0.151481
#
# Coordination Sequence:
#
# PCOD9243574 Si02
#       7
#     4   4   4   4   4   4   4
#     4   9  20  38  59  87 117 154 207 252 289 361
#     4  11  20  40  62  84 122 157 207 251 297 352
#     4  10  20  38  60  90 114 157 205 247 294 355
#     4  11  21  40  59  90 130 154 193 256 312 355
#     4   9  21  38  58  90 119 155 200 249 302 358
#     4  11  22  37  61  89 122 159 198 253 306 358
#     4  11  21  37  64  90 119 155 206 247 304 360
#
# _framework density 20.171538000000002
#
# number of rings (size 3 to 8) (size 9 to 14) (size 15 to 20)
#    0.857    0.857    4.286    0.429    0.000    2.286 
#    2.571    1.429    0.000    0.000    0.000    0.000 
#    0.000    0.000    0.000    0.000    0.000    0.000 
#
# Total GULP energy -156132.085426 kJ/mol
# GULP energy per Si atom -5576.145908 kJ/mol
# Density = 2.012563 g / cm^3
# Si number density = 20.171538 Si / 1000 Ang^3
#
#
#
# Elastic Constant Matrix: (Units=GPa)
#
#
# Indices 1 2 3 4 5 6 
#
# 1 51.4013 7.5995 -1.1809 0.0000 -0.4320 0.0000
# 2 7.5995 23.8825 5.1588 0.0000 -4.5616 0.0000
# 3 -1.1809 5.1588 108.7210 0.0000 -10.2391 0.0000
# 4 0.0000 0.0000 0.0000 26.2171 0.0000 13.0088
# 5 -0.4320 -4.5616 -10.2391 0.0000 34.1178 0.0000
# 6 0.0000 0.0000 0.0000 13.0088 0.0000 21.9675
#
#
#
# Elastic Compliance Matrix: (Units=1/GPa)
#
#
# Indices 1 2 3 4 5 6 
#
# 1 0.020454 -0.006709 0.000494 0.000000 -0.000490 0.000000
# 2 -0.006709 0.045422 -0.001713 0.000000 0.005474 0.000000
# 3 0.000494 -0.001713 0.009533 0.000000 0.002638 0.000000
# 4 0.000000 0.000000 0.000000 0.054015 0.000000 -0.031987
# 5 -0.000490 0.005474 0.002638 0.000000 0.030828 0.000000
# 6 0.000000 0.000000 0.000000 -0.031987 0.000000 0.064464
#
#
# Mechanical properties :
#
#
# Convention : Reuss Voigt Hill
#
# Bulk Modulus (GPa) = 16.79128 23.01773 19.90451
# Shear Modulus (GPa) = 19.19970 27.95563 23.57767
#
# Velocity S-wave (km/s) = 3.08851 3.72680 3.42257
# Velocity P-wave (km/s) = 4.58921 5.47307 5.05051
#
# Compressibility (1/GPa) = 0.05955471
#
# Stress axis : x y z
#
# Youngs Moduli (GPa) = 48.89052 22.01579 104.89926
#
# Poissons Ratio (x) = 0.14770 -0.05186
# Poissons Ratio (y) = 0.32800 0.17965
# Poissons Ratio (z) = -0.02417 0.03770
#
# Static dielectric constant tensor:
#      x y z
#    x 1.723340 0.000000 0.015890 
#    y 0.000000 1.725760 0.000000 
#    z 0.015890 0.000000 1.721150 
# 
# From -- ./inp_files/45263.got.cif
#   From: 2010.05.17/outbox.cif.g08.bks.cpg/sg14_23_cif.got.tgz:45263.got - 2010.06.03 17:49:19.
