data_PCOD9243583
_publ_section_title
;
Structure prediction by ZEFSAII (Michael W. Deem and Ramdas Pophale) SiO2 
 PCOD9243583
Probable space group: P 21/C
;
_chemical_formula_sum "Si O2"
_cell_formula_units_Z 24
_cell_length_a 15.281259
_cell_length_b 8.678490
_cell_length_c 8.753765
_cell_angle_alpha 90.000000
_cell_angle_beta 122.113992
_cell_angle_gamma 90.000000
_cell_volume 983.280802
_symmetry_space_group_name_H-M "P 21/C"
_symmetry_group_IT_number 14
_symmetry_cell_setting 'monoclinic'
loop_
_space_group_symop_operation_xyz
x,y,z
-x,1/2+y,1/2-z
-x,-y,-z
x,1/2-y,1/2+z
loop_
_atom_site_type_symbol
_atom_site_label
_atom_site_fract_x
_atom_site_fract_y
_atom_site_fract_z
Si Si1 0.687988 0.960565 0.402087
Si Si2 0.297906 0.819173 0.025608
Si Si3 0.919309 0.012356 0.638866
Si Si4 0.511666 0.772912 0.094729
Si Si5 0.911624 0.212488 0.334688
Si Si6 0.382035 0.502216 0.826390
O O1 0.608427 0.889956 0.204565
O O2 0.688465 0.145833 0.402249
O O3 0.809805 0.924512 0.509680
O O4 0.648739 0.928328 0.539534
O O5 0.410037 0.855735 0.060350
O O6 0.281808 0.933988 0.150353
O O7 0.205055 0.826595 0.823835
O O8 0.924613 0.150597 0.518077
O O9 0.924976 0.108210 0.801910
O O10 0.009748 0.893447 0.689045
O O11 0.564769 0.626846 0.229384
O O12 0.454563 0.653670 0.919658
#
# Coordination Sequence:
#
# PCOD9243583 Si02
#       6
#     4   4   4   4   4   4
#     4  10  23  40  63  97 130 174 221 275 333 397
#     4  10  21  38  67  93 130 178 212 278 330 398
#     4  10  24  47  68 101 131 177 225 282 334 404
#     4  10  20  38  60  93 132 172 214 272 320 401
#     4  10  24  45  70  98 134 170 232 276 341 394
#     4  10  22  41  60  96 139 171 228 265 338 398
#
# _framework density 24.408083999999999
#
# number of rings (size 3 to 8) (size 9 to 14) (size 15 to 20)
#    0.000    2.000    0.000    3.000   14.000    2.667 
#   12.000    0.000    0.000    0.000    0.000    0.000 
#    0.000    0.000    0.000    0.000    0.000    0.000 
#
# Total GULP energy -133618.948174 kJ/mol
# GULP energy per Si atom -5567.456174 kJ/mol
# Density = 2.435253 g / cm^3
# Si number density = 24.408084 Si / 1000 Ang^3
#
#
#
# Elastic Constant Matrix: (Units=GPa)
#
#
# Indices 1 2 3 4 5 6 
#
# 1 103.1581 24.9901 34.7026 0.0000 24.5136 0.0000
# 2 24.9901 59.6083 60.0027 0.0000 12.7064 0.0000
# 3 34.7026 60.0027 82.8292 0.0000 15.4072 0.0000
# 4 0.0000 0.0000 0.0000 21.4935 0.0000 4.1446
# 5 24.5136 12.7064 15.4072 0.0000 31.5543 0.0000
# 6 0.0000 0.0000 0.0000 4.1446 0.0000 29.9623
#
#
#
# Elastic Compliance Matrix: (Units=1/GPa)
#
#
# Indices 1 2 3 4 5 6 
#
# 1 0.012958 0.000905 -0.004558 0.000000 -0.008205 0.000000
# 2 0.000905 0.062337 -0.044806 0.000000 -0.003927 0.000000
# 3 -0.004558 -0.044806 0.046665 0.000000 -0.001201 0.000000
# 4 0.000000 0.000000 0.000000 0.047801 0.000000 -0.006612
# 5 -0.008205 -0.003927 -0.001201 0.000000 0.040234 0.000000
# 6 0.000000 0.000000 0.000000 -0.006612 0.000000 0.034290
#
#
# Mechanical properties :
#
#
# Convention : Reuss Voigt Hill
#
# Bulk Modulus (GPa) = 39.93581 53.88737 46.91159
# Shear Modulus (GPa) = 14.30410 24.99536 19.64973
#
# Velocity S-wave (km/s) = 2.42345 3.20357 2.84042
# Velocity P-wave (km/s) = 4.92220 5.98409 5.47893
#
# Compressibility (1/GPa) = 0.02504018
#
# Stress axis : x y z
#
# Youngs Moduli (GPa) = 77.17327 16.04187 21.42947
#
# Poissons Ratio (x) = -0.01452 0.09768
# Poissons Ratio (y) = -0.06985 0.96018
# Poissons Ratio (z) = 0.35177 0.71878
#
# Static dielectric constant tensor:
#      x y z
#    x 2.097690 0.000000 -0.031190 
#    y 0.000000 1.960930 0.000000 
#    z -0.031190 0.000000 1.994580 
# 
# From -- ./inp_files/33595.got.cif
#   From: 2010.05.17/outbox.cif.g08.bks.cpg/sg14_17_cif.got.tgz:33595.got - 2010.06.03 17:49:19.
