data_PCOD9243042
_publ_section_title
;
Structure prediction by ZEFSAII (Michael W. Deem and Ramdas Pophale) SiO2 
 PCOD9243042
Probable space group: P 21/C
;
_chemical_formula_sum "Si O2"
_cell_formula_units_Z 32
_cell_length_a 11.873277
_cell_length_b 16.021180
_cell_length_c 12.620011
_cell_angle_alpha 90.000000
_cell_angle_beta 132.764437
_cell_angle_gamma 90.000000
_cell_volume 1762.424380
_symmetry_space_group_name_H-M "P 21/C"
_symmetry_group_IT_number 14
_symmetry_cell_setting 'monoclinic'
loop_
_space_group_symop_operation_xyz
x,y,z
-x,1/2+y,1/2-z
-x,-y,-z
x,1/2-y,1/2+z
loop_
_atom_site_type_symbol
_atom_site_label
_atom_site_fract_x
_atom_site_fract_y
_atom_site_fract_z
Si Si1 0.977709 0.213470 0.811346
Si Si2 0.412552 0.468975 0.047870
Si Si3 0.261061 0.638693 0.998075
Si Si4 0.299919 0.790032 0.754584
Si Si5 0.498613 0.723327 0.566779
Si Si6 0.984981 0.403489 0.523188
Si Si7 0.218692 0.317204 0.835956
Si Si8 0.634812 0.124045 0.826841
O O1 0.893375 0.165153 0.661163
O O2 0.854249 0.280523 0.775901
O O3 0.001914 0.151773 0.926557
O O4 0.122721 0.261069 0.856616
O O5 0.298041 0.542273 0.006830
O O6 0.543066 0.452179 0.218252
O O7 0.500000 0.500000 0.000000
O O8 0.322780 0.384155 0.964465
O O9 0.266107 0.661865 0.124934
O O10 0.393350 0.695511 0.027415
O O11 0.353197 0.697600 0.752551
O O12 0.434497 0.818517 0.918296
O O13 0.669022 0.756906 0.659225
O O14 0.461437 0.660490 0.637598
O O15 0.813763 0.393025 0.462674
O O16 0.000000 0.500000 0.500000
O O17 0.106537 0.368456 0.685681
#
# Coordination Sequence:
#
# PCOD9243042 Si02
#       8
#     4   4   4   4   4   4   4   4
#     4  10  21  38  59  89 120 158 206 250 302 371
#     4  12  21  39  62  94 119 156 208 256 307 368
#     4  10  20  37  64  84 118 162 203 249 311 365
#     4   9  17  38  59  82 112 163 199 245 302 365
#     4  10  20  36  61  86 119 153 208 249 296 362
#     4  11  23  39  63  90 126 158 202 259 313 359
#     4  12  23  36  63  93 120 158 204 258 303 364
#     4  10  21  38  60  88 118 156 203 252 304 362
#
# _framework density 18.156807000000001
#
# number of rings (size 3 to 8) (size 9 to 14) (size 15 to 20)
#    0.000    1.500    2.500    6.000    1.750    0.000 
#    0.000    1.250    2.750    0.000    0.000    0.000 
#    0.000    0.000    0.000    0.000    0.000    0.000 
#
# Total GULP energy -178557.401149 kJ/mol
# GULP energy per Si atom -5579.918786 kJ/mol
# Density = 1.811548 g / cm^3
# Si number density = 18.156807 Si / 1000 Ang^3
#
#
#
# Elastic Constant Matrix: (Units=GPa)
#
#
# Indices 1 2 3 4 5 6 
#
# 1 106.8481 37.9227 30.6519 0.0000 7.3864 0.0000
# 2 37.9227 58.4798 4.6017 0.0000 5.5051 0.0000
# 3 30.6519 4.6017 68.4573 0.0000 4.8747 0.0000
# 4 0.0000 0.0000 0.0000 24.1017 0.0000 5.0518
# 5 7.3864 5.5051 4.8747 0.0000 25.8818 0.0000
# 6 0.0000 0.0000 0.0000 5.0518 0.0000 21.7816
#
#
#
# Elastic Compliance Matrix: (Units=1/GPa)
#
#
# Indices 1 2 3 4 5 6 
#
# 1 0.014114 -0.008600 -0.005661 0.000000 -0.001132 0.000000
# 2 -0.008600 0.022748 0.002525 0.000000 -0.002860 0.000000
# 3 -0.005661 0.002525 0.017125 0.000000 -0.002147 0.000000
# 4 0.000000 0.000000 0.000000 0.043611 0.000000 -0.010115
# 5 -0.001132 -0.002860 -0.002147 0.000000 0.039973 0.000000
# 6 0.000000 0.000000 0.000000 -0.010115 0.000000 0.048256
#
#
# Mechanical properties :
#
#
# Convention : Reuss Voigt Hill
#
# Bulk Modulus (GPa) = 32.77050 42.23754 37.50402
# Shear Modulus (GPa) = 22.78217 25.06029 23.92123
#
# Velocity S-wave (km/s) = 3.54608 3.71915 3.63365
# Velocity P-wave (km/s) = 5.90373 6.46189 6.18910
#
# Compressibility (1/GPa) = 0.03051525
#
# Stress axis : x y z
#
# Youngs Moduli (GPa) = 70.85297 43.96082 58.39290
#
# Poissons Ratio (x) = 0.37808 0.33054
# Poissons Ratio (y) = 0.60936 -0.14746
# Poissons Ratio (z) = 0.40108 -0.11102
#
# Static dielectric constant tensor:
#      x y z
#    x 1.621780 0.000000 0.000020 
#    y 0.000000 1.617370 0.000000 
#    z 0.000020 0.000000 1.659440 
# 
# From -- ./inp_files/30041.got.cif
#   From: 2010.05.17/outbox.cif.g08.bks.cpg/sg14_16_cif.got.tgz:30041.got - 2010.06.03 17:49:19.
