data_PCOD9243590
_publ_section_title
;
Structure prediction by ZEFSAII (Michael W. Deem and Ramdas Pophale) SiO2 
 PCOD9243590
Probable space group: P 21/C
;
_chemical_formula_sum "Si O2"
_cell_formula_units_Z 24
_cell_length_a 9.584908
_cell_length_b 6.770784
_cell_length_c 20.193380
_cell_angle_alpha 90.000000
_cell_angle_beta 46.459915
_cell_angle_gamma 90.000000
_cell_volume 949.969361
_symmetry_space_group_name_H-M "P 21/C"
_symmetry_group_IT_number 14
_symmetry_cell_setting 'monoclinic'
loop_
_space_group_symop_operation_xyz
x,y,z
-x,1/2+y,1/2-z
-x,-y,-z
x,1/2-y,1/2+z
loop_
_atom_site_type_symbol
_atom_site_label
_atom_site_fract_x
_atom_site_fract_y
_atom_site_fract_z
Si Si1 0.279306 0.174148 0.683318
Si Si2 0.704519 0.699585 0.672930
Si Si3 0.091104 0.778843 0.490916
Si Si4 0.851979 0.125014 0.786980
Si Si5 0.287279 0.841115 0.297601
Si Si6 0.605776 0.288722 0.486609
O O1 0.332438 0.111484 0.741164
O O2 0.244636 0.411616 0.692000
O O3 0.438788 0.153444 0.573778
O O4 0.066900 0.094839 0.740513
O O5 0.504111 0.682239 0.700872
O O6 0.897344 0.657176 0.569590
O O7 0.729121 0.929616 0.681053
O O8 0.231500 0.732418 0.383219
O O9 0.226819 0.737876 0.511094
O O10 0.000000 0.000000 0.500000
O O11 0.858946 0.214991 0.711733
O O12 0.724612 0.247063 0.880338
O O13 0.500000 0.500000 0.500000
#
# Coordination Sequence:
#
# PCOD9243590 Si02
#       6
#     4   4   4   4   4   4
#     4  10  20  38  61  84 123 165 210 268 331 398
#     4  10  20  38  61  84 123 165 210 268 331 398
#     4  10  20  38  65  93 127 172 220 273 337 406
#     4  10  22  38  59  89 124 162 215 270 333 398
#     4  10  22  38  59  89 124 162 215 270 333 398
#     4  10  20  38  65  93 127 172 220 273 337 406
#
# _framework density 25.263971000000002
#
# number of rings (size 3 to 8) (size 9 to 14) (size 15 to 20)
#    0.000    2.000    3.333    0.000    0.000    2.667 
#    0.000    1.667    0.000    0.000    0.000    0.000 
#    0.000    0.000    0.000    0.000    0.000    0.000 
#
# Total GULP energy -133750.881711 kJ/mol
# GULP energy per Si atom -5572.953405 kJ/mol
# Density = 2.520647 g / cm^3
# Si number density = 25.263971 Si / 1000 Ang^3
#
#
#
# Elastic Constant Matrix: (Units=GPa)
#
#
# Indices 1 2 3 4 5 6 
#
# 1 107.2072 9.5441 13.4582 0.0000 -3.5461 0.0000
# 2 9.5441 84.5023 -1.3378 0.0000 -7.7452 0.0000
# 3 13.4582 -1.3378 150.1804 0.0000 -22.7781 0.0000
# 4 0.0000 0.0000 0.0000 16.9268 0.0000 0.2678
# 5 -3.5461 -7.7452 -22.7781 0.0000 47.6356 0.0000
# 6 0.0000 0.0000 0.0000 0.2678 0.0000 18.3235
#
#
#
# Elastic Compliance Matrix: (Units=1/GPa)
#
#
# Indices 1 2 3 4 5 6 
#
# 1 0.009534 -0.001078 -0.000844 0.000000 0.000131 0.000000
# 2 -0.001078 0.012161 0.000531 0.000000 0.002151 0.000000
# 3 -0.000844 0.000531 0.007270 0.000000 0.003500 0.000000
# 4 0.000000 0.000000 0.000000 0.059091 0.000000 -0.000864
# 5 0.000131 0.002151 0.003500 0.000000 0.023026 0.000000
# 6 0.000000 0.000000 0.000000 -0.000864 0.000000 0.054587
#
#
# Mechanical properties :
#
#
# Convention : Reuss Voigt Hill
#
# Bulk Modulus (GPa) = 38.19278 42.80209 40.49743
# Shear Modulus (GPa) = 28.21993 37.92554 33.07274
#
# Velocity S-wave (km/s) = 3.34579 3.87870 3.62206
# Velocity P-wave (km/s) = 5.48416 6.08587 5.79283
#
# Compressibility (1/GPa) = 0.02618296
#
# Stress axis : x y z
#
# Youngs Moduli (GPa) = 104.88761 82.22778 137.55434
#
# Poissons Ratio (x) = 0.08866 0.11612
# Poissons Ratio (y) = 0.11309 -0.07307
# Poissons Ratio (z) = 0.08854 -0.04368
#
# Static dielectric constant tensor:
#      x y z
#    x 1.876640 0.000000 0.166610 
#    y 0.000000 2.144450 0.000000 
#    z 0.166610 0.000000 1.833310 
# 
# From -- ./inp_files/39035.got.cif
#   From: 2010.05.17/outbox.cif.g08.bks.cpg/sg14_20_cif.got.tgz:39035.got - 2010.06.03 17:49:19.
