data_PCOD9243823
_publ_section_title
;
Structure prediction by ZEFSAII (Michael W. Deem and Ramdas Pophale) SiO2 
 PCOD9243823
Probable space group: P 21/C
;
_chemical_formula_sum "Si O2"
_cell_formula_units_Z 26
_cell_length_a 8.217361
_cell_length_b 11.510913
_cell_length_c 20.700672
_cell_angle_alpha 90.000000
_cell_angle_beta 145.975035
_cell_angle_gamma 90.000000
_cell_volume 1095.641941
_symmetry_space_group_name_H-M "P 21/C"
_symmetry_group_IT_number 14
_symmetry_cell_setting 'monoclinic'
loop_
_space_group_symop_operation_xyz
x,y,z
-x,1/2+y,1/2-z
-x,-y,-z
x,1/2-y,1/2+z
loop_
_atom_site_type_symbol
_atom_site_label
_atom_site_fract_x
_atom_site_fract_y
_atom_site_fract_z
Si Si1 0.331529 0.240199 0.973465
Si Si2 0.000000 0.500000 0.000000
Si Si3 0.429303 0.547988 0.873265
Si Si4 0.655294 0.587351 0.758463
Si Si5 0.067503 0.953055 0.123737
Si Si6 0.956261 0.406474 0.775002
Si Si7 0.921382 0.305616 0.618809
O O1 0.227048 0.119936 0.969326
O O2 0.044552 0.302000 0.850773
O O3 0.450617 0.327133 0.066842
O O4 0.582227 0.230123 0.001626
O O5 0.291140 0.527039 0.052705
O O6 0.211594 0.461953 0.130749
O O7 0.213410 0.559580 0.742375
O O8 0.240999 0.488751 0.866705
O O9 0.309041 0.598264 0.654985
O O10 0.712813 0.489863 0.723377
O O11 0.839379 0.703993 0.804984
O O12 0.007615 0.090530 0.098913
O O13 0.915596 0.357054 0.690078
#
# Coordination Sequence:
#
# PCOD9243823 Si02
#       7
#     4   2   4   4   4   4   4
#     4  12  21  40  68  97 133 182 228 288 338 415
#     4  10  20  38  68 100 132 164 238 282 338 386
#     4  10  20  39  64  98 126 179 233 286 327 407
#     4  11  23  45  70 101 136 181 234 292 336 412
#     4  10  26  41  65  97 142 177 227 286 361 405
#     4  11  23  40  72  97 131 182 239 279 335 413
#     4  11  25  44  69  99 141 181 230 287 349 418
#
# _framework density 23.730381000000001
#
# number of rings (size 3 to 8) (size 9 to 14) (size 15 to 20)
#    0.000    1.231    3.077    2.769    4.308    1.231 
#    0.000    0.769    0.000    0.000    0.000    0.000 
#    0.000    0.000    0.000    0.000    0.000    0.000 
#
# Total GULP energy -144868.609053 kJ/mol
# GULP energy per Si atom -5571.869579 kJ/mol
# Density = 2.367637 g / cm^3
# Si number density = 23.730381 Si / 1000 Ang^3
#
#
#
# Elastic Constant Matrix: (Units=GPa)
#
#
# Indices 1 2 3 4 5 6 
#
# 1 92.2899 36.9552 7.6709 0.0000 28.4081 0.0000
# 2 36.9552 109.3084 14.6391 0.0000 15.7376 0.0000
# 3 7.6709 14.6391 48.6452 0.0000 7.8513 0.0000
# 4 0.0000 0.0000 0.0000 18.4917 0.0000 4.5291
# 5 28.4081 15.7376 7.8513 0.0000 38.4739 0.0000
# 6 0.0000 0.0000 0.0000 4.5291 0.0000 17.9461
#
#
#
# Elastic Compliance Matrix: (Units=1/GPa)
#
#
# Indices 1 2 3 4 5 6 
#
# 1 0.015372 -0.003821 0.000316 0.000000 -0.009852 0.000000
# 2 -0.003821 0.010940 -0.002505 0.000000 -0.001143 0.000000
# 3 0.000316 -0.002505 0.021853 0.000000 -0.003668 0.000000
# 4 0.000000 0.000000 0.000000 0.057641 0.000000 -0.014547
# 5 -0.009852 -0.001143 -0.003668 0.000000 0.034482 0.000000
# 6 0.000000 0.000000 0.000000 -0.014547 0.000000 0.059394
#
#
# Mechanical properties :
#
#
# Convention : Reuss Voigt Hill
#
# Bulk Modulus (GPa) = 27.66684 40.97487 34.32086
# Shear Modulus (GPa) = 22.34635 27.71422 25.03029
#
# Velocity S-wave (km/s) = 3.07200 3.42113 3.25126
# Velocity P-wave (km/s) = 4.92616 5.73671 5.34682
#
# Compressibility (1/GPa) = 0.03614435
#
# Stress axis : x y z
#
# Youngs Moduli (GPa) = 65.05533 91.40596 45.75995
#
# Poissons Ratio (x) = 0.34924 -0.01445
# Poissons Ratio (y) = 0.24856 0.11465
# Poissons Ratio (z) = -0.02055 0.22901
#
# Static dielectric constant tensor:
#      x y z
#    x 1.926400 0.000000 0.021120 
#    y 0.000000 1.964650 0.000000 
#    z 0.021120 0.000000 1.938290 
# 
# From -- ./inp_files/65490.got.cif
#   From: 2010.05.17/outbox.cif.g08.bks.cpg/sg14_33_cif.got.tgz:65490.got - 2010.06.03 17:49:19.
