data_PCOD9243348
_publ_section_title
;
Structure prediction by ZEFSAII (Michael W. Deem and Ramdas Pophale) SiO2 
 PCOD9243348
Probable space group: P 21/C
;
_chemical_formula_sum "Si O2"
_cell_formula_units_Z 20
_cell_length_a 9.064864
_cell_length_b 6.423425
_cell_length_c 14.179191
_cell_angle_alpha 90.000000
_cell_angle_beta 90.141268
_cell_angle_gamma 90.000000
_cell_volume 825.615966
_symmetry_space_group_name_H-M "P 21/C"
_symmetry_group_IT_number 14
_symmetry_cell_setting 'monoclinic'
loop_
_space_group_symop_operation_xyz
x,y,z
-x,1/2+y,1/2-z
-x,-y,-z
x,1/2-y,1/2+z
loop_
_atom_site_type_symbol
_atom_site_label
_atom_site_fract_x
_atom_site_fract_y
_atom_site_fract_z
Si Si1 0.698478 0.374458 0.031545
Si Si2 0.256313 0.509723 0.595480
Si Si3 0.995642 0.214182 0.605450
Si Si4 0.432210 0.125270 0.645377
Si Si5 0.186895 0.606312 0.228897
O O1 0.873252 0.399158 0.042132
O O2 0.605412 0.401145 0.127104
O O3 0.676258 0.143222 0.989447
O O4 0.637489 0.528089 0.951467
O O5 0.375176 0.360131 0.643923
O O6 0.199520 0.680057 0.670260
O O7 0.118558 0.367285 0.563121
O O8 0.889339 0.352432 0.672404
O O9 0.082783 0.053037 0.671512
O O10 0.349042 0.999194 0.726988
#
# Coordination Sequence:
#
# PCOD9243348 Si02
#       5
#     4   4   4   4   4
#     4  10  21  38  61  87 113 148 193 234 283 338
#     4  10  20  37  62  83 114 149 189 236 283 332
#     4  11  21  37  58  85 114 154 191 234 282 339
#     4   9  21  40  57  85 118 147 187 240 281 336
#     4  10  21  38  56  80 120 151 188 234 282 337
#
# _framework density 24.224337999999999
#
# number of rings (size 3 to 8) (size 9 to 14) (size 15 to 20)
#    0.000    2.000    2.000    1.200    0.000    8.800 
#    3.600    0.000    0.000    0.000    0.000    0.000 
#    0.000    0.000    0.000    0.000    0.000    0.000 
#
# Total GULP energy -111858.750979 kJ/mol
# GULP energy per Si atom -5592.937549 kJ/mol
# Density = 2.416920 g / cm^3
# Si number density = 24.224338 Si / 1000 Ang^3
#
#
#
# Elastic Constant Matrix: (Units=GPa)
#
#
# Indices 1 2 3 4 5 6 
#
# 1 114.6509 26.5697 10.6281 0.0000 -16.4009 0.0000
# 2 26.5697 95.1993 6.6322 0.0000 -7.6097 0.0000
# 3 10.6281 6.6322 46.1028 0.0000 -15.3149 0.0000
# 4 0.0000 0.0000 0.0000 22.7511 0.0000 -8.0980
# 5 -16.4009 -7.6097 -15.3149 0.0000 44.6422 0.0000
# 6 0.0000 0.0000 0.0000 -8.0980 0.0000 19.5494
#
#
#
# Elastic Compliance Matrix: (Units=1/GPa)
#
#
# Indices 1 2 3 4 5 6 
#
# 1 0.009783 -0.002436 -0.000958 0.000000 0.002850 0.000000
# 2 -0.002436 0.011301 -0.000814 0.000000 0.000752 0.000000
# 3 -0.000958 -0.000814 0.024678 0.000000 0.007975 0.000000
# 4 0.000000 0.000000 0.000000 0.051555 0.000000 0.021356
# 5 0.002850 0.000752 0.007975 0.000000 0.026312 0.000000
# 6 0.000000 0.000000 0.000000 0.021356 0.000000 0.059999
#
#
# Mechanical properties :
#
#
# Convention : Reuss Voigt Hill
#
# Bulk Modulus (GPa) = 26.77693 38.17922 32.47807
# Shear Modulus (GPa) = 24.45076 31.53008 27.99042
#
# Velocity S-wave (km/s) = 3.18047 3.61167 3.40290
# Velocity P-wave (km/s) = 4.95630 5.76082 5.37364
#
# Compressibility (1/GPa) = 0.03734558
#
# Stress axis : x y z
#
# Youngs Moduli (GPa) = 102.21626 88.48803 40.52203
#
# Poissons Ratio (x) = 0.21554 0.03882
# Poissons Ratio (y) = 0.24898 0.03300
# Poissons Ratio (z) = 0.09793 0.07206
#
# Static dielectric constant tensor:
#      x y z
#    x 1.992500 0.000000 0.018640 
#    y 0.000000 1.914080 0.000000 
#    z 0.018640 0.000000 1.957850 
# 
# From -- ./inp_files/53974.got.cif
#   From: 2010.05.17/outbox.cif.g08.bks.cpg/sg14_27_cif.got.tgz:53974.got - 2010.06.03 17:49:19.
