data_PCOD9243321
_publ_section_title
;
Structure prediction by ZEFSAII (Michael W. Deem and Ramdas Pophale) SiO2 
 PCOD9243321
Probable space group: P 21/C
;
_chemical_formula_sum "Si O2"
_cell_formula_units_Z 32
_cell_length_a 10.848434
_cell_length_b 16.995871
_cell_length_c 13.697819
_cell_angle_alpha 90.000000
_cell_angle_beta 142.540207
_cell_angle_gamma 90.000000
_cell_volume 1536.071968
_symmetry_space_group_name_H-M "P 21/C"
_symmetry_group_IT_number 14
_symmetry_cell_setting 'monoclinic'
loop_
_space_group_symop_operation_xyz
x,y,z
-x,1/2+y,1/2-z
-x,-y,-z
x,1/2-y,1/2+z
loop_
_atom_site_type_symbol
_atom_site_label
_atom_site_fract_x
_atom_site_fract_y
_atom_site_fract_z
Si Si1 0.422504 0.024171 0.316353
Si Si2 0.955036 0.166668 0.732825
Si Si3 0.220756 0.148395 0.085802
Si Si4 0.902691 0.016458 0.583995
Si Si5 0.969776 0.873749 0.515639
Si Si6 0.548061 0.797354 0.292981
Si Si7 0.901949 0.271422 0.511418
Si Si8 0.451451 0.632731 0.931549
O O1 0.299613 0.060784 0.150233
O O2 0.658526 0.012515 0.436706
O O3 0.420631 0.087373 0.404717
O O4 0.349707 0.940474 0.309043
O O5 0.968194 0.074490 0.711006
O O6 0.976598 0.224578 0.654247
O O7 0.727538 0.179371 0.629032
O O8 0.113098 0.174179 0.918688
O O9 0.410706 0.207207 0.210112
O O10 0.065105 0.167613 0.074513
O O11 0.970279 0.067709 0.533384
O O12 0.986995 0.928169 0.623001
O O13 0.101727 0.796093 0.576806
O O14 0.734640 0.845751 0.363446
O O15 0.558313 0.816222 0.415439
O O16 0.317185 0.810822 0.115531
#
# Coordination Sequence:
#
# PCOD9243321 Si02
#       8
#     4   4   4   4   4   4   4   4
#     4  10  21  37  61  89 117 158 197 255 299 363
#     4  10  21  39  57  87 123 157 200 257 303 360
#     4  11  23  37  62  88 121 162 200 249 311 359
#     4   9  17  36  60  84 116 152 200 246 295 367
#     4   9  18  33  62  84 110 158 202 237 302 356
#     4  11  20  37  59  87 116 158 201 248 299 364
#     4  10  22  40  58  86 123 158 202 253 300 367
#     4  10  20  37  61  86 117 155 202 244 307 360
#
# _framework density 20.832357999999999
#
# number of rings (size 3 to 8) (size 9 to 14) (size 15 to 20)
#    0.000    2.000    2.500    2.250    1.750    0.500 
#    2.250    0.000    0.000   12.000    0.000    0.000 
#    0.000    0.000    0.000    0.000    0.000    0.000 
#
# Total GULP energy -178319.609563 kJ/mol
# GULP energy per Si atom -5572.487799 kJ/mol
# Density = 2.078494 g / cm^3
# Si number density = 20.832358 Si / 1000 Ang^3
#
#
#
# Elastic Constant Matrix: (Units=GPa)
#
#
# Indices 1 2 3 4 5 6 
#
# 1 87.3068 1.6175 13.4511 0.0000 -0.6515 0.0000
# 2 1.6175 29.7399 -4.3376 0.0000 -8.1950 0.0000
# 3 13.4511 -4.3376 42.8699 0.0000 -10.3690 0.0000
# 4 0.0000 0.0000 0.0000 9.4368 0.0000 -21.3048
# 5 -0.6515 -8.1950 -10.3690 0.0000 17.5585 0.0000
# 6 0.0000 0.0000 0.0000 -21.3048 0.0000 19.2404
#
#
#
# Elastic Compliance Matrix: (Units=1/GPa)
#
#
# Indices 1 2 3 4 5 6 
#
# 1 0.012232 -0.002370 -0.004941 0.000000 -0.003570 0.000000
# 2 -0.002370 0.042790 0.011529 0.000000 0.026692 0.000000
# 3 -0.004941 0.011529 0.031850 0.000000 0.024006 0.000000
# 4 0.000000 0.000000 0.000000 -0.070652 0.000000 -0.078233
# 5 -0.003570 0.026692 0.024006 0.000000 0.083454 0.000000
# 6 0.000000 0.000000 0.000000 -0.078233 0.000000 -0.034653
#
#
# Mechanical properties :
#
#
# Convention : Reuss Voigt Hill
#
# Bulk Modulus (GPa) = 10.49230 20.15317 15.32274
# Shear Modulus (GPa) = 56.58968 19.19286 37.89127
#
# Velocity S-wave (km/s) = 5.21759 3.03859 4.26944
# Velocity P-wave (km/s) = 6.43002 4.69102 5.62809
#
# Compressibility (1/GPa) = 0.09530795
#
# Stress axis : x y z
#
# Youngs Moduli (GPa) = 81.74985 23.36983 31.39748
#
# Poissons Ratio (x) = 0.05538 0.15515
# Poissons Ratio (y) = 0.19373 -0.36198
# Poissons Ratio (z) = 0.40396 -0.26943
#
# Static dielectric constant tensor:
#      x y z
#    x 1.775460 0.000000 -0.021780 
#    y 0.000000 1.775200 0.000000 
#    z -0.021780 0.000000 1.729860 
# 
# From -- ./inp_files/45471.got.cif
#   From: 2010.05.17/outbox.cif.g08.bks.cpg/sg14_23_cif.got.tgz:45471.got - 2010.06.03 17:49:19.
