data_PCOD9243594
_publ_section_title
;
Structure prediction by ZEFSAII (Michael W. Deem and Ramdas Pophale) SiO2 
 PCOD9243594
Probable space group: P 21/C
;
_chemical_formula_sum "Si O2"
_cell_formula_units_Z 28
_cell_length_a 10.194218
_cell_length_b 14.371660
_cell_length_c 16.570238
_cell_angle_alpha 90.000000
_cell_angle_beta 29.265063
_cell_angle_gamma 90.000000
_cell_volume 1186.767794
_symmetry_space_group_name_H-M "P 21/C"
_symmetry_group_IT_number 14
_symmetry_cell_setting 'monoclinic'
loop_
_space_group_symop_operation_xyz
x,y,z
-x,1/2+y,1/2-z
-x,-y,-z
x,1/2-y,1/2+z
loop_
_atom_site_type_symbol
_atom_site_label
_atom_site_fract_x
_atom_site_fract_y
_atom_site_fract_z
Si Si1 0.814081 0.128988 0.568005
Si Si2 0.269849 0.082283 0.773868
Si Si3 0.725894 0.348367 0.596248
Si Si4 0.481907 0.407431 0.887724
Si Si5 0.235742 0.277835 0.143428
Si Si6 0.910638 0.481474 0.177663
Si Si7 0.656347 0.133422 0.946661
O O1 0.527239 0.089738 0.692719
O O2 0.793467 0.238795 0.564754
O O3 0.854316 0.094366 0.637480
O O4 0.048306 0.079760 0.389722
O O5 0.283063 0.163347 0.699936
O O6 0.002513 0.099535 0.966916
O O7 0.284421 0.982074 0.722800
O O8 0.513620 0.373055 0.778858
O O9 0.657554 0.381270 0.542573
O O10 0.436445 0.321092 0.969349
O O11 0.209432 0.463128 0.049194
O O12 0.366040 0.176905 0.083044
O O13 0.919572 0.295992 0.293818
O O14 0.725797 0.452332 0.351059
#
# Coordination Sequence:
#
# PCOD9243594 Si02
#       7
#     4   4   4   4   4   4   4
#     4  10  20  38  61  86 116 163 198 241 302 365
#     4  10  21  38  60  87 119 157 198 245 305 361
#     4  11  22  36  62  88 123 150 205 252 300 355
#     4  10  21  37  62  90 118 155 199 253 297 361
#     4  10  20  39  62  89 120 161 203 248 300 364
#     4   9  21  39  62  85 120 158 204 241 304 366
#     4  10  21  39  61  91 122 159 204 253 300 361
#
# _framework density 23.593495000000001
#
# number of rings (size 3 to 8) (size 9 to 14) (size 15 to 20)
#    0.000    2.000    1.429    1.714    2.000    1.143 
#    2.571    0.000    0.000   11.143    0.000    0.000 
#    0.000    0.000    0.000    0.000    0.000    0.000 
#
# Total GULP energy -156317.578727 kJ/mol
# GULP energy per Si atom -5582.770669 kJ/mol
# Density = 2.353980 g / cm^3
# Si number density = 23.593495 Si / 1000 Ang^3
#
#
#
# Elastic Constant Matrix: (Units=GPa)
#
#
# Indices 1 2 3 4 5 6 
#
# 1 155.7175 -11.5375 134.9664 0.0000 66.5453 0.0000
# 2 -11.5375 66.7920 15.7742 0.0000 11.5926 0.0000
# 3 134.9664 15.7742 244.0018 0.0000 80.0320 0.0000
# 4 0.0000 0.0000 0.0000 82.8205 0.0000 -7.5804
# 5 66.5453 11.5926 80.0320 0.0000 74.8644 0.0000
# 6 0.0000 0.0000 0.0000 -7.5804 0.0000 28.3750
#
#
#
# Elastic Compliance Matrix: (Units=1/GPa)
#
#
# Indices 1 2 3 4 5 6 
#
# 1 0.015984 0.005713 -0.006561 0.000000 -0.008079 0.000000
# 2 0.005713 0.017444 -0.002674 0.000000 -0.004921 0.000000
# 3 -0.006561 -0.002674 0.009011 0.000000 -0.003388 0.000000
# 4 0.000000 0.000000 0.000000 0.012377 0.000000 0.003307
# 5 -0.008079 -0.004921 -0.003388 0.000000 0.024922 0.000000
# 6 0.000000 0.000000 0.000000 0.003307 0.000000 0.036126
#
#
# Mechanical properties :
#
#
# Convention : Reuss Voigt Hill
#
# Bulk Modulus (GPa) = 28.25161 82.76863 55.51012
# Shear Modulus (GPa) = 37.11770 59.03253 48.07512
#
# Velocity S-wave (km/s) = 3.97068 5.00749 4.51892
# Velocity P-wave (km/s) = 5.74649 8.28195 7.12786
#
# Compressibility (1/GPa) = 0.03539621
#
# Stress axis : x y z
#
# Youngs Moduli (GPa) = 62.56161 57.32569 110.97082
#
# Poissons Ratio (x) = -0.32749 0.72808
# Poissons Ratio (y) = -0.35740 0.29669
# Poissons Ratio (z) = 0.41046 0.15326
#
# Static dielectric constant tensor:
#      x y z
#    x 1.884920 0.000000 0.010860 
#    y 0.000000 1.995420 0.000000 
#    z 0.010860 0.000000 1.925050 
# 
# From -- ./inp_files/55929.got.cif
#   From: 2010.05.17/outbox.cif.g08.bks.cpg/sg14_28_cif.got.tgz:55929.got - 2010.06.03 17:49:19.
