data_PCOD9243410
_publ_section_title
;
Structure prediction by ZEFSAII (Michael W. Deem and Ramdas Pophale) SiO2 
 PCOD9243410
Probable space group: P 21/C
;
_chemical_formula_sum "Si O2"
_cell_formula_units_Z 26
_cell_length_a 11.650567
_cell_length_b 6.962734
_cell_length_c 16.391626
_cell_angle_alpha 90.000000
_cell_angle_beta 40.342780
_cell_angle_gamma 90.000000
_cell_volume 860.783877
_symmetry_space_group_name_H-M "P 21/C"
_symmetry_group_IT_number 14
_symmetry_cell_setting 'monoclinic'
loop_
_space_group_symop_operation_xyz
x,y,z
-x,1/2+y,1/2-z
-x,-y,-z
x,1/2-y,1/2+z
loop_
_atom_site_type_symbol
_atom_site_label
_atom_site_fract_x
_atom_site_fract_y
_atom_site_fract_z
Si Si1 0.131952 0.912397 0.729160
Si Si2 0.132335 0.471424 0.772515
Si Si3 0.768874 0.448525 0.116249
Si Si4 0.394326 0.453217 0.403533
Si Si5 0.235472 0.002755 0.833365
Si Si6 0.500000 0.000000 0.000000
Si Si7 0.599094 0.536572 0.045759
O O1 0.134475 0.701662 0.764265
O O2 0.104179 0.036415 0.827712
O O3 0.313652 0.975941 0.586247
O O4 0.988705 0.903878 0.735679
O O5 0.110903 0.439674 0.881711
O O6 0.331405 0.419724 0.640484
O O7 0.568331 0.499963 0.257491
O O8 0.777325 0.217914 0.126025
O O9 0.753707 0.499793 0.029605
O O10 0.250671 0.395969 0.413229
O O11 0.362772 0.591779 0.496208
O O12 0.440526 0.268256 0.436135
O O13 0.421574 0.035921 0.685618
#
# Coordination Sequence:
#
# PCOD9243410 Si02
#       7
#     4   4   4   4   4   2   4
#     4  11  24  41  62  94 130 161 214 263 318 373
#     4  10  24  43  62  93 127 168 208 265 320 373
#     4   8  18  38  58  87 128 158 206 260 309 366
#     4   9  19  36  62  93 119 163 214 250 313 375
#     4   9  19  39  61  92 127 162 204 262 312 379
#     4  10  22  42  68  86 122 168 212 254 316 382
#     4  10  20  37  63  95 122 164 211 258 312 380
#
# _framework density 30.205023000000001
#
# number of rings (size 3 to 8) (size 9 to 14) (size 15 to 20)
#    0.000    2.462    0.000    1.385    4.308    1.846 
#   11.077    0.769    0.000    0.000    0.000    0.000 
#    0.000    0.000    0.000    0.000    0.000    0.000 
#
# Total GULP energy -144949.297390 kJ/mol
# GULP energy per Si atom -5574.972977 kJ/mol
# Density = 3.013628 g / cm^3
# Si number density = 30.205023 Si / 1000 Ang^3
#
#
#
# Elastic Constant Matrix: (Units=GPa)
#
#
# Indices 1 2 3 4 5 6 
#
# 1 204.8731 -3.8141 52.5958 0.0000 47.7746 0.0000
# 2 -3.8141 88.4688 -1.6682 0.0000 12.2324 0.0000
# 3 52.5958 -1.6682 110.1989 0.0000 33.1656 0.0000
# 4 0.0000 0.0000 0.0000 31.5038 0.0000 6.9209
# 5 47.7746 12.2324 33.1656 0.0000 77.0350 0.0000
# 6 0.0000 0.0000 0.0000 6.9209 0.0000 28.6186
#
#
#
# Elastic Compliance Matrix: (Units=1/GPa)
#
#
# Indices 1 2 3 4 5 6 
#
# 1 0.006113 0.000646 -0.001994 0.000000 -0.003035 0.000000
# 2 0.000646 0.011693 0.000630 0.000000 -0.002528 0.000000
# 3 -0.001994 0.000630 0.011137 0.000000 -0.003658 0.000000
# 4 0.000000 0.000000 0.000000 0.033523 0.000000 -0.008107
# 5 -0.003035 -0.002528 -0.003658 0.000000 0.016839 0.000000
# 6 0.000000 0.000000 0.000000 -0.008107 0.000000 0.036903
#
#
# Mechanical properties :
#
#
# Convention : Reuss Voigt Hill
#
# Bulk Modulus (GPa) = 36.35815 55.30753 45.83284
# Shear Modulus (GPa) = 39.42787 51.19332 45.31060
#
# Velocity S-wave (km/s) = 3.61687 4.12134 3.87732
# Velocity P-wave (km/s) = 5.43190 6.40294 5.93731
#
# Compressibility (1/GPa) = 0.02750415
#
# Stress axis : x y z
#
# Youngs Moduli (GPa) = 163.59149 85.52353 89.79260
#
# Poissons Ratio (x) = -0.05521 0.17908
# Poissons Ratio (y) = -0.10561 -0.05655
# Poissons Ratio (z) = 0.32626 -0.05386
#
# Static dielectric constant tensor:
#      x y z
#    x 2.564030 0.000000 -0.243820 
#    y 0.000000 2.174120 0.000000 
#    z -0.243820 0.000000 1.994540 
# 
# From -- ./inp_files/57029.got.cif
#   From: 2010.05.17/outbox.cif.g08.bks.cpg/sg14_29_cif.got.tgz:57029.got - 2010.06.03 17:49:19.
