data_PCOD9243584
_publ_section_title
;
Structure prediction by ZEFSAII (Michael W. Deem and Ramdas Pophale) SiO2 
 PCOD9243584
Probable space group: P 21/C
;
_chemical_formula_sum "Si O2"
_cell_formula_units_Z 30
_cell_length_a 12.696121
_cell_length_b 19.677930
_cell_length_c 5.324936
_cell_angle_alpha 90.000000
_cell_angle_beta 95.473831
_cell_angle_gamma 90.000000
_cell_volume 1324.280208
_symmetry_space_group_name_H-M "P 21/C"
_symmetry_group_IT_number 14
_symmetry_cell_setting 'monoclinic'
loop_
_space_group_symop_operation_xyz
x,y,z
-x,1/2+y,1/2-z
-x,-y,-z
x,1/2-y,1/2+z
loop_
_atom_site_type_symbol
_atom_site_label
_atom_site_fract_x
_atom_site_fract_y
_atom_site_fract_z
Si Si1 0.016286 0.796592 0.367536
Si Si2 0.304470 0.210443 0.201135
Si Si3 0.000000 0.500000 0.500000
Si Si4 0.418941 0.411760 0.964346
Si Si5 0.156592 0.573143 0.918167
Si Si6 0.872516 0.874798 0.995464
Si Si7 0.385845 0.551813 0.716919
Si Si8 0.264000 0.014281 0.795545
O O1 0.020764 0.751168 0.619284
O O2 0.111765 0.851081 0.416170
O O3 0.913319 0.842348 0.267542
O O4 0.317489 0.267298 0.416528
O O5 0.386951 0.152934 0.299016
O O6 0.185022 0.181009 0.184932
O O7 0.919667 0.469354 0.275451
O O8 0.966961 0.580804 0.409906
O O9 0.519751 0.400822 0.167695
O O10 0.321224 0.437985 0.109619
O O11 0.432916 0.476872 0.788434
O O12 0.277767 0.568771 0.843222
O O13 0.164146 0.528967 0.176031
O O14 0.783129 0.932216 0.020528
O O15 0.344788 0.540915 0.426182
#
# Coordination Sequence:
#
# PCOD9243584 Si02
#       8
#     4   4   2   4   4   4   4   4
#     4  11  27  45  65  93 134 189 231 268 326 411
#     4  12  25  43  65  94 137 183 224 269 329 419
#     4  10  20  38  60  94 128 160 212 288 342 396
#     4  10  22  39  65  97 132 169 223 275 349 410
#     4  10  23  38  65  96 132 171 227 278 347 401
#     4  11  22  40  67  98 135 167 226 282 351 406
#     4  10  20  41  66  99 129 166 216 294 354 394
#     4  11  20  39  68 103 126 169 214 299 354 401
#
# _framework density 22.653814000000001
#
# number of rings (size 3 to 8) (size 9 to 14) (size 15 to 20)
#    0.000    1.333    2.667    2.800    1.867    5.333 
#    0.000    1.333    0.000    0.000    0.000    0.000 
#    0.000    0.000    0.000    0.000    0.000    0.000 
#
# Total GULP energy -167083.938429 kJ/mol
# GULP energy per Si atom -5569.464614 kJ/mol
# Density = 2.260225 g / cm^3
# Si number density = 22.653814 Si / 1000 Ang^3
#
#
#
# Elastic Constant Matrix: (Units=GPa)
#
#
# Indices 1 2 3 4 5 6 
#
# 1 60.1382 15.0752 23.1324 0.0000 32.9585 0.0000
# 2 15.0752 70.7981 21.2512 0.0000 20.8979 0.0000
# 3 23.1324 21.2512 85.2849 0.0000 30.4692 0.0000
# 4 0.0000 0.0000 0.0000 55.5815 0.0000 17.6326
# 5 32.9585 20.8979 30.4692 0.0000 42.4736 0.0000
# 6 0.0000 0.0000 0.0000 17.6326 0.0000 26.7359
#
#
#
# Elastic Compliance Matrix: (Units=1/GPa)
#
#
# Indices 1 2 3 4 5 6 
#
# 1 0.028953 0.000527 0.000181 0.000000 -0.022856 0.000000
# 2 0.000527 0.016705 -0.001644 0.000000 -0.007448 0.000000
# 3 0.000181 -0.001644 0.015930 0.000000 -0.010759 0.000000
# 4 0.000000 0.000000 0.000000 0.022752 0.000000 -0.015005
# 5 -0.022856 -0.007448 -0.010759 0.000000 0.052663 0.000000
# 6 0.000000 0.000000 0.000000 -0.015005 0.000000 0.047299
#
#
# Mechanical properties :
#
#
# Convention : Reuss Voigt Hill
#
# Bulk Modulus (GPa) = 16.74617 37.23764 26.99190
# Shear Modulus (GPa) = 24.26273 35.40903 29.83588
#
# Velocity S-wave (km/s) = 3.27620 3.95783 3.63304
# Velocity P-wave (km/s) = 4.66042 6.11222 5.43502
#
# Compressibility (1/GPa) = 0.05971516
#
# Stress axis : x y z
#
# Youngs Moduli (GPa) = 34.53920 59.86364 62.77529
#
# Poissons Ratio (x) = -0.03156 -0.01138
# Poissons Ratio (y) = -0.01821 0.10323
# Poissons Ratio (z) = -0.00626 0.09844
#
# Static dielectric constant tensor:
#      x y z
#    x 2.031110 0.000000 -0.114430 
#    y 0.000000 1.845870 0.000000 
#    z -0.114430 0.000000 1.972410 
# 
# From -- ./inp_files/3820.got.cif
#   From: 2010.05.17/outbox.cif.g08.bks.cpg/sg14_2_cif.got.tgz:3820.got - 2010.06.03 17:49:19.
