data_PCOD9243037
_publ_section_title
;
Structure prediction by ZEFSAII (Michael W. Deem and Ramdas Pophale) SiO2 
 PCOD9243037
Probable space group: P 21/C
;
_chemical_formula_sum "Si O2"
_cell_formula_units_Z 26
_cell_length_a 18.259389
_cell_length_b 12.152541
_cell_length_c 13.669969
_cell_angle_alpha 90.000000
_cell_angle_beta 20.411627
_cell_angle_gamma 90.000000
_cell_volume 1057.913908
_symmetry_space_group_name_H-M "P 21/C"
_symmetry_group_IT_number 14
_symmetry_cell_setting 'monoclinic'
loop_
_space_group_symop_operation_xyz
x,y,z
-x,1/2+y,1/2-z
-x,-y,-z
x,1/2-y,1/2+z
loop_
_atom_site_type_symbol
_atom_site_label
_atom_site_fract_x
_atom_site_fract_y
_atom_site_fract_z
Si Si1 0.500000 0.500000 0.500000
Si Si2 0.077473 0.731404 0.525198
Si Si3 0.232133 0.550593 0.208176
Si Si4 0.626029 0.257627 0.091151
Si Si5 0.802447 0.424031 0.249134
Si Si6 0.255614 0.294278 0.897722
Si Si7 0.322165 0.314212 0.116485
O O1 0.602537 0.498936 0.481314
O O2 0.319208 0.408542 0.766305
O O3 0.882132 0.723640 0.691290
O O4 0.233602 0.633916 0.297842
O O5 0.191451 0.846678 0.357074
O O6 0.964444 0.713833 0.769253
O O7 0.371052 0.442427 0.036220
O O8 0.000000 0.500000 0.500000
O O9 0.273061 0.627073 0.063896
O O10 0.432895 0.236382 0.256611
O O11 0.525763 0.249874 0.322725
O O12 0.780007 0.158414 0.867168
O O13 0.000000 0.500000 0.000000
O O14 0.267457 0.205930 0.796540
#
# Coordination Sequence:
#
# PCOD9243037 Si02
#       7
#     2   4   4   4   4   4   4
#     4  10  22  38  58  88 120 156 200 246 302 358
#     4   9  20  38  57  86 123 153 197 254 296 350
#     4   9  19  37  58  80 114 156 193 241 301 354
#     4   9  21  38  56  86 120 150 199 258 301 356
#     4  10  20  39  63  86 119 162 203 252 308 361
#     4  10  21  36  57  87 120 154 197 250 298 356
#     4  10  20  36  61  85 114 160 202 238 304 373
#
# _framework density 24.576668999999999
#
# number of rings (size 3 to 8) (size 9 to 14) (size 15 to 20)
#    0.000    2.462    0.000    0.923    0.000    9.231 
#    0.000   18.462    0.000    0.000    0.000    0.000 
#    0.000    0.000    0.000    0.000    0.000    0.000 
#
# Total GULP energy -144885.713641 kJ/mol
# GULP energy per Si atom -5572.527448 kJ/mol
# Density = 2.452073 g / cm^3
# Si number density = 24.576669 Si / 1000 Ang^3
#
#
#
# Elastic Constant Matrix: (Units=GPa)
#
#
# Indices 1 2 3 4 5 6 
#
# 1 74.9189 -5.3163 1.9688 0.0000 10.0990 0.0000
# 2 -5.3163 95.1658 27.2925 0.0000 18.3472 0.0000
# 3 1.9688 27.2925 111.0478 0.0000 35.4825 0.0000
# 4 0.0000 0.0000 0.0000 33.0370 0.0000 -1.0986
# 5 10.0990 18.3472 35.4825 0.0000 41.4745 0.0000
# 6 0.0000 0.0000 0.0000 -1.0986 0.0000 11.7329
#
#
#
# Elastic Compliance Matrix: (Units=1/GPa)
#
#
# Indices 1 2 3 4 5 6 
#
# 1 0.014085 0.001456 0.000955 0.000000 -0.004891 0.000000
# 2 0.001456 0.011862 -0.001584 0.000000 -0.004247 0.000000
# 3 0.000955 -0.001584 0.012700 0.000000 -0.010397 0.000000
# 4 0.000000 0.000000 0.000000 0.030364 0.000000 0.002843
# 5 -0.004891 -0.004247 -0.010397 0.000000 0.036075 0.000000
# 6 0.000000 0.000000 0.000000 0.002843 0.000000 0.085497
#
#
# Mechanical properties :
#
#
# Convention : Reuss Voigt Hill
#
# Bulk Modulus (GPa) = 24.81341 36.55806 30.68574
# Shear Modulus (GPa) = 24.70807 34.39469 29.55138
#
# Velocity S-wave (km/s) = 3.17416 3.74503 3.47135
# Velocity P-wave (km/s) = 4.85304 5.79722 5.34601
#
# Compressibility (1/GPa) = 0.04030079
#
# Stress axis : x y z
#
# Youngs Moduli (GPa) = 70.99605 84.29993 78.74311
#
# Poissons Ratio (x) = -0.12273 -0.07522
# Poissons Ratio (y) = -0.10336 0.12476
# Poissons Ratio (z) = -0.06782 0.13356
#
# Static dielectric constant tensor:
#      x y z
#    x 1.983420 0.000000 -0.057170 
#    y 0.000000 13.804370 0.000000 
#    z -0.057170 0.000000 2.051590 
# 
# From -- ./inp_files/50456.got.cif
#   From: 2010.05.17/outbox.cif.g08.bks.cpg/sg14_26_cif.got.tgz:50456.got - 2010.06.03 17:49:19.
