data_PCOD9243699
_publ_section_title
;
Structure prediction by ZEFSAII (Michael W. Deem and Ramdas Pophale) SiO2 
 PCOD9243699
Probable space group: P 21/C
;
_chemical_formula_sum "Si O2"
_cell_formula_units_Z 32
_cell_length_a 14.964805
_cell_length_b 11.407504
_cell_length_c 11.034259
_cell_angle_alpha 90.000000
_cell_angle_beta 131.067296
_cell_angle_gamma 90.000000
_cell_volume 1420.171469
_symmetry_space_group_name_H-M "P 21/C"
_symmetry_group_IT_number 14
_symmetry_cell_setting 'monoclinic'
loop_
_space_group_symop_operation_xyz
x,y,z
-x,1/2+y,1/2-z
-x,-y,-z
x,1/2-y,1/2+z
loop_
_atom_site_type_symbol
_atom_site_label
_atom_site_fract_x
_atom_site_fract_y
_atom_site_fract_z
Si Si1 0.030458 0.020589 0.667616
Si Si2 0.979317 0.362820 0.493534
Si Si3 0.369188 0.883836 0.788569
Si Si4 0.224338 0.478449 0.957505
Si Si5 0.375163 0.057566 0.017956
Si Si6 0.244146 0.692531 0.828312
Si Si7 0.216366 0.884058 0.973471
Si Si8 0.818937 0.759598 0.198393
O O1 0.078757 0.148308 0.748739
O O2 0.915002 0.995992 0.642593
O O3 0.138266 0.935232 0.793246
O O4 0.000000 0.000000 0.500000
O O5 0.898177 0.304454 0.318932
O O6 0.882961 0.357470 0.516396
O O7 0.000000 0.500000 0.500000
O O8 0.107162 0.304963 0.629512
O O9 0.287824 0.965869 0.631021
O O10 0.312944 0.759482 0.781579
O O11 0.388188 0.953316 0.932054
O O12 0.498993 0.883197 0.843671
O O13 0.266930 0.556717 0.880606
O O14 0.229473 0.340841 0.933901
O O15 0.291198 0.154533 0.880590
O O16 0.310243 0.990435 0.072688
O O17 0.273048 0.764814 0.975698
#
# Coordination Sequence:
#
# PCOD9243699 Si02
#       8
#     4   4   4   4   4   4   4   4
#     4  11  21  39  64  94 133 176 212 265 334 409
#     4  12  22  39  58  94 140 164 200 269 335 397
#     4  10  22  46  69  90 126 180 230 278 329 402
#     4  12  23  40  63 100 135 169 225 280 335 401
#     4   9  22  46  67  93 124 171 234 270 328 399
#     4  11  22  39  65  90 129 176 217 270 333 398
#     4  10  20  38  63  90 124 170 211 260 325 396
#     4  11  22  40  61  98 135 164 218 275 329 394
#
# _framework density 22.532491
#
# number of rings (size 3 to 8) (size 9 to 14) (size 15 to 20)
#    0.000    1.250    2.500    5.250    0.000    1.000 
#   18.000    0.625    0.000    0.000    0.000    0.000 
#    0.000    0.000    0.000    0.000    0.000    0.000 
#
# Total GULP energy -178376.128893 kJ/mol
# GULP energy per Si atom -5574.254028 kJ/mol
# Density = 2.248121 g / cm^3
# Si number density = 22.532491 Si / 1000 Ang^3
#
#
#
# Elastic Constant Matrix: (Units=GPa)
#
#
# Indices 1 2 3 4 5 6 
#
# 1 65.6514 19.1105 15.3954 0.0000 12.5239 0.0000
# 2 19.1105 114.0451 -1.1534 0.0000 3.9515 0.0000
# 3 15.3954 -1.1534 23.7700 0.0000 8.4424 0.0000
# 4 0.0000 0.0000 0.0000 27.0650 0.0000 0.0339
# 5 12.5239 3.9515 8.4424 0.0000 39.5414 0.0000
# 6 0.0000 0.0000 0.0000 0.0339 0.0000 25.5025
#
#
#
# Elastic Compliance Matrix: (Units=1/GPa)
#
#
# Indices 1 2 3 4 5 6 
#
# 1 0.019558 -0.003278 -0.011624 0.000000 -0.003385 0.000000
# 2 -0.003278 0.009362 0.002749 0.000000 -0.000484 0.000000
# 3 -0.011624 0.002749 0.052503 0.000000 -0.007803 0.000000
# 4 0.000000 0.000000 0.000000 0.036948 0.000000 -0.000049
# 5 -0.003385 -0.000484 -0.007803 0.000000 0.028076 0.000000
# 6 0.000000 0.000000 0.000000 -0.000049 0.000000 0.039212
#
#
# Mechanical properties :
#
#
# Convention : Reuss Voigt Hill
#
# Bulk Modulus (GPa) = 17.50741 30.01905 23.76323
# Shear Modulus (GPa) = 21.83372 29.76272 25.79822
#
# Velocity S-wave (km/s) = 3.11623 3.63833 3.38736
# Velocity P-wave (km/s) = 4.55353 5.56789 5.08606
#
# Compressibility (1/GPa) = 0.05711867
#
# Stress axis : x y z
#
# Youngs Moduli (GPa) = 51.13103 106.81168 19.04645
#
# Poissons Ratio (x) = 0.35008 0.22139
# Poissons Ratio (y) = 0.16758 -0.05236
# Poissons Ratio (z) = 0.59434 -0.29364
#
# Static dielectric constant tensor:
#      x y z
#    x 1.883470 0.000000 -0.056000 
#    y 0.000000 1.923250 0.000000 
#    z -0.056000 0.000000 1.904310 
# 
# From -- ./inp_files/32403.got.cif
#   From: 2010.05.17/outbox.cif.g08.bks.cpg/sg14_17_cif.got.tgz:32403.got - 2010.06.03 17:49:19.
