data_PCOD9243069
_publ_section_title
;
Structure prediction by ZEFSAII (Michael W. Deem and Ramdas Pophale) SiO2 
 PCOD9243069
Probable space group: P 21/C
;
_chemical_formula_sum "Si O2"
_cell_formula_units_Z 24
_cell_length_a 14.529458
_cell_length_b 9.100152
_cell_length_c 19.586647
_cell_angle_alpha 90.000000
_cell_angle_beta 32.077681
_cell_angle_gamma 90.000000
_cell_volume 1375.335778
_symmetry_space_group_name_H-M "P 21/C"
_symmetry_group_IT_number 14
_symmetry_cell_setting 'monoclinic'
loop_
_space_group_symop_operation_xyz
x,y,z
-x,1/2+y,1/2-z
-x,-y,-z
x,1/2-y,1/2+z
loop_
_atom_site_type_symbol
_atom_site_label
_atom_site_fract_x
_atom_site_fract_y
_atom_site_fract_z
Si Si1 0.430466 0.605494 0.102296
Si Si2 0.061246 0.447562 0.675473
Si Si3 0.197768 0.381082 0.074921
Si Si4 0.073111 0.928575 0.886712
Si Si5 0.316101 0.577889 0.622454
Si Si6 0.972091 0.080667 0.588931
O O1 0.272983 0.536670 0.244014
O O2 0.355165 0.752495 0.114342
O O3 0.500000 0.500000 0.000000
O O4 0.598029 0.637943 0.043542
O O5 0.108324 0.274915 0.651131
O O6 0.207047 0.541707 0.622951
O O7 0.883608 0.495340 0.824324
O O8 0.036627 0.475573 0.610865
O O9 0.134963 0.423859 0.038571
O O10 0.060491 0.752947 0.902844
O O11 0.000000 0.000000 0.000000
O O12 0.500000 0.500000 0.500000
O O13 0.192062 0.524212 0.762827
O O14 0.000000 0.000000 0.500000
#
# Coordination Sequence:
#
# PCOD9243069 Si02
#       6
#     4   4   4   4   4   4
#     4  11  21  38  59  90 120 147 200 249 292 346
#     4  10  20  37  60  86 116 154 197 240 305 347
#     4  10  20  36  62  85 119 153 197 249 290 356
#     4  10  22  39  57  82 121 157 190 246 295 348
#     4  10  20  37  62  85 113 150 195 250 287 352
#     4   9  21  39  56  81 118 156 193 233 297 351
#
# _framework density 17.450284
#
# number of rings (size 3 to 8) (size 9 to 14) (size 15 to 20)
#    0.000    2.000    3.333    1.000    0.000    4.000 
#    3.000    0.000    0.000    0.000    0.000    0.000 
#    0.000    0.000    0.000    0.000    0.000    0.000 
#
# Total GULP energy -133802.035573 kJ/mol
# GULP energy per Si atom -5575.084816 kJ/mol
# Density = 1.741057 g / cm^3
# Si number density = 17.450284 Si / 1000 Ang^3
#
#
#
# Elastic Constant Matrix: (Units=GPa)
#
#
# Indices 1 2 3 4 5 6 
#
# 1 140.5401 52.8601 90.2663 0.0000 2.5309 0.0000
# 2 52.8601 47.7953 54.3387 0.0000 9.1285 0.0000
# 3 90.2663 54.3387 139.7913 0.0000 6.6327 0.0000
# 4 0.0000 0.0000 0.0000 35.7395 0.0000 2.1739
# 5 2.5309 9.1285 6.6327 0.0000 37.1799 0.0000
# 6 0.0000 0.0000 0.0000 2.1739 0.0000 32.8050
#
#
#
# Elastic Compliance Matrix: (Units=1/GPa)
#
#
# Indices 1 2 3 4 5 6 
#
# 1 0.014420 -0.010222 -0.005456 0.000000 0.002502 0.000000
# 2 -0.010222 0.046448 -0.011040 0.000000 -0.008739 0.000000
# 3 -0.005456 -0.011040 0.014948 0.000000 0.000415 0.000000
# 4 0.000000 0.000000 0.000000 0.028094 0.000000 -0.001862
# 5 0.002502 -0.008739 0.000415 0.000000 0.028797 0.000000
# 6 0.000000 0.000000 0.000000 -0.001862 0.000000 0.030607
#
#
# Mechanical properties :
#
#
# Convention : Reuss Voigt Hill
#
# Bulk Modulus (GPa) = 44.68315 80.33966 62.51141
# Shear Modulus (GPa) = 22.30058 29.85566 26.07812
#
# Velocity S-wave (km/s) = 3.57872 4.14079 3.86997
# Velocity P-wave (km/s) = 6.53742 8.30666 7.47457
#
# Compressibility (1/GPa) = 0.02237980
#
# Stress axis : x y z
#
# Youngs Moduli (GPa) = 69.35033 21.52943 66.89719
#
# Poissons Ratio (x) = 0.22008 0.36501
# Poissons Ratio (y) = 0.70891 0.73853
# Poissons Ratio (z) = 0.37839 0.23768
#
# Static dielectric constant tensor:
#      x y z
#    x 1.618250 0.000000 -0.031320 
#    y 0.000000 1.603660 0.000000 
#    z -0.031320 0.000000 1.586630 
# 
# From -- ./inp_files/58975.got.cif
#   From: 2010.05.17/outbox.cif.g08.bks.cpg/sg14_30_cif.got.tgz:58975.got - 2010.06.03 17:49:19.
