data_PCOD9243490
_publ_section_title
;
Structure prediction by ZEFSAII (Michael W. Deem and Ramdas Pophale) SiO2 
 PCOD9243490
Probable space group: P 21/C
;
_chemical_formula_sum "Si O2"
_cell_formula_units_Z 32
_cell_length_a 20.519867
_cell_length_b 5.308674
_cell_length_c 13.754526
_cell_angle_alpha 90.000000
_cell_angle_beta 52.921284
_cell_angle_gamma 90.000000
_cell_volume 1195.376151
_symmetry_space_group_name_H-M "P 21/C"
_symmetry_group_IT_number 14
_symmetry_cell_setting 'monoclinic'
loop_
_space_group_symop_operation_xyz
x,y,z
-x,1/2+y,1/2-z
-x,-y,-z
x,1/2-y,1/2+z
loop_
_atom_site_type_symbol
_atom_site_label
_atom_site_fract_x
_atom_site_fract_y
_atom_site_fract_z
Si Si1 0.246433 0.899414 0.187764
Si Si2 0.402381 0.573896 0.650707
Si Si3 0.029462 0.735434 0.607183
Si Si4 0.098334 0.901278 0.857178
Si Si5 0.656665 0.572412 0.690881
Si Si6 0.124952 0.092519 0.149735
Si Si7 0.530611 0.802732 0.169156
Si Si8 0.174064 0.298186 0.923957
O O1 0.343963 0.869665 0.110069
O O2 0.185111 0.663804 0.232140
O O3 0.205035 0.078255 0.144702
O O4 0.221194 0.996691 0.318257
O O5 0.384824 0.287361 0.701868
O O6 0.498396 0.636630 0.589219
O O7 0.367988 0.791003 0.756478
O O8 0.066090 0.792757 0.467983
O O9 0.106409 0.652438 0.601699
O O10 0.974904 0.477211 0.646128
O O11 0.956942 0.906159 0.711543
O O12 0.115684 0.151816 0.903586
O O13 0.623880 0.644665 0.613711
O O14 0.752081 0.607417 0.615373
O O15 0.130721 0.320852 0.067080
O O16 0.511453 0.518872 0.223400
#
# Coordination Sequence:
#
# PCOD9243490 Si02
#       8
#     4   4   4   4   4   4   4   4
#     4  11  21  36  58  76 109 146 181 231 287 337
#     4   9  17  29  53  80 111 148 187 230 276 338
#     4  10  22  37  52  78 107 136 188 235 281 347
#     4  10  20  38  56  75 104 141 181 235 287 337
#     4   9  16  31  52  79 114 147 185 231 279 332
#     4  11  23  37  55  81 105 143 187 237 283 346
#     4   8  14  25  46  79 109 142 186 225 269 331
#     4  10  21  37  54  80 111 141 189 228 284 341
#
# _framework density 26.769814
#
# number of rings (size 3 to 8) (size 9 to 14) (size 15 to 20)
#    0.000    2.250    2.500    0.750    1.750    0.500 
#    0.000    0.000    0.000    0.750    0.000    0.000 
#    0.000   22.000    0.000    0.000    0.000    3.125 
#
# Total GULP energy -178400.809967 kJ/mol
# GULP energy per Si atom -5575.025311 kJ/mol
# Density = 2.670889 g / cm^3
# Si number density = 26.769814 Si / 1000 Ang^3
#
#
#
# Elastic Constant Matrix: (Units=GPa)
#
#
# Indices 1 2 3 4 5 6 
#
# 1 187.6825 -1.3431 5.6637 0.0000 11.7033 0.0000
# 2 -1.3431 110.2809 14.4501 0.0000 2.9754 0.0000
# 3 5.6637 14.4501 41.1181 0.0000 14.9000 0.0000
# 4 0.0000 0.0000 0.0000 12.0632 0.0000 -8.0615
# 5 11.7033 2.9754 14.9000 0.0000 36.5022 0.0000
# 6 0.0000 0.0000 0.0000 -8.0615 0.0000 33.2806
#
#
#
# Elastic Compliance Matrix: (Units=1/GPa)
#
#
# Indices 1 2 3 4 5 6 
#
# 1 0.005439 0.000136 -0.000189 0.000000 -0.001678 0.000000
# 2 0.000136 0.009524 -0.003601 0.000000 0.000650 0.000000
# 3 -0.000189 -0.003601 0.029907 0.000000 -0.011854 0.000000
# 4 0.000000 0.000000 0.000000 0.098907 0.000000 0.023958
# 5 -0.001678 0.000650 -0.011854 0.000000 0.032719 0.000000
# 6 0.000000 0.000000 0.000000 0.023958 0.000000 0.035851
#
#
# Mechanical properties :
#
#
# Convention : Reuss Voigt Hill
#
# Bulk Modulus (GPa) = 26.62238 41.84699 34.23468
# Shear Modulus (GPa) = 21.53533 37.72325 29.62929
#
# Velocity S-wave (km/s) = 2.83938 3.75797 3.33050
# Velocity P-wave (km/s) = 4.55148 5.87331 5.25413
#
# Compressibility (1/GPa) = 0.03756238
#
# Stress axis : x y z
#
# Youngs Moduli (GPa) = 183.84186 105.00067 33.43666
#
# Poissons Ratio (x) = -0.01431 0.00632
# Poissons Ratio (y) = -0.02506 0.12041
# Poissons Ratio (z) = 0.03477 0.37813
#
# Static dielectric constant tensor:
#      x y z
#    x 2.140040 0.000000 0.016330 
#    y 0.000000 2.154820 0.000000 
#    z 0.016330 0.000000 2.207800 
# 
# From -- ./inp_files/49689.got.cif
#   From: 2010.05.17/outbox.cif.g08.bks.cpg/sg14_25_cif.got.tgz:49689.got - 2010.06.03 17:49:19.
