data_PCOD9243083
_publ_section_title
;
Structure prediction by ZEFSAII (Michael W. Deem and Ramdas Pophale) SiO2 
 PCOD9243083
Probable space group: P 21/C
;
_chemical_formula_sum "Si O2"
_cell_formula_units_Z 32
_cell_length_a 21.139034
_cell_length_b 8.952814
_cell_length_c 17.752661
_cell_angle_alpha 90.000000
_cell_angle_beta 31.502096
_cell_angle_gamma 90.000000
_cell_volume 1755.574184
_symmetry_space_group_name_H-M "P 21/C"
_symmetry_group_IT_number 14
_symmetry_cell_setting 'monoclinic'
loop_
_space_group_symop_operation_xyz
x,y,z
-x,1/2+y,1/2-z
-x,-y,-z
x,1/2-y,1/2+z
loop_
_atom_site_type_symbol
_atom_site_label
_atom_site_fract_x
_atom_site_fract_y
_atom_site_fract_z
Si Si1 0.738494 0.665637 0.186401
Si Si2 0.568750 0.641588 0.964124
Si Si3 0.197843 0.717052 0.725098
Si Si4 0.037805 0.280272 0.929361
Si Si5 0.133407 0.219024 0.593861
Si Si6 0.931051 0.505447 0.240330
Si Si7 0.802535 0.947965 0.320074
Si Si8 0.398415 0.888375 0.135860
O O1 0.636584 0.768145 0.328510
O O2 0.852861 0.665008 0.127509
O O3 0.689084 0.497055 0.228611
O O4 0.778147 0.730754 0.066601
O O5 0.675716 0.598423 0.911621
O O6 0.500000 0.500000 0.000000
O O7 0.471696 0.754285 0.099508
O O8 0.180588 0.580786 0.684750
O O9 0.317131 0.686473 0.653027
O O10 0.194648 0.874047 0.685392
O O11 0.082935 0.725824 0.898636
O O12 0.018267 0.393406 0.879702
O O13 0.089318 0.127019 0.839908
O O14 0.098865 0.379901 0.662662
O O15 0.186393 0.123853 0.609222
O O16 0.020396 0.123356 0.677631
O O17 0.500000 0.000000 0.000000
#
# Coordination Sequence:
#
# PCOD9243083 Si02
#       8
#     4   4   4   4   4   4   4   4
#     4  10  20  39  62  87 121 155 199 256 290 367
#     4  10  20  41  62  88 114 153 211 257 293 340
#     4  12  19  36  62  91 117 155 201 248 298 360
#     4  10  20  36  62  91 118 150 205 249 301 351
#     4  11  23  39  55  89 128 164 191 237 319 365
#     4  11  22  37  58  85 129 163 192 243 301 378
#     4  10  23  37  60  89 125 155 191 258 302 363
#     4  10  21  35  64  87 110 154 204 250 292 336
#
# _framework density 18.227654000000001
#
# number of rings (size 3 to 8) (size 9 to 14) (size 15 to 20)
#    0.000    1.500    3.750    2.250    1.750    0.000 
#    2.250    2.500    0.000    0.000    0.000    0.000 
#    0.000    0.000    0.000    0.000    0.000    0.000 
#
# Total GULP energy -178563.580934 kJ/mol
# GULP energy per Si atom -5580.111904 kJ/mol
# Density = 1.818617 g / cm^3
# Si number density = 18.227654 Si / 1000 Ang^3
#
#
#
# Elastic Constant Matrix: (Units=GPa)
#
#
# Indices 1 2 3 4 5 6 
#
# 1 62.9616 14.6118 32.0953 0.0000 1.9114 0.0000
# 2 14.6118 81.6325 15.9179 0.0000 1.6889 0.0000
# 3 32.0953 15.9179 61.3775 0.0000 1.1832 0.0000
# 4 0.0000 0.0000 0.0000 20.0297 0.0000 -3.0081
# 5 1.9114 1.6889 1.1832 0.0000 30.3459 0.0000
# 6 0.0000 0.0000 0.0000 -3.0081 0.0000 36.7835
#
#
#
# Elastic Compliance Matrix: (Units=1/GPa)
#
#
# Indices 1 2 3 4 5 6 
#
# 1 0.021919 -0.001763 -0.010988 0.000000 -0.000854 0.000000
# 2 -0.001763 0.013055 -0.002454 0.000000 -0.000520 0.000000
# 3 -0.010988 -0.002454 0.022676 0.000000 -0.000055 0.000000
# 4 0.000000 0.000000 0.000000 0.050547 0.000000 0.004134
# 5 -0.000854 -0.000520 -0.000055 0.000000 0.033038 0.000000
# 6 0.000000 0.000000 0.000000 0.004134 0.000000 0.027524
#
#
# Mechanical properties :
#
#
# Convention : Reuss Voigt Hill
#
# Bulk Modulus (GPa) = 36.71082 36.80240 36.75661
# Shear Modulus (GPa) = 24.00971 26.98823 25.49897
#
# Velocity S-wave (km/s) = 3.63328 3.85206 3.74427
# Velocity P-wave (km/s) = 6.14694 6.32603 6.23713
#
# Compressibility (1/GPa) = 0.02723993
#
# Stress axis : x y z
#
# Youngs Moduli (GPa) = 45.62227 76.59998 44.09956
#
# Poissons Ratio (x) = 0.13505 0.48457
# Poissons Ratio (y) = 0.08044 0.10821
# Poissons Ratio (z) = 0.50131 0.18796
#
# Static dielectric constant tensor:
#      x y z
#    x 1.615060 0.000000 -0.015300 
#    y 0.000000 1.655040 0.000000 
#    z -0.015300 0.000000 1.624590 
# 
# From -- ./inp_files/61133.got.cif
#   From: 2010.05.17/outbox.cif.g08.bks.cpg/sg14_31_cif.got.tgz:61133.got - 2010.06.03 17:49:19.
