data_PCOD9243070
_publ_section_title
;
Structure prediction by ZEFSAII (Michael W. Deem and Ramdas Pophale) SiO2 
 PCOD9243070
Probable space group: P 21/C
;
_chemical_formula_sum "Si O2"
_cell_formula_units_Z 22
_cell_length_a 14.894743
_cell_length_b 11.509352
_cell_length_c 19.925715
_cell_angle_alpha 90.000000
_cell_angle_beta 166.288803
_cell_angle_gamma 90.000000
_cell_volume 809.650268
_symmetry_space_group_name_H-M "P 21/C"
_symmetry_group_IT_number 14
_symmetry_cell_setting 'monoclinic'
loop_
_space_group_symop_operation_xyz
x,y,z
-x,1/2+y,1/2-z
-x,-y,-z
x,1/2-y,1/2+z
loop_
_atom_site_type_symbol
_atom_site_label
_atom_site_fract_x
_atom_site_fract_y
_atom_site_fract_z
Si Si1 0.795418 0.482938 0.951518
Si Si2 0.920473 0.404405 0.504575
Si Si3 0.900304 0.720001 0.976498
Si Si4 0.006448 0.263992 0.177947
Si Si5 0.500000 0.500000 0.000000
Si Si6 0.884552 0.839316 0.100226
O O1 0.968278 0.582609 0.030610
O O2 0.501653 0.401755 0.699178
O O3 0.504325 0.553869 0.789332
O O4 0.060657 0.389173 0.181523
O O5 0.959498 0.296279 0.483839
O O6 0.138077 0.348889 0.731408
O O7 0.186961 0.516225 0.702577
O O8 0.445047 0.742577 0.644236
O O9 0.023216 0.760288 0.139626
O O10 0.160456 0.270913 0.363835
O O11 0.804092 0.438823 0.169806
#
# Coordination Sequence:
#
# PCOD9243070 Si02
#       6
#     4   4   4   4   2   4
#     4   9  22  38  59  85 121 157 195 250 299 346
#     4  10  21  39  62  89 120 155 202 246 295 357
#     4  10  21  39  58  89 119 154 203 246 292 357
#     4  10  21  40  57  88 123 154 202 246 295 358
#     4  10  20  36  62  86 110 152 198 240 294 346
#     4  10  21  37  61  88 115 159 197 245 297 348
#
# _framework density 27.172225999999998
#
# number of rings (size 3 to 8) (size 9 to 14) (size 15 to 20)
#    0.000    2.182    1.818    0.000    2.545    7.273 
#    6.545    0.909    0.000    0.000    0.000    0.000 
#    0.000    0.000    0.000    0.000    0.000    0.000 
#
# Total GULP energy -122687.379032 kJ/mol
# GULP energy per Si atom -5576.699047 kJ/mol
# Density = 2.711038 g / cm^3
# Si number density = 27.172226 Si / 1000 Ang^3
#
#
#
# Elastic Constant Matrix: (Units=GPa)
#
#
# Indices 1 2 3 4 5 6 
#
# 1 72.2303 44.6904 -26.1666 0.0000 -1.7112 0.0000
# 2 44.6904 144.6489 -16.2797 0.0000 -21.1206 0.0000
# 3 -26.1666 -16.2797 39.5440 0.0000 4.0454 0.0000
# 4 0.0000 0.0000 0.0000 26.1802 0.0000 -16.5289
# 5 -1.7112 -21.1206 4.0454 0.0000 35.2363 0.0000
# 6 0.0000 0.0000 0.0000 -16.5289 0.0000 44.9382
#
#
#
# Elastic Compliance Matrix: (Units=1/GPa)
#
#
# Indices 1 2 3 4 5 6 
#
# 1 0.021956 -0.005953 0.012480 0.000000 -0.003935 0.000000
# 2 -0.005953 0.009484 -0.000594 0.000000 0.005464 0.000000
# 3 0.012480 -0.000594 0.033672 0.000000 -0.003616 0.000000
# 4 0.000000 0.000000 0.000000 0.049750 0.000000 0.018299
# 5 -0.003935 0.005464 -0.003616 0.000000 0.031879 0.000000
# 6 0.000000 0.000000 0.000000 0.018299 0.000000 0.028983
#
#
# Mechanical properties :
#
#
# Convention : Reuss Voigt Hill
#
# Bulk Modulus (GPa) = 12.99099 28.99014 20.99056
# Shear Modulus (GPa) = 26.38286 38.21619 32.29952
#
# Velocity S-wave (km/s) = 3.11939 3.75433 3.45149
# Velocity P-wave (km/s) = 4.21491 5.43005 4.86060
#
# Compressibility (1/GPa) = 0.07697644
#
# Stress axis : x y z
#
# Youngs Moduli (GPa) = 45.54554 105.44589 29.69842
#
# Poissons Ratio (x) = 0.62777 -0.37064
# Poissons Ratio (y) = 0.27115 0.01765
# Poissons Ratio (z) = -0.56841 0.06265
#
# Static dielectric constant tensor:
#      x y z
#    x 2.379370 0.000000 -0.239710 
#    y 0.000000 1.666530 0.000000 
#    z -0.239710 0.000000 2.046780 
# 
# From -- ./inp_files/20855.got.cif
#   From: 2010.05.17/outbox.cif.g08.bks.cpg/sg14_11_cif.got.tgz:20855.got - 2010.06.03 17:49:19.
