data_PCOD9243726
_publ_section_title
;
Structure prediction by ZEFSAII (Michael W. Deem and Ramdas Pophale) SiO2 
 PCOD9243726
Probable space group: P 21/C
;
_chemical_formula_sum "Si O2"
_cell_formula_units_Z 22
_cell_length_a 22.634004
_cell_length_b 7.655534
_cell_length_c 12.478986
_cell_angle_alpha 90.000000
_cell_angle_beta 24.552833
_cell_angle_gamma 90.000000
_cell_volume 898.505639
_symmetry_space_group_name_H-M "P 21/C"
_symmetry_group_IT_number 14
_symmetry_cell_setting 'monoclinic'
loop_
_space_group_symop_operation_xyz
x,y,z
-x,1/2+y,1/2-z
-x,-y,-z
x,1/2-y,1/2+z
loop_
_atom_site_type_symbol
_atom_site_label
_atom_site_fract_x
_atom_site_fract_y
_atom_site_fract_z
Si Si1 0.500000 0.500000 0.000000
Si Si2 0.195842 0.547317 0.200543
Si Si3 0.549634 0.224117 0.200968
Si Si4 0.805464 0.879143 0.064936
Si Si5 0.275765 0.419717 0.655124
Si Si6 0.949379 0.792144 0.630291
O O1 0.481842 0.614267 0.141198
O O2 0.326099 0.465720 0.280075
O O3 0.170347 0.485037 0.365235
O O4 0.145811 0.386607 0.211822
O O5 0.096615 0.714941 0.345193
O O6 0.357113 0.607146 0.923084
O O7 0.401942 0.295481 0.397826
O O8 0.648440 0.106715 0.960703
O O9 0.765130 0.683422 0.170525
O O10 0.939556 0.868807 0.765165
O O11 0.137707 0.413820 0.807851
#
# Coordination Sequence:
#
# PCOD9243726 Si02
#       6
#     2   4   4   4   4   4
#     4  10  20  38  64  88 118 164 214 258 308 378
#     4  10  24  41  64  95 135 165 211 268 318 378
#     4  11  21  42  62  95 126 169 212 267 318 373
#     4  10  21  41  63  93 124 169 216 262 312 385
#     4  10  21  38  65  87 129 164 214 267 315 371
#     4  10  21  44  63  91 128 173 209 261 320 384
#
# _framework density 24.485099000000002
#
# number of rings (size 3 to 8) (size 9 to 14) (size 15 to 20)
#    0.000    1.818    1.818    3.273    0.000    2.182 
#   16.364    2.727    0.000    0.000    0.000    0.000 
#    0.000    0.000    0.000    0.000    0.000    0.000 
#
# Total GULP energy -122520.340027 kJ/mol
# GULP energy per Si atom -5569.106365 kJ/mol
# Density = 2.442937 g / cm^3
# Si number density = 24.485099 Si / 1000 Ang^3
#
#
#
# Elastic Constant Matrix: (Units=GPa)
#
#
# Indices 1 2 3 4 5 6 
#
# 1 68.6235 2.5672 3.6304 0.0000 -2.8276 0.0000
# 2 2.5672 73.8444 -8.9846 0.0000 10.3750 0.0000
# 3 3.6304 -8.9846 60.8524 0.0000 0.9538 0.0000
# 4 0.0000 0.0000 0.0000 29.6045 0.0000 -15.7309
# 5 -2.8276 10.3750 0.9538 0.0000 34.5167 0.0000
# 6 0.0000 0.0000 0.0000 -15.7309 0.0000 21.0475
#
#
#
# Elastic Compliance Matrix: (Units=1/GPa)
#
#
# Indices 1 2 3 4 5 6 
#
# 1 0.014720 -0.000846 -0.001026 0.000000 0.001488 0.000000
# 2 -0.000846 0.014476 0.002258 0.000000 -0.004483 0.000000
# 3 -0.001026 0.002258 0.016847 0.000000 -0.001228 0.000000
# 4 0.000000 0.000000 0.000000 0.056031 0.000000 0.041878
# 5 0.001488 -0.004483 -0.001228 0.000000 0.030475 0.000000
# 6 0.000000 0.000000 0.000000 0.041878 0.000000 0.078811
#
#
# Mechanical properties :
#
#
# Convention : Reuss Voigt Hill
#
# Bulk Modulus (GPa) = 21.36090 21.97181 21.66635
# Shear Modulus (GPa) = 22.10503 30.77422 26.43963
#
# Velocity S-wave (km/s) = 3.00791 3.54906 3.28963
# Velocity P-wave (km/s) = 4.56140 5.07814 4.82669
#
# Compressibility (1/GPa) = 0.04681451
#
# Stress axis : x y z
#
# Youngs Moduli (GPa) = 67.93690 69.08010 59.35742
#
# Poissons Ratio (x) = 0.05842 0.06092
# Poissons Ratio (y) = 0.05746 -0.13403
# Poissons Ratio (z) = 0.06973 -0.15599
#
# Static dielectric constant tensor:
#      x y z
#    x 1.875330 0.000000 -0.015200 
#    y 0.000000 2.034510 0.000000 
#    z -0.015200 0.000000 1.976310 
# 
# From -- ./inp_files/42782.got.cif
#   From: 2010.05.17/outbox.cif.g08.bks.cpg/sg14_22_cif.got.tgz:42782.got - 2010.06.03 17:49:19.
