data_PCOD9243651
_publ_section_title
;
Structure prediction by ZEFSAII (Michael W. Deem and Ramdas Pophale) SiO2 
 PCOD9243651
Probable space group: P 21/C
;
_chemical_formula_sum "Si O2"
_cell_formula_units_Z 28
_cell_length_a 24.194376
_cell_length_b 9.768777
_cell_length_c 7.584882
_cell_angle_alpha 90.000000
_cell_angle_beta 47.576376
_cell_angle_gamma 90.000000
_cell_volume 1323.317658
_symmetry_space_group_name_H-M "P 21/C"
_symmetry_group_IT_number 14
_symmetry_cell_setting 'monoclinic'
loop_
_space_group_symop_operation_xyz
x,y,z
-x,1/2+y,1/2-z
-x,-y,-z
x,1/2-y,1/2+z
loop_
_atom_site_type_symbol
_atom_site_label
_atom_site_fract_x
_atom_site_fract_y
_atom_site_fract_z
Si Si1 0.403519 0.562524 0.527623
Si Si2 0.617516 0.568447 0.793841
Si Si3 0.070391 0.910923 0.392205
Si Si4 0.237533 0.878430 0.410127
Si Si5 0.769520 0.061883 0.989913
Si Si6 0.451727 0.341443 0.696274
Si Si7 0.073083 0.907300 0.800785
O O1 0.399746 0.542094 0.323943
O O2 0.320041 0.572963 0.787492
O O3 0.439949 0.432640 0.547531
O O4 0.459882 0.684470 0.460525
O O5 0.702933 0.542120 0.670862
O O6 0.598618 0.708999 0.731801
O O7 0.572193 0.578489 0.073886
O O8 0.145271 0.971233 0.142488
O O9 0.080075 0.918811 0.578243
O O10 0.058577 0.751713 0.374223
O O11 0.000000 0.000000 0.500000
O O12 0.241846 0.713852 0.409284
O O13 0.232352 0.921617 0.217683
O O14 0.160913 0.928589 0.672334
O O15 0.000000 0.000000 0.000000
#
# Coordination Sequence:
#
# PCOD9243651 Si02
#       7
#     4   4   4   4   4   4   4
#     4  10  23  41  60  87 117 161 204 252 300 358
#     4  11  22  43  60  88 123 161 205 255 303 365
#     4  10  20  39  60  90 124 156 202 251 309 371
#     4   9  20  38  60  85 119 149 201 245 298 360
#     4   9  21  38  61  87 117 156 196 247 300 361
#     4  11  23  39  62  85 122 160 204 251 304 354
#     4  10  20  38  62  89 120 160 201 251 306 365
#
# _framework density 21.158940000000001
#
# number of rings (size 3 to 8) (size 9 to 14) (size 15 to 20)
#    0.000    2.000    1.429    1.286    2.000    4.571 
#    2.571    0.000    0.000    0.000    0.000    0.000 
#    0.000    0.000    0.000    0.000    0.000    0.000 
#
# Total GULP energy -155959.821816 kJ/mol
# GULP energy per Si atom -5569.993636 kJ/mol
# Density = 2.111078 g / cm^3
# Si number density = 21.158940 Si / 1000 Ang^3
#
#
#
# Elastic Constant Matrix: (Units=GPa)
#
#
# Indices 1 2 3 4 5 6 
#
# 1 92.5660 28.5996 63.0700 0.0000 -35.4881 0.0000
# 2 28.5996 46.3599 39.8831 0.0000 -31.2577 0.0000
# 3 63.0700 39.8831 118.8232 0.0000 -28.5779 0.0000
# 4 0.0000 0.0000 0.0000 23.4171 0.0000 -32.2715
# 5 -35.4881 -31.2577 -28.5779 0.0000 55.6194 0.0000
# 6 0.0000 0.0000 0.0000 -32.2715 0.0000 -2.0181
#
#
#
# Elastic Compliance Matrix: (Units=1/GPa)
#
#
# Indices 1 2 3 4 5 6 
#
# 1 0.019798 0.001358 -0.008834 0.000000 0.008856 0.000000
# 2 0.001358 0.042931 -0.010405 0.000000 0.019647 0.000000
# 3 -0.008834 -0.010405 0.015786 0.000000 -0.003373 0.000000
# 4 0.000000 0.000000 0.000000 0.001854 0.000000 -0.029642
# 5 0.008856 0.019647 -0.003373 0.000000 0.032938 0.000000
# 6 0.000000 0.000000 0.000000 -0.029642 0.000000 -0.021509
#
#
# Mechanical properties :
#
#
# Convention : Reuss Voigt Hill
#
# Bulk Modulus (GPa) = 23.39085 57.87273 40.63179
# Shear Modulus (GPa) = 35.25767 23.81678 29.53723
#
# Velocity S-wave (km/s) = 4.08649 3.35866 3.74032
# Velocity P-wave (km/s) = 5.77449 6.51549 6.15615
#
# Compressibility (1/GPa) = 0.04275176
#
# Stress axis : x y z
#
# Youngs Moduli (GPa) = 50.50944 23.29313 63.34596
#
# Poissons Ratio (x) = -0.03163 0.55963
# Poissons Ratio (y) = -0.06858 0.65913
# Poissons Ratio (z) = 0.44622 0.24237
#
# Static dielectric constant tensor:
#      x y z
#    x 1.881450 0.000000 -0.098010 
#    y 0.000000 1.737000 0.000000 
#    z -0.098010 0.000000 1.855480 
# 
# From -- ./inp_files/19639.got.cif
#   From: 2010.05.17/outbox.cif.g08.bks.cpg/sg14_10_cif.got.tgz:19639.got - 2010.06.03 17:49:19.
