data_PCOD9243658
_publ_section_title
;
Structure prediction by ZEFSAII (Michael W. Deem and Ramdas Pophale) SiO2 
 PCOD9243658
Probable space group: P 21/C
;
_chemical_formula_sum "Si O2"
_cell_formula_units_Z 28
_cell_length_a 8.499410
_cell_length_b 11.003454
_cell_length_c 28.535775
_cell_angle_alpha 90.000000
_cell_angle_beta 29.662679
_cell_angle_gamma 90.000000
_cell_volume 1320.743808
_symmetry_space_group_name_H-M "P 21/C"
_symmetry_group_IT_number 14
_symmetry_cell_setting 'monoclinic'
loop_
_space_group_symop_operation_xyz
x,y,z
-x,1/2+y,1/2-z
-x,-y,-z
x,1/2-y,1/2+z
loop_
_atom_site_type_symbol
_atom_site_label
_atom_site_fract_x
_atom_site_fract_y
_atom_site_fract_z
Si Si1 0.957556 0.360991 0.561590
Si Si2 0.265942 0.613690 0.485702
Si Si3 0.980399 0.703646 0.296335
Si Si4 0.733671 0.942462 0.739901
Si Si5 0.023596 0.546826 0.731077
Si Si6 0.189114 0.830364 0.335505
Si Si7 0.925102 0.684049 0.667663
O O1 0.869775 0.344883 0.529786
O O2 0.636427 0.409512 0.670800
O O3 0.026023 0.234582 0.569741
O O4 0.209194 0.468333 0.501672
O O5 0.629515 0.652021 0.397692
O O6 0.070416 0.671093 0.578867
O O7 0.154531 0.584259 0.229364
O O8 0.912900 0.824161 0.282444
O O9 0.158984 0.748102 0.296572
O O10 0.733680 0.005102 0.791023
O O11 0.881021 0.035318 0.664769
O O12 0.935949 0.820302 0.684748
O O13 0.083028 0.590904 0.662873
O O14 0.547714 0.840539 0.261745
#
# Coordination Sequence:
#
# PCOD9243658 Si02
#       7
#     4   4   4   4   4   4   4
#     4  10  20  38  62  90 132 160 212 257 315 368
#     4  11  22  40  62  98 128 164 199 281 307 372
#     4  11  23  39  68  94 129 157 225 248 329 357
#     4  10  20  41  60  93 120 169 212 256 301 394
#     4  11  21  41  65  93 119 175 206 262 298 400
#     4  10  22  39  63  91 120 175 212 254 301 398
#     4  11  22  38  65  91 128 162 213 258 323 365
#
# _framework density 21.200175000000002
#
# number of rings (size 3 to 8) (size 9 to 14) (size 15 to 20)
#    0.000    1.429    4.286    1.714    2.000    2.286 
#    0.000    3.571    3.143    0.000    0.000    0.000 
#    0.000    0.000    0.000    0.000    0.000    0.000 
#
# Total GULP energy -155951.593105 kJ/mol
# GULP energy per Si atom -5569.699754 kJ/mol
# Density = 2.115192 g / cm^3
# Si number density = 21.200175 Si / 1000 Ang^3
#
#
#
# Elastic Constant Matrix: (Units=GPa)
#
#
# Indices 1 2 3 4 5 6 
#
# 1 85.0573 44.8046 13.7598 0.0000 13.3570 0.0000
# 2 44.8046 133.0960 19.3014 0.0000 5.7628 0.0000
# 3 13.7598 19.3014 28.0653 0.0000 12.2041 0.0000
# 4 0.0000 0.0000 0.0000 29.5039 0.0000 9.6016
# 5 13.3570 5.7628 12.2041 0.0000 26.1567 0.0000
# 6 0.0000 0.0000 0.0000 9.6016 0.0000 40.9811
#
#
#
# Elastic Compliance Matrix: (Units=1/GPa)
#
#
# Indices 1 2 3 4 5 6 
#
# 1 0.015458 -0.004692 -0.001717 0.000000 -0.006059 0.000000
# 2 -0.004692 0.009793 -0.005693 0.000000 0.002895 0.000000
# 3 -0.001717 -0.005693 0.049506 0.000000 -0.020967 0.000000
# 4 0.000000 0.000000 0.000000 0.036691 0.000000 -0.008597
# 5 -0.006059 0.002895 -0.020967 0.000000 0.050470 0.000000
# 6 0.000000 0.000000 0.000000 -0.008597 0.000000 0.026416
#
#
# Mechanical properties :
#
#
# Convention : Reuss Voigt Hill
#
# Bulk Modulus (GPa) = 19.78174 44.66114 32.22144
# Shear Modulus (GPa) = 21.79694 30.55188 26.17441
#
# Velocity S-wave (km/s) = 3.20995 3.80032 3.51754
# Velocity P-wave (km/s) = 4.80516 6.35364 5.63286
#
# Compressibility (1/GPa) = 0.05055166
#
# Stress axis : x y z
#
# Youngs Moduli (GPa) = 64.69297 102.11116 20.19950
#
# Poissons Ratio (x) = 0.47913 0.03468
# Poissons Ratio (y) = 0.30355 0.11501
# Poissons Ratio (z) = 0.11108 0.58137
#
# Static dielectric constant tensor:
#      x y z
#    x 1.772070 0.000000 0.021100 
#    y 0.000000 1.836500 0.000000 
#    z 0.021100 0.000000 1.790220 
# 
# From -- ./inp_files/79571.got.cif
#   From: 2010.05.17/outbox.cif.g08.bks.cpg/sg14_40_cif.got.tgz:79571.got - 2010.06.03 17:49:19.
