data_PCOD9243850
_publ_section_title
;
Structure prediction by ZEFSAII (Michael W. Deem and Ramdas Pophale) SiO2 
 PCOD9243850
Probable space group: P 21/C
;
_chemical_formula_sum "Si O2"
_cell_formula_units_Z 28
_cell_length_a 20.357660
_cell_length_b 11.494400
_cell_length_c 8.300849
_cell_angle_alpha 90.000000
_cell_angle_beta 37.595419
_cell_angle_gamma 90.000000
_cell_volume 1185.017482
_symmetry_space_group_name_H-M "P 21/C"
_symmetry_group_IT_number 14
_symmetry_cell_setting 'monoclinic'
loop_
_space_group_symop_operation_xyz
x,y,z
-x,1/2+y,1/2-z
-x,-y,-z
x,1/2-y,1/2+z
loop_
_atom_site_type_symbol
_atom_site_label
_atom_site_fract_x
_atom_site_fract_y
_atom_site_fract_z
Si Si1 0.672167 0.913381 0.357285
Si Si2 0.500986 0.911132 0.209687
Si Si3 0.225660 0.674032 0.704756
Si Si4 0.287290 0.163679 0.089160
Si Si5 0.140380 0.566057 0.358526
Si Si6 0.388156 0.732057 0.657011
Si Si7 0.097346 0.470947 0.081867
O O1 0.687276 0.798284 0.434018
O O2 0.556727 0.973189 0.614197
O O3 0.760591 0.005526 0.244293
O O4 0.692734 0.876372 0.132798
O O5 0.469172 0.806912 0.393929
O O6 0.447849 0.863959 0.148647
O O7 0.629181 0.910777 0.963826
O O8 0.166953 0.797469 0.797777
O O9 0.295699 0.674385 0.730615
O O10 0.320254 0.673032 0.390212
O O11 0.139445 0.572834 0.882682
O O12 0.167944 0.138081 0.386606
O O13 0.125281 0.509441 0.211092
O O14 0.029644 0.548789 0.670699
#
# Coordination Sequence:
#
# PCOD9243850 Si02
#       7
#     4   4   4   4   4   4   4
#     4  12  25  49  68 103 151 184 238 295 350 425
#     4  11  23  45  71 106 141 186 231 295 347 428
#     4  11  20  43  68 103 131 179 233 294 348 423
#     4  12  28  45  72 106 145 190 234 287 365 419
#     4  11  25  47  70 101 140 184 236 299 353 416
#     4  10  20  38  72  98 134 174 233 278 348 412
#     4  11  26  45  71 102 139 186 238 293 356 426
#
# _framework density 23.628343999999998
#
# number of rings (size 3 to 8) (size 9 to 14) (size 15 to 20)
#    0.000    0.857    4.286    3.000    2.000    2.857 
#    0.000    2.857    0.000    0.000    0.000    0.000 
#    0.000    0.000    0.000    0.000    0.000    0.000 
#
# Total GULP energy -156928.516892 kJ/mol
# GULP energy per Si atom -5604.589889 kJ/mol
# Density = 2.357457 g / cm^3
# Si number density = 23.628344 Si / 1000 Ang^3
#
#
#
# Elastic Constant Matrix: (Units=GPa)
#
#
# Indices 1 2 3 4 5 6 
#
# 1 50.7713 -11.4179 -0.0559 0.0000 5.5545 0.0000
# 2 -11.4179 89.5350 0.2179 0.0000 3.2827 0.0000
# 3 -0.0559 0.2179 86.8439 0.0000 -11.5731 0.0000
# 4 0.0000 0.0000 0.0000 32.5401 0.0000 -0.5651
# 5 5.5545 3.2827 -11.5731 0.0000 30.1818 0.0000
# 6 0.0000 0.0000 0.0000 -0.5651 0.0000 16.4320
#
#
#
# Elastic Compliance Matrix: (Units=1/GPa)
#
#
# Indices 1 2 3 4 5 6 
#
# 1 0.020805 0.002814 -0.000574 0.000000 -0.004355 0.000000
# 2 0.002814 0.011598 -0.000279 0.000000 -0.001886 0.000000
# 3 -0.000574 -0.000279 0.012154 0.000000 0.004797 0.000000
# 4 0.000000 0.000000 0.000000 0.030750 0.000000 0.001057
# 5 -0.004355 -0.001886 0.004797 0.000000 0.035978 0.000000
# 6 0.000000 0.000000 0.000000 0.001057 0.000000 0.060893
#
#
# Mechanical properties :
#
#
# Convention : Reuss Voigt Hill
#
# Bulk Modulus (GPa) = 20.62709 22.73758 21.68234
# Shear Modulus (GPa) = 27.11278 31.72453 29.41865
#
# Velocity S-wave (km/s) = 3.39111 3.66819 3.53237
# Velocity P-wave (km/s) = 4.90730 5.25212 5.08263
#
# Compressibility (1/GPa) = 0.04847993
#
# Stress axis : x y z
#
# Youngs Moduli (GPa) = 48.06567 86.22524 82.27447
#
# Poissons Ratio (x) = -0.24266 0.04723
# Poissons Ratio (y) = -0.13527 0.02292
# Poissons Ratio (z) = 0.02759 0.02403
#
# Static dielectric constant tensor:
#      x y z
#    x 1.897070 0.000000 0.043860 
#    y 0.000000 1.882390 0.000000 
#    z 0.043860 0.000000 1.937280 
# 
# From -- ./inp_files/18914.got.cif
#   From: 2010.05.17/outbox.cif.g08.bks.cpg/sg14_10_cif.got.tgz:18914.got - 2010.06.03 17:49:19.
