data_PCOD9243328
_publ_section_title
;
Structure prediction by ZEFSAII (Michael W. Deem and Ramdas Pophale) SiO2 
 PCOD9243328
Probable space group: P 21/C
;
_chemical_formula_sum "Si O2"
_cell_formula_units_Z 28
_cell_length_a 24.380822
_cell_length_b 7.106602
_cell_length_c 11.088998
_cell_angle_alpha 90.000000
_cell_angle_beta 35.284893
_cell_angle_gamma 90.000000
_cell_volume 1109.843437
_symmetry_space_group_name_H-M "P 21/C"
_symmetry_group_IT_number 14
_symmetry_cell_setting 'monoclinic'
loop_
_space_group_symop_operation_xyz
x,y,z
-x,1/2+y,1/2-z
-x,-y,-z
x,1/2-y,1/2+z
loop_
_atom_site_type_symbol
_atom_site_label
_atom_site_fract_x
_atom_site_fract_y
_atom_site_fract_z
Si Si1 0.985790 0.744149 0.904010
Si Si2 0.638391 0.922249 0.297353
Si Si3 0.220820 0.132606 0.751610
Si Si4 0.611651 0.572162 0.197943
Si Si5 0.290179 0.556905 0.584946
Si Si6 0.480582 0.697124 0.233040
Si Si7 0.915325 0.313348 0.027345
O O1 0.048097 0.755755 0.670817
O O2 0.038949 0.781150 0.935193
O O3 0.891753 0.872128 0.055331
O O4 0.947636 0.531212 0.980209
O O5 0.729659 0.945177 0.218247
O O6 0.624168 0.700886 0.291629
O O7 0.539469 0.954043 0.545116
O O8 0.667314 0.035130 0.126813
O O9 0.280075 0.041443 0.536940
O O10 0.251623 0.353028 0.691720
O O11 0.560505 0.712374 0.193323
O O12 0.553989 0.379065 0.282041
O O13 0.385624 0.632873 0.474985
O O14 0.198515 0.687366 0.761688
#
# Coordination Sequence:
#
# PCOD9243328 Si02
#       7
#     4   4   4   4   4   4   4
#     4  10  23  43  71  95 137 175 224 278 336 395
#     4  10  20  37  61  87 118 170 209 260 334 387
#     4   9  21  38  62  89 120 169 210 268 326 391
#     4  10  21  36  58  88 124 160 211 263 319 398
#     4  10  22  41  59  89 130 161 215 271 326 392
#     4  11  21  38  57  89 122 164 210 261 326 390
#     4  10  24  45  66 101 132 178 224 278 332 398
#
# _framework density 25.228783
#
# number of rings (size 3 to 8) (size 9 to 14) (size 15 to 20)
#    0.000    2.000    0.000    3.429    8.000    2.857 
#   10.286    0.000    0.000    0.000    0.000    0.000 
#    0.000    0.000    0.000    0.000    0.000    0.000 
#
# Total GULP energy -156331.947666 kJ/mol
# GULP energy per Si atom -5583.283845 kJ/mol
# Density = 2.517136 g / cm^3
# Si number density = 25.228783 Si / 1000 Ang^3
#
#
#
# Elastic Constant Matrix: (Units=GPa)
#
#
# Indices 1 2 3 4 5 6 
#
# 1 101.7436 13.2218 77.6188 0.0000 -12.4061 0.0000
# 2 13.2218 75.5967 32.5529 0.0000 -12.5833 0.0000
# 3 77.6188 32.5529 205.4545 0.0000 -34.4753 0.0000
# 4 0.0000 0.0000 0.0000 52.7965 0.0000 -4.7035
# 5 -12.4061 -12.5833 -34.4753 0.0000 41.0249 0.0000
# 6 0.0000 0.0000 0.0000 -4.7035 0.0000 31.9521
#
#
#
# Elastic Compliance Matrix: (Units=1/GPa)
#
#
# Indices 1 2 3 4 5 6 
#
# 1 0.013813 -0.000210 -0.005233 0.000000 -0.000285 0.000000
# 2 -0.000210 0.014496 -0.001725 0.000000 0.002933 0.000000
# 3 -0.005233 -0.001725 0.007874 0.000000 0.004505 0.000000
# 4 0.000000 0.000000 0.000000 0.019192 0.000000 0.002825
# 5 -0.000285 0.002933 0.004505 0.000000 0.028975 0.000000
# 6 0.000000 0.000000 0.000000 0.002825 0.000000 0.031713
#
#
# Mechanical properties :
#
#
# Convention : Reuss Voigt Hill
#
# Bulk Modulus (GPa) = 45.77458 69.95354 57.86406
# Shear Modulus (GPa) = 36.31571 42.44811 39.38191
#
# Velocity S-wave (km/s) = 3.79813 4.10631 3.95522
# Velocity P-wave (km/s) = 6.11699 7.09015 6.62147
#
# Compressibility (1/GPa) = 0.02184619
#
# Stress axis : x y z
#
# Youngs Moduli (GPa) = 72.39315 68.98482 127.00731
#
# Poissons Ratio (x) = 0.01448 0.66464
# Poissons Ratio (y) = 0.01520 0.21913
# Poissons Ratio (z) = 0.37884 0.11902
#
# Static dielectric constant tensor:
#      x y z
#    x 1.996270 0.000000 0.038410 
#    y 0.000000 2.115060 0.000000 
#    z 0.038410 0.000000 1.954860 
# 
# From -- ./inp_files/36144.got.cif
#   From: 2010.05.17/outbox.cif.g08.bks.cpg/sg14_19_cif.got.tgz:36144.got - 2010.06.03 17:49:19.
