data_PCOD9243477
_publ_section_title
;
Structure prediction by ZEFSAII (Michael W. Deem and Ramdas Pophale) SiO2 
 PCOD9243477
Probable space group: P 21/C
;
_chemical_formula_sum "Si O2"
_cell_formula_units_Z 28
_cell_length_a 7.080358
_cell_length_b 26.659991
_cell_length_c 5.764371
_cell_angle_alpha 90.000000
_cell_angle_beta 104.157955
_cell_angle_gamma 90.000000
_cell_volume 1055.045016
_symmetry_space_group_name_H-M "P 21/C"
_symmetry_group_IT_number 14
_symmetry_cell_setting 'monoclinic'
loop_
_space_group_symop_operation_xyz
x,y,z
-x,1/2+y,1/2-z
-x,-y,-z
x,1/2-y,1/2+z
loop_
_atom_site_type_symbol
_atom_site_label
_atom_site_fract_x
_atom_site_fract_y
_atom_site_fract_z
Si Si1 0.611557 0.375666 0.528424
Si Si2 0.286051 0.725268 0.203603
Si Si3 0.182161 0.048620 0.185824
Si Si4 0.759147 0.481731 0.679608
Si Si5 0.979862 0.368979 0.317244
Si Si6 0.737934 0.590026 0.874333
Si Si7 0.847481 0.759755 0.067234
O O1 0.634577 0.329439 0.708639
O O2 0.659671 0.428279 0.667851
O O3 0.408878 0.380546 0.332745
O O4 0.768232 0.368544 0.365177
O O5 0.336883 0.757147 0.455287
O O6 0.048084 0.727143 0.129693
O O7 0.306415 0.087902 0.367987
O O8 0.991542 0.027126 0.256306
O O9 0.083895 0.082610 0.959955
O O10 0.286977 0.002698 0.093966
O O11 0.715076 0.530003 0.820905
O O12 0.048599 0.383304 0.078746
O O13 0.077219 0.316715 0.411232
O O14 0.747727 0.750638 0.288307
#
# Coordination Sequence:
#
# PCOD9243477 Si02
#       7
#     4   4   4   4   4   4   4
#     4  11  22  42  67  97 129 177 224 279 346 407
#     4  10  21  43  67  99 136 175 233 287 341 414
#     4   9  20  39  62  92 136 169 222 277 334 412
#     4   9  20  40  61  94 133 173 221 273 339 412
#     4  10  22  41  63  91 130 175 219 277 343 405
#     4  11  23  40  64 100 131 173 224 279 340 414
#     4  10  20  37  67  97 128 173 235 283 339 416
#
# _framework density 26.539151
#
# number of rings (size 3 to 8) (size 9 to 14) (size 15 to 20)
#    0.000    2.000    2.857    1.714    2.000    1.714 
#    7.714    1.429    0.000    0.000    0.000    0.000 
#    0.000    0.000    0.000    0.000    0.000    0.000 
#
# Total GULP energy -156390.444981 kJ/mol
# GULP energy per Si atom -5585.373035 kJ/mol
# Density = 2.647875 g / cm^3
# Si number density = 26.539151 Si / 1000 Ang^3
#
#
#
# Elastic Constant Matrix: (Units=GPa)
#
#
# Indices 1 2 3 4 5 6 
#
# 1 87.5856 16.9253 24.0643 0.0000 -7.5456 0.0000
# 2 16.9253 136.2513 14.3015 0.0000 -3.0317 0.0000
# 3 24.0643 14.3015 87.9138 0.0000 -3.5453 0.0000
# 4 0.0000 0.0000 0.0000 45.1667 0.0000 4.0585
# 5 -7.5456 -3.0317 -3.5453 0.0000 34.4536 0.0000
# 6 0.0000 0.0000 0.0000 4.0585 0.0000 21.5977
#
#
#
# Elastic Compliance Matrix: (Units=1/GPa)
#
#
# Indices 1 2 3 4 5 6 
#
# 1 0.012729 -0.001193 -0.003195 0.000000 0.002354 0.000000
# 2 -0.001193 0.007589 -0.000895 0.000000 0.000314 0.000000
# 3 -0.003195 -0.000895 0.012415 0.000000 0.000499 0.000000
# 4 0.000000 0.000000 0.000000 0.022520 0.000000 -0.004232
# 5 0.002354 0.000314 0.000499 0.000000 0.029619 0.000000
# 6 0.000000 0.000000 0.000000 -0.004232 0.000000 0.047096
#
#
# Mechanical properties :
#
#
# Convention : Reuss Voigt Hill
#
# Bulk Modulus (GPa) = 45.11614 46.92589 46.02101
# Shear Modulus (GPa) = 33.35025 37.34092 35.34558
#
# Velocity S-wave (km/s) = 3.54876 3.75509 3.65338
# Velocity P-wave (km/s) = 5.81622 6.04326 5.93083
#
# Compressibility (1/GPa) = 0.02216502
#
# Stress axis : x y z
#
# Youngs Moduli (GPa) = 78.56273 131.77699 80.54707
#
# Poissons Ratio (x) = 0.15727 0.25736
# Poissons Ratio (y) = 0.09376 0.07210
# Poissons Ratio (z) = 0.25102 0.11796
#
# Static dielectric constant tensor:
#      x y z
#    x 2.240720 0.000000 -0.169230 
#    y 0.000000 1.999970 0.000000 
#    z -0.169230 0.000000 2.364360 
# 
# From -- ./inp_files/2145.got.cif
#   From: 2010.05.17/outbox.cif.g08.bks.cpg/sg14_2_cif.got.tgz:2145.got - 2010.06.03 17:49:19.
