data_PCOD9243029
_publ_section_title
;
Structure prediction by ZEFSAII (Michael W. Deem and Ramdas Pophale) SiO2 
 PCOD9243029
Probable space group: P 21/C
;
_chemical_formula_sum "Si O2"
_cell_formula_units_Z 24
_cell_length_a 10.766957
_cell_length_b 18.116262
_cell_length_c 5.437541
_cell_angle_alpha 90.000000
_cell_angle_beta 63.691067
_cell_angle_gamma 90.000000
_cell_volume 950.767581
_symmetry_space_group_name_H-M "P 21/C"
_symmetry_group_IT_number 14
_symmetry_cell_setting 'monoclinic'
loop_
_space_group_symop_operation_xyz
x,y,z
-x,1/2+y,1/2-z
-x,-y,-z
x,1/2-y,1/2+z
loop_
_atom_site_type_symbol
_atom_site_label
_atom_site_fract_x
_atom_site_fract_y
_atom_site_fract_z
Si Si1 0.451079 0.267049 0.110674
Si Si2 0.511850 0.418193 0.881636
Si Si3 0.021847 0.582731 0.865338
Si Si4 0.790562 0.028881 0.149177
Si Si5 0.768715 0.290077 0.268218
Si Si6 0.742119 0.562686 0.194741
O O1 0.375607 0.244303 0.420864
O O2 0.471676 0.354503 0.102300
O O3 0.598895 0.223037 0.937136
O O4 0.674988 0.408298 0.709432
O O5 0.500000 0.500000 0.000000
O O6 0.414263 0.413121 0.728862
O O7 0.062939 0.565700 0.546002
O O8 0.151100 0.631785 0.843767
O O9 0.872101 0.617631 0.047736
O O10 0.000000 0.500000 0.000000
O O11 0.754092 0.973553 0.953425
O O12 0.769819 0.991291 0.430772
O O13 0.814336 0.256557 0.489106
#
# Coordination Sequence:
#
# PCOD9243029 Si02
#       6
#     4   4   4   4   4   4
#     4  10  22  39  61  89 123 165 209 256 312 374
#     4  10  22  40  65  95 128 168 215 263 311 376
#     4  10  22  40  65  95 128 168 215 263 311 376
#     4  10  20  36  60  90 126 162 206 260 312 366
#     4  10  22  39  61  89 123 165 209 256 312 374
#     4  10  22  36  56  92 124 158 206 268 316 356
#
# _framework density 25.242764000000001
#
# number of rings (size 3 to 8) (size 9 to 14) (size 15 to 20)
#    0.000    2.000    0.000    3.000    0.000   21.333 
#    0.000    1.667    0.000    0.000    0.000    0.000 
#    0.000    0.000    0.000    0.000    0.000    0.000 
#
# Total GULP energy -133680.194922 kJ/mol
# GULP energy per Si atom -5570.008122 kJ/mol
# Density = 2.518531 g / cm^3
# Si number density = 25.242764 Si / 1000 Ang^3
#
#
#
# Elastic Constant Matrix: (Units=GPa)
#
#
# Indices 1 2 3 4 5 6 
#
# 1 75.6271 14.9462 22.6459 0.0000 19.0423 0.0000
# 2 14.9462 111.8448 33.2591 0.0000 10.7034 0.0000
# 3 22.6459 33.2591 140.4956 0.0000 27.4933 0.0000
# 4 0.0000 0.0000 0.0000 29.9912 0.0000 1.6585
# 5 19.0423 10.7034 27.4933 0.0000 27.5013 0.0000
# 6 0.0000 0.0000 0.0000 1.6585 0.0000 38.8843
#
#
#
# Elastic Compliance Matrix: (Units=1/GPa)
#
#
# Indices 1 2 3 4 5 6 
#
# 1 0.016161 -0.001067 -0.000303 0.000000 -0.010472 0.000000
# 2 -0.001067 0.009763 -0.001915 0.000000 -0.001146 0.000000
# 3 -0.000303 -0.001915 0.009241 0.000000 -0.008283 0.000000
# 4 0.000000 0.000000 0.000000 0.033422 0.000000 -0.001426
# 5 -0.010472 -0.001146 -0.008283 0.000000 0.052339 0.000000
# 6 0.000000 0.000000 0.000000 -0.001426 0.000000 0.025778
#
#
# Mechanical properties :
#
#
# Convention : Reuss Voigt Hill
#
# Bulk Modulus (GPa) = 34.97218 52.18553 43.57886
# Shear Modulus (GPa) = 30.71142 36.41643 33.56392
#
# Velocity S-wave (km/s) = 3.49182 3.80234 3.65039
# Velocity P-wave (km/s) = 5.49013 6.32419 5.92186
#
# Compressibility (1/GPa) = 0.02859416
#
# Stress axis : x y z
#
# Youngs Moduli (GPa) = 61.87658 102.43088 108.21748
#
# Poissons Ratio (x) = 0.10934 0.03280
# Poissons Ratio (y) = 0.06605 0.20721
# Poissons Ratio (z) = 0.01875 0.19613
#
# Static dielectric constant tensor:
#      x y z
#    x 2.212930 0.000000 -0.046930 
#    y 0.000000 2.067130 0.000000 
#    z -0.046930 0.000000 2.070800 
# 
# From -- ./inp_files/2651.got.cif
#   From: 2010.05.17/outbox.cif.g08.bks.cpg/sg14_2_cif.got.tgz:2651.got - 2010.06.03 17:49:19.
