data_PCOD9243657
_publ_section_title
;
Structure prediction by ZEFSAII (Michael W. Deem and Ramdas Pophale) SiO2 
 PCOD9243657
Probable space group: P 21/C
;
_chemical_formula_sum "Si O2"
_cell_formula_units_Z 22
_cell_length_a 10.014142
_cell_length_b 20.955434
_cell_length_c 5.134752
_cell_angle_alpha 90.000000
_cell_angle_beta 120.153680
_cell_angle_gamma 90.000000
_cell_volume 931.721000
_symmetry_space_group_name_H-M "P 21/C"
_symmetry_group_IT_number 14
_symmetry_cell_setting 'monoclinic'
loop_
_space_group_symop_operation_xyz
x,y,z
-x,1/2+y,1/2-z
-x,-y,-z
x,1/2-y,1/2+z
loop_
_atom_site_type_symbol
_atom_site_label
_atom_site_fract_x
_atom_site_fract_y
_atom_site_fract_z
Si Si1 0.309320 0.074332 0.409066
Si Si2 0.575336 0.062679 0.306027
Si Si3 0.763741 0.092486 0.992695
Si Si4 0.937941 0.216232 0.345629
Si Si5 0.000000 0.500000 0.500000
Si Si6 0.690490 0.712027 0.837390
O O1 0.401583 0.076467 0.224941
O O2 0.337389 0.140731 0.585035
O O3 0.384733 0.012572 0.624522
O O4 0.130131 0.056710 0.195910
O O5 0.681950 0.095160 0.633135
O O6 0.638156 0.084625 0.093451
O O7 0.876480 0.031865 0.082747
O O8 0.863689 0.153007 0.162675
O O9 0.890583 0.228837 0.595311
O O10 0.123135 0.214166 0.508820
O O11 0.634194 0.762314 0.002890
#
# Coordination Sequence:
#
# PCOD9243657 Si02
#       6
#     4   4   4   4   2   4
#     4  10  22  45  63 101 127 176 212 276 315 405
#     4  10  25  40  68  90 142 163 210 267 346 361
#     4  11  22  43  60 100 118 174 208 267 319 398
#     4  10  20  38  62  90 127 165 211 269 317 376
#     4  10  22  38  70  88 122 158 222 256 314 366
#     4  10  22  39  64  93 126 168 213 270 318 375
#
# _framework density 23.612219
#
# number of rings (size 3 to 8) (size 9 to 14) (size 15 to 20)
#    0.000    1.818    1.818    1.091    0.000   13.818 
#    3.273    5.455    0.000    0.000    0.000    0.000 
#    0.000    0.000    0.000    0.000    0.000    0.000 
#
# Total GULP energy -122525.373613 kJ/mol
# GULP energy per Si atom -5569.335164 kJ/mol
# Density = 2.355848 g / cm^3
# Si number density = 23.612219 Si / 1000 Ang^3
#
#
#
# Elastic Constant Matrix: (Units=GPa)
#
#
# Indices 1 2 3 4 5 6 
#
# 1 95.8921 3.9888 19.3722 0.0000 -22.0540 0.0000
# 2 3.9888 59.5828 -2.5184 0.0000 -4.8367 0.0000
# 3 19.3722 -2.5184 57.1981 0.0000 -16.7246 0.0000
# 4 0.0000 0.0000 0.0000 26.1603 0.0000 -0.0415
# 5 -22.0540 -4.8367 -16.7246 0.0000 16.9178 0.0000
# 6 0.0000 0.0000 0.0000 -0.0415 0.0000 33.6631
#
#
#
# Elastic Compliance Matrix: (Units=1/GPa)
#
#
# Indices 1 2 3 4 5 6 
#
# 1 0.014956 0.000724 0.001024 0.000000 0.020715 0.000000
# 2 0.000724 0.017613 0.003205 0.000000 0.009147 0.000000
# 3 0.001024 0.003205 0.025228 0.000000 0.027190 0.000000
# 4 0.000000 0.000000 0.000000 0.038226 0.000000 0.000047
# 5 0.020715 0.009147 0.027190 0.000000 0.115608 0.000000
# 6 0.000000 0.000000 0.000000 0.000047 0.000000 0.029706
#
#
# Mechanical properties :
#
#
# Convention : Reuss Voigt Hill
#
# Bulk Modulus (GPa) = 14.77085 28.26202 21.51644
# Shear Modulus (GPa) = 19.68511 28.13695 23.91103
#
# Velocity S-wave (km/s) = 2.89049 3.45574 3.18568
# Velocity P-wave (km/s) = 4.17242 5.28375 4.76063
#
# Compressibility (1/GPa) = 0.06770090
#
# Stress axis : x y z
#
# Youngs Moduli (GPa) = 66.86428 56.77648 39.63864
#
# Poissons Ratio (x) = -0.04108 -0.04057
# Poissons Ratio (y) = -0.04838 -0.12704
# Poissons Ratio (z) = -0.06844 -0.18197
#
# Static dielectric constant tensor:
#      x y z
#    x 1.851490 0.000000 0.029280 
#    y 0.000000 1.915350 0.000000 
#    z 0.029280 0.000000 1.945540 
# 
# From -- ./inp_files/1405.got.cif
#   From: 2010.05.17/outbox.cif.g08.bks.cpg/sg14_1_cif.got.tgz:1405.got - 2010.06.03 17:49:19.
