data_PCOD9243167
_publ_section_title
;
Structure prediction by ZEFSAII (Michael W. Deem and Ramdas Pophale) SiO2 
 PCOD9243167
Probable space group: P 21/C
;
_chemical_formula_sum "Si O2"
_cell_formula_units_Z 24
_cell_length_a 14.710700
_cell_length_b 11.067896
_cell_length_c 21.246894
_cell_angle_alpha 90.000000
_cell_angle_beta 156.624558
_cell_angle_gamma 90.000000
_cell_volume 1372.510602
_symmetry_space_group_name_H-M "P 21/C"
_symmetry_group_IT_number 14
_symmetry_cell_setting 'monoclinic'
loop_
_space_group_symop_operation_xyz
x,y,z
-x,1/2+y,1/2-z
-x,-y,-z
x,1/2-y,1/2+z
loop_
_atom_site_type_symbol
_atom_site_label
_atom_site_fract_x
_atom_site_fract_y
_atom_site_fract_z
Si Si1 0.755559 0.694007 0.499652
Si Si2 0.874087 0.685804 0.944750
Si Si3 0.472741 0.406302 0.067599
Si Si4 0.505366 0.649978 0.149611
Si Si5 0.785031 0.118519 0.649509
Si Si6 0.677308 0.416837 0.831009
O O1 0.868596 0.741681 0.506723
O O2 0.625707 0.805225 0.449936
O O3 0.561437 0.597869 0.357593
O O4 0.953194 0.645946 0.670732
O O5 0.712702 0.759778 0.794256
O O6 0.762387 0.554432 0.885859
O O7 0.125566 0.662137 0.077088
O O8 0.588480 0.516493 0.180032
O O9 0.640271 0.357165 0.120642
O O10 0.266894 0.478575 0.901423
O O11 0.370099 0.630835 0.128778
O O12 0.332016 0.687650 0.983585
#
# Coordination Sequence:
#
# PCOD9243167 Si02
#       6
#     4   4   4   4   4   4
#     4  11  20  36  58  82 110 149 178 229 279 323
#     4  10  20  37  55  79 116 140 184 227 273 327
#     4   9  19  39  54  80 113 136 188 226 267 329
#     4   9  19  38  56  79 107 148 178 227 273 319
#     4   9  20  36  57  80 109 146 178 228 274 318
#     4  10  21  36  55  82 111 146 180 229 274 327
#
# _framework density 17.486204000000001
#
# number of rings (size 3 to 8) (size 9 to 14) (size 15 to 20)
#    1.000    1.333    1.667    1.000    0.000    2.667 
#    6.000    2.500    0.000    7.000    0.000    0.000 
#    0.000    0.000    0.000    0.000    0.000    0.000 
#
# Total GULP energy -133649.571345 kJ/mol
# GULP energy per Si atom -5568.732139 kJ/mol
# Density = 1.744640 g / cm^3
# Si number density = 17.486204 Si / 1000 Ang^3
#
#
#
# Elastic Constant Matrix: (Units=GPa)
#
#
# Indices 1 2 3 4 5 6 
#
# 1 57.7036 -4.0164 19.0491 0.0000 -6.9608 0.0000
# 2 -4.0164 23.1698 22.3207 0.0000 3.1748 0.0000
# 3 19.0491 22.3207 89.2083 0.0000 -17.3776 0.0000
# 4 0.0000 0.0000 0.0000 22.8767 0.0000 -4.0176
# 5 -6.9608 3.1748 -17.3776 0.0000 15.3425 0.0000
# 6 0.0000 0.0000 0.0000 -4.0176 0.0000 14.7068
#
#
#
# Elastic Compliance Matrix: (Units=1/GPa)
#
#
# Indices 1 2 3 4 5 6 
#
# 1 0.020317 0.010651 -0.007233 0.000000 -0.001179 0.000000
# 2 0.010651 0.083392 -0.032796 0.000000 -0.049570 0.000000
# 3 -0.007233 -0.032796 0.027770 0.000000 0.034958 0.000000
# 4 0.000000 0.000000 0.000000 0.045916 0.000000 0.012543
# 5 -0.001179 -0.049570 0.034958 0.000000 0.114496 0.000000
# 6 0.000000 0.000000 0.000000 0.012543 0.000000 0.071422
#
#
# Mechanical properties :
#
#
# Convention : Reuss Voigt Hill
#
# Bulk Modulus (GPa) = 13.75070 27.19873 20.47472
# Shear Modulus (GPa) = 11.20299 19.43375 15.31837
#
# Velocity S-wave (km/s) = 2.53390 3.33735 2.96298
# Velocity P-wave (km/s) = 4.05484 5.51713 4.84151
#
# Compressibility (1/GPa) = 0.07272359
#
# Stress axis : x y z
#
# Youngs Moduli (GPa) = 49.22013 11.99153 36.01025
#
# Poissons Ratio (x) = -0.12773 0.26047
# Poissons Ratio (y) = -0.52427 1.18099
# Poissons Ratio (z) = 0.35602 0.39327
#
# Static dielectric constant tensor:
#      x y z
#    x 1.594410 0.000000 -0.012370 
#    y 0.000000 1.586930 0.000000 
#    z -0.012370 0.000000 1.580260 
# 
# From -- ./inp_files/24173.got.cif
#   From: 2010.05.17/outbox.cif.g08.bks.cpg/sg14_13_cif.got.tgz:24173.got - 2010.06.03 17:49:19.
