data_PCOD9243213
_publ_section_title
;
Structure prediction by ZEFSAII (Michael W. Deem and Ramdas Pophale) SiO2 
 PCOD9243213
Probable space group: P 21/C
;
_chemical_formula_sum "Si O2"
_cell_formula_units_Z 28
_cell_length_a 25.917392
_cell_length_b 5.372893
_cell_length_c 29.948176
_cell_angle_alpha 90.000000
_cell_angle_beta 19.208292
_cell_angle_gamma 90.000000
_cell_volume 1372.050641
_symmetry_space_group_name_H-M "P 21/C"
_symmetry_group_IT_number 14
_symmetry_cell_setting 'monoclinic'
loop_
_space_group_symop_operation_xyz
x,y,z
-x,1/2+y,1/2-z
-x,-y,-z
x,1/2-y,1/2+z
loop_
_atom_site_type_symbol
_atom_site_label
_atom_site_fract_x
_atom_site_fract_y
_atom_site_fract_z
Si Si1 0.987606 0.839173 0.903614
Si Si2 0.908520 0.511222 0.770537
Si Si3 0.452191 0.796734 0.348711
Si Si4 0.206138 0.507290 0.592078
Si Si5 0.303216 0.638209 0.316343
Si Si6 0.276926 0.034484 0.416836
Si Si7 0.094328 0.751948 0.409308
O O1 0.102180 0.749694 0.849142
O O2 0.898671 0.629862 0.946991
O O3 0.065053 0.016984 0.804056
O O4 0.840797 0.964142 0.049161
O O5 0.826808 0.252502 0.851266
O O6 0.076526 0.508169 0.658535
O O7 0.816991 0.751997 0.862799
O O8 0.377415 0.553394 0.431623
O O9 0.587919 0.740537 0.201457
O O10 0.540176 0.974683 0.311377
O O11 0.310212 0.924207 0.438000
O O12 0.250874 0.745268 0.311390
O O13 0.308393 0.843082 0.350960
O O14 0.000000 0.500000 0.500000
O O15 0.000000 0.000000 0.500000
#
# Coordination Sequence:
#
# PCOD9243213 Si02
#       7
#     4   4   4   4   4   4   4
#     4  10  22  36  61  86 120 151 205 258 296 366
#     4  10  23  38  59  84 110 165 203 248 298 354
#     4  11  23  34  55  87 124 161 193 249 308 383
#     4  10  24  39  56  81 122 157 203 243 300 366
#     4  10  21  36  56  88 121 157 195 241 321 368
#     4  11  21  33  57  89 120 157 195 245 318 371
#     4  10  20  37  58  87 121 155 195 253 308 356
#
# _framework density 20.407408
#
# number of rings (size 3 to 8) (size 9 to 14) (size 15 to 20)
#    0.000    1.714    2.857    0.857   12.000    0.000 
#    0.000    0.000    0.000    1.714    0.000    0.000 
#    0.000    0.000    0.000    0.000    0.000    0.000 
#
# Total GULP energy -156365.641718 kJ/mol
# GULP energy per Si atom -5584.487204 kJ/mol
# Density = 2.036096 g / cm^3
# Si number density = 20.407408 Si / 1000 Ang^3
#
#
#
# Elastic Constant Matrix: (Units=GPa)
#
#
# Indices 1 2 3 4 5 6 
#
# 1 161.6851 46.5057 35.9134 0.0000 -3.5166 0.0000
# 2 46.5057 101.1296 25.3179 0.0000 1.6071 0.0000
# 3 35.9134 25.3179 57.3209 0.0000 6.7634 0.0000
# 4 0.0000 0.0000 0.0000 31.9754 0.0000 -0.7517
# 5 -3.5166 1.6071 6.7634 0.0000 17.2007 0.0000
# 6 0.0000 0.0000 0.0000 -0.7517 0.0000 21.7985
#
#
#
# Elastic Compliance Matrix: (Units=1/GPa)
#
#
# Indices 1 2 3 4 5 6 
#
# 1 0.007968 -0.002660 -0.004235 0.000000 0.003543 0.000000
# 2 -0.002660 0.012020 -0.003613 0.000000 -0.000246 0.000000
# 3 -0.004235 -0.003613 0.022816 0.000000 -0.009500 0.000000
# 4 0.000000 0.000000 0.000000 0.031299 0.000000 0.001079
# 5 0.003543 -0.000246 -0.009500 0.000000 0.062620 0.000000
# 6 0.000000 0.000000 0.000000 0.001079 0.000000 0.045912
#
#
# Mechanical properties :
#
#
# Convention : Reuss Voigt Hill
#
# Bulk Modulus (GPa) = 45.90008 59.51219 52.70613
# Shear Modulus (GPa) = 23.70629 28.35484 26.03056
#
# Velocity S-wave (km/s) = 3.41200 3.73156 3.57535
# Velocity P-wave (km/s) = 6.16952 6.91313 6.55189
#
# Compressibility (1/GPa) = 0.02178645
#
# Stress axis : x y z
#
# Youngs Moduli (GPa) = 125.50590 83.19386 43.82890
#
# Poissons Ratio (x) = 0.22130 0.18562
# Poissons Ratio (y) = 0.33386 0.15837
# Poissons Ratio (z) = 0.53154 0.30062
#
# Static dielectric constant tensor:
#      x y z
#    x 1.734520 0.000000 -0.004370 
#    y 0.000000 1.793270 0.000000 
#    z -0.004370 0.000000 1.740090 
# 
# From -- ./inp_files/80734.got.cif
#   From: 2010.05.17/outbox.cif.g08.bks.cpg/sg14_41_cif.got.tgz:80734.got - 2010.06.03 17:49:19.
