data_PCOD9243983
_publ_section_title
;
Structure prediction by ZEFSAII (Michael W. Deem and Ramdas Pophale) SiO2 
 PCOD9243983
Probable space group: P 21/C
;
_chemical_formula_sum "Si O2"
_cell_formula_units_Z 24
_cell_length_a 15.465677
_cell_length_b 10.302444
_cell_length_c 5.512678
_cell_angle_alpha 90.000000
_cell_angle_beta 100.909433
_cell_angle_gamma 90.000000
_cell_volume 862.484456
_symmetry_space_group_name_H-M "P 21/C"
_symmetry_group_IT_number 14
_symmetry_cell_setting 'monoclinic'
loop_
_space_group_symop_operation_xyz
x,y,z
-x,1/2+y,1/2-z
-x,-y,-z
x,1/2-y,1/2+z
loop_
_atom_site_type_symbol
_atom_site_label
_atom_site_fract_x
_atom_site_fract_y
_atom_site_fract_z
Si Si1 0.995449 0.083201 0.246282
Si Si2 0.717156 0.431084 0.805153
Si Si3 0.539641 0.333744 0.887009
Si Si4 0.181128 0.094627 0.319717
Si Si5 0.643445 0.820357 0.817357
Si Si6 0.188669 0.842049 0.032176
O O1 0.087287 0.162747 0.292959
O O2 0.903423 0.160364 0.170692
O O3 0.000000 0.000000 0.500000
O O4 0.000000 0.000000 0.000000
O O5 0.624801 0.421567 0.882207
O O6 0.723297 0.415836 0.523268
O O7 0.770491 0.558721 0.905682
O O8 0.770682 0.296550 0.884918
O O9 0.545233 0.232016 0.657539
O O10 0.445120 0.402211 0.791554
O O11 0.254281 0.150420 0.182086
O O12 0.163574 0.946254 0.223213
O O13 0.630937 0.714239 0.592643
#
# Coordination Sequence:
#
# PCOD9243983 Si02
#       6
#     4   4   4   4   4   4
#     4  10  22  40  60  88 126 166 206 258 311 373
#     4  12  21  37  67  97 133 167 209 268 333 387
#     4  10  20  39  63  91 129 169 214 268 318 377
#     4  11  24  42  66  93 132 171 216 269 322 387
#     4  10  25  46  65  90 128 177 225 267 317 380
#     4  11  22  39  62  98 132 168 211 263 330 387
#
# _framework density 27.826587
#
# number of rings (size 3 to 8) (size 9 to 14) (size 15 to 20)
#    0.000    1.333    5.000    0.000    2.333    0.667 
#    3.000    0.833    0.000    0.000    0.000    0.000 
#    0.000    0.000    0.000    0.000    0.000    0.000 
#
# Total GULP energy -133731.880942 kJ/mol
# GULP energy per Si atom -5572.161706 kJ/mol
# Density = 2.776325 g / cm^3
# Si number density = 27.826587 Si / 1000 Ang^3
#
#
#
# Elastic Constant Matrix: (Units=GPa)
#
#
# Indices 1 2 3 4 5 6 
#
# 1 223.0013 25.3081 31.0874 0.0000 10.8643 0.0000
# 2 25.3081 58.8201 28.0032 0.0000 5.0886 0.0000
# 3 31.0874 28.0032 118.1417 0.0000 -3.1963 0.0000
# 4 0.0000 0.0000 0.0000 44.2394 0.0000 -14.2799
# 5 10.8643 5.0886 -3.1963 0.0000 46.2394 0.0000
# 6 0.0000 0.0000 0.0000 -14.2799 0.0000 13.9991
#
#
#
# Elastic Compliance Matrix: (Units=1/GPa)
#
#
# Indices 1 2 3 4 5 6 
#
# 1 0.004841 -0.001549 -0.000935 0.000000 -0.001032 0.000000
# 2 -0.001549 0.019935 -0.004375 0.000000 -0.002132 0.000000
# 3 -0.000935 -0.004375 0.009785 0.000000 0.001377 0.000000
# 4 0.000000 0.000000 0.000000 0.033701 0.000000 0.034377
# 5 -0.001032 -0.002132 0.001377 0.000000 0.022199 0.000000
# 6 0.000000 0.000000 0.000000 0.034377 0.000000 0.106500
#
#
# Mechanical properties :
#
#
# Convention : Reuss Voigt Hill
#
# Bulk Modulus (GPa) = 47.97762 63.19562 55.58662
# Shear Modulus (GPa) = 22.97539 41.93320 32.45430
#
# Velocity S-wave (km/s) = 2.87655 3.88615 3.41883
# Velocity P-wave (km/s) = 5.32089 6.54951 5.96690
#
# Compressibility (1/GPa) = 0.02084305
#
# Stress axis : x y z
#
# Youngs Moduli (GPa) = 206.58776 50.16362 102.20043
#
# Poissons Ratio (x) = 0.07768 0.09551
# Poissons Ratio (y) = 0.31991 0.44716
# Poissons Ratio (z) = 0.19307 0.21948
#
# Static dielectric constant tensor:
#      x y z
#    x 2.292270 0.000000 0.001000 
#    y 0.000000 2.537420 0.000000 
#    z 0.001000 0.000000 2.771000 
# 
# From -- ./inp_files/3588.got.cif
#   From: 2010.05.17/outbox.cif.g08.bks.cpg/sg14_2_cif.got.tgz:3588.got - 2010.06.03 17:49:19.
