data_PCOD9243261
_publ_section_title
;
Structure prediction by ZEFSAII (Michael W. Deem and Ramdas Pophale) SiO2 
 PCOD9243261
Probable space group: P 21/C
;
_chemical_formula_sum "Si O2"
_cell_formula_units_Z 32
_cell_length_a 18.350078
_cell_length_b 15.309423
_cell_length_c 12.719808
_cell_angle_alpha 90.000000
_cell_angle_beta 20.843816
_cell_angle_gamma 90.000000
_cell_volume 1271.480739
_symmetry_space_group_name_H-M "P 21/C"
_symmetry_group_IT_number 14
_symmetry_cell_setting 'monoclinic'
loop_
_space_group_symop_operation_xyz
x,y,z
-x,1/2+y,1/2-z
-x,-y,-z
x,1/2-y,1/2+z
loop_
_atom_site_type_symbol
_atom_site_label
_atom_site_fract_x
_atom_site_fract_y
_atom_site_fract_z
Si Si1 0.168599 0.823892 0.950571
Si Si2 0.297983 0.665569 0.912530
Si Si3 0.590805 0.256970 0.548107
Si Si4 0.757162 0.681920 0.135718
Si Si5 0.743704 0.508767 0.586776
Si Si6 0.149316 0.353429 0.395475
Si Si7 0.564619 0.933281 0.659080
Si Si8 0.777254 0.002900 0.585434
O O1 0.271913 0.760576 0.896588
O O2 0.255788 0.921734 0.840373
O O3 0.938418 0.826880 0.305132
O O4 0.210965 0.778661 0.781955
O O5 0.449597 0.686603 0.804490
O O6 0.087549 0.633813 0.253391
O O7 0.306180 0.601399 0.800283
O O8 0.419653 0.270529 0.690773
O O9 0.586695 0.354011 0.603549
O O10 0.816547 0.750269 0.144507
O O11 0.723716 0.583911 0.223405
O O12 0.728133 0.594685 0.678255
O O13 0.572947 0.495187 0.728783
O O14 0.978443 0.510068 0.229638
O O15 0.243621 0.394245 0.164328
O O16 0.668170 0.976895 0.620929
#
# Coordination Sequence:
#
# PCOD9243261 Si02
#       8
#     4   4   4   4   4   4   4   4
#     4  10  21  41  61  86 129 158 201 254 310 361
#     4  10  22  39  62  90 119 167 197 253 316 362
#     4  11  23  36  62  88 121 161 205 251 304 374
#     4   9  21  40  57  88 119 162 198 258 298 365
#     4  10  20  37  59  91 123 158 193 266 310 352
#     4  10  22  36  63  89 122 156 205 254 316 359
#     4  11  22  38  59  95 119 157 211 252 305 377
#     4   9  22  38  59  88 126 156 209 249 306 369
#
# _framework density 25.167507000000001
#
# number of rings (size 3 to 8) (size 9 to 14) (size 15 to 20)
#    0.000    2.000    1.250    1.125    8.750    1.000 
#    0.000    2.500    0.000    6.750    0.000    0.000 
#    0.000    0.000    0.000    0.000    0.000    0.000 
#
# Total GULP energy -178528.471303 kJ/mol
# GULP energy per Si atom -5579.014728 kJ/mol
# Density = 2.511022 g / cm^3
# Si number density = 25.167507 Si / 1000 Ang^3
#
#
#
# Elastic Constant Matrix: (Units=GPa)
#
#
# Indices 1 2 3 4 5 6 
#
# 1 79.3591 -38.5317 -9.7072 0.0000 -4.4096 0.0000
# 2 -38.5317 188.0922 6.5926 0.0000 -11.6761 0.0000
# 3 -9.7072 6.5926 98.6728 0.0000 7.7327 0.0000
# 4 0.0000 0.0000 0.0000 19.1869 0.0000 -12.7584
# 5 -4.4096 -11.6761 7.7327 0.0000 24.8276 0.0000
# 6 0.0000 0.0000 0.0000 -12.7584 0.0000 37.6791
#
#
#
# Elastic Compliance Matrix: (Units=1/GPa)
#
#
# Indices 1 2 3 4 5 6 
#
# 1 0.014459 0.003164 0.000916 0.000000 0.003771 0.000000
# 2 0.003164 0.006202 -0.000385 0.000000 0.003598 0.000000
# 3 0.000916 -0.000385 0.010508 0.000000 -0.003291 0.000000
# 4 0.000000 0.000000 0.000000 0.067264 0.000000 0.022776
# 5 0.003771 0.003598 -0.003291 0.000000 0.043665 0.000000
# 6 0.000000 0.000000 0.000000 0.022776 0.000000 0.034252
#
#
# Mechanical properties :
#
#
# Convention : Reuss Voigt Hill
#
# Bulk Modulus (GPa) = 25.93551 31.42572 28.68062
# Shear Modulus (GPa) = 27.50078 43.52341 35.51210
#
# Velocity S-wave (km/s) = 3.30920 4.16306 3.76044
# Velocity P-wave (km/s) = 4.99286 5.96840 5.50229
#
# Compressibility (1/GPa) = 0.03855717
#
# Stress axis : x y z
#
# Youngs Moduli (GPa) = 69.16269 161.24971 95.16346
#
# Poissons Ratio (x) = -0.51018 -0.08712
# Poissons Ratio (y) = -0.21883 0.03665
# Poissons Ratio (z) = -0.06332 0.06209
#
# Static dielectric constant tensor:
#      x y z
#    x 1.987420 0.000000 0.044370 
#    y 0.000000 2.035850 0.000000 
#    z 0.044370 0.000000 2.034810 
# 
# From -- ./inp_files/50623.got.cif
#   From: 2010.05.17/outbox.cif.g08.bks.cpg/sg14_26_cif.got.tgz:50623.got - 2010.06.03 17:49:19.
