data_PCOD9243595
_publ_section_title
;
Structure prediction by ZEFSAII (Michael W. Deem and Ramdas Pophale) SiO2 
 PCOD9243595
Probable space group: P 21/C
;
_chemical_formula_sum "Si O2"
_cell_formula_units_Z 32
_cell_length_a 17.714248
_cell_length_b 14.401109
_cell_length_c 17.870108
_cell_angle_alpha 90.000000
_cell_angle_beta 157.744515
_cell_angle_gamma 90.000000
_cell_volume 1726.568531
_symmetry_space_group_name_H-M "P 21/C"
_symmetry_group_IT_number 14
_symmetry_cell_setting 'monoclinic'
loop_
_space_group_symop_operation_xyz
x,y,z
-x,1/2+y,1/2-z
-x,-y,-z
x,1/2-y,1/2+z
loop_
_atom_site_type_symbol
_atom_site_label
_atom_site_fract_x
_atom_site_fract_y
_atom_site_fract_z
Si Si1 0.979143 0.138593 0.450590
Si Si2 0.027715 0.349896 0.486276
Si Si3 0.632951 0.983237 0.912874
Si Si4 0.724966 0.492005 0.016905
Si Si5 0.727042 0.984424 0.691756
Si Si6 0.342214 0.001712 0.787522
Si Si7 0.962446 0.126066 0.259484
Si Si8 0.044052 0.336671 0.323544
O O1 0.981456 0.246873 0.471704
O O2 0.818831 0.081121 0.351198
O O3 0.916983 0.130394 0.306200
O O4 0.198775 0.092388 0.658790
O O5 0.846686 0.422806 0.324445
O O6 0.080629 0.342375 0.446801
O O7 0.195532 0.397845 0.689917
O O8 0.474402 0.991100 0.834532
O O9 0.501487 0.982288 0.717107
O O10 0.772646 0.891831 0.045962
O O11 0.783869 0.070516 0.055514
O O12 0.752368 0.527687 0.126354
O O13 0.844824 0.395197 0.122877
O O14 0.841065 0.564207 0.071104
O O15 0.500000 0.000000 0.500000
O O16 0.500000 0.000000 0.000000
O O17 0.007314 0.229322 0.271503
#
# Coordination Sequence:
#
# PCOD9243595 Si02
#       8
#     4   4   4   4   4   4   4   4
#     4  10  21  39  62  86 119 154 198 243 295 345
#     4   9  20  40  61  85 116 156 192 243 293 346
#     4  11  21  38  62  86 120 156 200 239 297 351
#     4  10  21  38  58  87 117 156 189 242 294 349
#     4  10  20  38  61  86 117 150 195 241 296 346
#     4  11  22  38  61  87 118 157 195 245 292 346
#     4  10  20  40  60  83 117 155 197 244 288 350
#     4   9  21  38  62  85 117 154 197 240 292 345
#
# _framework density 18.533871999999999
#
# number of rings (size 3 to 8) (size 9 to 14) (size 15 to 20)
#    0.000    2.000    2.500    0.750    0.000    3.000 
#    9.000    0.000    0.000    0.000    0.000    0.000 
#    0.000    0.000    0.000    0.000    0.000    0.000 
#
# Total GULP energy -178550.049516 kJ/mol
# GULP energy per Si atom -5579.689047 kJ/mol
# Density = 1.849169 g / cm^3
# Si number density = 18.533872 Si / 1000 Ang^3
#
#
#
# Elastic Constant Matrix: (Units=GPa)
#
#
# Indices 1 2 3 4 5 6 
#
# 1 29.4986 31.9394 19.0604 0.0000 12.7084 0.0000
# 2 31.9394 134.0707 43.9138 0.0000 -0.2494 0.0000
# 3 19.0604 43.9138 122.1783 0.0000 -3.1640 0.0000
# 4 0.0000 0.0000 0.0000 11.2994 0.0000 -6.5388
# 5 12.7084 -0.2494 -3.1640 0.0000 29.3884 0.0000
# 6 0.0000 0.0000 0.0000 -6.5388 0.0000 22.1982
#
#
#
# Elastic Compliance Matrix: (Units=1/GPa)
#
#
# Indices 1 2 3 4 5 6 
#
# 1 0.064835 -0.013535 -0.005995 0.000000 -0.028797 0.000000
# 2 -0.013535 0.011282 -0.001794 0.000000 0.005756 0.000000
# 3 -0.005995 -0.001794 0.009859 0.000000 0.003639 0.000000
# 4 0.000000 0.000000 0.000000 0.106686 0.000000 0.031426
# 5 -0.028797 0.005756 0.003639 0.000000 0.046920 0.000000
# 6 0.000000 0.000000 0.000000 0.031426 0.000000 0.054306
#
#
# Mechanical properties :
#
#
# Convention : Reuss Voigt Hill
#
# Bulk Modulus (GPa) = 23.08085 52.84164 37.96124
# Shear Modulus (GPa) = 14.24583 25.29947 19.77265
#
# Velocity S-wave (km/s) = 2.77544 3.69865 3.26979
# Velocity P-wave (km/s) = 4.76981 6.84199 5.89762
#
# Compressibility (1/GPa) = 0.04332596
#
# Stress axis : x y z
#
# Youngs Moduli (GPa) = 15.42372 88.63934 101.42806
#
# Poissons Ratio (x) = 1.19977 0.60810
# Poissons Ratio (y) = 0.20877 0.18199
# Poissons Ratio (z) = 0.09247 0.15904
#
# Static dielectric constant tensor:
#      x y z
#    x 1.600410 0.000000 -0.003550 
#    y 0.000000 1.605470 0.000000 
#    z -0.003550 0.000000 1.621800 
# 
# From -- ./inp_files/60740.got.cif
#   From: 2010.05.17/outbox.cif.g08.bks.cpg/sg14_31_cif.got.tgz:60740.got - 2010.06.03 17:49:19.
