data_PCOD9243601
_publ_section_title
;
Structure prediction by ZEFSAII (Michael W. Deem and Ramdas Pophale) SiO2 
 PCOD9243601
Probable space group: P 21/C
;
_chemical_formula_sum "Si O2"
_cell_formula_units_Z 28
_cell_length_a 13.093932
_cell_length_b 19.778156
_cell_length_c 8.671144
_cell_angle_alpha 90.000000
_cell_angle_beta 135.808936
_cell_angle_gamma 90.000000
_cell_volume 1565.302413
_symmetry_space_group_name_H-M "P 21/C"
_symmetry_group_IT_number 14
_symmetry_cell_setting 'monoclinic'
loop_
_space_group_symop_operation_xyz
x,y,z
-x,1/2+y,1/2-z
-x,-y,-z
x,1/2-y,1/2+z
loop_
_atom_site_type_symbol
_atom_site_label
_atom_site_fract_x
_atom_site_fract_y
_atom_site_fract_z
Si Si1 0.751229 0.158741 0.689990
Si Si2 0.449336 0.534946 0.102531
Si Si3 0.236864 0.443438 0.073704
Si Si4 0.507038 0.151531 0.919242
Si Si5 0.046963 0.557724 0.429652
Si Si6 0.710598 0.478993 0.563222
Si Si7 0.371458 0.741732 0.188945
O O1 0.619528 0.106228 0.514960
O O2 0.756097 0.203399 0.542443
O O3 0.701563 0.207858 0.770760
O O4 0.891207 0.118036 0.898253
O O5 0.322849 0.491694 0.047278
O O6 0.585866 0.530481 0.366506
O O7 0.500000 0.500000 0.000000
O O8 0.347964 0.382087 0.229209
O O9 0.216562 0.487233 0.207828
O O10 0.087653 0.423542 0.827532
O O11 0.535362 0.211343 0.826147
O O12 0.624223 0.090399 0.015077
O O13 0.536897 0.186470 0.115903
O O14 0.177593 0.535036 0.455270
O O15 0.000000 0.500000 0.500000
#
# Coordination Sequence:
#
# PCOD9243601 Si02
#       7
#     4   4   4   4   4   4   4
#     4  11  20  38  56  88 115 154 202 235 301 350
#     4  11  18  35  62  88 119 148 197 251 296 344
#     4  11  22  36  57  90 123 150 187 253 308 351
#     4  10  20  38  61  87 112 153 201 244 293 342
#     4  12  23  38  57  88 124 158 193 248 312 364
#     4  11  21  37  59  91 119 155 194 250 304 351
#     4  10  21  36  63  82 113 157 204 245 272 364
#
# _framework density 17.887919
#
# number of rings (size 3 to 8) (size 9 to 14) (size 15 to 20)
#    0.000    1.143    4.286    4.714    0.000    0.000 
#    0.000    1.429    0.000    0.000    0.000    0.000 
#    0.000    0.000    0.000    0.000    0.000    0.000 
#
# Total GULP energy -156269.972181 kJ/mol
# GULP energy per Si atom -5581.070435 kJ/mol
# Density = 1.784720 g / cm^3
# Si number density = 17.887919 Si / 1000 Ang^3
#
#
#
# Elastic Constant Matrix: (Units=GPa)
#
#
# Indices 1 2 3 4 5 6 
#
# 1 43.1055 30.1120 29.4280 0.0000 -2.6853 0.0000
# 2 30.1120 108.4734 74.1162 0.0000 -4.9477 0.0000
# 3 29.4280 74.1162 150.4466 0.0000 0.2751 0.0000
# 4 0.0000 0.0000 0.0000 48.0387 0.0000 -7.7972
# 5 -2.6853 -4.9477 0.2751 0.0000 33.7821 0.0000
# 6 0.0000 0.0000 0.0000 -7.7972 0.0000 23.5519
#
#
#
# Elastic Compliance Matrix: (Units=1/GPa)
#
#
# Indices 1 2 3 4 5 6 
#
# 1 0.029515 -0.006302 -0.002671 0.000000 0.001445 0.000000
# 2 -0.006302 0.015392 -0.006353 0.000000 0.001805 0.000000
# 3 -0.002671 -0.006353 0.010301 0.000000 -0.001227 0.000000
# 4 0.000000 0.000000 0.000000 0.021999 0.000000 0.007283
# 5 0.001445 0.001805 -0.001227 0.000000 0.029991 0.000000
# 6 0.000000 0.000000 0.000000 0.007283 0.000000 0.044871
#
#
# Mechanical properties :
#
#
# Convention : Reuss Voigt Hill
#
# Bulk Modulus (GPa) = 40.72499 63.25977 51.99238
# Shear Modulus (GPa) = 26.19093 32.29916 29.24504
#
# Velocity S-wave (km/s) = 3.83060 4.25389 4.04778
# Velocity P-wave (km/s) = 6.51005 7.71808 7.13966
#
# Compressibility (1/GPa) = 0.02455494
#
# Stress axis : x y z
#
# Youngs Moduli (GPa) = 33.88102 64.97091 97.07449
#
# Poissons Ratio (x) = 0.40947 0.25930
# Poissons Ratio (y) = 0.21353 0.61672
# Poissons Ratio (z) = 0.09050 0.41276
#
# Static dielectric constant tensor:
#      x y z
#    x 1.597590 0.000000 -0.018660 
#    y 0.000000 1.614810 0.000000 
#    z -0.018660 0.000000 1.643740 
# 
# From -- ./inp_files/9357.got.cif
#   From: 2010.05.17/outbox.cif.g08.bks.cpg/sg14_5_cif.got.tgz:9357.got - 2010.06.03 17:49:19.
