data_PCOD9243438
_publ_section_title
;
Structure prediction by ZEFSAII (Michael W. Deem and Ramdas Pophale) SiO2 
 PCOD9243438
Probable space group: P 21/C
;
_chemical_formula_sum "Si O2"
_cell_formula_units_Z 22
_cell_length_a 8.447513
_cell_length_b 4.776382
_cell_length_c 23.237185
_cell_angle_alpha 90.000000
_cell_angle_beta 125.096314
_cell_angle_gamma 90.000000
_cell_volume 767.120974
_symmetry_space_group_name_H-M "P 21/C"
_symmetry_group_IT_number 14
_symmetry_cell_setting 'monoclinic'
loop_
_space_group_symop_operation_xyz
x,y,z
-x,1/2+y,1/2-z
-x,-y,-z
x,1/2-y,1/2+z
loop_
_atom_site_type_symbol
_atom_site_label
_atom_site_fract_x
_atom_site_fract_y
_atom_site_fract_z
Si Si1 0.000000 0.000000 0.500000
Si Si2 0.648464 0.256131 0.092819
Si Si3 0.093476 0.683156 0.748651
Si Si4 0.577350 0.269784 0.424561
Si Si5 0.005455 0.063399 0.894550
Si Si6 0.422934 0.013886 0.198823
O O1 0.213930 0.867598 0.531445
O O2 0.031056 0.243504 0.455017
O O3 0.730482 0.227872 0.175003
O O4 0.458886 0.065885 0.053154
O O5 0.819861 0.138389 0.088784
O O6 0.577983 0.572686 0.075750
O O7 0.924303 0.850158 0.747264
O O8 0.048700 0.747900 0.673295
O O9 0.533041 0.330159 0.348312
O O10 0.801810 0.893684 0.859565
O O11 0.539903 0.289785 0.241999
#
# Coordination Sequence:
#
# PCOD9243438 Si02
#       6
#     2   4   4   4   4   4
#     4  10  26  48  66  96 138 188 226 274 348 426
#     4  11  23  42  71 101 129 173 232 294 345 396
#     4  10  20  37  65 100 132 163 213 280 342 392
#     4  11  24  44  66  96 135 176 232 285 343 416
#     4  10  23  42  69 100 139 180 228 282 343 417
#     4  11  23  40  66 100 140 182 224 282 355 422
#
# _framework density 28.678657000000001
#
# number of rings (size 3 to 8) (size 9 to 14) (size 15 to 20)
#    0.000    1.455    0.000    5.455    0.000    9.455 
#    0.000   10.909    0.000    0.000    0.000    0.000 
#    0.000    0.000    0.000    0.000    0.000    0.000 
#
# Total GULP energy -122663.972128 kJ/mol
# GULP energy per Si atom -5575.635097 kJ/mol
# Density = 2.861338 g / cm^3
# Si number density = 28.678657 Si / 1000 Ang^3
#
#
#
# Elastic Constant Matrix: (Units=GPa)
#
#
# Indices 1 2 3 4 5 6 
#
# 1 147.8723 52.2894 55.9546 0.0000 -4.4786 0.0000
# 2 52.2894 124.1284 23.8644 0.0000 -2.7354 0.0000
# 3 55.9546 23.8644 80.0309 0.0000 -19.7351 0.0000
# 4 0.0000 0.0000 0.0000 13.4745 0.0000 -5.7102
# 5 -4.4786 -2.7354 -19.7351 0.0000 64.0312 0.0000
# 6 0.0000 0.0000 0.0000 -5.7102 0.0000 58.5883
#
#
#
# Elastic Compliance Matrix: (Units=1/GPa)
#
#
# Indices 1 2 3 4 5 6 
#
# 1 0.010338 -0.003106 -0.006662 0.000000 -0.001463 0.000000
# 2 -0.003106 0.009492 -0.000663 0.000000 -0.000016 0.000000
# 3 -0.006662 -0.000663 0.018646 0.000000 0.005253 0.000000
# 4 0.000000 0.000000 0.000000 0.077412 0.000000 0.007545
# 5 -0.001463 -0.000016 0.005253 0.000000 0.017133 0.000000
# 6 0.000000 0.000000 0.000000 0.007545 0.000000 0.017804
#
#
# Mechanical properties :
#
#
# Convention : Reuss Voigt Hill
#
# Bulk Modulus (GPa) = 56.77492 68.47203 62.62348
# Shear Modulus (GPa) = 28.15998 41.88035 35.02016
#
# Velocity S-wave (km/s) = 3.13695 3.82557 3.49825
# Velocity P-wave (km/s) = 5.74112 6.59096 6.18067
#
# Compressibility (1/GPa) = 0.01761341
#
# Stress axis : x y z
#
# Youngs Moduli (GPa) = 96.73404 105.35552 53.63089
#
# Poissons Ratio (x) = 0.32725 0.35730
# Poissons Ratio (y) = 0.30047 0.03553
# Poissons Ratio (z) = 0.64446 0.06980
#
# Static dielectric constant tensor:
#      x y z
#    x 2.244010 0.000000 0.010040 
#    y 0.000000 2.113270 0.000000 
#    z 0.010040 0.000000 2.238820 
# 
# From -- ./inp_files/76133.got.cif
#   From: 2010.05.17/outbox.cif.g08.bks.cpg/sg14_39_cif.got.tgz:76133.got - 2010.06.03 17:49:19.
