data_PCOD9243649
_publ_section_title
;
Structure prediction by ZEFSAII (Michael W. Deem and Ramdas Pophale) SiO2 
 PCOD9243649
Probable space group: P 21/C
;
_chemical_formula_sum "Si O2"
_cell_formula_units_Z 28
_cell_length_a 11.935780
_cell_length_b 11.151286
_cell_length_c 17.947245
_cell_angle_alpha 90.000000
_cell_angle_beta 30.045797
_cell_angle_gamma 90.000000
_cell_volume 1196.036014
_symmetry_space_group_name_H-M "P 21/C"
_symmetry_group_IT_number 14
_symmetry_cell_setting 'monoclinic'
loop_
_space_group_symop_operation_xyz
x,y,z
-x,1/2+y,1/2-z
-x,-y,-z
x,1/2-y,1/2+z
loop_
_atom_site_type_symbol
_atom_site_label
_atom_site_fract_x
_atom_site_fract_y
_atom_site_fract_z
Si Si1 0.056314 0.271080 0.528172
Si Si2 0.347388 0.594408 0.300500
Si Si3 0.379851 0.154065 0.220050
Si Si4 0.456652 0.409596 0.129288
Si Si5 0.370532 0.274712 0.471166
Si Si6 0.152948 0.445359 0.173877
Si Si7 0.228870 0.572452 0.714961
O O1 0.201299 0.204409 0.382440
O O2 0.200859 0.333392 0.510093
O O3 0.900887 0.365025 0.575404
O O4 0.922599 0.164906 0.648911
O O5 0.416434 0.611267 0.345508
O O6 0.423054 0.463395 0.230484
O O7 0.486783 0.685038 0.165108
O O8 0.459506 0.267896 0.127706
O O9 0.269114 0.049895 0.236102
O O10 0.242150 0.458157 0.206309
O O11 0.685095 0.462311 0.963733
O O12 0.235537 0.187394 0.603049
O O13 0.532579 0.361424 0.423008
O O14 0.902798 0.453155 0.286155
#
# Coordination Sequence:
#
# PCOD9243649 Si02
#       7
#     4   4   4   4   4   4   4
#     4   9  19  36  59  84 119 162 187 241 310 351
#     4   9  20  35  59  83 120 157 191 248 293 355
#     4  11  23  34  59  94 121 148 205 247 285 365
#     4  10  22  41  58  90 117 159 204 238 297 352
#     4   8  17  37  60  87 110 153 206 243 290 356
#     4   9  20  43  66  78 118 166 197 241 297 355
#     4  10  20  38  62  89 117 156 199 245 300 346
#
# _framework density 23.410665999999999
#
# number of rings (size 3 to 8) (size 9 to 14) (size 15 to 20)
#    0.000    2.571    0.000    1.286    8.000    0.571 
#   12.857    0.714    0.000    0.000    0.000    0.000 
#    0.000    0.000    0.000    0.000    0.000    0.000 
#
# Total GULP energy -156536.450020 kJ/mol
# GULP energy per Si atom -5590.587501 kJ/mol
# Density = 2.335738 g / cm^3
# Si number density = 23.410666 Si / 1000 Ang^3
#
#
#
# Elastic Constant Matrix: (Units=GPa)
#
#
# Indices 1 2 3 4 5 6 
#
# 1 137.5856 47.2988 31.3764 0.0000 -37.8903 0.0000
# 2 47.2988 95.6482 18.9556 0.0000 -14.3827 0.0000
# 3 31.3764 18.9556 34.6239 0.0000 -22.5795 0.0000
# 4 0.0000 0.0000 0.0000 24.8177 0.0000 -12.5774
# 5 -37.8903 -14.3827 -22.5795 0.0000 39.0278 0.0000
# 6 0.0000 0.0000 0.0000 -12.5774 0.0000 26.0492
#
#
#
# Elastic Compliance Matrix: (Units=1/GPa)
#
#
# Indices 1 2 3 4 5 6 
#
# 1 0.011495 -0.003873 -0.003131 0.000000 0.007922 0.000000
# 2 -0.003873 0.013055 -0.004741 0.000000 -0.001692 0.000000
# 3 -0.003131 -0.004741 0.050092 0.000000 0.024194 0.000000
# 4 0.000000 0.000000 0.000000 0.053348 0.000000 0.025758
# 5 0.007922 -0.001692 0.024194 0.000000 0.046688 0.000000
# 6 0.000000 0.000000 0.000000 0.025758 0.000000 0.050826
#
#
# Mechanical properties :
#
#
# Convention : Reuss Voigt Hill
#
# Bulk Modulus (GPa) = 19.54898 51.45770 35.50334
# Shear Modulus (GPa) = 18.79389 29.32740 24.06064
#
# Velocity S-wave (km/s) = 2.83643 3.54324 3.20935
# Velocity P-wave (km/s) = 4.36986 6.22636 5.37881
#
# Compressibility (1/GPa) = 0.05115355
#
# Stress axis : x y z
#
# Youngs Moduli (GPa) = 86.99348 76.59712 19.96315
#
# Poissons Ratio (x) = 0.29665 0.06250
# Poissons Ratio (y) = 0.33691 0.09465
# Poissons Ratio (z) = 0.27235 0.36315
#
# Static dielectric constant tensor:
#      x y z
#    x 1.868730 0.000000 -0.012330 
#    y 0.000000 1.858290 0.000000 
#    z -0.012330 0.000000 1.925770 
# 
# From -- ./inp_files/35195.got.cif
#   From: 2010.05.17/outbox.cif.g08.bks.cpg/sg14_18_cif.got.tgz:35195.got - 2010.06.03 17:49:19.
