data_PCOD9243687
_publ_section_title
;
Structure prediction by ZEFSAII (Michael W. Deem and Ramdas Pophale) SiO2 
 PCOD9243687
Probable space group: P 21/C
;
_chemical_formula_sum "Si O2"
_cell_formula_units_Z 24
_cell_length_a 8.165022
_cell_length_b 13.630904
_cell_length_c 7.594024
_cell_angle_alpha 90.000000
_cell_angle_beta 92.717815
_cell_angle_gamma 90.000000
_cell_volume 844.238601
_symmetry_space_group_name_H-M "P 21/C"
_symmetry_group_IT_number 14
_symmetry_cell_setting 'monoclinic'
loop_
_space_group_symop_operation_xyz
x,y,z
-x,1/2+y,1/2-z
-x,-y,-z
x,1/2-y,1/2+z
loop_
_atom_site_type_symbol
_atom_site_label
_atom_site_fract_x
_atom_site_fract_y
_atom_site_fract_z
Si Si1 0.825858 0.367809 0.113612
Si Si2 0.332755 0.353819 0.210376
Si Si3 0.987465 0.953801 0.805571
Si Si4 0.634675 0.272088 0.415805
Si Si5 0.881548 0.729006 0.500116
Si Si6 0.622758 0.049546 0.163690
O O1 0.889819 0.476003 0.165228
O O2 0.776931 0.322051 0.301947
O O3 0.963135 0.301066 0.022910
O O4 0.671595 0.337772 0.982958
O O5 0.471320 0.288416 0.301985
O O6 0.265207 0.305163 0.034333
O O7 0.176878 0.339418 0.339202
O O8 0.409247 0.461571 0.200350
O O9 0.901514 0.849500 0.840185
O O10 0.179628 0.946865 0.779578
O O11 0.000000 0.000000 0.000000
O O12 0.615450 0.340737 0.587648
O O13 0.500000 0.000000 0.000000
#
# Coordination Sequence:
#
# PCOD9243687 Si02
#       6
#     4   4   4   4   4   4
#     4  12  22  39  64  90 120 158 204 251 295 355
#     4  11  23  40  62  92 124 159 200 247 301 356
#     4  12  20  40  61  88 118 159 207 242 292 370
#     4  11  23  40  62  92 124 159 200 247 301 356
#     4  12  22  39  64  90 120 158 204 251 295 355
#     4  10  20  38  63  87 117 160 203 242 292 364
#
# _framework density 28.427983000000001
#
# number of rings (size 3 to 8) (size 9 to 14) (size 15 to 20)
#    0.000    0.667    6.667    2.000    0.000    0.000 
#    0.000    5.833    0.000    0.000    0.000    0.000 
#    0.000    0.000    0.000    0.000    0.000    0.000 
#
# Total GULP energy -133673.961484 kJ/mol
# GULP energy per Si atom -5569.748395 kJ/mol
# Density = 2.836328 g / cm^3
# Si number density = 28.427983 Si / 1000 Ang^3
#
#
#
# Elastic Constant Matrix: (Units=GPa)
#
#
# Indices 1 2 3 4 5 6 
#
# 1 93.4159 30.7000 13.5017 0.0000 4.9001 0.0000
# 2 30.7000 135.7811 14.7951 0.0000 -14.5938 0.0000
# 3 13.5017 14.7951 45.7957 0.0000 -18.3513 0.0000
# 4 0.0000 0.0000 0.0000 20.0182 0.0000 -26.6019
# 5 4.9001 -14.5938 -18.3513 0.0000 57.2745 0.0000
# 6 0.0000 0.0000 0.0000 -26.6019 0.0000 9.7467
#
#
#
# Elastic Compliance Matrix: (Units=1/GPa)
#
#
# Indices 1 2 3 4 5 6 
#
# 1 0.012316 -0.002675 -0.003972 0.000000 -0.003008 0.000000
# 2 -0.002675 0.008303 -0.001095 0.000000 0.001994 0.000000
# 3 -0.003972 -0.001095 0.026830 0.000000 0.008657 0.000000
# 4 0.000000 0.000000 0.000000 -0.019016 0.000000 -0.051901
# 5 -0.003008 0.001994 0.008657 0.000000 0.020999 0.000000
# 6 0.000000 0.000000 0.000000 -0.051901 0.000000 -0.039056
#
#
# Mechanical properties :
#
#
# Convention : Reuss Voigt Hill
#
# Bulk Modulus (GPa) = 31.28424 43.66514 37.47469
# Shear Modulus (GPa) = 136.92736 31.80759 84.36747
#
# Velocity S-wave (km/s) = 6.94773 3.34860 5.45363
# Velocity P-wave (km/s) = 8.68274 5.50855 7.27097
#
# Compressibility (1/GPa) = 0.03196497
#
# Stress axis : x y z
#
# Youngs Moduli (GPa) = 81.19615 120.43517 37.27151
#
# Poissons Ratio (x) = 0.32218 0.14805
# Poissons Ratio (y) = 0.21721 0.04081
# Poissons Ratio (z) = 0.32252 0.13186
#
# Static dielectric constant tensor:
#      x y z
#    x 2.455620 0.000000 -0.141900 
#    y 0.000000 2.308970 0.000000 
#    z -0.141900 0.000000 2.481460 
# 
# From -- ./inp_files/8407.got.cif
#   From: 2010.05.17/outbox.cif.g08.bks.cpg/sg14_5_cif.got.tgz:8407.got - 2010.06.03 17:49:19.
