data_PCOD9243950
_publ_section_title
;
Structure prediction by ZEFSAII (Michael W. Deem and Ramdas Pophale) SiO2 
 PCOD9243950
Probable space group: P 21/C
;
_chemical_formula_sum "Si O2"
_cell_formula_units_Z 28
_cell_length_a 16.260321
_cell_length_b 8.873873
_cell_length_c 9.405112
_cell_angle_alpha 90.000000
_cell_angle_beta 63.501610
_cell_angle_gamma 90.000000
_cell_volume 1214.516902
_symmetry_space_group_name_H-M "P 21/C"
_symmetry_group_IT_number 14
_symmetry_cell_setting 'monoclinic'
loop_
_space_group_symop_operation_xyz
x,y,z
-x,1/2+y,1/2-z
-x,-y,-z
x,1/2-y,1/2+z
loop_
_atom_site_type_symbol
_atom_site_label
_atom_site_fract_x
_atom_site_fract_y
_atom_site_fract_z
Si Si1 0.915716 0.912683 0.126468
Si Si2 0.237360 0.528574 0.082875
Si Si3 0.434312 0.563486 0.929428
Si Si4 0.030678 0.182265 0.618304
Si Si5 0.720867 0.824117 0.905137
Si Si6 0.405109 0.236173 0.270862
Si Si7 0.851896 0.055695 0.634080
O O1 0.842148 0.031489 0.238421
O O2 0.955614 0.812276 0.224585
O O3 0.899543 0.801450 0.008707
O O4 0.000000 0.000000 0.000000
O O5 0.241866 0.342807 0.079370
O O6 0.332325 0.599047 0.062835
O O7 0.217859 0.597961 0.941263
O O8 0.492690 0.699152 0.821444
O O9 0.414600 0.426607 0.836771
O O10 0.500000 0.500000 0.000000
O O11 0.076468 0.030861 0.524626
O O12 0.922573 0.167116 0.661523
O O13 0.649846 0.789780 0.831989
O O14 0.794899 0.945615 0.787521
O O15 0.655949 0.855670 0.090690
#
# Coordination Sequence:
#
# PCOD9243950 Si02
#       7
#     4   4   4   4   4   4   4
#     4  11  25  42  67  96 135 177 218 267 339 400
#     4  10  21  39  68  89 131 174 223 275 326 402
#     4  11  22  44  65 100 136 171 229 283 336 400
#     4  10  24  38  65  94 132 168 217 279 326 391
#     4  11  19  38  67  97 119 176 229 266 330 401
#     4  11  23  39  69  97 132 174 225 284 335 400
#     4  10  20  39  62  95 126 163 222 275 326 387
#
# _framework density 23.054434000000001
#
# number of rings (size 3 to 8) (size 9 to 14) (size 15 to 20)
#    0.000    1.429    7.143    0.000    6.000    1.714 
#    0.000    2.857    0.000    0.000    0.000    0.000 
#    0.000    0.000    0.000    0.000    0.000    0.000 
#
# Total GULP energy -155875.719034 kJ/mol
# GULP energy per Si atom -5566.989965 kJ/mol
# Density = 2.300196 g / cm^3
# Si number density = 23.054434 Si / 1000 Ang^3
#
#
#
# Elastic Constant Matrix: (Units=GPa)
#
#
# Indices 1 2 3 4 5 6 
#
# 1 107.5445 5.7251 17.1262 0.0000 -25.5799 0.0000
# 2 5.7251 29.1770 9.1267 0.0000 -12.6820 0.0000
# 3 17.1262 9.1267 81.2088 0.0000 -26.6726 0.0000
# 4 0.0000 0.0000 0.0000 19.0203 0.0000 -9.3466
# 5 -25.5799 -12.6820 -26.6726 0.0000 44.2979 0.0000
# 6 0.0000 0.0000 0.0000 -9.3466 0.0000 31.6025
#
#
#
# Elastic Compliance Matrix: (Units=1/GPa)
#
#
# Indices 1 2 3 4 5 6 
#
# 1 0.010797 0.000693 -0.000302 0.000000 0.006251 0.000000
# 2 0.000693 0.039241 -0.000916 0.000000 0.011083 0.000000
# 3 -0.000302 -0.000916 0.015378 0.000000 0.008823 0.000000
# 4 0.000000 0.000000 0.000000 0.061516 0.000000 0.018194
# 5 0.006251 0.011083 0.008823 0.000000 0.034670 0.000000
# 6 0.000000 0.000000 0.000000 0.018194 0.000000 0.037024
#
#
# Mechanical properties :
#
#
# Convention : Reuss Voigt Hill
#
# Bulk Modulus (GPa) = 15.53595 31.32070 23.42833
# Shear Modulus (GPa) = 22.61103 31.38095 26.99599
#
# Velocity S-wave (km/s) = 3.13512 3.69340 3.42565
# Velocity P-wave (km/s) = 4.45631 5.63944 5.08242
#
# Compressibility (1/GPa) = 0.06436684
#
# Stress axis : x y z
#
# Youngs Moduli (GPa) = 92.62256 25.48330 65.02608
#
# Poissons Ratio (x) = -0.01766 0.01961
# Poissons Ratio (y) = -0.06419 0.05958
# Poissons Ratio (z) = 0.02793 0.02335
#
# Static dielectric constant tensor:
#      x y z
#    x 2.041690 0.000000 -0.090720 
#    y 0.000000 1.918830 0.000000 
#    z -0.090720 0.000000 2.316410 
# 
# From -- ./inp_files/15673.got.cif
#   From: 2010.05.17/outbox.cif.g08.bks.cpg/sg14_8_cif.got.tgz:15673.got - 2010.06.03 17:49:19.
