data_PCOD9243355
_publ_section_title
;
Structure prediction by ZEFSAII (Michael W. Deem and Ramdas Pophale) SiO2 
 PCOD9243355
Probable space group: P 21/C
;
_chemical_formula_sum "Si O2"
_cell_formula_units_Z 20
_cell_length_a 9.166240
_cell_length_b 9.172885
_cell_length_c 19.246609
_cell_angle_alpha 90.000000
_cell_angle_beta 28.700506
_cell_angle_gamma 90.000000
_cell_volume 777.144555
_symmetry_space_group_name_H-M "P 21/C"
_symmetry_group_IT_number 14
_symmetry_cell_setting 'monoclinic'
loop_
_space_group_symop_operation_xyz
x,y,z
-x,1/2+y,1/2-z
-x,-y,-z
x,1/2-y,1/2+z
loop_
_atom_site_type_symbol
_atom_site_label
_atom_site_fract_x
_atom_site_fract_y
_atom_site_fract_z
Si Si1 0.529810 0.796878 0.888908
Si Si2 0.883429 0.368301 0.319242
Si Si3 0.339320 0.549914 0.875000
Si Si4 0.115500 0.650933 0.297639
Si Si5 0.701372 0.926162 0.091853
O O1 0.324921 0.671587 0.940356
O O2 0.859526 0.729499 0.751655
O O3 0.487071 0.943138 0.864106
O O4 0.418697 0.833129 0.012415
O O5 0.850346 0.304189 0.256041
O O6 0.001028 0.530014 0.288483
O O7 0.574729 0.422360 0.801282
O O8 0.500701 0.626150 0.740566
O O9 0.000000 0.500000 0.000000
O O10 0.859878 0.665256 0.464150
O O11 0.000000 0.000000 0.000000
#
# Coordination Sequence:
#
# PCOD9243355 Si02
#       5
#     4   4   4   4   4
#     4  10  21  39  59  81 121 159 188 250 308 340
#     4  10  21  39  61  85 120 157 196 238 300 356
#     4  10  20  37  62  87 114 149 201 251 293 346
#     4   9  21  41  62  87 120 160 197 242 296 355
#     4   9  19  38  59  82 117 156 198 240 297 356
#
# _framework density 25.735237000000001
#
# number of rings (size 3 to 8) (size 9 to 14) (size 15 to 20)
#    0.000    2.400    0.000    2.400    0.000    6.400 
#    0.000   22.000    0.000    0.000    0.000    0.000 
#    0.000    0.000    0.000    0.000    0.000    0.000 
#
# Total GULP energy -112007.523319 kJ/mol
# GULP energy per Si atom -5600.376166 kJ/mol
# Density = 2.567666 g / cm^3
# Si number density = 25.735237 Si / 1000 Ang^3
#
#
#
# Elastic Constant Matrix: (Units=GPa)
#
#
# Indices 1 2 3 4 5 6 
#
# 1 125.2525 66.4513 55.6136 0.0000 -8.7310 0.0000
# 2 66.4513 105.2871 55.2032 0.0000 -14.2250 0.0000
# 3 55.6136 55.2032 97.4417 0.0000 -23.2615 0.0000
# 4 0.0000 0.0000 0.0000 34.4722 0.0000 -0.5045
# 5 -8.7310 -14.2250 -23.2615 0.0000 48.3993 0.0000
# 6 0.0000 0.0000 0.0000 -0.5045 0.0000 48.2980
#
#
#
# Elastic Compliance Matrix: (Units=1/GPa)
#
#
# Indices 1 2 3 4 5 6 
#
# 1 0.013086 -0.006200 -0.004323 0.000000 -0.001540 0.000000
# 2 -0.006200 0.016453 -0.005530 0.000000 0.001060 0.000000
# 3 -0.004323 -0.005530 0.017270 0.000000 0.005895 0.000000
# 4 0.000000 0.000000 0.000000 0.029013 0.000000 0.000303
# 5 -0.001540 0.001060 0.005895 0.000000 0.023529 0.000000
# 6 0.000000 0.000000 0.000000 0.000303 0.000000 0.020708
#
#
# Mechanical properties :
#
#
# Convention : Reuss Voigt Hill
#
# Bulk Modulus (GPa) = 68.01488 75.83528 71.92508
# Shear Modulus (GPa) = 31.83370 36.28145 34.05757
#
# Velocity S-wave (km/s) = 3.52087 3.75880 3.64178
# Velocity P-wave (km/s) = 6.55857 6.95482 6.75960
#
# Compressibility (1/GPa) = 0.01470266
#
# Stress axis : x y z
#
# Youngs Moduli (GPa) = 76.41997 60.77768 57.90335
#
# Poissons Ratio (x) = 0.37682 0.25034
# Poissons Ratio (y) = 0.47381 0.32019
# Poissons Ratio (z) = 0.33040 0.33608
#
# Static dielectric constant tensor:
#      x y z
#    x 2.146410 0.000000 -0.018740 
#    y 0.000000 2.023230 0.000000 
#    z -0.018740 0.000000 1.927630 
# 
# From -- ./inp_files/7990.got.cif
#   From: 2010.05.17/outbox.cif.g08.bks.cpg/sg14_4_cif.got.tgz:7990.got - 2010.06.03 17:49:19.
