data_PCOD9243164
_publ_section_title
;
Structure prediction by ZEFSAII (Michael W. Deem and Ramdas Pophale) SiO2 
 PCOD9243164
Probable space group: P 21/C
;
_chemical_formula_sum "Si O2"
_cell_formula_units_Z 32
_cell_length_a 13.439943
_cell_length_b 11.156081
_cell_length_c 14.285029
_cell_angle_alpha 90.000000
_cell_angle_beta 134.818593
_cell_angle_gamma 90.000000
_cell_volume 1519.308302
_symmetry_space_group_name_H-M "P 21/C"
_symmetry_group_IT_number 14
_symmetry_cell_setting 'monoclinic'
loop_
_space_group_symop_operation_xyz
x,y,z
-x,1/2+y,1/2-z
-x,-y,-z
x,1/2-y,1/2+z
loop_
_atom_site_type_symbol
_atom_site_label
_atom_site_fract_x
_atom_site_fract_y
_atom_site_fract_z
Si Si1 0.319841 0.533982 0.997119
Si Si2 0.191327 0.506945 0.711673
Si Si3 0.923606 0.881067 0.112484
Si Si4 0.668525 0.754948 0.472661
Si Si5 0.940782 0.337935 0.100908
Si Si6 0.768711 0.776254 0.247492
Si Si7 0.504097 0.757889 0.693407
Si Si8 0.238157 0.602308 0.542388
O O1 0.354445 0.396207 0.035164
O O2 0.444276 0.624624 0.103066
O O3 0.276781 0.549069 0.859766
O O4 0.185202 0.566723 0.973298
O O5 0.182560 0.363465 0.715763
O O6 0.255602 0.541874 0.655320
O O7 0.040606 0.572523 0.618708
O O8 0.004570 0.831211 0.255870
O O9 0.811140 0.780898 0.011958
O O10 0.830939 0.000844 0.068747
O O11 0.699335 0.707801 0.597851
O O12 0.541527 0.707921 0.325320
O O13 0.088927 0.353425 0.145950
O O14 0.866782 0.215058 0.021798
O O15 0.643953 0.790540 0.237619
O O16 0.384413 0.657721 0.607865
#
# Coordination Sequence:
#
# PCOD9243164 Si02
#       8
#     4   4   4   4   4   4   4   4
#     4   9  22  42  61  93 125 162 199 263 318 355
#     4  10  20  36  72  94 115 148 221 272 300 344
#     4  10  20  37  64  93 120 156 205 264 306 353
#     4  10  23  38  64  89 127 164 206 253 311 371
#     4   9  20  39  61  90 124 154 202 260 307 361
#     4  10  21  40  64  93 120 161 208 260 308 358
#     4  11  25  38  62  88 131 162 205 254 313 371
#     4  11  22  37  64  95 120 158 210 259 307 366
#
# _framework density 21.062217
#
# number of rings (size 3 to 8) (size 9 to 14) (size 15 to 20)
#    0.000    2.000    1.250    1.125    8.750    1.000 
#    0.000    3.125    0.000    0.000    0.000    0.000 
#    0.000    0.000    0.000    0.000    0.000    0.000 
#
# Total GULP energy -178544.963796 kJ/mol
# GULP energy per Si atom -5579.530119 kJ/mol
# Density = 2.101428 g / cm^3
# Si number density = 21.062217 Si / 1000 Ang^3
#
#
#
# Elastic Constant Matrix: (Units=GPa)
#
#
# Indices 1 2 3 4 5 6 
#
# 1 68.9370 -7.0183 9.9787 0.0000 15.8088 0.0000
# 2 -7.0183 13.9524 2.8256 0.0000 -11.9695 0.0000
# 3 9.9787 2.8256 81.3707 0.0000 -0.8077 0.0000
# 4 0.0000 0.0000 0.0000 24.8787 0.0000 1.9982
# 5 15.8088 -11.9695 -0.8077 0.0000 24.3318 0.0000
# 6 0.0000 0.0000 0.0000 1.9982 0.0000 23.7518
#
#
#
# Elastic Compliance Matrix: (Units=1/GPa)
#
#
# Indices 1 2 3 4 5 6 
#
# 1 0.017457 -0.000972 -0.002225 0.000000 -0.011894 0.000000
# 2 -0.000972 0.125184 -0.003611 0.000000 0.062093 0.000000
# 3 -0.002225 -0.003611 0.012689 0.000000 0.000090 0.000000
# 4 0.000000 0.000000 0.000000 0.040469 0.000000 -0.003405
# 5 -0.011894 0.062093 0.000090 0.000000 0.079375 0.000000
# 6 0.000000 0.000000 0.000000 -0.003405 0.000000 0.042388
#
#
# Mechanical properties :
#
#
# Convention : Reuss Voigt Hill
#
# Bulk Modulus (GPa) = 7.05654 19.53687 13.29671
# Shear Modulus (GPa) = 13.21299 25.15739 19.18519
#
# Velocity S-wave (km/s) = 2.50738 3.45980 3.02136
# Velocity P-wave (km/s) = 3.42639 5.02556 4.30096
#
# Compressibility (1/GPa) = 0.14171252
#
# Stress axis : x y z
#
# Youngs Moduli (GPa) = 57.28467 7.98824 78.81083
#
# Poissons Ratio (x) = 0.00776 0.17536
# Poissons Ratio (y) = 0.05568 0.28462
# Poissons Ratio (z) = 0.12746 0.02885
#
# Static dielectric constant tensor:
#      x y z
#    x 1.799800 0.000000 0.006440 
#    y 0.000000 1.725080 0.000000 
#    z 0.006440 0.000000 1.784860 
# 
# From -- ./inp_files/44657.got.cif
#   From: 2010.05.17/outbox.cif.g08.bks.cpg/sg14_23_cif.got.tgz:44657.got - 2010.06.03 17:49:19.
