data_PCOD9243081
_publ_section_title
;
Structure prediction by ZEFSAII (Michael W. Deem and Ramdas Pophale) SiO2 
 PCOD9243081
Probable space group: P 21/C
;
_chemical_formula_sum "Si O2"
_cell_formula_units_Z 22
_cell_length_a 9.454152
_cell_length_b 9.119655
_cell_length_c 10.763626
_cell_angle_alpha 90.000000
_cell_angle_beta 115.708610
_cell_angle_gamma 90.000000
_cell_volume 836.161349
_symmetry_space_group_name_H-M "P 21/C"
_symmetry_group_IT_number 14
_symmetry_cell_setting 'monoclinic'
loop_
_space_group_symop_operation_xyz
x,y,z
-x,1/2+y,1/2-z
-x,-y,-z
x,1/2-y,1/2+z
loop_
_atom_site_type_symbol
_atom_site_label
_atom_site_fract_x
_atom_site_fract_y
_atom_site_fract_z
Si Si1 0.677035 0.505888 0.154183
Si Si2 0.231013 0.734766 0.997308
Si Si3 0.510685 0.464365 0.322452
Si Si4 0.000000 0.500000 0.000000
Si Si5 0.697135 0.826169 0.069202
Si Si6 0.016434 0.509920 0.309249
O O1 0.687821 0.359570 0.079793
O O2 0.528225 0.507668 0.187359
O O3 0.683934 0.653861 0.076874
O O4 0.840088 0.510353 0.294743
O O5 0.107074 0.845771 0.887128
O O6 0.138957 0.626537 0.053057
O O7 0.365210 0.833176 0.110298
O O8 0.349670 0.402930 0.317039
O O9 0.574981 0.600873 0.427586
O O10 0.004280 0.502006 0.847083
O O11 0.873339 0.875613 0.105976
#
# Coordination Sequence:
#
# PCOD9243081 Si02
#       6
#     4   4   4   2   4   4
#     4  11  22  38  66  93 119 164 212 253 305 368
#     4  10  22  38  62  95 127 162 208 255 310 370
#     4  10  24  44  63  89 132 168 198 259 314 361
#     4  10  20  36  62  90 124 160 198 256 308 356
#     4  10  24  43  63  91 124 164 212 252 309 375
#     4  10  22  41  63  92 124 159 209 259 310 367
#
# _framework density 26.310711000000001
#
# number of rings (size 3 to 8) (size 9 to 14) (size 15 to 20)
#    0.000    1.818    0.000    3.273    0.000   16.727 
#    0.000    0.000    0.000    0.000    0.000    0.000 
#    0.000    0.000    0.000    0.000    0.000    0.000 
#
# Total GULP energy -122941.780122 kJ/mol
# GULP energy per Si atom -5588.262733 kJ/mol
# Density = 2.625083 g / cm^3
# Si number density = 26.310711 Si / 1000 Ang^3
#
#
#
# Elastic Constant Matrix: (Units=GPa)
#
#
# Indices 1 2 3 4 5 6 
#
# 1 97.1007 28.2796 20.7039 0.0000 14.5718 0.0000
# 2 28.2796 131.3022 25.0022 0.0000 5.2587 0.0000
# 3 20.7039 25.0022 54.0018 0.0000 -3.0844 0.0000
# 4 0.0000 0.0000 0.0000 26.6328 0.0000 -2.6422
# 5 14.5718 5.2587 -3.0844 0.0000 42.8612 0.0000
# 6 0.0000 0.0000 0.0000 -2.6422 0.0000 42.5108
#
#
#
# Elastic Compliance Matrix: (Units=1/GPa)
#
#
# Indices 1 2 3 4 5 6 
#
# 1 0.012326 -0.001685 -0.004190 0.000000 -0.004285 0.000000
# 2 -0.001685 0.008656 -0.003404 0.000000 -0.000734 0.000000
# 3 -0.004190 -0.003404 0.021895 0.000000 0.003418 0.000000
# 4 0.000000 0.000000 0.000000 0.037781 0.000000 0.002348
# 5 -0.004285 -0.000734 0.003418 0.000000 0.025124 0.000000
# 6 0.000000 0.000000 0.000000 0.002348 0.000000 0.023669
#
#
# Mechanical properties :
#
#
# Convention : Reuss Voigt Hill
#
# Bulk Modulus (GPa) = 41.11895 47.81959 44.46927
# Shear Modulus (GPa) = 32.02729 36.29555 34.16142
#
# Velocity S-wave (km/s) = 3.49273 3.71819 3.60722
# Velocity P-wave (km/s) = 5.65046 6.05373 5.85557
#
# Compressibility (1/GPa) = 0.02431969
#
# Stress axis : x y z
#
# Youngs Moduli (GPa) = 81.12984 115.52016 45.67149
#
# Poissons Ratio (x) = 0.19468 0.19137
# Poissons Ratio (y) = 0.13672 0.15545
# Poissons Ratio (z) = 0.33995 0.39320
#
# Static dielectric constant tensor:
#      x y z
#    x 2.079220 0.000000 0.018100 
#    y 0.000000 1.993300 0.000000 
#    z 0.018100 0.000000 2.059040 
# 
# From -- ./inp_files/27848.got.cif
#   From: 2010.05.17/outbox.cif.g08.bks.cpg/sg14_14_cif.got.tgz:27848.got - 2010.06.03 17:49:19.
