data_PCOD9243619
_publ_section_title
;
Structure prediction by ZEFSAII (Michael W. Deem and Ramdas Pophale) SiO2 
 PCOD9243619
Probable space group: P 21/C
;
_chemical_formula_sum "Si O2"
_cell_formula_units_Z 28
_cell_length_a 18.547006
_cell_length_b 10.003067
_cell_length_c 15.175402
_cell_angle_alpha 90.000000
_cell_angle_beta 30.903201
_cell_angle_gamma 90.000000
_cell_volume 1445.982605
_symmetry_space_group_name_H-M "P 21/C"
_symmetry_group_IT_number 14
_symmetry_cell_setting 'monoclinic'
loop_
_space_group_symop_operation_xyz
x,y,z
-x,1/2+y,1/2-z
-x,-y,-z
x,1/2-y,1/2+z
loop_
_atom_site_type_symbol
_atom_site_label
_atom_site_fract_x
_atom_site_fract_y
_atom_site_fract_z
Si Si1 0.366758 0.565133 0.491169
Si Si2 0.314969 0.070454 0.364416
Si Si3 0.851610 0.449987 0.120621
Si Si4 0.781130 0.633957 0.488491
Si Si5 0.958140 0.246958 0.882371
Si Si6 0.240605 0.675778 0.059845
Si Si7 0.008459 0.037745 0.092778
O O1 0.530598 0.544346 0.336724
O O2 0.264715 0.542012 0.681377
O O3 0.314708 0.470688 0.464757
O O4 0.349817 0.721288 0.484577
O O5 0.201250 0.034068 0.408587
O O6 0.291846 0.222139 0.420657
O O7 0.298047 0.962501 0.460562
O O8 0.887233 0.303318 0.044894
O O9 0.000000 0.500000 0.000000
O O10 0.845938 0.586869 0.514907
O O11 0.919769 0.656998 0.282217
O O12 0.835218 0.246848 0.940222
O O13 0.021433 0.101140 0.825866
O O14 0.113651 0.642278 0.258539
O O15 0.000000 0.000000 0.000000
#
# Coordination Sequence:
#
# PCOD9243619 Si02
#       7
#     4   4   4   4   4   4   4
#     4  12  23  43  66  93 129 169 209 262 316 380
#     4  11  25  43  63  94 131 169 209 256 319 385
#     4  11  24  39  67  97 125 163 214 262 314 374
#     4  11  23  39  67  90 127 170 207 258 317 372
#     4  10  20  38  61  96 120 160 211 262 312 360
#     4  10  22  39  65  88 127 164 212 258 313 378
#     4  11  22  36  63  94 127 157 210 270 311 358
#
# _framework density 19.363996
#
# number of rings (size 3 to 8) (size 9 to 14) (size 15 to 20)
#    0.000    1.143    4.286    2.143    6.000    0.000 
#    0.000    0.000    0.000    2.571    0.000    0.000 
#    0.000    0.000    0.000    0.000    0.000    0.000 
#
# Total GULP energy -156252.948005 kJ/mol
# GULP energy per Si atom -5580.462429 kJ/mol
# Density = 1.931992 g / cm^3
# Si number density = 19.363996 Si / 1000 Ang^3
#
#
#
# Elastic Constant Matrix: (Units=GPa)
#
#
# Indices 1 2 3 4 5 6 
#
# 1 48.7688 24.2311 12.2907 0.0000 -2.1899 0.0000
# 2 24.2311 87.3048 6.2136 0.0000 8.2361 0.0000
# 3 12.2907 6.2136 73.8280 0.0000 -2.5715 0.0000
# 4 0.0000 0.0000 0.0000 23.9970 0.0000 -1.4953
# 5 -2.1899 8.2361 -2.5715 0.0000 30.9010 0.0000
# 6 0.0000 0.0000 0.0000 -1.4953 0.0000 14.9801
#
#
#
# Elastic Compliance Matrix: (Units=1/GPa)
#
#
# Indices 1 2 3 4 5 6 
#
# 1 0.025011 -0.007012 -0.003457 0.000000 0.003354 0.000000
# 2 -0.007012 0.013805 -0.000140 0.000000 -0.004188 0.000000
# 3 -0.003457 -0.000140 0.014166 0.000000 0.000971 0.000000
# 4 0.000000 0.000000 0.000000 0.041933 0.000000 0.004186
# 5 0.003354 -0.004188 0.000971 0.000000 0.033796 0.000000
# 6 0.000000 0.000000 0.000000 0.004186 0.000000 0.067173
#
#
# Mechanical properties :
#
#
# Convention : Reuss Voigt Hill
#
# Bulk Modulus (GPa) = 31.48237 32.81915 32.15076
# Shear Modulus (GPa) = 21.95966 25.12002 23.53984
#
# Velocity S-wave (km/s) = 3.37121 3.60565 3.49040
# Velocity P-wave (km/s) = 5.60776 5.85829 5.73439
#
# Compressibility (1/GPa) = 0.03176381
#
# Stress axis : x y z
#
# Youngs Moduli (GPa) = 39.98301 72.43553 70.59101
#
# Poissons Ratio (x) = 0.50792 0.24401
# Poissons Ratio (y) = 0.28036 0.00992
# Poissons Ratio (z) = 0.13821 0.01017
#
# Static dielectric constant tensor:
#      x y z
#    x 1.705580 0.000000 0.035830 
#    y 0.000000 1.706490 0.000000 
#    z 0.035830 0.000000 1.676130 
# 
# From -- ./inp_files/50201.got.cif
#   From: 2010.05.17/outbox.cif.g08.bks.cpg/sg14_26_cif.got.tgz:50201.got - 2010.06.03 17:49:19.
