data_PCOD9243900
_publ_section_title
;
Structure prediction by ZEFSAII (Michael W. Deem and Ramdas Pophale) SiO2 
 PCOD9243900
Probable space group: P 21/C
;
_chemical_formula_sum "Si O2"
_cell_formula_units_Z 28
_cell_length_a 7.001458
_cell_length_b 10.393558
_cell_length_c 17.699992
_cell_angle_alpha 90.000000
_cell_angle_beta 113.891545
_cell_angle_gamma 90.000000
_cell_volume 1177.663036
_symmetry_space_group_name_H-M "P 21/C"
_symmetry_group_IT_number 14
_symmetry_cell_setting 'monoclinic'
loop_
_space_group_symop_operation_xyz
x,y,z
-x,1/2+y,1/2-z
-x,-y,-z
x,1/2-y,1/2+z
loop_
_atom_site_type_symbol
_atom_site_label
_atom_site_fract_x
_atom_site_fract_y
_atom_site_fract_z
Si Si1 0.664023 0.434297 0.134072
Si Si2 0.903842 0.831105 0.342790
Si Si3 0.792918 0.129750 0.816039
Si Si4 0.600779 0.307404 0.438907
Si Si5 0.765416 0.019540 0.433140
Si Si6 0.173668 0.225784 0.337184
Si Si7 0.029951 0.580864 0.428294
O O1 0.666383 0.376415 0.218727
O O2 0.429864 0.437685 0.063969
O O3 0.749862 0.579815 0.154346
O O4 0.849115 0.363066 0.121020
O O5 0.839670 0.783888 0.249490
O O6 0.892076 0.710617 0.398496
O O7 0.784798 0.957072 0.352807
O O8 0.649255 0.124011 0.866454
O O9 0.948923 0.251570 0.838616
O O10 0.954390 0.009861 0.848439
O O11 0.693566 0.165049 0.435344
O O12 0.355502 0.298510 0.411795
O O13 0.730524 0.374936 0.525768
O O14 0.000000 0.000000 0.500000
O O15 0.000000 0.500000 0.500000
#
# Coordination Sequence:
#
# PCOD9243900 Si02
#       7
#     4   4   4   4   4   4   4
#     4  10  22  38  62  89 115 154 202 246 296 352
#     4  11  21  40  60  87 120 155 199 245 294 351
#     4  10  20  39  61  84 116 154 198 242 294 349
#     4  10  21  39  58  87 117 152 197 240 296 351
#     4  11  22  38  59  87 118 157 196 243 301 351
#     4  10  21  38  62  86 117 154 194 247 293 350
#     4  10  21  39  62  84 120 159 195 247 296 357
#
# _framework density 23.7759
#
# number of rings (size 3 to 8) (size 9 to 14) (size 15 to 20)
#    0.000    1.714    2.857    1.714    0.000    1.143 
#    2.571    2.857    0.000    0.000    0.000    0.000 
#    0.000    0.000    0.000    0.000    0.000    0.000 
#
# Total GULP energy -156325.264813 kJ/mol
# GULP energy per Si atom -5583.045172 kJ/mol
# Density = 2.372178 g / cm^3
# Si number density = 23.775900 Si / 1000 Ang^3
#
#
#
# Elastic Constant Matrix: (Units=GPa)
#
#
# Indices 1 2 3 4 5 6 
#
# 1 76.9939 7.4792 27.8107 0.0000 31.2126 0.0000
# 2 7.4792 71.1031 13.5520 0.0000 15.6640 0.0000
# 3 27.8107 13.5520 71.7080 0.0000 11.0885 0.0000
# 4 0.0000 0.0000 0.0000 36.3260 0.0000 -0.0962
# 5 31.2126 15.6640 11.0885 0.0000 41.8036 0.0000
# 6 0.0000 0.0000 0.0000 -0.0962 0.0000 26.8366
#
#
#
# Elastic Compliance Matrix: (Units=1/GPa)
#
#
# Indices 1 2 3 4 5 6 
#
# 1 0.021097 0.002271 -0.006302 0.000000 -0.014931 0.000000
# 2 0.002271 0.015882 -0.002815 0.000000 -0.006900 0.000000
# 3 -0.006302 -0.002815 0.016717 0.000000 0.001327 0.000000
# 4 0.000000 0.000000 0.000000 0.027529 0.000000 0.000099
# 5 -0.014931 -0.006900 0.001327 0.000000 0.037304 0.000000
# 6 0.000000 0.000000 0.000000 0.000099 0.000000 0.037263
#
#
# Mechanical properties :
#
#
# Convention : Reuss Voigt Hill
#
# Bulk Modulus (GPa) = 24.99836 35.27654 30.13745
# Shear Modulus (GPa) = 27.34964 32.39077 29.87020
#
# Velocity S-wave (km/s) = 3.39530 3.69499 3.54831
# Velocity P-wave (km/s) = 5.08996 5.75093 5.43051
#
# Compressibility (1/GPa) = 0.04000262
#
# Stress axis : x y z
#
# Youngs Moduli (GPa) = 47.40032 62.96484 59.82043
#
# Poissons Ratio (x) = -0.14302 0.37701
# Poissons Ratio (y) = -0.10767 0.16842
# Poissons Ratio (z) = 0.29874 0.17727
#
# Static dielectric constant tensor:
#      x y z
#    x 1.901730 0.000000 0.004450 
#    y 0.000000 1.952180 0.000000 
#    z 0.004450 0.000000 1.922730 
# 
# From -- ./inp_files/63374.got.cif
#   From: 2010.05.17/outbox.cif.g08.bks.cpg/sg14_32_cif.got.tgz:63374.got - 2010.06.03 17:49:19.
