data_PCOD9243872
_publ_section_title
;
Structure prediction by ZEFSAII (Michael W. Deem and Ramdas Pophale) SiO2 
 PCOD9243872
Probable space group: P 21/C
;
_chemical_formula_sum "Si O2"
_cell_formula_units_Z 32
_cell_length_a 15.343514
_cell_length_b 15.182872
_cell_length_c 20.788062
_cell_angle_alpha 90.000000
_cell_angle_beta 160.138331
_cell_angle_gamma 90.000000
_cell_volume 1645.329064
_symmetry_space_group_name_H-M "P 21/C"
_symmetry_group_IT_number 14
_symmetry_cell_setting 'monoclinic'
loop_
_space_group_symop_operation_xyz
x,y,z
-x,1/2+y,1/2-z
-x,-y,-z
x,1/2-y,1/2+z
loop_
_atom_site_type_symbol
_atom_site_label
_atom_site_fract_x
_atom_site_fract_y
_atom_site_fract_z
Si Si1 0.548198 0.957496 0.634954
Si Si2 0.302225 0.828763 0.694169
Si Si3 0.638518 0.130193 0.627616
Si Si4 0.838114 0.104579 0.262728
Si Si5 0.826258 0.729124 0.506374
Si Si6 0.841151 0.795460 0.872350
Si Si7 0.647970 0.702925 0.610471
Si Si8 0.102155 0.580714 0.926411
O O1 0.439808 0.917678 0.492997
O O2 0.792099 0.897696 0.823635
O O3 0.332646 0.940387 0.538493
O O4 0.607060 0.059168 0.662032
O O5 0.231910 0.877718 0.711229
O O6 0.213844 0.887121 0.572201
O O7 0.131862 0.739590 0.574526
O O8 0.598578 0.805058 0.892318
O O9 0.456532 0.216063 0.504836
O O10 0.927730 0.165008 0.822523
O O11 0.061284 0.174661 0.400089
O O12 0.581723 0.132393 0.046981
O O13 0.934287 0.006899 0.318449
O O14 0.730787 0.728164 0.365879
O O15 0.701714 0.741586 0.718753
O O16 0.909196 0.657371 0.768547
#
# Coordination Sequence:
#
# PCOD9243872 Si02
#       8
#     4   4   4   4   4   4   4   4
#     4  10  20  39  59  86 120 151 206 251 299 357
#     4  10  21  38  59  84 124 157 201 243 303 364
#     4   9  21  39  59  86 121 155 198 256 298 356
#     4  10  22  37  59  87 119 151 203 252 291 359
#     4  10  20  39  59  86 114 163 194 237 309 359
#     4   9  19  38  59  83 116 156 193 247 294 357
#     4   9  20  39  59  82 118 157 192 250 302 347
#     4  11  21  37  61  86 117 160 198 249 304 362
#
# _framework density 19.448996999999999
#
# number of rings (size 3 to 8) (size 9 to 14) (size 15 to 20)
#    0.000    2.250    1.250    0.750    1.750    3.500 
#    6.750    1.250    0.000    0.000    0.000    0.000 
#    0.000    0.000    0.000    0.000    0.000    0.000 
#
# Total GULP energy -178657.383067 kJ/mol
# GULP energy per Si atom -5583.043221 kJ/mol
# Density = 1.940473 g / cm^3
# Si number density = 19.448997 Si / 1000 Ang^3
#
#
#
# Elastic Constant Matrix: (Units=GPa)
#
#
# Indices 1 2 3 4 5 6 
#
# 1 35.2930 32.8631 13.5813 0.0000 11.5595 0.0000
# 2 32.8631 108.0548 44.3925 0.0000 20.3752 0.0000
# 3 13.5813 44.3925 78.7326 0.0000 9.4568 0.0000
# 4 0.0000 0.0000 0.0000 19.4886 0.0000 0.6613
# 5 11.5595 20.3752 9.4568 0.0000 24.6770 0.0000
# 6 0.0000 0.0000 0.0000 0.6613 0.0000 19.3045
#
#
#
# Elastic Compliance Matrix: (Units=1/GPa)
#
#
# Indices 1 2 3 4 5 6 
#
# 1 0.041811 -0.010742 0.000138 0.000000 -0.010769 0.000000
# 2 -0.010742 0.016382 -0.006670 0.000000 -0.005938 0.000000
# 3 0.000138 -0.006670 0.016546 0.000000 -0.000898 0.000000
# 4 0.000000 0.000000 0.000000 0.051372 0.000000 -0.001760
# 5 -0.010769 -0.005938 -0.000898 0.000000 0.050815 0.000000
# 6 0.000000 0.000000 0.000000 -0.001760 0.000000 0.051862
#
#
# Mechanical properties :
#
#
# Convention : Reuss Voigt Hill
#
# Bulk Modulus (GPa) = 24.88201 44.86156 34.87178
# Shear Modulus (GPa) = 18.06796 21.44357 19.75577
#
# Velocity S-wave (km/s) = 3.05124 3.32408 3.19058
# Velocity P-wave (km/s) = 5.02341 6.15215 5.61621
#
# Compressibility (1/GPa) = 0.04018968
#
# Stress axis : x y z
#
# Youngs Moduli (GPa) = 23.91728 61.04374 60.43636
#
# Poissons Ratio (x) = 0.65574 -0.00834
# Poissons Ratio (y) = 0.25692 0.40314
# Poissons Ratio (z) = -0.00330 0.40719
#
# Static dielectric constant tensor:
#      x y z
#    x 1.672420 0.000000 -0.027050 
#    y 0.000000 1.681120 0.000000 
#    z -0.027050 0.000000 1.683580 
# 
# From -- ./inp_files/25251.got.cif
#   From: 2010.05.17/outbox.cif.g08.bks.cpg/sg14_13_cif.got.tgz:25251.got - 2010.06.03 17:49:19.
