data_PCOD9243153
_publ_section_title
;
Structure prediction by ZEFSAII (Michael W. Deem and Ramdas Pophale) SiO2 
 PCOD9243153
Probable space group: P 21/C
;
_chemical_formula_sum "Si O2"
_cell_formula_units_Z 22
_cell_length_a 9.231684
_cell_length_b 21.603668
_cell_length_c 4.843066
_cell_angle_alpha 90.000000
_cell_angle_beta 77.760200
_cell_angle_gamma 90.000000
_cell_volume 943.936706
_symmetry_space_group_name_H-M "P 21/C"
_symmetry_group_IT_number 14
_symmetry_cell_setting 'monoclinic'
loop_
_space_group_symop_operation_xyz
x,y,z
-x,1/2+y,1/2-z
-x,-y,-z
x,1/2-y,1/2+z
loop_
_atom_site_type_symbol
_atom_site_label
_atom_site_fract_x
_atom_site_fract_y
_atom_site_fract_z
Si Si1 0.500000 0.500000 0.000000
Si Si2 0.279159 0.789855 0.175573
Si Si3 0.013710 0.870763 0.373298
Si Si4 0.174091 0.403162 0.575168
Si Si5 0.506250 0.402867 0.509226
Si Si6 0.243419 0.977676 0.394026
O O1 0.485027 0.434964 0.811268
O O2 0.312012 0.498249 0.148990
O O3 0.305295 0.729988 0.978523
O O4 0.384434 0.845356 0.038079
O O5 0.111159 0.814042 0.224644
O O6 0.903789 0.857952 0.668866
O O7 0.135788 0.920048 0.438283
O O8 0.924408 0.900459 0.157195
O O9 0.344919 0.385016 0.467298
O O10 0.174883 0.469156 0.736219
O O11 0.586864 0.454622 0.274509
#
# Coordination Sequence:
#
# PCOD9243153 Si02
#       6
#     2   4   4   4   4   4
#     4  10  20  36  66  98 138 170 222 280 334 402
#     4  11  26  49  73  93 126 184 243 284 329 412
#     4  11  25  41  66  95 137 174 227 268 343 397
#     4  11  23  40  64 104 136 173 208 282 340 413
#     4  10  25  40  70  99 142 178 230 278 352 405
#     4  10  23  37  64  96 141 187 213 267 331 426
#
# _framework density 23.306645
#
# number of rings (size 3 to 8) (size 9 to 14) (size 15 to 20)
#    0.000    1.455    0.000    4.364   20.364    0.000 
#    0.000    5.455    0.000    0.000    0.000    0.000 
#    0.000    0.000    0.000    0.000    0.000    0.000 
#
# Total GULP energy -122736.989746 kJ/mol
# GULP energy per Si atom -5578.954079 kJ/mol
# Density = 2.325360 g / cm^3
# Si number density = 23.306645 Si / 1000 Ang^3
#
#
#
# Elastic Constant Matrix: (Units=GPa)
#
#
# Indices 1 2 3 4 5 6 
#
# 1 143.9720 28.9000 46.5023 0.0000 -1.0082 0.0000
# 2 28.9000 67.7261 15.5487 0.0000 -11.0997 0.0000
# 3 46.5023 15.5487 80.7627 0.0000 2.0457 0.0000
# 4 0.0000 0.0000 0.0000 27.8331 0.0000 -0.4858
# 5 -1.0082 -11.0997 2.0457 0.0000 41.3079 0.0000
# 6 0.0000 0.0000 0.0000 -0.4858 0.0000 28.9363
#
#
#
# Elastic Compliance Matrix: (Units=1/GPa)
#
#
# Indices 1 2 3 4 5 6 
#
# 1 0.009009 -0.002831 -0.004634 0.000000 -0.000311 0.000000
# 2 -0.002831 0.017142 -0.001787 0.000000 0.004626 0.000000
# 3 -0.004634 -0.001787 0.015429 0.000000 -0.001357 0.000000
# 4 0.000000 0.000000 0.000000 0.035939 0.000000 0.000603
# 5 -0.000311 0.004626 -0.001357 0.000000 0.025511 0.000000
# 6 0.000000 0.000000 0.000000 0.000603 0.000000 0.034569
#
#
# Mechanical properties :
#
#
# Convention : Reuss Voigt Hill
#
# Bulk Modulus (GPa) = 43.33859 52.70697 48.02278
# Shear Modulus (GPa) = 30.52599 33.04943 31.78771
#
# Velocity S-wave (km/s) = 3.62298 3.76975 3.69710
# Velocity P-wave (km/s) = 6.01137 6.45071 6.23492
#
# Compressibility (1/GPa) = 0.02307413
#
# Stress axis : x y z
#
# Youngs Moduli (GPa) = 111.00290 58.33656 64.81419
#
# Poissons Ratio (x) = 0.16517 0.30036
# Poissons Ratio (y) = 0.31428 0.11583
# Poissons Ratio (z) = 0.51441 0.10426
#
# Static dielectric constant tensor:
#      x y z
#    x 2.039040 0.000000 0.071330 
#    y 0.000000 1.935720 0.000000 
#    z 0.071330 0.000000 2.044580 
# 
# From -- ./inp_files/1409.got.cif
#   From: 2010.05.17/outbox.cif.g08.bks.cpg/sg14_1_cif.got.tgz:1409.got - 2010.06.03 17:49:19.
