data_PCOD9243527
_publ_section_title
;
Structure prediction by ZEFSAII (Michael W. Deem and Ramdas Pophale) SiO2 
 PCOD9243527
Probable space group: P 21/C
;
_chemical_formula_sum "Si O2"
_cell_formula_units_Z 20
_cell_length_a 8.081984
_cell_length_b 18.427108
_cell_length_c 5.411780
_cell_angle_alpha 90.000000
_cell_angle_beta 66.464472
_cell_angle_gamma 90.000000
_cell_volume 738.917401
_symmetry_space_group_name_H-M "P 21/C"
_symmetry_group_IT_number 14
_symmetry_cell_setting 'monoclinic'
loop_
_space_group_symop_operation_xyz
x,y,z
-x,1/2+y,1/2-z
-x,-y,-z
x,1/2-y,1/2+z
loop_
_atom_site_type_symbol
_atom_site_label
_atom_site_fract_x
_atom_site_fract_y
_atom_site_fract_z
Si Si1 0.962282 0.045428 0.276634
Si Si2 0.427403 0.284809 0.160714
Si Si3 0.332202 0.577634 0.371691
Si Si4 0.162656 0.724550 0.619520
Si Si5 0.672399 0.911058 0.958751
O O1 0.757497 0.070505 0.346872
O O2 0.116889 0.106017 0.200221
O O3 0.000000 0.000000 0.500000
O O4 0.000000 0.000000 0.000000
O O5 0.353781 0.241836 0.444202
O O6 0.641610 0.266150 0.007285
O O7 0.396954 0.366812 0.264499
O O8 0.207270 0.638922 0.576046
O O9 0.329741 0.497169 0.486817
O O10 0.535046 0.602822 0.315406
O O11 0.071401 0.749224 0.924001
#
# Coordination Sequence:
#
# PCOD9243527 Si02
#       5
#     4   4   4   4   4
#     4  10  24  44  60  96 134 156 211 276 309 378
#     4  10  20  38  59  89 131 162 209 273 315 380
#     4  10  21  41  68  96 125 176 218 264 328 387
#     4  10  20  38  59  89 131 162 209 273 315 380
#     4  10  21  41  69  95 126 175 221 263 331 386
#
# _framework density 27.066625999999999
#
# number of rings (size 3 to 8) (size 9 to 14) (size 15 to 20)
#    0.000    2.000    4.000    0.000    0.000    7.200 
#    3.600    2.000    0.000    0.000    0.000    0.000 
#    0.000    0.000    0.000    0.000    0.000    0.000 
#
# Total GULP energy -111764.785591 kJ/mol
# GULP energy per Si atom -5588.239280 kJ/mol
# Density = 2.700502 g / cm^3
# Si number density = 27.066626 Si / 1000 Ang^3
#
#
#
# Elastic Constant Matrix: (Units=GPa)
#
#
# Indices 1 2 3 4 5 6 
#
# 1 190.7648 -2.4353 57.1263 0.0000 36.8827 0.0000
# 2 -2.4353 160.2174 61.4689 0.0000 1.8300 0.0000
# 3 57.1263 61.4689 169.6230 0.0000 37.6718 0.0000
# 4 0.0000 0.0000 0.0000 33.9848 0.0000 -1.4616
# 5 36.8827 1.8300 37.6718 0.0000 33.8133 0.0000
# 6 0.0000 0.0000 0.0000 -1.4616 0.0000 18.4251
#
#
#
# Elastic Compliance Matrix: (Units=1/GPa)
#
#
# Indices 1 2 3 4 5 6 
#
# 1 0.006782 0.000609 -0.001135 0.000000 -0.006165 0.000000
# 2 0.000609 0.007605 -0.003617 0.000000 0.002954 0.000000
# 3 -0.001135 -0.003617 0.009660 0.000000 -0.009328 0.000000
# 4 0.000000 0.000000 0.000000 0.029526 0.000000 0.002342
# 5 -0.006165 0.002954 -0.009328 0.000000 0.046532 0.000000
# 6 0.000000 0.000000 0.000000 0.002342 0.000000 0.054460
#
#
# Mechanical properties :
#
#
# Convention : Reuss Voigt Hill
#
# Bulk Modulus (GPa) = 63.45047 83.65833 73.55440
# Shear Modulus (GPa) = 29.74337 44.20765 36.97551
#
# Velocity S-wave (km/s) = 3.31855 4.04578 3.70008
# Velocity P-wave (km/s) = 6.17875 7.26635 6.74451
#
# Compressibility (1/GPa) = 0.01576032
#
# Stress axis : x y z
#
# Youngs Moduli (GPa) = 147.45126 131.49702 103.51590
#
# Poissons Ratio (x) = -0.08010 0.11754
# Poissons Ratio (y) = -0.08982 0.37442
# Poissons Ratio (z) = 0.16743 0.47562
#
# Static dielectric constant tensor:
#      x y z
#    x 2.200110 0.000000 -0.050110 
#    y 0.000000 2.151670 0.000000 
#    z -0.050110 0.000000 2.276190 
# 
# From -- ./inp_files/1129.got.cif
#   From: 2010.05.17/outbox.cif.g08.bks.cpg/sg14_1_cif.got.tgz:1129.got - 2010.06.03 17:49:19.
