data_PCOD9243128
_publ_section_title
;
Structure prediction by ZEFSAII (Michael W. Deem and Ramdas Pophale) SiO2 
 PCOD9243128
Probable space group: P 21/C
;
_chemical_formula_sum "Si O2"
_cell_formula_units_Z 28
_cell_length_a 9.456534
_cell_length_b 15.505831
_cell_length_c 16.124000
_cell_angle_alpha 90.000000
_cell_angle_beta 149.112712
_cell_angle_gamma 90.000000
_cell_volume 1213.707739
_symmetry_space_group_name_H-M "P 21/C"
_symmetry_group_IT_number 14
_symmetry_cell_setting 'monoclinic'
loop_
_space_group_symop_operation_xyz
x,y,z
-x,1/2+y,1/2-z
-x,-y,-z
x,1/2-y,1/2+z
loop_
_atom_site_type_symbol
_atom_site_label
_atom_site_fract_x
_atom_site_fract_y
_atom_site_fract_z
Si Si1 0.528143 0.570801 0.441597
Si Si2 0.923471 0.908674 0.000074
Si Si3 0.277646 0.691254 0.569583
Si Si4 0.991629 0.000621 0.644705
Si Si5 0.736026 0.677573 0.671149
Si Si6 0.864283 0.633057 0.226033
Si Si7 0.596827 0.118000 0.374816
O O1 0.500000 0.500000 0.500000
O O2 0.814870 0.575779 0.537846
O O3 0.273736 0.544330 0.255452
O O4 0.509634 0.657352 0.485765
O O5 0.179996 0.846101 0.108791
O O6 0.646687 0.874836 0.815160
O O7 0.000000 0.000000 0.000000
O O8 0.580545 0.684987 0.681603
O O9 0.225838 0.794045 0.542277
O O10 0.095055 0.632528 0.414804
O O11 0.229309 0.970196 0.534606
O O12 0.896830 0.933733 0.667937
O O13 0.070389 0.094129 0.723581
O O14 0.871406 0.765413 0.709410
O O15 0.572214 0.617868 0.123733
#
# Coordination Sequence:
#
# PCOD9243128 Si02
#       7
#     4   4   4   4   4   4   4
#     4  10  22  39  65  90 124 174 215 268 338 389
#     4  11  24  43  65  94 127 174 225 274 338 403
#     4  10  20  43  65  95 131 177 222 269 333 408
#     4  11  20  37  65  99 132 169 223 276 329 397
#     4  10  20  37  64  92 127 173 223 272 330 399
#     4  10  20  36  64  97 132 175 222 273 333 393
#     4  10  23  39  65  99 132 177 224 274 338 395
#
# _framework density 23.069804000000001
#
# number of rings (size 3 to 8) (size 9 to 14) (size 15 to 20)
#    0.000    1.714    2.857    2.143    6.000    0.571 
#    2.571    1.429    0.000    0.000    0.000    0.000 
#    0.000    0.000    0.000    0.000    0.000    0.000 
#
# Total GULP energy -156003.818650 kJ/mol
# GULP energy per Si atom -5571.564952 kJ/mol
# Density = 2.301730 g / cm^3
# Si number density = 23.069804 Si / 1000 Ang^3
#
#
#
# Elastic Constant Matrix: (Units=GPa)
#
#
# Indices 1 2 3 4 5 6 
#
# 1 131.8604 44.7178 8.2449 0.0000 28.0975 0.0000
# 2 44.7178 118.5489 13.8483 0.0000 13.8364 0.0000
# 3 8.2449 13.8483 42.0445 0.0000 6.4988 0.0000
# 4 0.0000 0.0000 0.0000 42.5418 0.0000 6.8036
# 5 28.0975 13.8364 6.4988 0.0000 31.9505 0.0000
# 6 0.0000 0.0000 0.0000 6.8036 0.0000 32.9499
#
#
#
# Elastic Compliance Matrix: (Units=1/GPa)
#
#
# Indices 1 2 3 4 5 6 
#
# 1 0.010233 -0.002976 0.000171 0.000000 -0.007745 0.000000
# 2 -0.002976 0.009992 -0.002523 0.000000 -0.001197 0.000000
# 3 0.000171 -0.002523 0.025229 0.000000 -0.004189 0.000000
# 4 0.000000 0.000000 0.000000 0.024309 0.000000 -0.005019
# 5 -0.007745 -0.001197 -0.004189 0.000000 0.039480 0.000000
# 6 0.000000 0.000000 0.000000 -0.005019 0.000000 0.031386
#
#
# Mechanical properties :
#
#
# Convention : Reuss Voigt Hill
#
# Bulk Modulus (GPa) = 28.73684 47.34175 38.03929
# Shear Modulus (GPa) = 30.69684 36.53130 33.61407
#
# Velocity S-wave (km/s) = 3.65171 3.98365 3.82129
# Velocity P-wave (km/s) = 5.50122 6.45949 5.99952
#
# Compressibility (1/GPa) = 0.03479854
#
# Stress axis : x y z
#
# Youngs Moduli (GPa) = 97.72735 100.07755 39.63647
#
# Poissons Ratio (x) = 0.29781 -0.00676
# Poissons Ratio (y) = 0.29082 0.09999
# Poissons Ratio (z) = -0.01667 0.25245
#
# Static dielectric constant tensor:
#      x y z
#    x 1.934940 0.000000 -0.037010 
#    y 0.000000 1.868800 0.000000 
#    z -0.037010 0.000000 2.105990 
# 
# From -- ./inp_files/34085.got.cif
#   From: 2010.05.17/outbox.cif.g08.bks.cpg/sg14_18_cif.got.tgz:34085.got - 2010.06.03 17:49:19.
