data_PCOD9243087
_publ_section_title
;
Structure prediction by ZEFSAII (Michael W. Deem and Ramdas Pophale) SiO2 
 PCOD9243087
Probable space group: P 21/C
;
_chemical_formula_sum "Si O2"
_cell_formula_units_Z 28
_cell_length_a 12.390002
_cell_length_b 21.848451
_cell_length_c 9.652858
_cell_angle_alpha 90.000000
_cell_angle_beta 144.557470
_cell_angle_gamma 90.000000
_cell_volume 1515.272091
_symmetry_space_group_name_H-M "P 21/C"
_symmetry_group_IT_number 14
_symmetry_cell_setting 'monoclinic'
loop_
_space_group_symop_operation_xyz
x,y,z
-x,1/2+y,1/2-z
-x,-y,-z
x,1/2-y,1/2+z
loop_
_atom_site_type_symbol
_atom_site_label
_atom_site_fract_x
_atom_site_fract_y
_atom_site_fract_z
Si Si1 0.771774 0.640494 0.537451
Si Si2 0.823688 0.986302 0.501541
Si Si3 0.534974 0.602425 0.785931
Si Si4 0.472231 0.674136 0.001809
Si Si5 0.207990 0.625863 0.960982
Si Si6 0.498580 0.683603 0.476907
Si Si7 0.746691 0.502414 0.601816
O O1 0.684749 0.674086 0.580070
O O2 0.723333 0.568673 0.507831
O O3 0.993493 0.645290 0.755586
O O4 0.659207 0.665092 0.288192
O O5 0.786832 0.052066 0.531901
O O6 0.732989 0.988315 0.253064
O O7 0.735477 0.930491 0.492581
O O8 0.043596 0.980147 0.708785
O O9 0.487094 0.633849 0.879924
O O10 0.523083 0.651705 0.650457
O O11 0.394911 0.547280 0.602756
O O12 0.303574 0.652133 0.923368
O O13 0.453703 0.745232 0.945470
O O14 0.334095 0.650054 0.219805
#
# Coordination Sequence:
#
# PCOD9243087 Si02
#       7
#     4   4   4   4   4   4   4
#     4  10  22  42  63  85 119 157 194 245 300 345
#     4  10  20  36  62  92 115 147 200 249 294 352
#     4  12  21  36  64  89 119 154 193 247 301 340
#     4  11  26  40  55  90 129 158 194 237 293 359
#     4  10  22  42  63  85 119 157 194 245 300 345
#     4  11  22  41  63  85 114 160 208 239 274 349
#     4  10  20  36  62  92 115 147 200 249 294 352
#
# _framework density 18.478529999999999
#
# number of rings (size 3 to 8) (size 9 to 14) (size 15 to 20)
#    0.000    1.429    2.857    3.857    0.000    4.571 
#    0.000    5.714    0.000    0.000    0.000    0.000 
#    0.000    0.000    0.000    0.000    0.000    0.000 
#
# Total GULP energy -156484.659123 kJ/mol
# GULP energy per Si atom -5588.737826 kJ/mol
# Density = 1.843647 g / cm^3
# Si number density = 18.478530 Si / 1000 Ang^3
#
#
#
# Elastic Constant Matrix: (Units=GPa)
#
#
# Indices 1 2 3 4 5 6 
#
# 1 116.6390 36.6049 39.5899 0.0000 4.0821 0.0000
# 2 36.6049 64.5451 -1.1922 0.0000 5.7062 0.0000
# 3 39.5899 -1.1922 38.8861 0.0000 4.3980 0.0000
# 4 0.0000 0.0000 0.0000 8.2659 0.0000 3.4824
# 5 4.0821 5.7062 4.3980 0.0000 30.1728 0.0000
# 6 0.0000 0.0000 0.0000 3.4824 0.0000 17.0917
#
#
#
# Elastic Compliance Matrix: (Units=1/GPa)
#
#
# Indices 1 2 3 4 5 6 
#
# 1 0.018636 -0.011147 -0.019591 0.000000 0.002442 0.000000
# 2 -0.011147 0.022450 0.012553 0.000000 -0.004567 0.000000
# 3 -0.019591 0.012553 0.046787 0.000000 -0.006543 0.000000
# 4 0.000000 0.000000 0.000000 0.132339 0.000000 -0.026964
# 5 0.002442 -0.004567 -0.006543 0.000000 0.034630 0.000000
# 6 0.000000 0.000000 0.000000 -0.026964 0.000000 0.064002
#
#
# Mechanical properties :
#
#
# Convention : Reuss Voigt Hill
#
# Bulk Modulus (GPa) = 19.41606 41.11949 30.26778
# Shear Modulus (GPa) = 13.42718 20.77725 17.10221
#
# Velocity S-wave (km/s) = 2.69854 3.35684 3.04553
# Velocity P-wave (km/s) = 4.49885 6.10945 5.36494
#
# Compressibility (1/GPa) = 0.05150376
#
# Stress axis : x y z
#
# Youngs Moduli (GPa) = 53.66027 44.54315 21.37360
#
# Poissons Ratio (x) = 0.49650 0.41873
# Poissons Ratio (y) = 0.59813 -0.26831
# Poissons Ratio (z) = 1.05126 -0.55916
#
# Static dielectric constant tensor:
#      x y z
#    x 1.634020 0.000000 0.011800 
#    y 0.000000 1.614410 0.000000 
#    z 0.011800 0.000000 1.625930 
# 
# From -- ./inp_files/14362.got.cif
#   From: 2010.05.17/outbox.cif.g08.bks.cpg/sg14_8_cif.got.tgz:14362.got - 2010.06.03 17:49:19.
