data_PCOD9243827
_publ_section_title
;
Structure prediction by ZEFSAII (Michael W. Deem and Ramdas Pophale) SiO2 
 PCOD9243827
Probable space group: P 21/C
;
_chemical_formula_sum "Si O2"
_cell_formula_units_Z 24
_cell_length_a 17.652746
_cell_length_b 4.946667
_cell_length_c 12.647768
_cell_angle_alpha 90.000000
_cell_angle_beta 117.724116
_cell_angle_gamma 90.000000
_cell_volume 977.640558
_symmetry_space_group_name_H-M "P 21/C"
_symmetry_group_IT_number 14
_symmetry_cell_setting 'monoclinic'
loop_
_space_group_symop_operation_xyz
x,y,z
-x,1/2+y,1/2-z
-x,-y,-z
x,1/2-y,1/2+z
loop_
_atom_site_type_symbol
_atom_site_label
_atom_site_fract_x
_atom_site_fract_y
_atom_site_fract_z
Si Si1 0.626731 0.887736 0.581560
Si Si2 0.036145 0.254659 0.826730
Si Si3 0.107235 0.630698 0.617798
Si Si4 0.270661 0.902551 0.783693
Si Si5 0.489409 0.612890 0.170227
Si Si6 0.827354 0.893018 0.451513
O O1 0.667055 0.153281 0.660079
O O2 0.588944 0.524851 0.944250
O O3 0.552412 0.799786 0.615190
O O4 0.694994 0.646542 0.623638
O O5 0.137100 0.284597 0.914515
O O6 0.990295 0.538393 0.776723
O O7 0.986121 0.135365 0.895078
O O8 0.145069 0.341871 0.612329
O O9 0.176156 0.776908 0.741556
O O10 0.116052 0.837337 0.526629
O O11 0.262688 0.010454 0.656028
O O12 0.472277 0.877643 0.229579
#
# Coordination Sequence:
#
# PCOD9243827 Si02
#       6
#     4   4   4   4   4   4
#     4  11  22  42  68  95 124 164 210 245 308 382
#     4  12  24  36  56  88 122 152 202 262 304 346
#     4  10  20  39  62  80 111 161 207 234 300 360
#     4  10  20  38  68  86 116 160 204 246 298 366
#     4  11  24  43  66  96 128 163 204 253 302 366
#     4  10  20  39  62  80 111 161 207 234 300 360
#
# _framework density 24.548897
#
# number of rings (size 3 to 8) (size 9 to 14) (size 15 to 20)
#    1.000    0.333    1.667    5.000    0.000    2.667 
#    0.000   10.000    0.000    0.000    0.000    0.000 
#    0.000    0.000    0.000    0.000    0.000    0.000 
#
# Total GULP energy -133859.329713 kJ/mol
# GULP energy per Si atom -5577.472071 kJ/mol
# Density = 2.449302 g / cm^3
# Si number density = 24.548897 Si / 1000 Ang^3
#
#
#
# Elastic Constant Matrix: (Units=GPa)
#
#
# Indices 1 2 3 4 5 6 
#
# 1 39.4135 -3.8544 6.5335 0.0000 1.4965 0.0000
# 2 -3.8544 115.3181 1.9208 0.0000 8.2408 0.0000
# 3 6.5335 1.9208 76.7192 0.0000 25.9423 0.0000
# 4 0.0000 0.0000 0.0000 38.1418 0.0000 1.7010
# 5 1.4965 8.2408 25.9423 0.0000 34.5671 0.0000
# 6 0.0000 0.0000 0.0000 1.7010 0.0000 16.7953
#
#
#
# Elastic Compliance Matrix: (Units=1/GPa)
#
#
# Indices 1 2 3 4 5 6 
#
# 1 0.025834 0.000870 -0.002377 0.000000 0.000458 0.000000
# 2 0.000870 0.008876 0.000579 0.000000 -0.002588 0.000000
# 3 -0.002377 0.000579 0.017735 0.000000 -0.013345 0.000000
# 4 0.000000 0.000000 0.000000 0.026337 0.000000 -0.002667
# 5 0.000458 -0.002588 -0.013345 0.000000 0.039542 0.000000
# 6 0.000000 0.000000 0.000000 -0.002667 0.000000 0.059811
#
#
# Mechanical properties :
#
#
# Convention : Reuss Voigt Hill
#
# Bulk Modulus (GPa) = 19.76675 26.73895 23.25285
# Shear Modulus (GPa) = 25.39973 33.02423 29.21198
#
# Velocity S-wave (km/s) = 3.22010 3.67173 3.45331
# Velocity P-wave (km/s) = 4.67920 5.37506 5.03915
#
# Compressibility (1/GPa) = 0.05059001
#
# Stress axis : x y z
#
# Youngs Moduli (GPa) = 38.70907 112.66251 56.38546
#
# Poissons Ratio (x) = -0.09806 0.13401
# Poissons Ratio (y) = -0.03369 -0.03264
# Poissons Ratio (z) = 0.09200 -0.06521
#
# Static dielectric constant tensor:
#      x y z
#    x 1.982240 0.000000 0.036840 
#    y 0.000000 1.917610 0.000000 
#    z 0.036840 0.000000 2.080960 
# 
# From -- ./inp_files/49354.got.cif
#   From: 2010.05.17/outbox.cif.g08.bks.cpg/sg14_25_cif.got.tgz:49354.got - 2010.06.03 17:49:19.
