data_PCOD9243717
_publ_section_title
;
Structure prediction by ZEFSAII (Michael W. Deem and Ramdas Pophale) SiO2 
 PCOD9243717
Probable space group: P 21/C
;
_chemical_formula_sum "Si O2"
_cell_formula_units_Z 28
_cell_length_a 13.828891
_cell_length_b 7.909984
_cell_length_c 13.574008
_cell_angle_alpha 90.000000
_cell_angle_beta 50.659721
_cell_angle_gamma 90.000000
_cell_volume 1148.344724
_symmetry_space_group_name_H-M "P 21/C"
_symmetry_group_IT_number 14
_symmetry_cell_setting 'monoclinic'
loop_
_space_group_symop_operation_xyz
x,y,z
-x,1/2+y,1/2-z
-x,-y,-z
x,1/2-y,1/2+z
loop_
_atom_site_type_symbol
_atom_site_label
_atom_site_fract_x
_atom_site_fract_y
_atom_site_fract_z
Si Si1 0.440112 0.649751 0.974503
Si Si2 0.109673 0.870419 0.520878
Si Si3 0.790193 0.965148 0.362150
Si Si4 0.758449 0.470276 0.530008
Si Si5 0.906463 0.654379 0.582542
Si Si6 0.600342 0.665777 0.499632
Si Si7 0.625100 0.316965 0.204969
O O1 0.294465 0.633384 0.101691
O O2 0.534183 0.804431 0.937488
O O3 0.500000 0.500000 0.000000
O O4 0.429948 0.628381 0.864790
O O5 0.141822 0.681217 0.545049
O O6 0.237071 0.902808 0.375562
O O7 0.984002 0.827685 0.542444
O O8 0.112021 0.991657 0.614198
O O9 0.844289 0.891659 0.226644
O O10 0.690973 0.824938 0.461356
O O11 0.811642 0.632488 0.552878
O O12 0.690002 0.513603 0.472963
O O13 0.660159 0.380355 0.667091
O O14 0.000000 0.500000 0.500000
O O15 0.479421 0.663258 0.647288
#
# Coordination Sequence:
#
# PCOD9243717 Si02
#       7
#     4   4   4   4   4   4   4
#     4   9  20  35  58  86 117 155 195 232 295 369
#     4   8  20  38  59  82 115 150 201 244 285 355
#     4  10  21  38  61  87 114 160 197 243 301 361
#     4   9  21  36  58  89 116 156 193 241 298 349
#     4  10  20  38  64  82 114 159 205 245 296 350
#     4  11  22  33  63  89 123 154 192 248 302 359
#     4   9  20  35  58  88 122 150 199 242 298 359
#
# _framework density 24.382922000000001
#
# number of rings (size 3 to 8) (size 9 to 14) (size 15 to 20)
#    0.857    1.714    0.000    0.857   10.000    2.857 
#    0.000    0.714    0.000    0.000    0.000    0.000 
#    0.000    0.000    0.000    0.000    0.000    0.000 
#
# Total GULP energy -155992.688762 kJ/mol
# GULP energy per Si atom -5571.167456 kJ/mol
# Density = 2.432743 g / cm^3
# Si number density = 24.382922 Si / 1000 Ang^3
#
#
#
# Elastic Constant Matrix: (Units=GPa)
#
#
# Indices 1 2 3 4 5 6 
#
# 1 93.6082 27.3189 14.8594 0.0000 -3.6065 0.0000
# 2 27.3189 69.6004 20.7094 0.0000 -1.9498 0.0000
# 3 14.8594 20.7094 67.7723 0.0000 -4.6087 0.0000
# 4 0.0000 0.0000 0.0000 17.1894 0.0000 -6.2664
# 5 -3.6065 -1.9498 -4.6087 0.0000 12.7571 0.0000
# 6 0.0000 0.0000 0.0000 -6.2664 0.0000 46.7580
#
#
#
# Elastic Compliance Matrix: (Units=1/GPa)
#
#
# Indices 1 2 3 4 5 6 
#
# 1 0.012242 -0.004387 -0.001183 0.000000 0.002363 0.000000
# 2 -0.004387 0.017383 -0.004361 0.000000 -0.000159 0.000000
# 3 -0.001183 -0.004361 0.016689 0.000000 0.005028 0.000000
# 4 0.000000 0.000000 0.000000 0.061164 0.000000 0.008197
# 5 0.002363 -0.000159 0.005028 0.000000 0.080848 0.000000
# 6 0.000000 0.000000 0.000000 0.008197 0.000000 0.022485
#
#
# Mechanical properties :
#
#
# Convention : Reuss Voigt Hill
#
# Bulk Modulus (GPa) = 37.80316 39.63959 38.72137
# Shear Modulus (GPa) = 20.87780 26.54711 23.71245
#
# Velocity S-wave (km/s) = 2.92934 3.30321 3.12188
# Velocity P-wave (km/s) = 5.19413 5.55344 5.37679
#
# Compressibility (1/GPa) = 0.02645282
#
# Stress axis : x y z
#
# Youngs Moduli (GPa) = 81.68637 57.52845 59.91953
#
# Poissons Ratio (x) = 0.25237 0.07088
# Poissons Ratio (y) = 0.35835 0.26129
# Poissons Ratio (z) = 0.09663 0.25086
#
# Static dielectric constant tensor:
#      x y z
#    x 2.041000 0.000000 -0.006190 
#    y 0.000000 2.171110 0.000000 
#    z -0.006190 0.000000 1.846130 
# 
# From -- ./inp_files/46449.got.cif
#   From: 2010.05.17/outbox.cif.g08.bks.cpg/sg14_24_cif.got.tgz:46449.got - 2010.06.03 17:49:19.
