data_PCOD9243210
_publ_section_title
;
Structure prediction by ZEFSAII (Michael W. Deem and Ramdas Pophale) SiO2 
 PCOD9243210
Probable space group: P 21/C
;
_chemical_formula_sum "Si O2"
_cell_formula_units_Z 20
_cell_length_a 10.529849
_cell_length_b 20.542066
_cell_length_c 5.980471
_cell_angle_alpha 90.000000
_cell_angle_beta 140.851791
_cell_angle_gamma 90.000000
_cell_volume 816.689712
_symmetry_space_group_name_H-M "P 21/C"
_symmetry_group_IT_number 14
_symmetry_cell_setting 'monoclinic'
loop_
_space_group_symop_operation_xyz
x,y,z
-x,1/2+y,1/2-z
-x,-y,-z
x,1/2-y,1/2+z
loop_
_atom_site_type_symbol
_atom_site_label
_atom_site_fract_x
_atom_site_fract_y
_atom_site_fract_z
Si Si1 0.494675 0.739594 0.823657
Si Si2 0.284305 0.515703 0.317053
Si Si3 0.081674 0.066531 0.217986
Si Si4 0.493589 0.594698 0.925408
Si Si5 0.745802 0.365131 0.028683
O O1 0.594500 0.751939 0.711799
O O2 0.433354 0.664328 0.737147
O O3 0.309133 0.790538 0.586803
O O4 0.500000 0.500000 0.500000
O O5 0.345744 0.536451 0.648997
O O6 0.141338 0.456417 0.050140
O O7 0.209267 0.583641 0.104648
O O8 0.285440 0.083833 0.365800
O O9 0.922532 0.122969 0.950210
O O10 0.000000 0.000000 0.000000
O O11 0.459720 0.606903 0.139161
#
# Coordination Sequence:
#
# PCOD9243210 Si02
#       5
#     4   4   4   4   4
#     4  10  20  38  66  89 124 169 209 260 317 381
#     4   9  18  34  58  82 118 154 200 253 303 374
#     4   9  20  36  58  88 122 155 207 263 305 382
#     4  10  20  37  60  86 117 166 206 254 320 375
#     4  10  20  37  58  86 119 159 204 256 317 367
#
# _framework density 24.489104999999999
#
# number of rings (size 3 to 8) (size 9 to 14) (size 15 to 20)
#    0.000    2.400    2.000    0.000    0.000    8.000 
#    0.000   14.000    0.000    0.000    0.000    0.000 
#    0.000    0.000    0.000    0.000    0.000    0.000 
#
# Total GULP energy -111444.948405 kJ/mol
# GULP energy per Si atom -5572.247420 kJ/mol
# Density = 2.443337 g / cm^3
# Si number density = 24.489105 Si / 1000 Ang^3
#
#
#
# Elastic Constant Matrix: (Units=GPa)
#
#
# Indices 1 2 3 4 5 6 
#
# 1 101.7228 33.7744 26.5633 0.0000 -5.1055 0.0000
# 2 33.7744 131.8220 46.7796 0.0000 15.8833 0.0000
# 3 26.5633 46.7796 83.5329 0.0000 -4.3487 0.0000
# 4 0.0000 0.0000 0.0000 38.3945 0.0000 -16.2986
# 5 -5.1055 15.8833 -4.3487 0.0000 34.1651 0.0000
# 6 0.0000 0.0000 0.0000 -16.2986 0.0000 27.2401
#
#
#
# Elastic Compliance Matrix: (Units=1/GPa)
#
#
# Indices 1 2 3 4 5 6 
#
# 1 0.011325 -0.002473 -0.002082 0.000000 0.002577 0.000000
# 2 -0.002473 0.010985 -0.005688 0.000000 -0.006201 0.000000
# 3 -0.002082 -0.005688 0.016047 0.000000 0.004376 0.000000
# 4 0.000000 0.000000 0.000000 0.034913 0.000000 0.020890
# 5 0.002577 -0.006201 0.004376 0.000000 0.033094 0.000000
# 6 0.000000 0.000000 0.000000 0.020890 0.000000 0.049210
#
#
# Mechanical properties :
#
#
# Convention : Reuss Voigt Hill
#
# Bulk Modulus (GPa) = 55.96032 59.03472 57.49752
# Shear Modulus (GPa) = 27.46983 33.95729 30.71356
#
# Velocity S-wave (km/s) = 3.35284 3.72779 3.54527
# Velocity P-wave (km/s) = 6.15544 6.53356 6.34731
#
# Compressibility (1/GPa) = 0.01786980
#
# Stress axis : x y z
#
# Youngs Moduli (GPa) = 88.30138 91.03002 62.31791
#
# Poissons Ratio (x) = 0.22514 0.12975
# Poissons Ratio (y) = 0.21839 0.35448
# Poissons Ratio (z) = 0.18385 0.51781
#
# Static dielectric constant tensor:
#      x y z
#    x 2.034720 0.000000 -0.089770 
#    y 0.000000 1.941310 0.000000 
#    z -0.089770 0.000000 2.129070 
# 
# From -- ./inp_files/3033.got.cif
#   From: 2010.05.17/outbox.cif.g08.bks.cpg/sg14_2_cif.got.tgz:3033.got - 2010.06.03 17:49:19.
