data_PCOD9243168
_publ_section_title
;
Structure prediction by ZEFSAII (Michael W. Deem and Ramdas Pophale) SiO2 
 PCOD9243168
Probable space group: P 21/C
;
_chemical_formula_sum "Si O2"
_cell_formula_units_Z 32
_cell_length_a 11.359448
_cell_length_b 19.734433
_cell_length_c 9.596303
_cell_angle_alpha 90.000000
_cell_angle_beta 136.527485
_cell_angle_gamma 90.000000
_cell_volume 1480.056840
_symmetry_space_group_name_H-M "P 21/C"
_symmetry_group_IT_number 14
_symmetry_cell_setting 'monoclinic'
loop_
_space_group_symop_operation_xyz
x,y,z
-x,1/2+y,1/2-z
-x,-y,-z
x,1/2-y,1/2+z
loop_
_atom_site_type_symbol
_atom_site_label
_atom_site_fract_x
_atom_site_fract_y
_atom_site_fract_z
Si Si1 0.887933 0.764360 0.630031
Si Si2 0.464233 0.371357 0.417046
Si Si3 0.579554 0.284912 0.040153
Si Si4 0.803720 0.426404 0.763787
Si Si5 0.895465 0.219683 0.445983
Si Si6 0.387189 0.149348 0.150816
Si Si7 0.292045 0.118719 0.364241
Si Si8 0.809331 0.952170 0.481180
O O1 0.732357 0.712020 0.496250
O O2 0.846886 0.830691 0.686565
O O3 0.942001 0.775019 0.517654
O O4 0.047378 0.732257 0.848823
O O5 0.500004 0.290583 0.449771
O O6 0.636849 0.412218 0.526038
O O7 0.424605 0.390996 0.543733
O O8 0.302340 0.392557 0.187322
O O9 0.756318 0.272191 0.268644
O O10 0.557745 0.319871 0.869778
O O11 0.465067 0.336833 0.033216
O O12 0.828137 0.355371 0.863127
O O13 0.774144 0.483775 0.853497
O O14 0.985331 0.441914 0.845975
O O15 0.289933 0.112544 0.195201
O O16 0.265645 0.049986 0.426966
#
# Coordination Sequence:
#
# PCOD9243168 Si02
#       8
#     4   4   4   4   4   4   4   4
#     4  12  20  35  57  90 121 156 188 246 314 360
#     4  11  21  37  62  85 120 154 202 249 299 359
#     4   9  22  34  56  88 121 151 189 245 307 363
#     4  10  24  38  61  89 116 161 209 248 291 350
#     4  11  23  35  59  91 124 149 199 251 303 357
#     4  10  20  37  55  86 119 156 191 232 310 369
#     4  10  21  37  58  84 119 162 188 240 304 366
#     4  11  22  43  62  84 119 162 210 247 289 354
#
# _framework density 21.620791000000001
#
# number of rings (size 3 to 8) (size 9 to 14) (size 15 to 20)
#    0.750    0.750    3.750    1.875    3.500    1.000 
#    0.000    0.625    0.000    8.250    0.000    0.000 
#    0.000    0.000    0.000    0.000    0.000    0.000 
#
# Total GULP energy -178446.173512 kJ/mol
# GULP energy per Si atom -5576.442922 kJ/mol
# Density = 2.157158 g / cm^3
# Si number density = 21.620791 Si / 1000 Ang^3
#
#
#
# Elastic Constant Matrix: (Units=GPa)
#
#
# Indices 1 2 3 4 5 6 
#
# 1 59.7753 0.9978 9.4393 0.0000 -5.0210 0.0000
# 2 0.9978 8.6772 -5.2585 0.0000 8.8693 0.0000
# 3 9.4393 -5.2585 74.9986 0.0000 -1.0020 0.0000
# 4 0.0000 0.0000 0.0000 9.8608 0.0000 4.9406
# 5 -5.0210 8.8693 -1.0020 0.0000 38.2092 0.0000
# 6 0.0000 0.0000 0.0000 4.9406 0.0000 21.8336
#
#
#
# Elastic Compliance Matrix: (Units=1/GPa)
#
#
# Indices 1 2 3 4 5 6 
#
# 1 0.017629 -0.007823 -0.002713 0.000000 0.004061 0.000000
# 2 -0.007823 0.162670 0.011876 0.000000 -0.038476 0.000000
# 3 -0.002713 0.011876 0.014471 0.000000 -0.002734 0.000000
# 4 0.000000 0.000000 0.000000 0.114380 0.000000 -0.025882
# 5 0.004061 -0.038476 -0.002734 0.000000 0.035565 0.000000
# 6 0.000000 0.000000 0.000000 -0.025882 0.000000 0.051658
#
#
# Mechanical properties :
#
#
# Convention : Reuss Voigt Hill
#
# Bulk Modulus (GPa) = 5.06455 17.08981 11.07718
# Shear Modulus (GPa) = 10.88117 23.19889 17.04003
#
# Velocity S-wave (km/s) = 2.24581 3.27921 2.81041
# Velocity P-wave (km/s) = 3.01204 4.71795 3.95800
#
# Compressibility (1/GPa) = 0.19745083
#
# Stress axis : x y z
#
# Youngs Moduli (GPa) = 56.72325 6.14742 69.10282
#
# Poissons Ratio (x) = 0.04809 0.18748
# Poissons Ratio (y) = 0.44373 -0.82066
# Poissons Ratio (z) = 0.15389 -0.07301
#
# Static dielectric constant tensor:
#      x y z
#    x 1.841890 0.000000 0.028500 
#    y 0.000000 1.796620 0.000000 
#    z 0.028500 0.000000 1.810420 
# 
# From -- ./inp_files/14324.got.cif
#   From: 2010.05.17/outbox.cif.g08.bks.cpg/sg14_8_cif.got.tgz:14324.got - 2010.06.03 17:49:19.
