data_PCOD9243910
_publ_section_title
;
Structure prediction by ZEFSAII (Michael W. Deem and Ramdas Pophale) SiO2 
 PCOD9243910
Probable space group: P 21/C
;
_chemical_formula_sum "Si O2"
_cell_formula_units_Z 32
_cell_length_a 13.877655
_cell_length_b 15.061766
_cell_length_c 14.438610
_cell_angle_alpha 90.000000
_cell_angle_beta 30.174267
_cell_angle_gamma 90.000000
_cell_volume 1516.936035
_symmetry_space_group_name_H-M "P 21/C"
_symmetry_group_IT_number 14
_symmetry_cell_setting 'monoclinic'
loop_
_space_group_symop_operation_xyz
x,y,z
-x,1/2+y,1/2-z
-x,-y,-z
x,1/2-y,1/2+z
loop_
_atom_site_type_symbol
_atom_site_label
_atom_site_fract_x
_atom_site_fract_y
_atom_site_fract_z
Si Si1 0.411434 0.115746 0.505720
Si Si2 0.903958 0.378822 0.133301
Si Si3 0.183910 0.221001 0.539746
Si Si4 0.863665 0.155493 0.337644
Si Si5 0.452468 0.236216 0.656217
Si Si6 0.520069 0.605771 0.492151
Si Si7 0.922736 0.921322 0.694327
Si Si8 0.183508 0.540897 0.294201
O O1 0.320213 0.164054 0.493087
O O2 0.412442 0.180932 0.595077
O O3 0.628975 0.079467 0.307399
O O4 0.279287 0.033714 0.648502
O O5 0.680920 0.353144 0.308477
O O6 0.900427 0.481201 0.168373
O O7 0.031014 0.332956 0.105071
O O8 0.001509 0.363575 0.954016
O O9 0.308969 0.275219 0.360865
O O10 0.036795 0.280064 0.720295
O O11 0.661181 0.202905 0.514772
O O12 0.883843 0.120569 0.216524
O O13 0.912385 0.075226 0.365963
O O14 0.445391 0.339961 0.631702
O O15 0.500000 0.500000 0.500000
O O16 0.709572 0.612077 0.396965
O O17 0.000000 0.500000 0.500000
#
# Coordination Sequence:
#
# PCOD9243910 Si02
#       8
#     4   4   4   4   4   4   4   4
#     4  10  24  42  68  93 133 169 220 275 319 390
#     4  10  21  38  63  90 125 161 211 262 319 380
#     4  12  23  39  63  96 128 173 211 266 328 384
#     4  11  24  40  63  94 131 167 218 266 320 389
#     4  11  23  42  61  95 133 165 216 269 323 383
#     4  10  20  39  61  88 126 165 205 261 316 381
#     4  10  21  39  61  89 122 166 205 266 320 375
#     4  10  22  47  67  93 127 175 220 270 324 384
#
# _framework density 21.095155999999999
#
# number of rings (size 3 to 8) (size 9 to 14) (size 15 to 20)
#    0.000    1.500    2.500    2.250    0.000    3.000 
#    4.500    0.000    0.000    0.000    0.000    0.000 
#    0.000    0.000    0.000    0.000    0.000    0.000 
#
# Total GULP energy -178345.545611 kJ/mol
# GULP energy per Si atom -5573.298300 kJ/mol
# Density = 2.104714 g / cm^3
# Si number density = 21.095156 Si / 1000 Ang^3
#
#
#
# Elastic Constant Matrix: (Units=GPa)
#
#
# Indices 1 2 3 4 5 6 
#
# 1 114.2364 28.3286 44.8232 0.0000 -35.6979 0.0000
# 2 28.3286 33.1082 25.6996 0.0000 -18.7463 0.0000
# 3 44.8232 25.6996 111.2105 0.0000 -33.7969 0.0000
# 4 0.0000 0.0000 0.0000 27.9586 0.0000 -7.1181
# 5 -35.6979 -18.7463 -33.7969 0.0000 30.3080 0.0000
# 6 0.0000 0.0000 0.0000 -7.1181 0.0000 38.9938
#
#
#
# Elastic Compliance Matrix: (Units=1/GPa)
#
#
# Indices 1 2 3 4 5 6 
#
# 1 0.014246 -0.003979 -0.000712 0.000000 0.013524 0.000000
# 2 -0.003979 0.048280 -0.002878 0.000000 0.021967 0.000000
# 3 -0.000712 -0.002878 0.013837 0.000000 0.012812 0.000000
# 4 0.000000 0.000000 0.000000 0.037510 0.000000 0.006847
# 5 0.013524 0.021967 0.012812 0.000000 0.076798 0.000000
# 6 0.000000 0.000000 0.000000 0.006847 0.000000 0.026895
#
#
# Mechanical properties :
#
#
# Convention : Reuss Voigt Hill
#
# Bulk Modulus (GPa) = 16.33289 50.69532 33.51410
# Shear Modulus (GPa) = 19.75397 30.09899 24.92648
#
# Velocity S-wave (km/s) = 3.06342 3.78142 3.44120
# Velocity P-wave (km/s) = 4.50245 6.56883 5.63123
#
# Compressibility (1/GPa) = 0.06122617
#
# Stress axis : x y z
#
# Youngs Moduli (GPa) = 70.19410 20.71240 72.26749
#
# Poissons Ratio (x) = 0.08241 0.05148
# Poissons Ratio (y) = 0.27930 0.20795
# Poissons Ratio (z) = 0.05000 0.05960
#
# Static dielectric constant tensor:
#      x y z
#    x 1.813350 0.000000 0.007600 
#    y 0.000000 0.408850 0.000000 
#    z 0.007600 0.000000 1.823690 
# 
# From -- ./inp_files/47390.got.cif
#   From: 2010.05.17/outbox.cif.g08.bks.cpg/sg14_24_cif.got.tgz:47390.got - 2010.06.03 17:49:19.
