data_PCOD9243544
_publ_section_title
;
Structure prediction by ZEFSAII (Michael W. Deem and Ramdas Pophale) SiO2 
 PCOD9243544
Probable space group: P 21/C
;
_chemical_formula_sum "Si O2"
_cell_formula_units_Z 20
_cell_length_a 6.857899
_cell_length_b 13.333183
_cell_length_c 10.566312
_cell_angle_alpha 90.000000
_cell_angle_beta 68.251428
_cell_angle_gamma 90.000000
_cell_volume 897.386117
_symmetry_space_group_name_H-M "P 21/C"
_symmetry_group_IT_number 14
_symmetry_cell_setting 'monoclinic'
loop_
_space_group_symop_operation_xyz
x,y,z
-x,1/2+y,1/2-z
-x,-y,-z
x,1/2-y,1/2+z
loop_
_atom_site_type_symbol
_atom_site_label
_atom_site_fract_x
_atom_site_fract_y
_atom_site_fract_z
Si Si1 0.791230 0.482476 0.896538
Si Si2 0.039922 0.159994 0.963085
Si Si3 0.683085 0.039535 0.145014
Si Si4 0.251550 0.536358 0.809707
Si Si5 0.937691 0.802871 0.315120
O O1 0.713818 0.432796 0.786358
O O2 0.043272 0.467612 0.849326
O O3 0.782072 0.603358 0.879935
O O4 0.693851 0.454782 0.054471
O O5 0.072380 0.224210 0.829100
O O6 0.798817 0.123142 0.034676
O O7 0.097872 0.217405 0.075744
O O8 0.181211 0.061165 0.911014
O O9 0.441725 0.010828 0.186927
O O10 0.164642 0.643579 0.784262
#
# Coordination Sequence:
#
# PCOD9243544 Si02
#       5
#     4   4   4   4   4
#     4   8  18  36  59  86 113 148 187 242 282 342
#     4  10  22  38  58  84 122 149 193 243 286 338
#     4  10  20  38  60  85 114 159 189 233 292 351
#     4   9  18  36  60  85 114 148 196 231 292 348
#     4   9  20  38  55  83 117 150 189 243 286 330
#
# _framework density 22.286950999999998
#
# number of rings (size 3 to 8) (size 9 to 14) (size 15 to 20)
#    1.200    1.600    0.000    0.600    2.800    0.800 
#    3.600    2.000    0.000    0.000    0.000    0.000 
#    0.000    0.000    0.000    0.000    0.000    0.000 
#
# Total GULP energy -111519.778787 kJ/mol
# GULP energy per Si atom -5575.988939 kJ/mol
# Density = 2.223623 g / cm^3
# Si number density = 22.286951 Si / 1000 Ang^3
#
#
#
# Elastic Constant Matrix: (Units=GPa)
#
#
# Indices 1 2 3 4 5 6 
#
# 1 47.8692 -6.9544 19.3295 0.0000 -19.4473 0.0000
# 2 -6.9544 23.2461 16.7061 0.0000 12.6679 0.0000
# 3 19.3295 16.7061 100.6606 0.0000 13.8865 0.0000
# 4 0.0000 0.0000 0.0000 26.9648 0.0000 13.9874
# 5 -19.4473 12.6679 13.8865 0.0000 43.0287 0.0000
# 6 0.0000 0.0000 0.0000 13.9874 0.0000 12.9106
#
#
#
# Elastic Compliance Matrix: (Units=1/GPa)
#
#
# Indices 1 2 3 4 5 6 
#
# 1 0.032171 0.008264 -0.009649 0.000000 0.015221 0.000000
# 2 0.008264 0.058110 -0.009824 0.000000 -0.010203 0.000000
# 3 -0.009649 -0.009824 0.014255 0.000000 -0.006069 0.000000
# 4 0.000000 0.000000 0.000000 0.084669 0.000000 -0.091731
# 5 0.015221 -0.010203 -0.006069 0.000000 0.035082 0.000000
# 6 0.000000 0.000000 0.000000 -0.091731 0.000000 0.176838
#
#
# Mechanical properties :
#
#
# Convention : Reuss Voigt Hill
#
# Bulk Modulus (GPa) = 12.17753 25.54871 18.86312
# Shear Modulus (GPa) = 11.08860 26.09380 18.59120
#
# Velocity S-wave (km/s) = 2.23298 3.42542 2.89134
# Velocity P-wave (km/s) = 3.48196 5.20895 4.43042
#
# Compressibility (1/GPa) = 0.08211844
#
# Stress axis : x y z
#
# Youngs Moduli (GPa) = 31.08420 17.20874 70.15144
#
# Poissons Ratio (x) = -0.14221 0.67689
# Poissons Ratio (y) = -0.25688 0.68914
# Poissons Ratio (z) = 0.29993 0.16905
#
# Static dielectric constant tensor:
#      x y z
#    x 1.873730 0.000000 0.017100 
#    y 0.000000 1.818160 0.000000 
#    z 0.017100 0.000000 1.842140 
# 
# From -- ./inp_files/24464.got.cif
#   From: 2010.05.17/outbox.cif.g08.bks.cpg/sg14_13_cif.got.tgz:24464.got - 2010.06.03 17:49:19.
