data_PCOD9243976
_publ_section_title
;
Structure prediction by ZEFSAII (Michael W. Deem and Ramdas Pophale) SiO2 
 PCOD9243976
Probable space group: P 21/C
;
_chemical_formula_sum "Si O2"
_cell_formula_units_Z 28
_cell_length_a 24.928669
_cell_length_b 8.390752
_cell_length_c 10.678417
_cell_angle_alpha 90.000000
_cell_angle_beta 149.754817
_cell_angle_gamma 90.000000
_cell_volume 1125.071097
_symmetry_space_group_name_H-M "P 21/C"
_symmetry_group_IT_number 14
_symmetry_cell_setting 'monoclinic'
loop_
_space_group_symop_operation_xyz
x,y,z
-x,1/2+y,1/2-z
-x,-y,-z
x,1/2-y,1/2+z
loop_
_atom_site_type_symbol
_atom_site_label
_atom_site_fract_x
_atom_site_fract_y
_atom_site_fract_z
Si Si1 0.676692 0.177933 0.295221
Si Si2 0.306406 0.502183 0.399673
Si Si3 0.379472 0.972300 0.483609
Si Si4 0.491320 0.739196 0.863776
Si Si5 0.889290 0.677107 0.686895
Si Si6 0.769211 0.818746 0.677565
Si Si7 0.867208 0.150178 0.294960
O O1 0.684651 0.018860 0.230326
O O2 0.678139 0.334290 0.207955
O O3 0.555641 0.188883 0.104209
O O4 0.784983 0.213082 0.588440
O O5 0.392322 0.619763 0.633753
O O6 0.309394 0.331746 0.468179
O O7 0.189638 0.569565 0.200535
O O8 0.409473 0.123212 0.457377
O O9 0.308096 0.031557 0.455326
O O10 0.482471 0.882617 0.747124
O O11 0.834269 0.788980 0.681829
O O12 0.840584 0.688537 0.449123
O O13 0.875586 0.495207 0.711194
O O14 0.015137 0.710380 0.939353
#
# Coordination Sequence:
#
# PCOD9243976 Si02
#       7
#     4   4   4   4   4   4   4
#     4  10  20  39  63  90 122 168 209 267 324 388
#     4   9  21  38  60  90 127 162 216 267 317 380
#     4  11  22  41  64  90 130 164 217 264 331 387
#     4  10  22  40  62  93 121 169 211 268 325 391
#     4  10  22  39  65  93 129 172 219 261 325 375
#     4  11  23  41  63  98 129 173 217 271 319 384
#     4   9  19  40  61  85 130 173 205 258 327 387
#
# _framework density 24.887318
#
# number of rings (size 3 to 8) (size 9 to 14) (size 15 to 20)
#    0.000    2.000    1.429    1.286    4.000    0.000 
#    5.143    4.286    0.000    0.000    0.000    0.000 
#    0.000    0.000    0.000    0.000    0.000    0.000 
#
# Total GULP energy -156432.742374 kJ/mol
# GULP energy per Si atom -5586.883656 kJ/mol
# Density = 2.483067 g / cm^3
# Si number density = 24.887318 Si / 1000 Ang^3
#
#
#
# Elastic Constant Matrix: (Units=GPa)
#
#
# Indices 1 2 3 4 5 6 
#
# 1 75.0180 18.4238 13.1384 0.0000 13.6243 0.0000
# 2 18.4238 67.3107 24.6262 0.0000 7.9503 0.0000
# 3 13.1384 24.6262 90.0261 0.0000 8.3315 0.0000
# 4 0.0000 0.0000 0.0000 26.4041 0.0000 2.7683
# 5 13.6243 7.9503 8.3315 0.0000 34.4147 0.0000
# 6 0.0000 0.0000 0.0000 2.7683 0.0000 42.9091
#
#
#
# Elastic Compliance Matrix: (Units=1/GPa)
#
#
# Indices 1 2 3 4 5 6 
#
# 1 0.015197 -0.003247 -0.000862 0.000000 -0.005058 0.000000
# 2 -0.003247 0.017467 -0.004143 0.000000 -0.001747 0.000000
# 3 -0.000862 -0.004143 0.012527 0.000000 -0.001735 0.000000
# 4 0.000000 0.000000 0.000000 0.038131 0.000000 -0.002460
# 5 -0.005058 -0.001747 -0.001735 0.000000 0.031883 0.000000
# 6 0.000000 0.000000 0.000000 -0.002460 0.000000 0.023464
#
#
# Mechanical properties :
#
#
# Convention : Reuss Voigt Hill
#
# Bulk Modulus (GPa) = 34.85631 38.30351 36.57991
# Shear Modulus (GPa) = 30.35188 32.49001 31.42094
#
# Velocity S-wave (km/s) = 3.49603 3.61707 3.55706
# Velocity P-wave (km/s) = 5.50748 5.73310 5.62142
#
# Compressibility (1/GPa) = 0.02868921
#
# Stress axis : x y z
#
# Youngs Moduli (GPa) = 65.80248 57.25037 79.82538
#
# Poissons Ratio (x) = 0.18589 0.06878
# Poissons Ratio (y) = 0.21366 0.33068
# Poissons Ratio (z) = 0.05669 0.23716
#
# Static dielectric constant tensor:
#      x y z
#    x 2.063280 0.000000 -0.041030 
#    y 0.000000 1.994850 0.000000 
#    z -0.041030 0.000000 1.985780 
# 
# From -- ./inp_files/31519.got.cif
#   From: 2010.05.17/outbox.cif.g08.bks.cpg/sg14_16_cif.got.tgz:31519.got - 2010.06.03 17:49:19.
