data_PCOD9243794
_publ_section_title
;
Structure prediction by ZEFSAII (Michael W. Deem and Ramdas Pophale) SiO2 
 PCOD9243794
Probable space group: P 21/C
;
_chemical_formula_sum "Si O2"
_cell_formula_units_Z 24
_cell_length_a 17.842450
_cell_length_b 7.786379
_cell_length_c 15.679621
_cell_angle_alpha 90.000000
_cell_angle_beta 24.321311
_cell_angle_gamma 90.000000
_cell_volume 897.156409
_symmetry_space_group_name_H-M "P 21/C"
_symmetry_group_IT_number 14
_symmetry_cell_setting 'monoclinic'
loop_
_space_group_symop_operation_xyz
x,y,z
-x,1/2+y,1/2-z
-x,-y,-z
x,1/2-y,1/2+z
loop_
_atom_site_type_symbol
_atom_site_label
_atom_site_fract_x
_atom_site_fract_y
_atom_site_fract_z
Si Si1 0.467619 0.368543 0.900217
Si Si2 0.282321 0.500917 0.946550
Si Si3 0.043032 0.804949 0.240911
Si Si4 0.231715 0.041813 0.168896
Si Si5 0.215020 0.296918 0.855147
Si Si6 0.624122 0.315772 0.903880
O O1 0.462956 0.443787 0.809386
O O2 0.386712 0.176973 0.982185
O O3 0.338020 0.516043 0.078872
O O4 0.638179 0.350964 0.788096
O O5 0.208092 0.690901 0.038110
O O6 0.121233 0.370771 0.147941
O O7 0.277031 0.453513 0.852680
O O8 0.935787 0.708447 0.429686
O O9 0.114814 0.980133 0.210506
O O10 0.137819 0.141546 0.345173
O O11 0.297221 0.861233 0.142413
O O12 0.405629 0.206218 0.642479
#
# Coordination Sequence:
#
# PCOD9243794 Si02
#       6
#     4   4   4   4   4   4
#     4  10  20  38  66  87 125 159 205 251 314 369
#     4  10  21  40  58  91 124 166 206 261 314 365
#     4  10  21  39  64  87 128 169 208 259 316 374
#     4  11  20  42  67  90 126 166 204 261 315 377
#     4   9  22  38  62  90 123 164 208 253 313 375
#     4  10  21  42  64  90 123 164 207 256 312 382
#
# _framework density 26.751187999999999
#
# number of rings (size 3 to 8) (size 9 to 14) (size 15 to 20)
#    1.000    1.000    1.667    3.500    0.000    0.000 
#    6.000   10.000    0.000    0.000    0.000    0.000 
#    0.000    0.000    0.000    0.000    0.000    0.000 
#
# Total GULP energy -133866.883023 kJ/mol
# GULP energy per Si atom -5577.786793 kJ/mol
# Density = 2.669030 g / cm^3
# Si number density = 26.751188 Si / 1000 Ang^3
#
#
#
# Elastic Constant Matrix: (Units=GPa)
#
#
# Indices 1 2 3 4 5 6 
#
# 1 83.0577 36.3573 -3.1077 0.0000 1.0136 0.0000
# 2 36.3573 127.4444 18.7627 0.0000 2.4152 0.0000
# 3 -3.1077 18.7627 60.9617 0.0000 2.0534 0.0000
# 4 0.0000 0.0000 0.0000 42.4310 0.0000 -4.1933
# 5 1.0136 2.4152 2.0534 0.0000 34.5690 0.0000
# 6 0.0000 0.0000 0.0000 -4.1933 0.0000 46.5562
#
#
#
# Elastic Compliance Matrix: (Units=1/GPa)
#
#
# Indices 1 2 3 4 5 6 
#
# 1 0.013997 -0.004289 0.002041 0.000000 -0.000232 0.000000
# 2 -0.004289 0.009540 -0.003143 0.000000 -0.000354 0.000000
# 3 0.002041 -0.003143 0.017505 0.000000 -0.000880 0.000000
# 4 0.000000 0.000000 0.000000 0.023779 0.000000 0.002142
# 5 -0.000232 -0.000354 -0.000880 0.000000 0.029011 0.000000
# 6 0.000000 0.000000 0.000000 0.002142 0.000000 0.021672
#
#
# Mechanical properties :
#
#
# Convention : Reuss Voigt Hill
#
# Bulk Modulus (GPa) = 33.04702 41.72092 37.38397
# Shear Modulus (GPa) = 36.66459 39.34137 38.00298
#
# Velocity S-wave (km/s) = 3.70615 3.83905 3.77319
# Velocity P-wave (km/s) = 5.54025 5.93977 5.74348
#
# Compressibility (1/GPa) = 0.03025992
#
# Stress axis : x y z
#
# Youngs Moduli (GPa) = 71.44636 104.82689 57.12740
#
# Poissons Ratio (x) = 0.44961 -0.11662
# Poissons Ratio (y) = 0.30644 0.17954
# Poissons Ratio (z) = -0.14585 0.32945
#
# Static dielectric constant tensor:
#      x y z
#    x 2.128790 0.000000 0.045560 
#    y 0.000000 2.078990 0.000000 
#    z 0.045560 0.000000 2.167690 
# 
# From -- ./inp_files/60990.got.cif
#   From: 2010.05.17/outbox.cif.g08.bks.cpg/sg14_31_cif.got.tgz:60990.got - 2010.06.03 17:49:19.
