data_PCOD9243990
_publ_section_title
;
Structure prediction by ZEFSAII (Michael W. Deem and Ramdas Pophale) SiO2 
 PCOD9243990
Probable space group: P 21/C
;
_chemical_formula_sum "Si O2"
_cell_formula_units_Z 28
_cell_length_a 9.137995
_cell_length_b 14.493857
_cell_length_c 10.855866
_cell_angle_alpha 90.000000
_cell_angle_beta 103.008902
_cell_angle_gamma 90.000000
_cell_volume 1400.901858
_symmetry_space_group_name_H-M "P 21/C"
_symmetry_group_IT_number 14
_symmetry_cell_setting 'monoclinic'
loop_
_space_group_symop_operation_xyz
x,y,z
-x,1/2+y,1/2-z
-x,-y,-z
x,1/2-y,1/2+z
loop_
_atom_site_type_symbol
_atom_site_label
_atom_site_fract_x
_atom_site_fract_y
_atom_site_fract_z
Si Si1 0.327618 0.365240 0.196575
Si Si2 0.630879 0.827525 0.912985
Si Si3 0.389883 0.774299 0.495120
Si Si4 0.372453 0.523395 0.717879
Si Si5 0.220527 0.793861 0.199368
Si Si6 0.868563 0.725516 0.646675
Si Si7 0.320708 0.400638 0.925691
O O1 0.391300 0.261627 0.179704
O O2 0.465686 0.428600 0.262347
O O3 0.194830 0.346641 0.265719
O O4 0.271501 0.408257 0.057618
O O5 0.499968 0.813394 0.989558
O O6 0.626670 0.927401 0.854316
O O7 0.791212 0.807494 0.005355
O O8 0.293420 0.783734 0.350521
O O9 0.296542 0.764542 0.603020
O O10 0.513371 0.854871 0.536047
O O11 0.250902 0.600711 0.662718
O O12 0.335142 0.491952 0.850170
O O13 0.045730 0.771314 0.175389
O O14 0.793051 0.825948 0.655394
#
# Coordination Sequence:
#
# PCOD9243990 Si02
#       7
#     4   4   4   4   4   4   4
#     4  10  20  39  63  93 123 170 214 265 315 389
#     4  10  22  40  67  90 129 168 220 268 327 381
#     4  10  23  43  64 100 126 178 218 280 321 383
#     4  12  21  41  70 101 122 168 231 276 315 389
#     4  12  25  39  68  97 137 167 224 267 335 392
#     4  10  23  41  61  91 139 175 200 262 344 392
#     4  10  21  39  68  88 125 175 219 264 320 391
#
# _framework density 19.987126
#
# number of rings (size 3 to 8) (size 9 to 14) (size 15 to 20)
#    0.000    1.714    4.286    3.000    4.000    2.857 
#    0.000    3.571    0.000    0.000    0.000    0.000 
#    0.000    0.000    0.000    0.000    0.000    0.000 
#
# Total GULP energy -156200.644033 kJ/mol
# GULP energy per Si atom -5578.594430 kJ/mol
# Density = 1.994163 g / cm^3
# Si number density = 19.987126 Si / 1000 Ang^3
#
#
#
# Elastic Constant Matrix: (Units=GPa)
#
#
# Indices 1 2 3 4 5 6 
#
# 1 103.3368 2.5520 22.0290 0.0000 22.4924 0.0000
# 2 2.5520 54.5711 4.9411 0.0000 5.0491 0.0000
# 3 22.0290 4.9411 51.9598 0.0000 8.0760 0.0000
# 4 0.0000 0.0000 0.0000 24.2344 0.0000 -7.2611
# 5 22.4924 5.0491 8.0760 0.0000 26.9025 0.0000
# 6 0.0000 0.0000 0.0000 -7.2611 0.0000 14.6448
#
#
#
# Elastic Compliance Matrix: (Units=1/GPa)
#
#
# Indices 1 2 3 4 5 6 
#
# 1 0.012550 0.000641 -0.003915 0.000000 -0.009438 0.000000
# 2 0.000641 0.018764 -0.001495 0.000000 -0.003609 0.000000
# 3 -0.003915 -0.001495 0.021498 0.000000 -0.002900 0.000000
# 4 0.000000 0.000000 0.000000 0.048463 0.000000 0.024029
# 5 -0.009438 -0.003609 -0.002900 0.000000 0.046610 0.000000
# 6 0.000000 0.000000 0.000000 0.024029 0.000000 0.080198
#
#
# Mechanical properties :
#
#
# Convention : Reuss Voigt Hill
#
# Bulk Modulus (GPa) = 23.10854 29.87909 26.49381
# Shear Modulus (GPa) = 19.83765 25.17939 22.50852
#
# Velocity S-wave (km/s) = 3.15385 3.55319 3.35946
# Velocity P-wave (km/s) = 4.98489 5.64049 5.32280
#
# Compressibility (1/GPa) = 0.04327405
#
# Stress axis : x y z
#
# Youngs Moduli (GPa) = 79.68087 53.29356 46.51526
#
# Poissons Ratio (x) = -0.03415 0.18210
# Poissons Ratio (y) = -0.05106 0.06955
# Poissons Ratio (z) = 0.31194 0.07968
#
# Static dielectric constant tensor:
#      x y z
#    x 1.688790 0.000000 -0.037770 
#    y 0.000000 1.707120 0.000000 
#    z -0.037770 0.000000 1.815050 
# 
# From -- ./inp_files/25315.got.cif
#   From: 2010.05.17/outbox.cif.g08.bks.cpg/sg14_13_cif.got.tgz:25315.got - 2010.06.03 17:49:19.
