data_PCOD9243145
_publ_section_title
;
Structure prediction by ZEFSAII (Michael W. Deem and Ramdas Pophale) SiO2 
 PCOD9243145
Probable space group: P 21/C
;
_chemical_formula_sum "Si O2"
_cell_formula_units_Z 32
_cell_length_a 29.226135
_cell_length_b 7.526430
_cell_length_c 20.023539
_cell_angle_alpha 90.000000
_cell_angle_beta 21.191232
_cell_angle_gamma 90.000000
_cell_volume 1592.163991
_symmetry_space_group_name_H-M "P 21/C"
_symmetry_group_IT_number 14
_symmetry_cell_setting 'monoclinic'
loop_
_space_group_symop_operation_xyz
x,y,z
-x,1/2+y,1/2-z
-x,-y,-z
x,1/2-y,1/2+z
loop_
_atom_site_type_symbol
_atom_site_label
_atom_site_fract_x
_atom_site_fract_y
_atom_site_fract_z
Si Si1 0.273010 0.164152 0.465816
Si Si2 0.438617 0.407338 0.941763
Si Si3 0.809548 0.505338 0.644220
Si Si4 0.025809 0.277940 0.885969
Si Si5 0.687386 0.001953 0.169355
Si Si6 0.762782 0.267428 0.954013
Si Si7 0.032173 0.183008 0.533453
Si Si8 0.500521 0.792855 0.253141
O O1 0.150612 0.235261 0.673075
O O2 0.296178 0.293708 0.371488
O O3 0.399401 0.184423 0.338309
O O4 0.251329 0.954246 0.487966
O O5 0.541811 0.433231 0.859489
O O6 0.441301 0.215674 0.901442
O O7 0.491013 0.529971 0.810374
O O8 0.303405 0.473558 0.148994
O O9 0.747783 0.455332 0.657893
O O10 0.917899 0.368159 0.518988
O O11 0.872922 0.699356 0.552720
O O12 0.971302 0.474556 0.945874
O O13 0.061863 0.283732 0.915162
O O14 0.756539 0.110735 0.016338
O O15 0.892390 0.257664 0.737798
O O16 0.646296 0.247332 0.061136
#
# Coordination Sequence:
#
# PCOD9243145 Si02
#       8
#     4   4   4   4   4   4   4   4
#     4  11  21  40  63  93 128 166 209 264 311 372
#     4  10  21  41  65  93 123 157 209 262 314 369
#     4  12  24  44  64  89 131 178 200 256 323 376
#     4  11  24  40  63  96 127 160 213 267 315 375
#     4  10  25  41  62  92 129 167 223 252 300 383
#     4  11  21  40  63  93 128 166 209 264 311 372
#     4  11  24  40  63  96 127 160 213 267 315 375
#     4  10  20  36  66  94 116 156 204 258 320 368
#
# _framework density 20.098431999999999
#
# number of rings (size 3 to 8) (size 9 to 14) (size 15 to 20)
#    0.000    1.250    3.750    2.250    0.000    2.000 
#    2.250    0.000    0.000    4.500    0.000    0.000 
#    0.000    0.000    0.000    0.000    0.000    0.000 
#
# Total GULP energy -178489.548614 kJ/mol
# GULP energy per Si atom -5577.798394 kJ/mol
# Density = 2.005269 g / cm^3
# Si number density = 20.098432 Si / 1000 Ang^3
#
#
#
# Elastic Constant Matrix: (Units=GPa)
#
#
# Indices 1 2 3 4 5 6 
#
# 1 58.4957 21.3664 5.2062 0.0000 -14.4093 0.0000
# 2 21.3664 83.0857 19.2960 0.0000 -10.4852 0.0000
# 3 5.2062 19.2960 56.4545 0.0000 -4.7497 0.0000
# 4 0.0000 0.0000 0.0000 22.2676 0.0000 -3.8659
# 5 -14.4093 -10.4852 -4.7497 0.0000 12.6502 0.0000
# 6 0.0000 0.0000 0.0000 -3.8659 0.0000 24.1568
#
#
#
# Elastic Compliance Matrix: (Units=1/GPa)
#
#
# Indices 1 2 3 4 5 6 
#
# 1 0.024510 -0.003316 0.001023 0.000000 0.025554 0.000000
# 2 -0.003316 0.014718 -0.004147 0.000000 0.006865 0.000000
# 3 0.001023 -0.004147 0.019460 0.000000 0.005034 0.000000
# 4 0.000000 0.000000 0.000000 0.046192 0.000000 0.007392
# 5 0.025554 0.006865 0.005034 0.000000 0.115738 0.000000
# 6 0.000000 0.000000 0.000000 0.007392 0.000000 0.042579
#
#
# Mechanical properties :
#
#
# Convention : Reuss Voigt Hill
#
# Bulk Modulus (GPa) = 21.83012 32.19700 27.01356
# Shear Modulus (GPa) = 17.16167 21.95941 19.56054
#
# Velocity S-wave (km/s) = 2.92529 3.30903 3.12306
# Velocity P-wave (km/s) = 4.72176 5.53660 5.14534
#
# Compressibility (1/GPa) = 0.04580827
#
# Stress axis : x y z
#
# Youngs Moduli (GPa) = 40.79936 67.94419 51.38724
#
# Poissons Ratio (x) = 0.22529 -0.05257
# Poissons Ratio (y) = 0.13528 0.21311
# Poissons Ratio (z) = -0.04174 0.28178
#
# Static dielectric constant tensor:
#      x y z
#    x 1.698340 0.000000 0.006480 
#    y 0.000000 1.852880 0.000000 
#    z 0.006480 0.000000 1.700320 
# 
# From -- ./inp_files/70707.got.cif
#   From: 2010.05.17/outbox.cif.g08.bks.cpg/sg14_36_cif.got.tgz:70707.got - 2010.06.03 17:49:19.
