data_PCOD9243705
_publ_section_title
;
Structure prediction by ZEFSAII (Michael W. Deem and Ramdas Pophale) SiO2 
 PCOD9243705
Probable space group: P 21/C
;
_chemical_formula_sum "Si O2"
_cell_formula_units_Z 24
_cell_length_a 12.393913
_cell_length_b 8.634215
_cell_length_c 12.901642
_cell_angle_alpha 90.000000
_cell_angle_beta 42.827962
_cell_angle_gamma 90.000000
_cell_volume 938.549116
_symmetry_space_group_name_H-M "P 21/C"
_symmetry_group_IT_number 14
_symmetry_cell_setting 'monoclinic'
loop_
_space_group_symop_operation_xyz
x,y,z
-x,1/2+y,1/2-z
-x,-y,-z
x,1/2-y,1/2+z
loop_
_atom_site_type_symbol
_atom_site_label
_atom_site_fract_x
_atom_site_fract_y
_atom_site_fract_z
Si Si1 0.289197 0.155917 0.419962
Si Si2 0.324051 0.854589 0.989244
Si Si3 0.563558 0.954023 0.269906
Si Si4 0.867514 0.146617 0.531416
Si Si5 0.927889 0.610790 0.297044
Si Si6 0.229319 0.853840 0.720315
O O1 0.404639 0.049784 0.410064
O O2 0.393818 0.273578 0.275012
O O3 0.187194 0.030889 0.428058
O O4 0.174814 0.262588 0.569458
O O5 0.267932 0.739049 0.938047
O O6 0.170239 0.952784 0.133011
O O7 0.359221 0.746046 0.063223
O O8 0.423494 0.985348 0.859662
O O9 0.693161 0.021667 0.258028
O O10 0.023545 0.161726 0.351931
O O11 0.134720 0.766747 0.359548
O O12 0.095364 0.583343 0.237307
#
# Coordination Sequence:
#
# PCOD9243705 Si02
#       6
#     4   4   4   4   4   4
#     4  11  23  43  68  95 136 175 212 276 330 380
#     4   9  20  38  60  90 129 166 212 268 318 379
#     4  10  22  42  64  93 134 175 217 265 326 393
#     4  10  20  38  63  93 129 168 215 263 319 382
#     4  10  22  40  63  96 133 170 216 274 326 381
#     4  10  21  41  68  97 131 176 222 265 326 397
#
# _framework density 25.571383999999998
#
# number of rings (size 3 to 8) (size 9 to 14) (size 15 to 20)
#    0.000    2.000    0.000    4.000    0.000    8.667 
#    0.000   25.000    0.000    0.000    0.000    0.000 
#    0.000    0.000    0.000    0.000    0.000    0.000 
#
# Total GULP energy -134153.911928 kJ/mol
# GULP energy per Si atom -5589.746330 kJ/mol
# Density = 2.551318 g / cm^3
# Si number density = 25.571384 Si / 1000 Ang^3
#
#
#
# Elastic Constant Matrix: (Units=GPa)
#
#
# Indices 1 2 3 4 5 6 
#
# 1 30.9417 -7.0076 9.9457 0.0000 9.7034 0.0000
# 2 -7.0076 113.7259 0.3146 0.0000 5.2960 0.0000
# 3 9.9457 0.3146 68.3305 0.0000 2.3877 0.0000
# 4 0.0000 0.0000 0.0000 41.2589 0.0000 -0.8689
# 5 9.7034 5.2960 2.3877 0.0000 36.6274 0.0000
# 6 0.0000 0.0000 0.0000 -0.8689 0.0000 16.8520
#
#
#
# Elastic Compliance Matrix: (Units=1/GPa)
#
#
# Indices 1 2 3 4 5 6 
#
# 1 0.037774 0.002811 -0.005159 0.000000 -0.010077 0.000000
# 2 0.002811 0.009062 -0.000380 0.000000 -0.002030 0.000000
# 3 -0.005159 -0.000380 0.015373 0.000000 0.000420 0.000000
# 4 0.000000 0.000000 0.000000 0.024264 0.000000 0.001251
# 5 -0.010077 -0.002030 0.000420 0.000000 0.030238 0.000000
# 6 0.000000 0.000000 0.000000 0.001251 0.000000 0.059405
#
#
# Mechanical properties :
#
#
# Convention : Reuss Voigt Hill
#
# Bulk Modulus (GPa) = 17.62016 24.38926 21.00471
# Shear Modulus (GPa) = 24.93918 32.93069 28.93493
#
# Velocity S-wave (km/s) = 3.12633 3.59248 3.36748
# Velocity P-wave (km/s) = 4.46514 5.17362 4.83238
#
# Compressibility (1/GPa) = 0.05675316
#
# Stress axis : x y z
#
# Youngs Moduli (GPa) = 26.47323 110.35233 65.05022
#
# Poissons Ratio (x) = -0.31021 0.33559
# Poissons Ratio (y) = -0.07442 0.02471
# Poissons Ratio (z) = 0.13657 0.04193
#
# Static dielectric constant tensor:
#      x y z
#    x 1.981100 0.000000 -0.090760 
#    y 0.000000 2.019620 0.000000 
#    z -0.090760 0.000000 2.140370 
# 
# From -- ./inp_files/46376.got.cif
#   From: 2010.05.17/outbox.cif.g08.bks.cpg/sg14_24_cif.got.tgz:46376.got - 2010.06.03 17:49:19.
