data_PCOD9243803
_publ_section_title
;
Structure prediction by ZEFSAII (Michael W. Deem and Ramdas Pophale) SiO2 
 PCOD9243803
Probable space group: P 21/C
;
_chemical_formula_sum "Si O2"
_cell_formula_units_Z 32
_cell_length_a 8.922182
_cell_length_b 5.850297
_cell_length_c 30.205759
_cell_angle_alpha 90.000000
_cell_angle_beta 98.906525
_cell_angle_gamma 90.000000
_cell_volume 1557.651508
_symmetry_space_group_name_H-M "P 21/C"
_symmetry_group_IT_number 14
_symmetry_cell_setting 'monoclinic'
loop_
_space_group_symop_operation_xyz
x,y,z
-x,1/2+y,1/2-z
-x,-y,-z
x,1/2-y,1/2+z
loop_
_atom_site_type_symbol
_atom_site_label
_atom_site_fract_x
_atom_site_fract_y
_atom_site_fract_z
Si Si1 0.593012 0.871246 0.819519
Si Si2 0.800856 0.259779 0.813494
Si Si3 0.502444 0.303088 0.962852
Si Si4 0.760634 0.496806 0.520287
Si Si5 0.958033 0.698066 0.963553
Si Si6 0.682054 0.968678 0.392298
Si Si7 0.344737 0.399896 0.261104
Si Si8 0.949166 0.837880 0.728341
O O1 0.604149 0.752963 0.866940
O O2 0.568357 0.699244 0.777460
O O3 0.457022 0.044159 0.805861
O O4 0.750931 0.998699 0.815819
O O5 0.726925 0.377660 0.852430
O O6 0.738844 0.383063 0.765778
O O7 0.978867 0.308104 0.817069
O O8 0.567337 0.409929 0.920682
O O9 0.340425 0.170457 0.954417
O O10 0.500000 0.500000 0.000000
O O11 0.633058 0.136720 0.986966
O O12 0.857138 0.631537 0.488257
O O13 0.887878 0.324060 0.546287
O O14 0.840700 0.599401 0.922464
O O15 0.000000 0.500000 0.000000
O O16 0.226388 0.215908 0.273747
O O17 0.017124 0.600044 0.754607
#
# Coordination Sequence:
#
# PCOD9243803 Si02
#       8
#     4   4   4   4   4   4   4   4
#     4  11  21  38  65  96 128 173 222 280 331 414
#     4  10  22  38  64  93 131 170 221 282 341 404
#     4  11  21  42  66 100 132 179 222 280 339 418
#     4  10  22  36  74  94 124 180 225 268 341 418
#     4  11  21  42  67  98 126 175 224 278 339 420
#     4  11  25  38  68  97 137 171 232 284 340 410
#     4  10  20  38  66  92 126 174 225 268 340 417
#     4  10  20  38  68  96 126 174 227 278 341 415
#
# _framework density 20.543748000000001
#
# number of rings (size 3 to 8) (size 9 to 14) (size 15 to 20)
#    0.000    1.500    5.000    0.000    1.750    0.000 
#    0.000    0.000   16.500    0.000    0.000    0.000 
#    0.000    0.000    0.000    0.000    0.000    0.000 
#
# Total GULP energy -178229.581420 kJ/mol
# GULP energy per Si atom -5569.674419 kJ/mol
# Density = 2.049699 g / cm^3
# Si number density = 20.543748 Si / 1000 Ang^3
#
#
#
# Elastic Constant Matrix: (Units=GPa)
#
#
# Indices 1 2 3 4 5 6 
#
# 1 116.6157 34.5320 37.7503 0.0000 -7.4952 0.0000
# 2 34.5320 78.3002 20.6690 0.0000 -0.5778 0.0000
# 3 37.7503 20.6690 74.9924 0.0000 -5.0445 0.0000
# 4 0.0000 0.0000 0.0000 25.9576 0.0000 -6.2969
# 5 -7.4952 -0.5778 -5.0445 0.0000 37.8826 0.0000
# 6 0.0000 0.0000 0.0000 -6.2969 0.0000 45.8781
#
#
#
# Elastic Compliance Matrix: (Units=1/GPa)
#
#
# Indices 1 2 3 4 5 6 
#
# 1 0.011253 -0.003757 -0.004524 0.000000 0.001567 0.000000
# 2 -0.003757 0.015031 -0.002307 0.000000 -0.000821 0.000000
# 3 -0.004524 -0.002307 0.016331 0.000000 0.001245 0.000000
# 4 0.000000 0.000000 0.000000 0.039851 0.000000 0.005470
# 5 0.001567 -0.000821 0.001245 0.000000 0.026861 0.000000
# 6 0.000000 0.000000 0.000000 0.005470 0.000000 0.022548
#
#
# Mechanical properties :
#
#
# Convention : Reuss Voigt Hill
#
# Bulk Modulus (GPa) = 46.64108 50.64564 48.64336
# Shear Modulus (GPa) = 31.21170 33.74080 32.47625
#
# Velocity S-wave (km/s) = 3.90202 4.05704 3.98028
# Velocity P-wave (km/s) = 6.56153 6.83024 6.69723
#
# Compressibility (1/GPa) = 0.02144033
#
# Stress axis : x y z
#
# Youngs Moduli (GPa) = 88.86709 66.52849 61.23200
#
# Poissons Ratio (x) = 0.24995 0.27699
# Poissons Ratio (y) = 0.33388 0.14125
# Poissons Ratio (z) = 0.40200 0.15347
#
# Static dielectric constant tensor:
#      x y z
#    x 1.825480 0.000000 0.002400 
#    y 0.000000 1.849460 0.000000 
#    z 0.002400 0.000000 1.704050 
# 
# From -- ./inp_files/79258.got.cif
#   From: 2010.05.17/outbox.cif.g08.bks.cpg/sg14_40_cif.got.tgz:79258.got - 2010.06.03 17:49:19.
