data_PCOD9243299
_publ_section_title
;
Structure prediction by ZEFSAII (Michael W. Deem and Ramdas Pophale) SiO2 
 PCOD9243299
Probable space group: P 21/C
;
_chemical_formula_sum "Si O2"
_cell_formula_units_Z 28
_cell_length_a 8.986627
_cell_length_b 10.149089
_cell_length_c 22.805052
_cell_angle_alpha 90.000000
_cell_angle_beta 36.042513
_cell_angle_gamma 90.000000
_cell_volume 1223.817652
_symmetry_space_group_name_H-M "P 21/C"
_symmetry_group_IT_number 14
_symmetry_cell_setting 'monoclinic'
loop_
_space_group_symop_operation_xyz
x,y,z
-x,1/2+y,1/2-z
-x,-y,-z
x,1/2-y,1/2+z
loop_
_atom_site_type_symbol
_atom_site_label
_atom_site_fract_x
_atom_site_fract_y
_atom_site_fract_z
Si Si1 0.419594 0.473569 0.943874
Si Si2 0.035970 0.812251 0.615250
Si Si3 0.414652 0.321407 0.828931
Si Si4 0.751431 0.162185 0.109843
Si Si5 0.517289 0.701713 0.501127
Si Si6 0.323775 0.273653 0.168169
Si Si7 0.682763 0.605506 0.562564
O O1 0.361018 0.426848 0.896495
O O2 0.657934 0.573144 0.858390
O O3 0.195019 0.557298 0.046571
O O4 0.469517 0.342774 0.967219
O O5 0.244184 0.700018 0.558137
O O6 0.837202 0.788448 0.627189
O O7 0.875888 0.796888 0.725814
O O8 0.618207 0.358214 0.715055
O O9 0.496543 0.191573 0.838378
O O10 0.585334 0.262250 0.123462
O O11 0.727086 0.030641 0.079673
O O12 0.048196 0.182712 0.026484
O O13 0.695732 0.701866 0.388166
O O14 0.572130 0.596753 0.533228
#
# Coordination Sequence:
#
# PCOD9243299 Si02
#       7
#     4   4   4   4   4   4   4
#     4  10  21  41  64  91 122 165 211 259 307 373
#     4  10  20  37  60  93 123 159 200 259 311 360
#     4  10  22  39  67  93 119 163 209 259 306 374
#     4  10  23  40  64  91 126 165 206 259 315 368
#     4  10  22  41  63  90 124 167 207 257 310 378
#     4  10  21  39  60  92 126 161 207 255 314 374
#     4  10  22  43  61  91 128 160 208 261 311 372
#
# _framework density 22.879225000000002
#
# number of rings (size 3 to 8) (size 9 to 14) (size 15 to 20)
#    0.000    2.000    0.000    3.857    4.000    4.000 
#   15.429    0.000    0.000    0.000    0.000    0.000 
#    0.000    0.000    0.000    0.000    0.000    0.000 
#
# Total GULP energy -156158.462051 kJ/mol
# GULP energy per Si atom -5577.087930 kJ/mol
# Density = 2.282715 g / cm^3
# Si number density = 22.879225 Si / 1000 Ang^3
#
#
#
# Elastic Constant Matrix: (Units=GPa)
#
#
# Indices 1 2 3 4 5 6 
#
# 1 79.7394 11.7882 66.4081 0.0000 47.2844 0.0000
# 2 11.7882 68.6442 31.2507 0.0000 12.2517 0.0000
# 3 66.4081 31.2507 134.0471 0.0000 40.3854 0.0000
# 4 0.0000 0.0000 0.0000 16.7986 0.0000 20.3499
# 5 47.2844 12.2517 40.3854 0.0000 44.1102 0.0000
# 6 0.0000 0.0000 0.0000 20.3499 0.0000 26.2651
#
#
#
# Elastic Compliance Matrix: (Units=1/GPa)
#
#
# Indices 1 2 3 4 5 6 
#
# 1 0.043601 0.004364 -0.011284 0.000000 -0.037620 0.000000
# 2 0.004364 0.016802 -0.004507 0.000000 -0.005218 0.000000
# 3 -0.011284 -0.004507 0.013919 0.000000 0.000604 0.000000
# 4 0.000000 0.000000 0.000000 0.969295 0.000000 -0.751000
# 5 -0.037620 -0.005218 0.000604 0.000000 0.063894 0.000000
# 6 0.000000 0.000000 0.000000 -0.751000 0.000000 0.619941
#
#
# Mechanical properties :
#
#
# Convention : Reuss Voigt Hill
#
# Bulk Modulus (GPa) = 19.42947 55.70275 37.56611
# Shear Modulus (GPa) = 2.82892 28.96702 15.89797
#
# Velocity S-wave (km/s) = 1.11317 3.56207 2.63889
# Velocity P-wave (km/s) = 3.18792 6.42783 5.07345
#
# Compressibility (1/GPa) = 0.05146822
#
# Stress axis : x y z
#
# Youngs Moduli (GPa) = 22.93532 59.51839 71.84550
#
# Poissons Ratio (x) = -0.25972 0.81067
# Poissons Ratio (y) = -0.10008 0.32378
# Poissons Ratio (z) = 0.25879 0.26823
#
# Static dielectric constant tensor:
#      x y z
#    x 1.863210 0.000000 -0.023960 
#    y 0.000000 1.924940 0.000000 
#    z -0.023960 0.000000 1.914660 
# 
# From -- ./inp_files/65551.got.cif
#   From: 2010.05.17/outbox.cif.g08.bks.cpg/sg14_33_cif.got.tgz:65551.got - 2010.06.03 17:49:19.
