data_PCOD9243548
_publ_section_title
;
Structure prediction by ZEFSAII (Michael W. Deem and Ramdas Pophale) SiO2 
 PCOD9243548
Probable space group: P 21/C
;
_chemical_formula_sum "Si O2"
_cell_formula_units_Z 28
_cell_length_a 7.815164
_cell_length_b 15.515603
_cell_length_c 9.436475
_cell_angle_alpha 90.000000
_cell_angle_beta 113.487856
_cell_angle_gamma 90.000000
_cell_volume 1049.432108
_symmetry_space_group_name_H-M "P 21/C"
_symmetry_group_IT_number 14
_symmetry_cell_setting 'monoclinic'
loop_
_space_group_symop_operation_xyz
x,y,z
-x,1/2+y,1/2-z
-x,-y,-z
x,1/2-y,1/2+z
loop_
_atom_site_type_symbol
_atom_site_label
_atom_site_fract_x
_atom_site_fract_y
_atom_site_fract_z
Si Si1 0.169260 0.757284 0.381989
Si Si2 0.511324 0.766069 0.683159
Si Si3 0.296002 0.388198 0.423831
Si Si4 0.696331 0.912530 0.561920
Si Si5 0.828772 0.756980 0.458557
Si Si6 0.316462 0.925096 0.270596
Si Si7 0.702452 0.429250 0.579203
O O1 0.300128 0.765167 0.565460
O O2 0.238573 0.834770 0.305919
O O3 0.206016 0.660117 0.341870
O O4 0.958338 0.762253 0.365372
O O5 0.612194 0.681617 0.650142
O O6 0.597078 0.852567 0.646997
O O7 0.602949 0.755598 0.866510
O O8 0.139418 0.335327 0.457034
O O9 0.487473 0.421941 0.561349
O O10 0.219656 0.479153 0.341934
O O11 0.844908 0.847185 0.543090
O O12 0.535945 0.933203 0.391744
O O13 0.769070 0.996086 0.667165
O O14 0.287620 0.930994 0.091674
#
# Coordination Sequence:
#
# PCOD9243548 Si02
#       7
#     4   4   4   4   4   4   4
#     4  10  23  37  59  89 118 154 200 237 289 356
#     4   9  19  39  59  85 123 156 189 242 292 340
#     4   9  20  36  61  89 114 154 201 237 292 352
#     4   9  19  35  59  87 116 155 203 235 287 355
#     4  11  21  38  62  90 122 153 190 244 294 347
#     4  10  20  38  60  85 118 158 195 243 294 342
#     4  10  20  39  60  84 119 155 196 247 290 342
#
# _framework density 26.681097000000001
#
# number of rings (size 3 to 8) (size 9 to 14) (size 15 to 20)
#    0.000    2.286    0.000    3.429    0.000    3.429 
#    0.000    7.143    0.000    1.714    0.000    0.000 
#    0.000    0.000    0.000    0.000    0.000    0.000 
#
# Total GULP energy -156367.923332 kJ/mol
# GULP energy per Si atom -5584.568690 kJ/mol
# Density = 2.662037 g / cm^3
# Si number density = 26.681097 Si / 1000 Ang^3
#
#
#
# Elastic Constant Matrix: (Units=GPa)
#
#
# Indices 1 2 3 4 5 6 
#
# 1 82.8320 28.4978 23.1960 0.0000 8.6699 0.0000
# 2 28.4978 212.6970 26.6263 0.0000 -21.9779 0.0000
# 3 23.1960 26.6263 92.6294 0.0000 7.1924 0.0000
# 4 0.0000 0.0000 0.0000 31.0894 0.0000 -21.4804
# 5 8.6699 -21.9779 7.1924 0.0000 46.0340 0.0000
# 6 0.0000 0.0000 0.0000 -21.4804 0.0000 19.7347
#
#
#
# Elastic Compliance Matrix: (Units=1/GPa)
#
#
# Indices 1 2 3 4 5 6 
#
# 1 0.013771 -0.001823 -0.002688 0.000000 -0.003044 0.000000
# 2 -0.001823 0.005441 -0.001352 0.000000 0.003152 0.000000
# 3 -0.002688 -0.001352 0.012014 0.000000 -0.002016 0.000000
# 4 0.000000 0.000000 0.000000 0.129718 0.000000 0.141192
# 5 -0.003044 0.003152 -0.002016 0.000000 0.024116 0.000000
# 6 0.000000 0.000000 0.000000 0.141192 0.000000 0.204353
#
#
# Mechanical properties :
#
#
# Convention : Reuss Voigt Hill
#
# Bulk Modulus (GPa) = 51.28400 60.53319 55.90859
# Shear Modulus (GPa) = 12.26570 40.02751 26.14660
#
# Velocity S-wave (km/s) = 2.14642 3.87747 3.13384
# Velocity P-wave (km/s) = 5.04040 6.54089 5.83905
#
# Compressibility (1/GPa) = 0.01949926
#
# Stress axis : x y z
#
# Youngs Moduli (GPa) = 72.61494 183.79725 83.23542
#
# Poissons Ratio (x) = 0.33509 0.22375
# Poissons Ratio (y) = 0.13239 0.11255
# Poissons Ratio (z) = 0.19520 0.24852
#
# Static dielectric constant tensor:
#      x y z
#    x 2.063610 0.000000 0.036650 
#    y 0.000000 2.158450 0.000000 
#    z 0.036650 0.000000 2.208350 
# 
# From -- ./inp_files/25281.got.cif
#   From: 2010.05.17/outbox.cif.g08.bks.cpg/sg14_13_cif.got.tgz:25281.got - 2010.06.03 17:49:19.
