data_PCOD9243085
_publ_section_title
;
Structure prediction by ZEFSAII (Michael W. Deem and Ramdas Pophale) SiO2 
 PCOD9243085
Probable space group: P 21/C
;
_chemical_formula_sum "Si O2"
_cell_formula_units_Z 32
_cell_length_a 11.148935
_cell_length_b 9.464426
_cell_length_c 13.938660
_cell_angle_alpha 90.000000
_cell_angle_beta 104.159820
_cell_angle_gamma 90.000000
_cell_volume 1426.096689
_symmetry_space_group_name_H-M "P 21/C"
_symmetry_group_IT_number 14
_symmetry_cell_setting 'monoclinic'
loop_
_space_group_symop_operation_xyz
x,y,z
-x,1/2+y,1/2-z
-x,-y,-z
x,1/2-y,1/2+z
loop_
_atom_site_type_symbol
_atom_site_label
_atom_site_fract_x
_atom_site_fract_y
_atom_site_fract_z
Si Si1 0.728420 0.299932 0.387650
Si Si2 0.500011 0.107752 0.348605
Si Si3 0.915706 0.446297 0.280928
Si Si4 0.194437 0.721378 0.890582
Si Si5 0.526074 0.328192 0.076205
Si Si6 0.757192 0.785632 0.792271
Si Si7 0.652290 0.597169 0.450437
Si Si8 0.194686 0.459096 0.335338
O O1 0.622463 0.189301 0.338687
O O2 0.821531 0.352887 0.325374
O O3 0.805233 0.247613 0.495547
O O4 0.656384 0.439691 0.410341
O O5 0.482684 0.140098 0.459082
O O6 0.374848 0.154965 0.272513
O O7 0.522114 0.939215 0.354970
O O8 0.905855 0.383849 0.171974
O O9 0.864005 0.605814 0.277812
O O10 0.054953 0.428702 0.343198
O O11 0.327929 0.654512 0.895881
O O12 0.195179 0.871437 0.836197
O O13 0.480422 0.169884 0.084216
O O14 0.743512 0.806657 0.903460
O O15 0.780908 0.630627 0.755439
O O16 0.704968 0.590647 0.567395
#
# Coordination Sequence:
#
# PCOD9243085 Si02
#       8
#     4   4   4   4   4   4   4   4
#     4   9  23  38  61  92 119 157 197 247 304 360
#     4  10  20  36  62  91 123 153 191 252 305 366
#     4  11  23  43  61  87 123 163 204 245 303 365
#     4  10  22  39  61  91 118 165 198 250 303 357
#     4  10  20  38  61  89 127 152 194 250 312 356
#     4  11  23  39  62  90 117 161 206 243 306 361
#     4  10  23  38  61  91 120 159 198 253 301 358
#     4  11  24  41  62  87 124 160 207 252 293 362
#
# _framework density 22.438872
#
# number of rings (size 3 to 8) (size 9 to 14) (size 15 to 20)
#    0.000    1.750    2.500    0.750    3.500    8.000 
#    0.000    0.000    0.000    3.750    0.000    0.000 
#    0.000    0.000    0.000    0.000    0.000    0.000 
#
# Total GULP energy -178873.079768 kJ/mol
# GULP energy per Si atom -5589.783743 kJ/mol
# Density = 2.238780 g / cm^3
# Si number density = 22.438872 Si / 1000 Ang^3
#
#
#
# Elastic Constant Matrix: (Units=GPa)
#
#
# Indices 1 2 3 4 5 6 
#
# 1 46.7550 3.7890 -3.5432 0.0000 12.9560 0.0000
# 2 3.7890 19.5151 4.7635 0.0000 6.2587 0.0000
# 3 -3.5432 4.7635 25.7271 0.0000 -5.2628 0.0000
# 4 0.0000 0.0000 0.0000 27.3304 0.0000 -2.1186
# 5 12.9560 6.2587 -5.2628 0.0000 22.5567 0.0000
# 6 0.0000 0.0000 0.0000 -2.1186 0.0000 27.9343
#
#
#
# Elastic Compliance Matrix: (Units=1/GPa)
#
#
# Indices 1 2 3 4 5 6 
#
# 1 0.025448 -0.000513 0.000671 0.000000 -0.014318 0.000000
# 2 -0.000513 0.061748 -0.015697 0.000000 -0.020501 0.000000
# 3 0.000671 -0.015697 0.044820 0.000000 0.014427 0.000000
# 4 0.000000 0.000000 0.000000 0.036806 0.000000 0.002791
# 5 -0.014318 -0.020501 0.014427 0.000000 0.061611 0.000000
# 6 0.000000 0.000000 0.000000 0.002791 0.000000 0.036010
#
#
# Mechanical properties :
#
#
# Convention : Reuss Voigt Hill
#
# Bulk Modulus (GPa) = 9.90712 11.33507 10.62110
# Shear Modulus (GPa) = 15.09812 21.36348 18.23080
#
# Velocity S-wave (km/s) = 2.59676 3.08892 2.85347
# Velocity P-wave (km/s) = 3.66274 4.21715 3.94968
#
# Compressibility (1/GPa) = 0.10093753
#
# Stress axis : x y z
#
# Youngs Moduli (GPa) = 39.29575 16.19474 22.31164
#
# Poissons Ratio (x) = 0.00830 -0.01497
# Poissons Ratio (y) = 0.02015 0.35023
# Poissons Ratio (z) = -0.02636 0.25421
#
# Static dielectric constant tensor:
#      x y z
#    x 1.799930 0.000000 -0.028730 
#    y 0.000000 1.851070 0.000000 
#    z -0.028730 0.000000 1.876640 
# 
# From -- ./inp_files/43767.got.cif
#   From: 2010.05.17/outbox.cif.g08.bks.cpg/sg14_22_cif.got.tgz:43767.got - 2010.06.03 17:49:19.
