data_PCOD9243878
_publ_section_title
;
Structure prediction by ZEFSAII (Michael W. Deem and Ramdas Pophale) SiO2 
 PCOD9243878
Probable space group: P 21/C
;
_chemical_formula_sum "Si O2"
_cell_formula_units_Z 32
_cell_length_a 18.549809
_cell_length_b 11.626336
_cell_length_c 14.521430
_cell_angle_alpha 90.000000
_cell_angle_beta 146.663388
_cell_angle_gamma 90.000000
_cell_volume 1721.092743
_symmetry_space_group_name_H-M "P 21/C"
_symmetry_group_IT_number 14
_symmetry_cell_setting 'monoclinic'
loop_
_space_group_symop_operation_xyz
x,y,z
-x,1/2+y,1/2-z
-x,-y,-z
x,1/2-y,1/2+z
loop_
_atom_site_type_symbol
_atom_site_label
_atom_site_fract_x
_atom_site_fract_y
_atom_site_fract_z
Si Si1 0.172599 0.773611 0.012665
Si Si2 0.221476 0.752920 0.352600
Si Si3 0.127375 0.928711 0.605818
Si Si4 0.395581 0.398651 0.868107
Si Si5 0.535279 0.755449 0.214030
Si Si6 0.390869 0.012704 0.805627
Si Si7 0.527063 0.264544 0.652258
Si Si8 0.140252 0.546780 0.623287
O O1 0.161956 0.751128 0.892270
O O2 0.115157 0.666995 0.011100
O O3 0.328790 0.791230 0.199257
O O4 0.119160 0.888425 0.002962
O O5 0.176818 0.642091 0.247183
O O6 0.378742 0.750305 0.529749
O O7 0.183397 0.860829 0.247688
O O8 0.247481 0.006090 0.697423
O O9 0.000000 0.000000 0.500000
O O10 0.403563 0.354048 0.771973
O O11 0.253137 0.449996 0.737961
O O12 0.500000 0.500000 0.000000
O O13 0.443664 0.287219 0.978943
O O14 0.552648 0.761027 0.341274
O O15 0.590183 0.872312 0.230260
O O16 0.426139 0.896968 0.788034
O O17 0.500000 0.000000 0.000000
O O18 0.000000 0.500000 0.500000
#
# Coordination Sequence:
#
# PCOD9243878 Si02
#       8
#     4   4   4   4   4   4   4   4
#     4   9  20  39  60  85 116 156 202 237 305 371
#     4  10  20  39  60  83 119 159 193 247 310 356
#     4  10  21  37  61  83 115 158 194 239 296 358
#     4  12  21  39  62  87 121 155 202 247 301 355
#     4  11  22  36  64  94 118 153 202 258 302 350
#     4  11  20  39  60  86 121 151 198 244 294 352
#     4  10  22  37  62  94 117 155 200 252 305 353
#     4  11  24  40  59  88 123 161 200 248 303 366
#
# _framework density 18.592839000000001
#
# number of rings (size 3 to 8) (size 9 to 14) (size 15 to 20)
#    0.000    1.500    5.000    0.750    1.750    4.000 
#    0.000    1.250    0.000    0.000    0.000    0.000 
#    0.000    0.000    0.000    0.000    0.000    0.000 
#
# Total GULP energy -178377.668521 kJ/mol
# GULP energy per Si atom -5574.302141 kJ/mol
# Density = 1.855052 g / cm^3
# Si number density = 18.592839 Si / 1000 Ang^3
#
#
#
# Elastic Constant Matrix: (Units=GPa)
#
#
# Indices 1 2 3 4 5 6 
#
# 1 145.5203 54.2667 34.5778 0.0000 9.1891 0.0000
# 2 54.2667 63.2409 12.7851 0.0000 19.9830 0.0000
# 3 34.5778 12.7851 40.9215 0.0000 16.7563 0.0000
# 4 0.0000 0.0000 0.0000 19.7038 0.0000 10.9908
# 5 9.1891 19.9830 16.7563 0.0000 34.9535 0.0000
# 6 0.0000 0.0000 0.0000 10.9908 0.0000 26.8115
#
#
#
# Elastic Compliance Matrix: (Units=1/GPa)
#
#
# Indices 1 2 3 4 5 6 
#
# 1 0.013475 -0.012054 -0.011188 0.000000 0.008712 0.000000
# 2 -0.012054 0.030199 0.008115 0.000000 -0.017986 0.000000
# 3 -0.011188 0.008115 0.039878 0.000000 -0.020815 0.000000
# 4 0.000000 0.000000 0.000000 0.065797 0.000000 -0.026972
# 5 0.008712 -0.017986 -0.020815 0.000000 0.046580 0.000000
# 6 0.000000 0.000000 0.000000 -0.026972 0.000000 0.048354
#
#
# Mechanical properties :
#
#
# Convention : Reuss Voigt Hill
#
# Bulk Modulus (GPa) = 18.76190 50.32687 34.54439
# Shear Modulus (GPa) = 17.10555 26.16396 21.63475
#
# Velocity S-wave (km/s) = 3.03645 3.75534 3.41487
# Velocity P-wave (km/s) = 4.73352 6.77718 5.84536
#
# Compressibility (1/GPa) = 0.05329950
#
# Stress axis : x y z
#
# Youngs Moduli (GPa) = 74.21020 33.11394 25.07635
#
# Poissons Ratio (x) = 0.39916 0.28054
# Poissons Ratio (y) = 0.89454 -0.20350
# Poissons Ratio (z) = 0.83023 -0.26873
#
# Static dielectric constant tensor:
#      x y z
#    x 1.649650 0.000000 -0.009990 
#    y 0.000000 7.718440 0.000000 
#    z -0.009990 0.000000 1.594370 
# 
# From -- ./inp_files/49052.got.cif
#   From: 2010.05.17/outbox.cif.g08.bks.cpg/sg14_25_cif.got.tgz:49052.got - 2010.06.03 17:49:19.
