data_PCOD9243387
_publ_section_title
;
Structure prediction by ZEFSAII (Michael W. Deem and Ramdas Pophale) SiO2 
 PCOD9243387
Probable space group: P 21/C
;
_chemical_formula_sum "Si O2"
_cell_formula_units_Z 28
_cell_length_a 20.124660
_cell_length_b 5.164765
_cell_length_c 13.011013
_cell_angle_alpha 90.000000
_cell_angle_beta 119.853303
_cell_angle_gamma 90.000000
_cell_volume 1172.899889
_symmetry_space_group_name_H-M "P 21/C"
_symmetry_group_IT_number 14
_symmetry_cell_setting 'monoclinic'
loop_
_space_group_symop_operation_xyz
x,y,z
-x,1/2+y,1/2-z
-x,-y,-z
x,1/2-y,1/2+z
loop_
_atom_site_type_symbol
_atom_site_label
_atom_site_fract_x
_atom_site_fract_y
_atom_site_fract_z
Si Si1 0.548818 0.650919 0.271764
Si Si2 0.924140 0.805320 0.860666
Si Si3 0.656424 0.208369 0.988730
Si Si4 0.914379 0.196400 0.494585
Si Si5 0.643671 0.996429 0.659950
Si Si6 0.766061 0.861822 0.186284
Si Si7 0.745721 0.144116 0.380002
O O1 0.517808 0.930265 0.280953
O O2 0.608868 0.515472 0.395042
O O3 0.585651 0.657922 0.186387
O O4 0.851393 0.739248 0.734014
O O5 0.009737 0.767722 0.882558
O O6 0.922502 0.589427 0.951111
O O7 0.914155 0.089318 0.902316
O O8 0.609330 0.299134 0.052783
O O9 0.736558 0.097002 0.095684
O O10 0.685704 0.407042 0.923637
O O11 0.831238 0.214892 0.481851
O O12 0.697847 0.839454 0.625614
O O13 0.703025 0.132374 0.783294
O O14 0.759744 0.932732 0.302787
#
# Coordination Sequence:
#
# PCOD9243387 Si02
#       7
#     4   4   4   4   4   4   4
#     4  11  28  47  68  94 127 160 206 259 320 391
#     4   9  17  30  57  86 120 162 209 255 304 357
#     4  10  24  40  65  93 124 167 207 261 316 376
#     4   9  16  31  55  87 119 165 209 252 306 356
#     4  10  22  40  66  92 124 163 206 256 313 379
#     4  10  20  37  63  90 126 165 216 262 306 378
#     4   9  19  37  59  90 125 167 216 255 309 371
#
# _framework density 23.872456
#
# number of rings (size 3 to 8) (size 9 to 14) (size 15 to 20)
#    0.000    2.286    1.429    0.000    8.000    2.286 
#    0.000    0.000    3.143    0.000    0.000    0.000 
#    0.000    0.000    0.000    0.000    0.000    0.000 
#
# Total GULP energy -156157.726452 kJ/mol
# GULP energy per Si atom -5577.061659 kJ/mol
# Density = 2.381812 g / cm^3
# Si number density = 23.872456 Si / 1000 Ang^3
#
#
#
# Elastic Constant Matrix: (Units=GPa)
#
#
# Indices 1 2 3 4 5 6 
#
# 1 94.5134 6.4057 44.0700 0.0000 19.8065 0.0000
# 2 6.4057 50.2356 -10.5399 0.0000 -0.5909 0.0000
# 3 44.0700 -10.5399 62.7580 0.0000 15.3461 0.0000
# 4 0.0000 0.0000 0.0000 4.1026 0.0000 0.1225
# 5 19.8065 -0.5909 15.3461 0.0000 19.6667 0.0000
# 6 0.0000 0.0000 0.0000 0.1225 0.0000 22.8044
#
#
#
# Elastic Compliance Matrix: (Units=1/GPa)
#
#
# Indices 1 2 3 4 5 6 
#
# 1 0.018146 -0.004772 -0.011172 0.000000 -0.009701 0.000000
# 2 -0.004772 0.021994 0.007054 0.000000 -0.000038 0.000000
# 3 -0.011172 0.007054 0.027387 0.000000 -0.009907 0.000000
# 4 0.000000 0.000000 0.000000 0.243785 0.000000 -0.001310
# 5 -0.009701 -0.000038 -0.009907 0.000000 0.068347 0.000000
# 6 0.000000 0.000000 0.000000 -0.001310 0.000000 0.043858
#
#
# Mechanical properties :
#
#
# Convention : Reuss Voigt Hill
#
# Bulk Modulus (GPa) = 20.10163 31.93096 26.01629
# Shear Modulus (GPa) = 10.91993 20.48616 15.70305
#
# Velocity S-wave (km/s) = 2.14108 2.93260 2.56752
# Velocity P-wave (km/s) = 3.81458 4.98714 4.43974
#
# Compressibility (1/GPa) = 0.04974722
#
# Stress axis : x y z
#
# Youngs Moduli (GPa) = 55.10806 45.46638 36.51433
#
# Poissons Ratio (x) = 0.21696 0.40793
# Poissons Ratio (y) = 0.26297 -0.25757
# Poissons Ratio (z) = 0.61566 -0.32072
#
# Static dielectric constant tensor:
#      x y z
#    x 1.923000 0.000000 0.084090 
#    y 0.000000 2.097270 0.000000 
#    z 0.084090 0.000000 1.915800 
# 
# From -- ./inp_files/34788.got.cif
#   From: 2010.05.17/outbox.cif.g08.bks.cpg/sg14_18_cif.got.tgz:34788.got - 2010.06.03 17:49:19.
