data_PCOD9243255
_publ_section_title
;
Structure prediction by ZEFSAII (Michael W. Deem and Ramdas Pophale) SiO2 
 PCOD9243255
Probable space group: P 21/C
;
_chemical_formula_sum "Si O2"
_cell_formula_units_Z 32
_cell_length_a 10.486799
_cell_length_b 7.884105
_cell_length_c 16.783571
_cell_angle_alpha 90.000000
_cell_angle_beta 112.056358
_cell_angle_gamma 90.000000
_cell_volume 1286.094068
_symmetry_space_group_name_H-M "P 21/C"
_symmetry_group_IT_number 14
_symmetry_cell_setting 'monoclinic'
loop_
_space_group_symop_operation_xyz
x,y,z
-x,1/2+y,1/2-z
-x,-y,-z
x,1/2-y,1/2+z
loop_
_atom_site_type_symbol
_atom_site_label
_atom_site_fract_x
_atom_site_fract_y
_atom_site_fract_z
Si Si1 0.967031 0.411195 0.116145
Si Si2 0.238558 0.194275 0.585219
Si Si3 0.531450 0.428311 0.128673
Si Si4 0.247543 0.527220 0.689088
Si Si5 0.215783 0.716293 0.534469
Si Si6 0.489267 0.229723 0.964004
Si Si7 0.204719 0.094770 0.926078
Si Si8 0.986219 0.409858 0.726167
O O1 0.108074 0.370481 0.103415
O O2 0.987197 0.577658 0.173768
O O3 0.937273 0.268141 0.177567
O O4 0.848744 0.380273 0.022619
O O5 0.371075 0.072873 0.615932
O O6 0.286498 0.370278 0.639947
O O7 0.197394 0.248381 0.485662
O O8 0.627900 0.411145 0.227096
O O9 0.571806 0.599961 0.091427
O O10 0.539795 0.282114 0.064019
O O11 0.190908 0.678160 0.620306
O O12 0.128332 0.454670 0.716406
O O13 0.377667 0.694548 0.557258
O O14 0.152592 0.559069 0.470119
O O15 0.366594 0.096279 0.941264
O O16 0.123051 0.054726 0.826503
#
# Coordination Sequence:
#
# PCOD9243255 Si02
#       8
#     4   4   4   4   4   4   4   4
#     4  10  21  39  61  86 122 156 205 252 299 360
#     4   9  20  39  57  82 114 156 199 241 299 358
#     4  10  22  37  56  86 115 158 193 248 305 357
#     4  10  21  36  61  82 118 157 198 248 293 360
#     4  10  20  37  59  88 116 156 198 246 293 359
#     4  10  21  37  58  85 122 150 194 248 305 352
#     4   9  19  36  61  84 112 155 196 235 296 365
#     4  10  21  37  60  88 115 159 201 246 304 354
#
# _framework density 24.881540999999999
#
# number of rings (size 3 to 8) (size 9 to 14) (size 15 to 20)
#    0.000    2.250    0.000    1.875    5.250    3.000 
#    4.500    3.125    0.000    0.000    0.000    0.000 
#    0.000    0.000    0.000    0.000    0.000    0.000 
#
# Total GULP energy -179005.761630 kJ/mol
# GULP energy per Si atom -5593.930051 kJ/mol
# Density = 2.482491 g / cm^3
# Si number density = 24.881541 Si / 1000 Ang^3
#
#
#
# Elastic Constant Matrix: (Units=GPa)
#
#
# Indices 1 2 3 4 5 6 
#
# 1 71.8118 7.3267 17.0689 0.0000 -6.5741 0.0000
# 2 7.3267 77.7840 28.8068 0.0000 0.0568 0.0000
# 3 17.0689 28.8068 155.9974 0.0000 21.9466 0.0000
# 4 0.0000 0.0000 0.0000 28.2984 0.0000 -5.1773
# 5 -6.5741 0.0568 21.9466 0.0000 37.4086 0.0000
# 6 0.0000 0.0000 0.0000 -5.1773 0.0000 30.3598
#
#
#
# Elastic Compliance Matrix: (Units=1/GPa)
#
#
# Indices 1 2 3 4 5 6 
#
# 1 0.014823 -0.000644 -0.002038 0.000000 0.003802 0.000000
# 2 -0.000644 0.013917 -0.002704 0.000000 0.001452 0.000000
# 3 -0.002038 -0.002704 0.007829 0.000000 -0.004947 0.000000
# 4 0.000000 0.000000 0.000000 0.036476 0.000000 0.006220
# 5 0.003802 0.001452 -0.004947 0.000000 0.030300 0.000000
# 6 0.000000 0.000000 0.000000 0.006220 0.000000 0.033999
#
#
# Mechanical properties :
#
#
# Convention : Reuss Voigt Hill
#
# Bulk Modulus (GPa) = 38.76371 45.77756 42.27064
# Shear Modulus (GPa) = 31.90518 36.03941 33.97230
#
# Velocity S-wave (km/s) = 3.58478 3.80997 3.69909
# Velocity P-wave (km/s) = 5.72253 6.14757 5.93885
#
# Compressibility (1/GPa) = 0.02579732
#
# Stress axis : x y z
#
# Youngs Moduli (GPa) = 67.46094 71.85430 127.73760
#
# Poissons Ratio (x) = 0.04630 0.26030
# Poissons Ratio (y) = 0.04347 0.34536
# Poissons Ratio (z) = 0.13747 0.19427
#
# Static dielectric constant tensor:
#      x y z
#    x 1.925820 0.000000 0.022010 
#    y 0.000000 2.071060 0.000000 
#    z 0.022010 0.000000 1.949620 
# 
# From -- ./inp_files/43791.got.cif
#   From: 2010.05.17/outbox.cif.g08.bks.cpg/sg14_22_cif.got.tgz:43791.got - 2010.06.03 17:49:19.
