data_PCOD9243901
_publ_section_title
;
Structure prediction by ZEFSAII (Michael W. Deem and Ramdas Pophale) SiO2 
 PCOD9243901
Probable space group: P 21/C
;
_chemical_formula_sum "Si O2"
_cell_formula_units_Z 28
_cell_length_a 8.896401
_cell_length_b 10.418051
_cell_length_c 16.435363
_cell_angle_alpha 90.000000
_cell_angle_beta 58.862671
_cell_angle_gamma 90.000000
_cell_volume 1303.822791
_symmetry_space_group_name_H-M "P 21/C"
_symmetry_group_IT_number 14
_symmetry_cell_setting 'monoclinic'
loop_
_space_group_symop_operation_xyz
x,y,z
-x,1/2+y,1/2-z
-x,-y,-z
x,1/2-y,1/2+z
loop_
_atom_site_type_symbol
_atom_site_label
_atom_site_fract_x
_atom_site_fract_y
_atom_site_fract_z
Si Si1 0.109202 0.262145 0.537140
Si Si2 0.587199 0.092314 0.042249
Si Si3 0.048893 0.955568 0.124383
Si Si4 0.865075 0.532709 0.842580
Si Si5 0.520764 0.862068 0.362664
Si Si6 0.678492 0.882412 0.146749
Si Si7 0.875682 0.107289 0.494654
O O1 0.085673 0.400270 0.583881
O O2 0.121990 0.154867 0.601846
O O3 0.281011 0.273025 0.431497
O O4 0.944333 0.229368 0.525459
O O5 0.484308 0.222668 0.091871
O O6 0.611524 0.007328 0.117007
O O7 0.778079 0.121707 0.949999
O O8 0.500000 0.000000 0.000000
O O9 0.007251 0.957138 0.231503
O O10 0.870537 0.911718 0.130496
O O11 0.672337 0.546317 0.856348
O O12 0.895533 0.409811 0.891993
O O13 0.558629 0.845301 0.256157
O O14 0.327242 0.917219 0.429969
O O15 0.000000 0.000000 0.500000
#
# Coordination Sequence:
#
# PCOD9243901 Si02
#       7
#     4   4   4   4   4   4   4
#     4  10  20  39  61  85 118 156 197 249 300 347
#     4  11  23  39  62  92 122 154 200 247 296 359
#     4  10  21  40  61  85 119 159 201 243 298 358
#     4  10  23  39  61  90 120 156 200 246 294 354
#     4  11  22  39  61  88 124 160 194 246 299 344
#     4  10  22  39  61  86 118 161 203 243 294 356
#     4  10  22  39  60  88 119 154 197 242 293 352
#
# _framework density 21.475311000000001
#
# number of rings (size 3 to 8) (size 9 to 14) (size 15 to 20)
#    0.000    1.714    0.000    5.571    0.000    9.143 
#    0.000    4.286    0.000    0.000    0.000    0.000 
#    0.000    0.000    0.000    0.000    0.000    0.000 
#
# Total GULP energy -156399.622859 kJ/mol
# GULP energy per Si atom -5585.700816 kJ/mol
# Density = 2.142643 g / cm^3
# Si number density = 21.475311 Si / 1000 Ang^3
#
#
#
# Elastic Constant Matrix: (Units=GPa)
#
#
# Indices 1 2 3 4 5 6 
#
# 1 62.4970 -1.2360 27.6646 0.0000 7.5190 0.0000
# 2 -1.2360 43.3459 24.0534 0.0000 10.8491 0.0000
# 3 27.6646 24.0534 145.4744 0.0000 21.2722 0.0000
# 4 0.0000 0.0000 0.0000 26.3326 0.0000 10.9699
# 5 7.5190 10.8491 21.2722 0.0000 26.9228 0.0000
# 6 0.0000 0.0000 0.0000 10.9699 0.0000 26.1848
#
#
#
# Elastic Compliance Matrix: (Units=1/GPa)
#
#
# Indices 1 2 3 4 5 6 
#
# 1 0.018033 0.003343 -0.003447 0.000000 -0.003660 0.000000
# 2 0.003343 0.027566 -0.003881 0.000000 -0.008975 0.000000
# 3 -0.003447 -0.003881 0.008821 0.000000 -0.004443 0.000000
# 4 0.000000 0.000000 0.000000 0.046005 0.000000 -0.019273
# 5 -0.003660 -0.008975 -0.004443 0.000000 0.045293 0.000000
# 6 0.000000 0.000000 0.000000 -0.019273 0.000000 0.046264
#
#
# Mechanical properties :
#
#
# Convention : Reuss Voigt Hill
#
# Bulk Modulus (GPa) = 21.52871 39.14236 30.33554
# Shear Modulus (GPa) = 23.20887 29.27705 26.24296
#
# Velocity S-wave (km/s) = 3.29100 3.69628 3.49951
# Velocity P-wave (km/s) = 4.94849 6.04011 5.52134
#
# Compressibility (1/GPa) = 0.04644959
#
# Stress axis : x y z
#
# Youngs Moduli (GPa) = 55.45393 36.27696 113.36640
#
# Poissons Ratio (x) = -0.12127 0.39076
# Poissons Ratio (y) = -0.18538 0.43999
# Poissons Ratio (z) = 0.19114 0.14080
#
# Static dielectric constant tensor:
#      x y z
#    x 1.800730 0.000000 0.009690 
#    y 0.000000 1.844940 0.000000 
#    z 0.009690 0.000000 1.773920 
# 
# From -- ./inp_files/39956.got.cif
#   From: 2010.05.17/outbox.cif.g08.bks.cpg/sg14_20_cif.got.tgz:39956.got - 2010.06.03 17:49:19.
