data_PCOD9243251
_publ_section_title
;
Structure prediction by ZEFSAII (Michael W. Deem and Ramdas Pophale) SiO2 
 PCOD9243251
Probable space group: P 21/C
;
_chemical_formula_sum "Si O2"
_cell_formula_units_Z 32
_cell_length_a 19.038297
_cell_length_b 13.641179
_cell_length_c 13.054896
_cell_angle_alpha 90.000000
_cell_angle_beta 28.789113
_cell_angle_gamma 90.000000
_cell_volume 1632.782423
_symmetry_space_group_name_H-M "P 21/C"
_symmetry_group_IT_number 14
_symmetry_cell_setting 'monoclinic'
loop_
_space_group_symop_operation_xyz
x,y,z
-x,1/2+y,1/2-z
-x,-y,-z
x,1/2-y,1/2+z
loop_
_atom_site_type_symbol
_atom_site_label
_atom_site_fract_x
_atom_site_fract_y
_atom_site_fract_z
Si Si1 0.289212 0.786104 0.221689
Si Si2 0.899828 0.124871 0.917011
Si Si3 0.612537 0.585402 0.091273
Si Si4 0.902464 0.253788 0.218362
Si Si5 0.550618 0.792063 0.253870
Si Si6 0.087432 0.098590 0.864321
Si Si7 0.620249 0.503587 0.753699
Si Si8 0.661085 0.118022 0.635823
O O1 0.196268 0.707102 0.403073
O O2 0.189207 0.810370 0.252037
O O3 0.330688 0.866190 0.253161
O O4 0.428543 0.733952 0.994409
O O5 0.783308 0.036166 0.064401
O O6 0.942010 0.167510 0.753280
O O7 0.042477 0.112280 0.803218
O O8 0.622905 0.689087 0.134292
O O9 0.458100 0.564689 0.233302
O O10 0.645644 0.494130 0.122755
O O11 0.741388 0.583689 0.843017
O O12 0.798780 0.171244 0.404623
O O13 0.029024 0.190574 0.003512
O O14 0.473752 0.826921 0.246503
O O15 0.632030 0.886142 0.194937
O O16 0.000000 0.000000 0.000000
O O17 0.500000 0.500000 0.000000
#
# Coordination Sequence:
#
# PCOD9243251 Si02
#       8
#     4   4   4   4   4   4   4   4
#     4   9  16  32  57  82 111 150 195 228 287 349
#     4  10  20  37  59  87 114 150 198 235 283 347
#     4  11  22  37  56  87 123 144 194 247 285 342
#     4   9  18  35  59  82 112 156 197 235 278 350
#     4  10  21  33  53  89 118 146 188 244 296 335
#     4  11  21  39  60  88 114 154 199 238 284 337
#     4  11  20  37  62  86 112 154 194 239 285 342
#     4   9  18  34  56  82 113 153 194 235 288 347
#
# _framework density 19.598447
#
# number of rings (size 3 to 8) (size 9 to 14) (size 15 to 20)
#    0.000    2.000    2.500    3.000    0.000    0.500 
#    4.500    0.000    0.000    1.500    0.000    0.000 
#    0.000    0.000    0.000    0.000    0.000    0.000 
#
# Total GULP energy -178419.936941 kJ/mol
# GULP energy per Si atom -5575.623029 kJ/mol
# Density = 1.955384 g / cm^3
# Si number density = 19.598447 Si / 1000 Ang^3
#
#
#
# Elastic Constant Matrix: (Units=GPa)
#
#
# Indices 1 2 3 4 5 6 
#
# 1 80.8948 38.5076 28.7531 0.0000 25.2426 0.0000
# 2 38.5076 98.5177 11.9308 0.0000 8.7260 0.0000
# 3 28.7531 11.9308 30.9661 0.0000 -1.3670 0.0000
# 4 0.0000 0.0000 0.0000 15.9346 0.0000 3.8715
# 5 25.2426 8.7260 -1.3670 0.0000 26.8695 0.0000
# 6 0.0000 0.0000 0.0000 3.8715 0.0000 26.5996
#
#
#
# Elastic Compliance Matrix: (Units=1/GPa)
#
#
# Indices 1 2 3 4 5 6 
#
# 1 0.041159 -0.008293 -0.036693 0.000000 -0.037841 0.000000
# 2 -0.008293 0.012693 0.002978 0.000000 0.003820 0.000000
# 3 -0.036693 0.002978 0.066846 0.000000 0.036905 0.000000
# 4 0.000000 0.000000 0.000000 0.065057 0.000000 -0.009469
# 5 -0.037841 0.003820 0.036905 0.000000 0.073404 0.000000
# 6 0.000000 0.000000 0.000000 -0.009469 0.000000 0.038973
#
#
# Mechanical properties :
#
#
# Convention : Reuss Voigt Hill
#
# Bulk Modulus (GPa) = 27.26069 40.97352 34.11711
# Shear Modulus (GPa) = 12.67828 22.62654 17.65241
#
# Velocity S-wave (km/s) = 2.54619 3.40149 3.00443
# Velocity P-wave (km/s) = 4.75225 6.03148 5.42967
#
# Compressibility (1/GPa) = 0.03668285
#
# Stress axis : x y z
#
# Youngs Moduli (GPa) = 24.29575 78.78507 14.95970
#
# Poissons Ratio (x) = 0.65333 0.54892
# Poissons Ratio (y) = 0.20147 -0.04455
# Poissons Ratio (z) = 0.89150 -0.23464
#
# Static dielectric constant tensor:
#      x y z
#    x 1.744840 0.000000 0.011350 
#    y 0.000000 1.689710 0.000000 
#    z 0.011350 0.000000 1.681170 
# 
# From -- ./inp_files/34212.got.cif
#   From: 2010.05.17/outbox.cif.g08.bks.cpg/sg14_18_cif.got.tgz:34212.got - 2010.06.03 17:49:19.
