data_PCOD9243047
_publ_section_title
;
Structure prediction by ZEFSAII (Michael W. Deem and Ramdas Pophale) SiO2 
 PCOD9243047
Probable space group: P 21/C
;
_chemical_formula_sum "Si O2"
_cell_formula_units_Z 28
_cell_length_a 24.606627
_cell_length_b 7.682800
_cell_length_c 17.926302
_cell_angle_alpha 90.000000
_cell_angle_beta 154.370688
_cell_angle_gamma 90.000000
_cell_volume 1465.870782
_symmetry_space_group_name_H-M "P 21/C"
_symmetry_group_IT_number 14
_symmetry_cell_setting 'monoclinic'
loop_
_space_group_symop_operation_xyz
x,y,z
-x,1/2+y,1/2-z
-x,-y,-z
x,1/2-y,1/2+z
loop_
_atom_site_type_symbol
_atom_site_label
_atom_site_fract_x
_atom_site_fract_y
_atom_site_fract_z
Si Si1 0.857250 0.709058 0.363151
Si Si2 0.649816 0.632293 0.207804
Si Si3 0.848364 0.344550 0.268985
Si Si4 0.349803 0.866928 0.597174
Si Si5 0.589789 0.258154 0.662819
Si Si6 0.695727 0.049263 0.159748
Si Si7 0.463758 0.303469 0.287346
O O1 0.791720 0.673233 0.361903
O O2 0.832115 0.542881 0.278385
O O3 0.006981 0.712714 0.554450
O O4 0.785833 0.886879 0.252535
O O5 0.635183 0.425640 0.185478
O O6 0.598016 0.692537 0.223336
O O7 0.559728 0.732590 0.036511
O O8 0.776031 0.218250 0.235826
O O9 0.778954 0.323897 0.103963
O O10 0.370219 0.777099 0.702332
O O11 0.461454 0.810681 0.679520
O O12 0.361780 0.072813 0.624153
O O13 0.649930 0.413696 0.688216
O O14 0.568034 0.067748 0.953469
#
# Coordination Sequence:
#
# PCOD9243047 Si02
#       7
#     4   4   4   4   4   4   4
#     4  11  21  39  66  80 116 160 206 241 288 359
#     4  10  20  37  62  88 116 158 202 237 296 360
#     4  10  24  40  57  90 118 157 203 246 292 355
#     4  11  22  37  55  87 129 146 191 253 304 351
#     4  10  20  36  61  88 121 152 192 255 298 349
#     4  10  20  39  64  89 112 157 206 240 291 359
#     4  10  22  34  58  93 118 156 193 244 313 355
#
# _framework density 19.101274
#
# number of rings (size 3 to 8) (size 9 to 14) (size 15 to 20)
#    0.000    1.714    1.429    3.000    6.000    2.286 
#    0.000    2.857    0.000    0.000    0.000    0.000 
#    0.000    0.000    0.000    0.000    0.000    0.000 
#
# Total GULP energy -156222.474077 kJ/mol
# GULP energy per Si atom -5579.374074 kJ/mol
# Density = 1.905780 g / cm^3
# Si number density = 19.101274 Si / 1000 Ang^3
#
#
#
# Elastic Constant Matrix: (Units=GPa)
#
#
# Indices 1 2 3 4 5 6 
#
# 1 96.5313 22.8243 59.0255 0.0000 -3.7293 0.0000
# 2 22.8243 94.8870 25.3434 0.0000 5.3704 0.0000
# 3 59.0255 25.3434 73.0729 0.0000 7.6320 0.0000
# 4 0.0000 0.0000 0.0000 22.3019 0.0000 5.4717
# 5 -3.7293 5.3704 7.6320 0.0000 30.3240 0.0000
# 6 0.0000 0.0000 0.0000 5.4717 0.0000 30.6640
#
#
#
# Elastic Compliance Matrix: (Units=1/GPa)
#
#
# Indices 1 2 3 4 5 6 
#
# 1 0.022020 -0.000838 -0.018275 0.000000 0.007456 0.000000
# 2 -0.000838 0.011681 -0.003233 0.000000 -0.001358 0.000000
# 3 -0.018275 -0.003233 0.030546 0.000000 -0.009363 0.000000
# 4 0.000000 0.000000 0.000000 0.046892 0.000000 -0.008367
# 5 0.007456 -0.001358 -0.009363 0.000000 0.036491 0.000000
# 6 0.000000 0.000000 0.000000 -0.008367 0.000000 0.034105
#
#
# Mechanical properties :
#
#
# Convention : Reuss Voigt Hill
#
# Bulk Modulus (GPa) = 51.13585 53.20861 52.17223
# Shear Modulus (GPa) = 21.46439 27.14453 24.30446
#
# Velocity S-wave (km/s) = 3.35582 3.77382 3.57094
# Velocity P-wave (km/s) = 6.46873 6.84876 6.66145
#
# Compressibility (1/GPa) = 0.01955575
#
# Stress axis : x y z
#
# Youngs Moduli (GPa) = 45.41317 85.61200 32.73748
#
# Poissons Ratio (x) = 0.07171 0.59828
# Poissons Ratio (y) = 0.03804 0.10583
# Poissons Ratio (z) = 0.82993 0.27675
#
# Static dielectric constant tensor:
#      x y z
#    x 1.653710 0.000000 -0.004660 
#    y 0.000000 1.731450 0.000000 
#    z -0.004660 0.000000 1.652100 
# 
# From -- ./inp_files/50111.got.cif
#   From: 2010.05.17/outbox.cif.g08.bks.cpg/sg14_26_cif.got.tgz:50111.got - 2010.06.03 17:49:19.
