data_PCOD9243961
_publ_section_title
;
Structure prediction by ZEFSAII (Michael W. Deem and Ramdas Pophale) SiO2 
 PCOD9243961
Probable space group: P 21/C
;
_chemical_formula_sum "Si O2"
_cell_formula_units_Z 32
_cell_length_a 13.002294
_cell_length_b 14.393312
_cell_length_c 17.676601
_cell_angle_alpha 90.000000
_cell_angle_beta 29.810475
_cell_angle_gamma 90.000000
_cell_volume 1644.567579
_symmetry_space_group_name_H-M "P 21/C"
_symmetry_group_IT_number 14
_symmetry_cell_setting 'monoclinic'
loop_
_space_group_symop_operation_xyz
x,y,z
-x,1/2+y,1/2-z
-x,-y,-z
x,1/2-y,1/2+z
loop_
_atom_site_type_symbol
_atom_site_label
_atom_site_fract_x
_atom_site_fract_y
_atom_site_fract_z
Si Si1 0.190667 0.140177 0.029016
Si Si2 0.621675 0.985609 0.533814
Si Si3 0.417728 0.852836 0.328910
Si Si4 0.302631 0.872652 0.652567
Si Si5 0.052704 0.332841 0.149215
Si Si6 0.869764 0.410080 0.110988
Si Si7 0.642785 0.286318 0.493059
Si Si8 0.465479 0.507126 0.433411
O O1 0.194132 0.241467 0.065415
O O2 0.942558 0.131744 0.172377
O O3 0.359090 0.151587 0.854472
O O4 0.269303 0.052295 0.028253
O O5 0.432065 0.916695 0.637746
O O6 0.822934 0.924162 0.411980
O O7 0.590046 0.045457 0.628642
O O8 0.659874 0.056385 0.440669
O O9 0.219118 0.846185 0.400036
O O10 0.389912 0.779685 0.414369
O O11 0.394768 0.776072 0.559269
O O12 0.969574 0.351188 0.116237
O O13 0.873986 0.318834 0.324797
O O14 0.659441 0.455646 0.274527
O O15 0.000000 0.500000 0.000000
O O16 0.531149 0.382801 0.582844
O O17 0.500000 0.500000 0.500000
#
# Coordination Sequence:
#
# PCOD9243961 Si02
#       8
#     4   4   4   4   4   4   4   4
#     4  10  24  38  60  92 127 164 207 261 322 373
#     4  10  20  39  63  86 125 168 213 265 310 381
#     4  10  23  42  62  94 130 163 212 267 321 385
#     4   9  21  39  60  91 125 165 219 256 314 382
#     4  11  22  39  65  90 126 170 213 259 317 379
#     4  11  23  40  63  97 127 167 206 265 328 366
#     4  10  22  41  63  94 127 166 213 261 317 382
#     4  11  23  40  66  94 126 163 213 261 310 389
#
# _framework density 19.458000999999999
#
# number of rings (size 3 to 8) (size 9 to 14) (size 15 to 20)
#    0.000    1.750    2.500    0.750    3.500    2.500 
#    0.000    2.500    0.000    0.000    0.000    0.000 
#    0.000    0.000    0.000    0.000    0.000    0.000 
#
# Total GULP energy -178221.926997 kJ/mol
# GULP energy per Si atom -5569.435219 kJ/mol
# Density = 1.941371 g / cm^3
# Si number density = 19.458001 Si / 1000 Ang^3
#
#
#
# Elastic Constant Matrix: (Units=GPa)
#
#
# Indices 1 2 3 4 5 6 
#
# 1 63.2868 23.0377 8.5985 0.0000 -1.2140 0.0000
# 2 23.0377 101.9101 -7.3702 0.0000 -8.3581 0.0000
# 3 8.5985 -7.3702 46.4287 0.0000 3.5393 0.0000
# 4 0.0000 0.0000 0.0000 31.6162 0.0000 3.2321
# 5 -1.2140 -8.3581 3.5393 0.0000 14.7261 0.0000
# 6 0.0000 0.0000 0.0000 3.2321 0.0000 7.6859
#
#
#
# Elastic Compliance Matrix: (Units=1/GPa)
#
#
# Indices 1 2 3 4 5 6 
#
# 1 0.017927 -0.004344 -0.004008 0.000000 -0.000025 0.000000
# 2 -0.004344 0.011412 0.002190 0.000000 0.005593 0.000000
# 3 -0.004008 0.002190 0.022980 0.000000 -0.004611 0.000000
# 4 0.000000 0.000000 0.000000 0.033050 0.000000 -0.013898
# 5 -0.000025 0.005593 -0.004611 0.000000 0.072187 0.000000
# 6 0.000000 0.000000 0.000000 -0.013898 0.000000 0.135953
#
#
# Mechanical properties :
#
#
# Convention : Reuss Voigt Hill
#
# Bulk Modulus (GPa) = 25.00417 28.90641 26.95529
# Shear Modulus (GPa) = 15.66594 23.29628 19.48111
#
# Velocity S-wave (km/s) = 2.84053 3.46390 3.16759
# Velocity P-wave (km/s) = 4.86173 5.55753 5.22123
#
# Compressibility (1/GPa) = 0.03999333
#
# Stress axis : x y z
#
# Youngs Moduli (GPa) = 55.78325 87.62960 43.51673
#
# Poissons Ratio (x) = 0.38069 0.17440
# Poissons Ratio (y) = 0.24234 -0.09529
# Poissons Ratio (z) = 0.22356 -0.19189
#
# Static dielectric constant tensor:
#      x y z
#    x 1.707600 0.000000 -0.021600 
#    y 0.000000 1.815430 0.000000 
#    z -0.021600 0.000000 1.679960 
# 
# From -- ./inp_files/57986.got.cif
#   From: 2010.05.17/outbox.cif.g08.bks.cpg/sg14_29_cif.got.tgz:57986.got - 2010.06.03 17:49:19.
