data_PCOD9243134
_publ_section_title
;
Structure prediction by ZEFSAII (Michael W. Deem and Ramdas Pophale) SiO2 
 PCOD9243134
Probable space group: P 21/C
;
_chemical_formula_sum "Si O2"
_cell_formula_units_Z 32
_cell_length_a 11.067663
_cell_length_b 9.351668
_cell_length_c 29.563042
_cell_angle_alpha 90.000000
_cell_angle_beta 31.111961
_cell_angle_gamma 90.000000
_cell_volume 1581.039552
_symmetry_space_group_name_H-M "P 21/C"
_symmetry_group_IT_number 14
_symmetry_cell_setting 'monoclinic'
loop_
_space_group_symop_operation_xyz
x,y,z
-x,1/2+y,1/2-z
-x,-y,-z
x,1/2-y,1/2+z
loop_
_atom_site_type_symbol
_atom_site_label
_atom_site_fract_x
_atom_site_fract_y
_atom_site_fract_z
Si Si1 0.007319 0.794205 0.759104
Si Si2 0.466045 0.226907 0.183946
Si Si3 0.895127 0.984036 0.198425
Si Si4 0.444673 0.689758 0.439902
Si Si5 0.658116 0.644429 0.540022
Si Si6 0.279593 0.906252 0.231531
Si Si7 0.838311 0.221504 0.143950
Si Si8 0.288883 0.775026 0.085120
O O1 0.728701 0.810442 0.851533
O O2 0.086114 0.641464 0.755973
O O3 0.110629 0.805648 0.675652
O O4 0.132907 0.910661 0.750311
O O5 0.273430 0.349438 0.248372
O O6 0.608540 0.255478 0.091920
O O7 0.634339 0.226789 0.172868
O O8 0.344139 0.071598 0.217775
O O9 0.158697 0.926458 0.119238
O O10 0.846135 0.074093 0.169551
O O11 0.349579 0.526973 0.466687
O O12 0.347485 0.769834 0.515306
O O13 0.511974 0.661021 0.633333
O O14 0.518561 0.708344 0.541877
O O15 0.908959 0.718379 0.460844
O O16 0.202605 0.839373 0.303882
#
# Coordination Sequence:
#
# PCOD9243134 Si02
#       8
#     4   4   4   4   4   4   4   4
#     4  10  21  37  64  92 129 155 206 260 315 371
#     4  11  24  39  61  90 130 164 213 257 302 376
#     4  11  21  39  67  89 123 169 204 255 320 362
#     4  11  20  35  60  97 122 161 209 253 309 370
#     4  10  20  36  65  92 118 157 213 257 306 369
#     4   9  22  39  62  90 122 162 205 262 314 362
#     4  11  22  42  65  88 121 168 215 258 307 363
#     4  11  19  35  63  93 122 155 198 261 314 364
#
# _framework density 20.239847999999999
#
# number of rings (size 3 to 8) (size 9 to 14) (size 15 to 20)
#    0.000    1.500    3.750    2.625    0.000    2.000 
#    2.250    0.625    8.250    7.500    0.000    0.000 
#    0.000    0.000    0.000    0.000    0.000    0.000 
#
# Total GULP energy -178478.549196 kJ/mol
# GULP energy per Si atom -5577.454662 kJ/mol
# Density = 2.019378 g / cm^3
# Si number density = 20.239848 Si / 1000 Ang^3
#
#
#
# Elastic Constant Matrix: (Units=GPa)
#
#
# Indices 1 2 3 4 5 6 
#
# 1 100.9917 16.4641 25.5787 0.0000 -0.6627 0.0000
# 2 16.4641 37.9517 19.8476 0.0000 -0.2625 0.0000
# 3 25.5787 19.8476 82.1177 0.0000 13.7812 0.0000
# 4 0.0000 0.0000 0.0000 16.1383 0.0000 -0.6309
# 5 -0.6627 -0.2625 13.7812 0.0000 26.6910 0.0000
# 6 0.0000 0.0000 0.0000 -0.6309 0.0000 19.7555
#
#
#
# Elastic Compliance Matrix: (Units=1/GPa)
#
#
# Indices 1 2 3 4 5 6 
#
# 1 0.011208 -0.003281 -0.002999 0.000000 0.001795 0.000000
# 2 -0.003281 0.031612 -0.007288 0.000000 0.003993 0.000000
# 3 -0.002999 -0.007288 0.016311 0.000000 -0.008568 0.000000
# 4 0.000000 0.000000 0.000000 0.062042 0.000000 0.001981
# 5 0.001795 0.003993 -0.008568 0.000000 0.041974 0.000000
# 6 0.000000 0.000000 0.000000 0.001981 0.000000 0.050682
#
#
# Mechanical properties :
#
#
# Convention : Reuss Voigt Hill
#
# Bulk Modulus (GPa) = 31.25649 38.31578 34.78614
# Shear Modulus (GPa) = 19.87033 23.12836 21.49934
#
# Velocity S-wave (km/s) = 3.13668 3.38407 3.26272
# Velocity P-wave (km/s) = 5.34742 5.85160 5.60518
#
# Compressibility (1/GPa) = 0.03199335
#
# Stress axis : x y z
#
# Youngs Moduli (GPa) = 89.22062 31.63353 61.30672
#
# Poissons Ratio (x) = 0.10380 0.18388
# Poissons Ratio (y) = 0.29276 0.44683
# Poissons Ratio (z) = 0.26760 0.23056
#
# Static dielectric constant tensor:
#      x y z
#    x 1.708630 0.000000 0.016520 
#    y 0.000000 1.748630 0.000000 
#    z 0.016520 0.000000 1.778420 
# 
# From -- ./inp_files/79984.got.cif
#   From: 2010.05.17/outbox.cif.g08.bks.cpg/sg14_40_cif.got.tgz:79984.got - 2010.06.03 17:49:19.
