data_PCOD9243806
_publ_section_title
;
Structure prediction by ZEFSAII (Michael W. Deem and Ramdas Pophale) SiO2 
 PCOD9243806
Probable space group: P 21/C
;
_chemical_formula_sum "Si O2"
_cell_formula_units_Z 28
_cell_length_a 18.714161
_cell_length_b 9.459176
_cell_length_c 13.260077
_cell_angle_alpha 90.000000
_cell_angle_beta 29.089359
_cell_angle_gamma 90.000000
_cell_volume 1141.197034
_symmetry_space_group_name_H-M "P 21/C"
_symmetry_group_IT_number 14
_symmetry_cell_setting 'monoclinic'
loop_
_space_group_symop_operation_xyz
x,y,z
-x,1/2+y,1/2-z
-x,-y,-z
x,1/2-y,1/2+z
loop_
_atom_site_type_symbol
_atom_site_label
_atom_site_fract_x
_atom_site_fract_y
_atom_site_fract_z
Si Si1 0.674391 0.519793 0.969231
Si Si2 0.316123 0.434046 0.520108
Si Si3 0.226995 0.596820 0.958909
Si Si4 0.194228 0.712870 0.324054
Si Si5 0.889645 0.954399 0.920947
Si Si6 0.568554 0.298853 0.686189
Si Si7 0.881618 0.759463 0.113290
O O1 0.688864 0.515509 0.073474
O O2 0.694710 0.372180 0.885849
O O3 0.812709 0.612506 0.763846
O O4 0.524115 0.596661 0.124638
O O5 0.211352 0.446937 0.552341
O O6 0.382015 0.588523 0.457881
O O7 0.448018 0.326015 0.327247
O O8 0.220203 0.370524 0.729049
O O9 0.058255 0.555078 0.178496
O O10 0.251189 0.653116 0.816833
O O11 0.284973 0.735192 0.947129
O O12 0.141027 0.591395 0.470733
O O13 0.050384 0.756558 0.437271
O O14 0.866844 0.814801 0.018229
#
# Coordination Sequence:
#
# PCOD9243806 Si02
#       7
#     4   4   4   4   4   4   4
#     4  10  21  40  61  91 129 163 217 259 306 388
#     4  11  23  42  64  92 132 164 216 262 318 381
#     4  12  21  36  68  93 123 162 214 263 320 364
#     4  11  20  36  67  97 123 166 215 267 312 378
#     4  11  21  39  65  96 121 166 220 262 312 381
#     4  11  24  42  63  90 133 174 203 260 324 377
#     4  10  20  38  66  94 126 163 207 273 316 371
#
# _framework density 24.535640999999998
#
# number of rings (size 3 to 8) (size 9 to 14) (size 15 to 20)
#    0.000    1.143    7.143    0.857    0.000    0.571 
#    2.571    1.429    9.429    0.000    0.000    0.000 
#    0.000    0.000    0.000    0.000    0.000    0.000 
#
# Total GULP energy -156267.470613 kJ/mol
# GULP energy per Si atom -5580.981093 kJ/mol
# Density = 2.447980 g / cm^3
# Si number density = 24.535641 Si / 1000 Ang^3
#
#
#
# Elastic Constant Matrix: (Units=GPa)
#
#
# Indices 1 2 3 4 5 6 
#
# 1 69.2505 19.5320 24.5002 0.0000 5.1378 0.0000
# 2 19.5320 96.1452 -2.8970 0.0000 -2.3193 0.0000
# 3 24.5002 -2.8970 43.9361 0.0000 -1.1219 0.0000
# 4 0.0000 0.0000 0.0000 28.6230 0.0000 10.5377
# 5 5.1378 -2.3193 -1.1219 0.0000 22.1310 0.0000
# 6 0.0000 0.0000 0.0000 10.5377 0.0000 29.9647
#
#
#
# Elastic Compliance Matrix: (Units=1/GPa)
#
#
# Indices 1 2 3 4 5 6 
#
# 1 0.020353 -0.004631 -0.011803 0.000000 -0.005809 0.000000
# 2 -0.004631 0.011503 0.003403 0.000000 0.002453 0.000000
# 3 -0.011803 0.003403 0.029684 0.000000 0.004602 0.000000
# 4 0.000000 0.000000 0.000000 0.040133 0.000000 -0.014113
# 5 -0.005809 0.002453 0.004602 0.000000 0.047024 0.000000
# 6 0.000000 0.000000 0.000000 -0.014113 0.000000 0.038336
#
#
# Mechanical properties :
#
#
# Convention : Reuss Voigt Hill
#
# Bulk Modulus (GPa) = 28.18520 32.40024 30.29272
# Shear Modulus (GPa) = 22.23002 27.35687 24.79345
#
# Velocity S-wave (km/s) = 3.01330 3.34276 3.18230
# Velocity P-wave (km/s) = 4.85994 5.30404 5.08684
#
# Compressibility (1/GPa) = 0.03547962
#
# Stress axis : x y z
#
# Youngs Moduli (GPa) = 49.13233 86.93114 33.68806
#
# Poissons Ratio (x) = 0.40254 0.39763
# Poissons Ratio (y) = 0.22751 -0.11465
# Poissons Ratio (z) = 0.57992 -0.29585
#
# Static dielectric constant tensor:
#      x y z
#    x 1.942070 0.000000 0.049300 
#    y 0.000000 2.071580 0.000000 
#    z 0.049300 0.000000 1.963680 
# 
# From -- ./inp_files/48753.got.cif
#   From: 2010.05.17/outbox.cif.g08.bks.cpg/sg14_25_cif.got.tgz:48753.got - 2010.06.03 17:49:19.
