data_PCOD9243007
_publ_section_title
;
Structure prediction by ZEFSAII (Michael W. Deem and Ramdas Pophale) SiO2 
 PCOD9243007
Probable space group: P 21/C
;
_chemical_formula_sum "Si O2"
_cell_formula_units_Z 20
_cell_length_a 5.199620
_cell_length_b 6.776506
_cell_length_c 25.957081
_cell_angle_alpha 90.000000
_cell_angle_beta 108.115773
_cell_angle_gamma 90.000000
_cell_volume 869.267612
_symmetry_space_group_name_H-M "P 21/C"
_symmetry_group_IT_number 14
_symmetry_cell_setting 'monoclinic'
loop_
_space_group_symop_operation_xyz
x,y,z
-x,1/2+y,1/2-z
-x,-y,-z
x,1/2-y,1/2+z
loop_
_atom_site_type_symbol
_atom_site_label
_atom_site_fract_x
_atom_site_fract_y
_atom_site_fract_z
Si Si1 0.647431 0.040637 0.168513
Si Si2 0.952090 0.617950 0.944632
Si Si3 0.402055 0.048181 0.668465
Si Si4 0.764923 0.610378 0.274703
Si Si5 0.544715 0.385044 0.555407
O O1 0.602500 0.279105 0.160906
O O2 0.403612 0.992305 0.191735
O O3 0.631932 0.974050 0.108567
O O4 0.942008 0.015522 0.210434
O O5 0.797701 0.492923 0.890279
O O6 0.739843 0.790033 0.945636
O O7 0.224782 0.719820 0.940656
O O8 0.000000 0.500000 0.000000
O O9 0.229713 0.172472 0.699898
O O10 0.593594 0.901841 0.711806
O O11 0.500000 0.500000 0.500000
#
# Coordination Sequence:
#
# PCOD9243007 Si02
#       5
#     4   4   4   4   4
#     4   9  20  36  57  81 120 147 187 248 295 338
#     4  11  23  42  63  89 129 161 201 255 313 359
#     4   9  22  38  61  82 123 152 194 245 300 350
#     4  10  20  36  60  83 113 155 193 237 303 348
#     4  11  21  42  64  87 121 166 206 252 300 360
#
# _framework density 23.007876
#
# number of rings (size 3 to 8) (size 9 to 14) (size 15 to 20)
#    1.200    0.800    2.000    1.200    2.800    0.000 
#    7.200    0.000    0.000    0.000    0.000    0.000 
#    0.000    0.000    0.000    0.000    0.000    0.000 
#
# Total GULP energy -111481.581323 kJ/mol
# GULP energy per Si atom -5574.079066 kJ/mol
# Density = 2.295551 g / cm^3
# Si number density = 23.007876 Si / 1000 Ang^3
#
#
#
# Elastic Constant Matrix: (Units=GPa)
#
#
# Indices 1 2 3 4 5 6 
#
# 1 116.4593 -3.3794 16.7994 0.0000 4.7289 0.0000
# 2 -3.3794 12.8838 14.6149 0.0000 3.1661 0.0000
# 3 16.7994 14.6149 198.7805 0.0000 -1.1649 0.0000
# 4 0.0000 0.0000 0.0000 39.8153 0.0000 -2.3809
# 5 4.7289 3.1661 -1.1649 0.0000 34.6394 0.0000
# 6 0.0000 0.0000 0.0000 -2.3809 0.0000 17.5912
#
#
#
# Elastic Compliance Matrix: (Units=1/GPa)
#
#
# Indices 1 2 3 4 5 6 
#
# 1 0.008918 0.003929 -0.001052 0.000000 -0.001612 0.000000
# 2 0.003929 0.088657 -0.006902 0.000000 -0.008872 0.000000
# 3 -0.001052 -0.006902 0.005633 0.000000 0.000964 0.000000
# 4 0.000000 0.000000 0.000000 0.025321 0.000000 0.003427
# 5 -0.001612 -0.008872 0.000964 0.000000 0.029932 0.000000
# 6 0.000000 0.000000 0.000000 0.003427 0.000000 0.057311
#
#
# Mechanical properties :
#
#
# Convention : Reuss Voigt Hill
#
# Bulk Modulus (GPa) = 10.50899 42.68814 26.59856
# Shear Modulus (GPa) = 19.56625 38.41509 28.99067
#
# Velocity S-wave (km/s) = 2.91935 4.09057 3.55354
# Velocity P-wave (km/s) = 3.99261 6.39565 5.33129
#
# Compressibility (1/GPa) = 0.09515664
#
# Stress axis : x y z
#
# Youngs Moduli (GPa) = 112.13419 11.27937 177.53452
#
# Poissons Ratio (x) = -0.04431 0.18676
# Poissons Ratio (y) = -0.44053 1.22541
# Poissons Ratio (z) = 0.11796 0.07785
#
# Static dielectric constant tensor:
#      x y z
#    x 1.820250 0.000000 -0.023560 
#    y 0.000000 1.945100 0.000000 
#    z -0.023560 0.000000 1.947940 
# 
# From -- ./inp_files/63049.got.cif
#   From: 2010.05.17/outbox.cif.g08.bks.cpg/sg14_32_cif.got.tgz:63049.got - 2010.06.03 17:49:19.
