data_PCOD9243953
_publ_section_title
;
Structure prediction by ZEFSAII (Michael W. Deem and Ramdas Pophale) SiO2 
 PCOD9243953
Probable space group: P 21/C
;
_chemical_formula_sum "Si O2"
_cell_formula_units_Z 22
_cell_length_a 25.119834
_cell_length_b 6.602968
_cell_length_c 13.352673
_cell_angle_alpha 90.000000
_cell_angle_beta 21.802280
_cell_angle_gamma 90.000000
_cell_volume 822.567722
_symmetry_space_group_name_H-M "P 21/C"
_symmetry_group_IT_number 14
_symmetry_cell_setting 'monoclinic'
loop_
_space_group_symop_operation_xyz
x,y,z
-x,1/2+y,1/2-z
-x,-y,-z
x,1/2-y,1/2+z
loop_
_atom_site_type_symbol
_atom_site_label
_atom_site_fract_x
_atom_site_fract_y
_atom_site_fract_z
Si Si1 0.500000 0.000000 0.500000
Si Si2 0.248620 0.469348 0.072114
Si Si3 0.096925 0.950384 0.113470
Si Si4 0.665113 0.376953 0.283418
Si Si5 0.644396 0.781042 0.415504
Si Si6 0.019748 0.743486 0.547824
O O1 0.445870 0.805500 0.528321
O O2 0.511679 0.855666 0.581172
O O3 0.339065 0.379819 0.005034
O O4 0.171642 0.682429 0.235302
O O5 0.113342 0.320847 0.288093
O O6 0.331801 0.494485 0.823964
O O7 0.015936 0.903546 0.152413
O O8 0.185425 0.747042 0.977044
O O9 0.002847 0.032304 0.369076
O O10 0.217546 0.122904 0.884740
O O11 0.653544 0.539025 0.392244
#
# Coordination Sequence:
#
# PCOD9243953 Si02
#       6
#     2   4   4   4   4   4
#     4  10  24  46  72  92 126 186 222 286 374 400
#     4  10  22  41  67 104 136 175 230 283 335 410
#     4  10  21  38  66  96 141 186 219 270 341 408
#     4  11  22  45  68  99 139 175 228 290 344 421
#     4  10  22  45  67  95 132 176 226 289 347 409
#     4  10  20  39  63 102 138 181 225 264 341 407
#
# _framework density 26.745518000000001
#
# number of rings (size 3 to 8) (size 9 to 14) (size 15 to 20)
#    0.000    1.818    1.818    1.636    0.000    0.727 
#   13.091    0.000    0.000    0.000    0.000    0.000 
#    0.000    0.000    0.000    0.000    0.000    0.000 
#
# Total GULP energy -122745.088925 kJ/mol
# GULP energy per Si atom -5579.322224 kJ/mol
# Density = 2.668464 g / cm^3
# Si number density = 26.745518 Si / 1000 Ang^3
#
#
#
# Elastic Constant Matrix: (Units=GPa)
#
#
# Indices 1 2 3 4 5 6 
#
# 1 112.1942 16.1048 9.5654 0.0000 -18.0898 0.0000
# 2 16.1048 135.8357 38.6732 0.0000 -14.8469 0.0000
# 3 9.5654 38.6732 66.0649 0.0000 10.6364 0.0000
# 4 0.0000 0.0000 0.0000 47.3597 0.0000 -11.2856
# 5 -18.0898 -14.8469 10.6364 0.0000 33.2445 0.0000
# 6 0.0000 0.0000 0.0000 -11.2856 0.0000 37.6091
#
#
#
# Elastic Compliance Matrix: (Units=1/GPa)
#
#
# Indices 1 2 3 4 5 6 
#
# 1 0.010150 0.000268 -0.002672 0.000000 0.006498 0.000000
# 2 0.000268 0.010096 -0.007062 0.000000 0.006914 0.000000
# 3 -0.002672 -0.007062 0.021507 0.000000 -0.011489 0.000000
# 4 0.000000 0.000000 0.000000 0.022741 0.000000 0.006824
# 5 0.006498 0.006914 -0.011489 0.000000 0.040380 0.000000
# 6 0.000000 0.000000 0.000000 0.006824 0.000000 0.028637
#
#
# Mechanical properties :
#
#
# Convention : Reuss Voigt Hill
#
# Bulk Modulus (GPa) = 43.82102 49.19795 46.50949
# Shear Modulus (GPa) = 31.23967 40.29275 35.76621
#
# Velocity S-wave (km/s) = 3.42136 3.88561 3.66085
# Velocity P-wave (km/s) = 5.65929 6.21010 5.94108
#
# Compressibility (1/GPa) = 0.02282010
#
# Stress axis : x y z
#
# Youngs Moduli (GPa) = 98.52005 99.04433 46.49545
#
# Poissons Ratio (x) = -0.02651 0.12426
# Poissons Ratio (y) = -0.02637 0.32836
# Poissons Ratio (z) = 0.26329 0.69948
#
# Static dielectric constant tensor:
#      x y z
#    x 2.054950 0.000000 -0.093430 
#    y 0.000000 2.090370 0.000000 
#    z -0.093430 0.000000 2.163870 
# 
# From -- ./inp_files/50971.got.cif
#   From: 2010.05.17/outbox.cif.g08.bks.cpg/sg14_26_cif.got.tgz:50971.got - 2010.06.03 17:49:19.
