data_PCOD9243067
_publ_section_title
;
Structure prediction by ZEFSAII (Michael W. Deem and Ramdas Pophale) SiO2 
 PCOD9243067
Probable space group: P 21/C
;
_chemical_formula_sum "Si O2"
_cell_formula_units_Z 32
_cell_length_a 22.261681
_cell_length_b 15.718129
_cell_length_c 9.696007
_cell_angle_alpha 90.000000
_cell_angle_beta 28.929326
_cell_angle_gamma 90.000000
_cell_volume 1641.175851
_symmetry_space_group_name_H-M "P 21/C"
_symmetry_group_IT_number 14
_symmetry_cell_setting 'monoclinic'
loop_
_space_group_symop_operation_xyz
x,y,z
-x,1/2+y,1/2-z
-x,-y,-z
x,1/2-y,1/2+z
loop_
_atom_site_type_symbol
_atom_site_label
_atom_site_fract_x
_atom_site_fract_y
_atom_site_fract_z
Si Si1 0.484727 0.976674 0.688215
Si Si2 0.243211 0.821295 0.544595
Si Si3 0.489261 0.915535 0.114575
Si Si4 0.283633 0.140383 0.748322
Si Si5 0.974434 0.696111 0.545996
Si Si6 0.298838 0.292299 0.919309
Si Si7 0.012273 0.144010 0.291602
Si Si8 0.742997 0.350733 0.306691
O O1 0.609771 0.928231 0.481320
O O2 0.500000 0.000000 0.500000
O O3 0.471377 0.058337 0.811538
O O4 0.369877 0.913578 0.940523
O O5 0.348379 0.882758 0.392032
O O6 0.263742 0.818313 0.338031
O O7 0.259804 0.730408 0.585990
O O8 0.098706 0.849496 0.852755
O O9 0.582883 0.845006 0.868404
O O10 0.500000 0.000000 0.000000
O O11 0.302812 0.198903 0.844395
O O12 0.293729 0.202575 0.595216
O O13 0.145876 0.099073 0.026657
O O14 0.985562 0.695003 0.358289
O O15 0.983844 0.789949 0.590495
O O16 0.834186 0.666751 0.861034
O O17 0.876406 0.102770 0.562294
#
# Coordination Sequence:
#
# PCOD9243067 Si02
#       8
#     4   4   4   4   4   4   4   4
#     4  12  27  40  54  78 117 150 190 230 279 327
#     4  10  20  36  62  84 112 144 186 227 275 329
#     4  12  23  40  54  78 115 150 182 229 273 325
#     4  10  20  38  60  87 109 145 186 227 275 330
#     4   8  16  32  54  87 108 137 179 228 271 323
#     4  10  20  36  62  84 112 144 186 227 275 329
#     4   8  16  32  58  82 112 135 177 231 271 321
#     4  10  20  38  60  87 109 145 186 227 275 330
#
# _framework density 19.498214999999998
#
# number of rings (size 3 to 8) (size 9 to 14) (size 15 to 20)
#    0.000    2.000    2.500    0.750    3.500    0.000 
#    0.000    2.500    0.000    0.000    0.000    0.000 
#    0.000    0.000    0.000    0.000    0.000    0.000 
#
# Total GULP energy -178298.284462 kJ/mol
# GULP energy per Si atom -5571.821389 kJ/mol
# Density = 1.945384 g / cm^3
# Si number density = 19.498215 Si / 1000 Ang^3
#
#
#
# Elastic Constant Matrix: (Units=GPa)
#
#
# Indices 1 2 3 4 5 6 
#
# 1 57.0471 -3.6309 7.2330 0.0000 -2.8892 0.0000
# 2 -3.6309 7.4321 1.6461 0.0000 -8.8077 0.0000
# 3 7.2330 1.6461 72.0430 0.0000 -23.2061 0.0000
# 4 0.0000 0.0000 0.0000 -2.0036 0.0000 15.2283
# 5 -2.8892 -8.8077 -23.2061 0.0000 40.4882 0.0000
# 6 0.0000 0.0000 0.0000 15.2283 0.0000 20.8208
#
#
#
# Elastic Compliance Matrix: (Units=1/GPa)
#
#
# Indices 1 2 3 4 5 6 
#
# 1 0.018727 0.013859 -0.000975 0.000000 0.003792 0.000000
# 2 0.013859 0.198262 0.010167 0.000000 0.049946 0.000000
# 3 -0.000975 0.010167 0.017705 0.000000 0.012290 0.000000
# 4 0.000000 0.000000 0.000000 -0.076094 0.000000 0.055655
# 5 0.003792 0.049946 0.012290 0.000000 0.042878 0.000000
# 6 0.000000 0.000000 0.000000 0.055655 0.000000 0.007323
#
#
# Mechanical properties :
#
#
# Convention : Reuss Voigt Hill
#
# Bulk Modulus (GPa) = 3.56131 16.33539 9.94835
# Shear Modulus (GPa) = 19.50862 20.61268 20.06065
#
# Velocity S-wave (km/s) = 3.16655 3.25492 3.21104
# Velocity P-wave (km/s) = 3.89870 4.74575 4.34292
#
# Compressibility (1/GPa) = 0.28079552
#
# Stress axis : x y z
#
# Youngs Moduli (GPa) = 53.39820 5.04384 56.48149
#
# Poissons Ratio (x) = -0.06990 0.05509
# Poissons Ratio (y) = -0.74007 -0.57423
# Poissons Ratio (z) = 0.05208 -0.05128
#
# Static dielectric constant tensor:
#      x y z
#    x 1.710320 0.000000 -0.027530 
#    y 0.000000 1.625660 0.000000 
#    z -0.027530 0.000000 1.719360 
# 
# From -- ./inp_files/16580.got.cif
#   From: 2010.05.17/outbox.cif.g08.bks.cpg/sg14_9_cif.got.tgz:16580.got - 2010.06.03 17:49:19.
