data_PCOD9243954
_publ_section_title
;
Structure prediction by ZEFSAII (Michael W. Deem and Ramdas Pophale) SiO2 
 PCOD9243954
Probable space group: P 21/C
;
_chemical_formula_sum "Si O2"
_cell_formula_units_Z 24
_cell_length_a 12.623826
_cell_length_b 13.372352
_cell_length_c 9.502152
_cell_angle_alpha 90.000000
_cell_angle_beta 139.963321
_cell_angle_gamma 90.000000
_cell_volume 1031.856700
_symmetry_space_group_name_H-M "P 21/C"
_symmetry_group_IT_number 14
_symmetry_cell_setting 'monoclinic'
loop_
_space_group_symop_operation_xyz
x,y,z
-x,1/2+y,1/2-z
-x,-y,-z
x,1/2-y,1/2+z
loop_
_atom_site_type_symbol
_atom_site_label
_atom_site_fract_x
_atom_site_fract_y
_atom_site_fract_z
Si Si1 0.290876 0.414945 0.824122
Si Si2 0.368319 0.360707 0.448572
Si Si3 0.178247 0.769087 0.819330
Si Si4 0.044071 0.250970 0.158819
Si Si5 0.482485 0.261780 0.828476
Si Si6 0.373813 0.954303 0.162563
O O1 0.358766 0.333715 0.782253
O O2 0.270130 0.506790 0.694040
O O3 0.176849 0.334088 0.251153
O O4 0.132037 0.357889 0.727796
O O5 0.442378 0.273518 0.624674
O O6 0.450317 0.341537 0.380468
O O7 0.389956 0.462723 0.555341
O O8 0.113487 0.775996 0.596338
O O9 0.020000 0.739260 0.748110
O O10 0.268696 0.862186 0.989922
O O11 0.334059 0.696423 0.969463
O O12 0.441382 0.061915 0.584986
#
# Coordination Sequence:
#
# PCOD9243954 Si02
#       6
#     4   4   4   4   4   4
#     4   9  20  42  64  83 116 168 205 230 286 370
#     4  10  21  41  63  84 115 161 204 243 288 353
#     4  12  23  37  60  93 122 153 197 250 301 351
#     4  11  23  40  62  86 123 161 193 237 305 367
#     4  10  20  39  63  82 113 161 208 234 282 362
#     4  10  21  37  62  91 117 150 205 254 288 337
#
# _framework density 23.259045
#
# number of rings (size 3 to 8) (size 9 to 14) (size 15 to 20)
#    0.000    1.667    0.000    7.000    0.000    2.000 
#    0.000    6.667    0.000    2.000    0.000    0.000 
#    0.000    0.000    0.000    0.000    0.000    0.000 
#
# Total GULP energy -133797.746015 kJ/mol
# GULP energy per Si atom -5574.906084 kJ/mol
# Density = 2.320611 g / cm^3
# Si number density = 23.259045 Si / 1000 Ang^3
#
#
#
# Elastic Constant Matrix: (Units=GPa)
#
#
# Indices 1 2 3 4 5 6 
#
# 1 83.4736 2.8051 -23.8065 0.0000 4.5852 0.0000
# 2 2.8051 63.5065 15.8325 0.0000 -10.0421 0.0000
# 3 -23.8065 15.8325 96.7600 0.0000 8.0996 0.0000
# 4 0.0000 0.0000 0.0000 42.8005 0.0000 0.3688
# 5 4.5852 -10.0421 8.0996 0.0000 36.9534 0.0000
# 6 0.0000 0.0000 0.0000 0.3688 0.0000 15.8415
#
#
#
# Elastic Compliance Matrix: (Units=1/GPa)
#
#
# Indices 1 2 3 4 5 6 
#
# 1 0.013318 -0.002035 0.003865 0.000000 -0.003053 0.000000
# 2 -0.002035 0.017746 -0.003901 0.000000 0.005930 0.000000
# 3 0.003865 -0.003901 0.012278 0.000000 -0.004231 0.000000
# 4 0.000000 0.000000 0.000000 0.023369 0.000000 -0.000544
# 5 -0.003053 0.005930 -0.004231 0.000000 0.029979 0.000000
# 6 0.000000 0.000000 0.000000 -0.000544 0.000000 0.063138
#
#
# Mechanical properties :
#
#
# Convention : Reuss Voigt Hill
#
# Bulk Modulus (GPa) = 25.50846 25.93358 25.72102
# Shear Modulus (GPa) = 28.24278 35.71302 31.97790
#
# Velocity S-wave (km/s) = 3.48842 3.92273 3.71193
# Velocity P-wave (km/s) = 5.21693 5.62949 5.42713
#
# Compressibility (1/GPa) = 0.03920269
#
# Stress axis : x y z
#
# Youngs Moduli (GPa) = 75.08500 56.34923 81.44476
#
# Poissons Ratio (x) = 0.11465 -0.31480
# Poissons Ratio (y) = 0.15277 0.31770
# Poissons Ratio (z) = -0.29022 0.21981
#
# Static dielectric constant tensor:
#      x y z
#    x 1.885340 0.000000 0.036700 
#    y 0.000000 2.070130 0.000000 
#    z 0.036700 0.000000 1.895110 
# 
# From -- ./inp_files/16019.got.cif
#   From: 2010.05.17/outbox.cif.g08.bks.cpg/sg14_9_cif.got.tgz:16019.got - 2010.06.03 17:49:19.
