data_PCOD9243513
_publ_section_title
;
Structure prediction by ZEFSAII (Michael W. Deem and Ramdas Pophale) SiO2 
 PCOD9243513
Probable space group: P 21/C
;
_chemical_formula_sum "Si O2"
_cell_formula_units_Z 20
_cell_length_a 9.419096
_cell_length_b 11.113938
_cell_length_c 17.730525
_cell_angle_alpha 90.000000
_cell_angle_beta 29.278431
_cell_angle_gamma 90.000000
_cell_volume 907.727966
_symmetry_space_group_name_H-M "P 21/C"
_symmetry_group_IT_number 14
_symmetry_cell_setting 'monoclinic'
loop_
_space_group_symop_operation_xyz
x,y,z
-x,1/2+y,1/2-z
-x,-y,-z
x,1/2-y,1/2+z
loop_
_atom_site_type_symbol
_atom_site_label
_atom_site_fract_x
_atom_site_fract_y
_atom_site_fract_z
Si Si1 0.955132 0.342313 0.559995
Si Si2 0.790582 0.593920 0.702122
Si Si3 0.512845 0.241697 0.869202
Si Si4 0.796082 0.067316 0.844035
Si Si5 0.308741 0.997208 0.513063
O O1 0.804914 0.470628 0.646054
O O2 0.726576 0.247981 0.698880
O O3 0.072145 0.315923 0.422210
O O4 0.242420 0.343666 0.478657
O O5 0.464592 0.599747 0.886480
O O6 0.002443 0.584195 0.676100
O O7 0.703006 0.194733 0.850744
O O8 0.371940 0.371601 0.948565
O O9 0.980418 0.994441 0.694988
O O10 0.500000 0.000000 0.000000
O O11 0.500000 0.000000 0.500000
#
# Coordination Sequence:
#
# PCOD9243513 Si02
#       5
#     4   4   4   4   4
#     4  10  20  38  59  83 119 159 191 243 302 354
#     4   9  20  39  58  82 123 157 191 243 302 348
#     4  11  20  37  61  85 119 155 200 239 298 356
#     4  11  20  36  63  94 114 154 201 245 291 358
#     4   9  20  37  59  85 118 157 193 245 293 345
#
# _framework density 22.033031000000001
#
# number of rings (size 3 to 8) (size 9 to 14) (size 15 to 20)
#    0.000    2.000    4.000    0.000    0.000    0.000 
#    7.200    3.000    0.000    0.000    0.000    0.000 
#    0.000    0.000    0.000    0.000    0.000    0.000 
#
# Total GULP energy -111436.429787 kJ/mol
# GULP energy per Si atom -5571.821489 kJ/mol
# Density = 2.198288 g / cm^3
# Si number density = 22.033031 Si / 1000 Ang^3
#
#
#
# Elastic Constant Matrix: (Units=GPa)
#
#
# Indices 1 2 3 4 5 6 
#
# 1 43.6635 -3.6386 30.0997 0.0000 16.1873 0.0000
# 2 -3.6386 10.9910 20.2024 0.0000 3.7947 0.0000
# 3 30.0997 20.2024 208.3379 0.0000 16.3490 0.0000
# 4 0.0000 0.0000 0.0000 23.9029 0.0000 3.8243
# 5 16.1873 3.7947 16.3490 0.0000 33.5619 0.0000
# 6 0.0000 0.0000 0.0000 3.8243 0.0000 17.2278
#
#
#
# Elastic Compliance Matrix: (Units=1/GPa)
#
#
# Indices 1 2 3 4 5 6 
#
# 1 0.036964 0.031232 -0.006959 0.000000 -0.017970 0.000000
# 2 0.031232 0.138992 -0.016194 0.000000 -0.022890 0.000000
# 3 -0.006959 -0.016194 0.007245 0.000000 0.001658 0.000000
# 4 0.000000 0.000000 0.000000 0.043376 0.000000 -0.009629
# 5 -0.017970 -0.022890 0.001658 0.000000 0.040243 0.000000
# 6 0.000000 0.000000 0.000000 -0.009629 0.000000 0.060183
#
#
# Mechanical properties :
#
#
# Convention : Reuss Voigt Hill
#
# Bulk Modulus (GPa) = 5.01606 39.59106 22.30356
# Shear Modulus (GPa) = 13.25209 29.36045 21.30627
#
# Velocity S-wave (km/s) = 2.45514 3.65439 3.11306
# Velocity P-wave (km/s) = 3.21224 5.98449 4.80274
#
# Compressibility (1/GPa) = 0.19935974
#
# Stress axis : x y z
#
# Youngs Moduli (GPa) = 27.05338 7.19466 138.01680
#
# Poissons Ratio (x) = -0.22470 0.96043
# Poissons Ratio (y) = -0.84493 2.23504
# Poissons Ratio (z) = 0.18826 0.11651
#
# Static dielectric constant tensor:
#      x y z
#    x 1.816580 0.000000 0.041580 
#    y 0.000000 1.858120 0.000000 
#    z 0.041580 0.000000 1.867080 
# 
# From -- ./inp_files/7882.got.cif
#   From: 2010.05.17/outbox.cif.g08.bks.cpg/sg14_4_cif.got.tgz:7882.got - 2010.06.03 17:49:19.
