data_PCOD9243963
_publ_section_title
;
Structure prediction by ZEFSAII (Michael W. Deem and Ramdas Pophale) SiO2 
 PCOD9243963
Probable space group: P 21/C
;
_chemical_formula_sum "Si O2"
_cell_formula_units_Z 28
_cell_length_a 5.585971
_cell_length_b 13.563830
_cell_length_c 23.434334
_cell_angle_alpha 90.000000
_cell_angle_beta 51.676693
_cell_angle_gamma 90.000000
_cell_volume 1392.964245
_symmetry_space_group_name_H-M "P 21/C"
_symmetry_group_IT_number 14
_symmetry_cell_setting 'monoclinic'
loop_
_space_group_symop_operation_xyz
x,y,z
-x,1/2+y,1/2-z
-x,-y,-z
x,1/2-y,1/2+z
loop_
_atom_site_type_symbol
_atom_site_label
_atom_site_fract_x
_atom_site_fract_y
_atom_site_fract_z
Si Si1 0.225612 0.653661 0.936331
Si Si2 0.079854 0.698245 0.681605
Si Si3 0.480537 0.688270 0.318860
Si Si4 0.849774 0.551066 0.888798
Si Si5 0.049264 0.844539 0.589420
Si Si6 0.128177 0.998269 0.234349
Si Si7 0.370700 0.845162 0.715518
O O1 0.319858 0.757146 0.894048
O O2 0.545940 0.602481 0.908304
O O3 0.018065 0.597545 0.919644
O O4 0.049955 0.665272 0.021848
O O5 0.102806 0.582903 0.688901
O O6 0.338118 0.749808 0.681445
O O7 0.766238 0.743131 0.755282
O O8 0.118135 0.744090 0.613209
O O9 0.602367 0.577767 0.311892
O O10 0.269522 0.680641 0.294283
O O11 0.755277 0.439021 0.919925
O O12 0.098654 0.553939 0.800281
O O13 0.718937 0.875589 0.661822
O O14 0.831403 0.067172 0.277347
#
# Coordination Sequence:
#
# PCOD9243963 Si02
#       7
#     4   4   4   4   4   4   4
#     4  12  27  40  65  97 133 170 210 260 327 389
#     4  10  21  38  62  88 125 170 211 268 317 376
#     4  10  22  37  60  92 124 168 216 265 313 379
#     4  12  23  40  66  94 132 167 206 265 328 381
#     4  11  24  40  59  95 130 171 206 264 324 393
#     4  11  21  38  66  94 124 167 220 269 313 378
#     4  10  20  39  63  87 132 161 218 261 323 370
#
# _framework density 20.101016999999999
#
# number of rings (size 3 to 8) (size 9 to 14) (size 15 to 20)
#    0.000    1.143    5.714    2.571    4.000    2.286 
#    0.000    0.714    0.000    1.714    0.000    0.000 
#    0.000    0.000    0.000    0.000    0.000    0.000 
#
# Total GULP energy -156241.157300 kJ/mol
# GULP energy per Si atom -5580.041332 kJ/mol
# Density = 2.005527 g / cm^3
# Si number density = 20.101017 Si / 1000 Ang^3
#
#
#
# Elastic Constant Matrix: (Units=GPa)
#
#
# Indices 1 2 3 4 5 6 
#
# 1 64.4314 14.6265 16.9368 0.0000 21.3960 0.0000
# 2 14.6265 86.3349 43.4484 0.0000 16.1671 0.0000
# 3 16.9368 43.4484 91.2154 0.0000 35.3301 0.0000
# 4 0.0000 0.0000 0.0000 28.1734 0.0000 3.0800
# 5 21.3960 16.1671 35.3301 0.0000 30.5998 0.0000
# 6 0.0000 0.0000 0.0000 3.0800 0.0000 17.3127
#
#
#
# Elastic Compliance Matrix: (Units=1/GPa)
#
#
# Indices 1 2 3 4 5 6 
#
# 1 0.021054 -0.002291 0.004369 0.000000 -0.018555 0.000000
# 2 -0.002291 0.015490 -0.007966 0.000000 0.002615 0.000000
# 3 0.004369 -0.007966 0.024420 0.000000 -0.027041 0.000000
# 4 0.000000 0.000000 0.000000 0.036199 0.000000 -0.006440
# 5 -0.018555 0.002615 -0.027041 0.000000 0.075494 0.000000
# 6 0.000000 0.000000 0.000000 -0.006440 0.000000 0.058907
#
#
# Mechanical properties :
#
#
# Convention : Reuss Voigt Hill
#
# Bulk Modulus (GPa) = 20.33025 43.55612 31.94319
# Shear Modulus (GPa) = 19.25045 26.34850 22.79948
#
# Velocity S-wave (km/s) = 3.09801 3.62443 3.37151
# Velocity P-wave (km/s) = 4.78883 6.26346 5.57512
#
# Compressibility (1/GPa) = 0.04918780
#
# Stress axis : x y z
#
# Youngs Moduli (GPa) = 47.49768 64.55753 40.95027
#
# Poissons Ratio (x) = 0.14789 -0.17890
# Poissons Ratio (y) = 0.10881 0.32620
# Poissons Ratio (z) = -0.20751 0.51426
#
# Static dielectric constant tensor:
#      x y z
#    x 1.785870 0.000000 0.010260 
#    y 0.000000 1.734810 0.000000 
#    z 0.010260 0.000000 1.717330 
# 
# From -- ./inp_files/63328.got.cif
#   From: 2010.05.17/outbox.cif.g08.bks.cpg/sg14_32_cif.got.tgz:63328.got - 2010.06.03 17:49:19.
