data_PCOD9243184
_publ_section_title
;
Structure prediction by ZEFSAII (Michael W. Deem and Ramdas Pophale) SiO2 
 PCOD9243184
Probable space group: P 21/C
;
_chemical_formula_sum "Si O2"
_cell_formula_units_Z 26
_cell_length_a 7.164637
_cell_length_b 22.954219
_cell_length_c 7.129980
_cell_angle_alpha 90.000000
_cell_angle_beta 118.815292
_cell_angle_gamma 90.000000
_cell_volume 1027.394895
_symmetry_space_group_name_H-M "P 21/C"
_symmetry_group_IT_number 14
_symmetry_cell_setting 'monoclinic'
loop_
_space_group_symop_operation_xyz
x,y,z
-x,1/2+y,1/2-z
-x,-y,-z
x,1/2-y,1/2+z
loop_
_atom_site_type_symbol
_atom_site_label
_atom_site_fract_x
_atom_site_fract_y
_atom_site_fract_z
Si Si1 0.762903 0.523136 0.363450
Si Si2 0.143580 0.942810 0.578455
Si Si3 0.485082 0.925464 0.411445
Si Si4 0.500000 0.500000 0.500000
Si Si5 0.488076 0.695182 0.012402
Si Si6 0.238880 0.289086 0.522555
Si Si7 0.979601 0.179991 0.557296
O O1 0.684458 0.553927 0.135644
O O2 0.690666 0.549727 0.522318
O O3 0.000000 0.500000 0.500000
O O4 0.571202 0.470944 0.282621
O O5 0.280629 0.933723 0.451431
O O6 0.310410 0.956053 0.819780
O O7 0.025877 0.881426 0.550865
O O8 0.000000 0.000000 0.500000
O O9 0.492477 0.857925 0.366645
O O10 0.556137 0.757149 0.967304
O O11 0.671400 0.679648 0.251907
O O12 0.260633 0.695986 0.000417
O O13 0.087136 0.234435 0.504605
O O14 0.111622 0.326196 0.312876
#
# Coordination Sequence:
#
# PCOD9243184 Si02
#       7
#     4   4   4   2   4   4   4
#     4  10  20  37  57  82 115 151 189 237 292 352
#     4  10  21  38  60  89 124 159 200 252 307 370
#     4   9  21  37  57  85 119 154 195 243 299 361
#     4  10  22  36  56  86 114 152 200 240 298 362
#     4  10  21  40  59  86 121 153 198 254 297 357
#     4  10  22  39  64  89 118 163 207 250 310 363
#     4  10  22  40  62  90 122 161 207 255 308 368
#
# _framework density 25.306723000000002
#
# number of rings (size 3 to 8) (size 9 to 14) (size 15 to 20)
#    0.000    2.154    0.000    1.846    0.000   11.077 
#    0.000    9.231    0.000    0.000    0.000    0.000 
#    0.000    0.000    0.000    0.000    0.000    0.000 
#
# Total GULP energy -144996.971630 kJ/mol
# GULP energy per Si atom -5576.806601 kJ/mol
# Density = 2.524912 g / cm^3
# Si number density = 25.306723 Si / 1000 Ang^3
#
#
#
# Elastic Constant Matrix: (Units=GPa)
#
#
# Indices 1 2 3 4 5 6 
#
# 1 130.2085 32.0667 23.4015 0.0000 23.5331 0.0000
# 2 32.0667 105.3161 55.4584 0.0000 23.6432 0.0000
# 3 23.4015 55.4584 113.2655 0.0000 11.3201 0.0000
# 4 0.0000 0.0000 0.0000 34.2382 0.0000 -1.3185
# 5 23.5331 23.6432 11.3201 0.0000 38.5231 0.0000
# 6 0.0000 0.0000 0.0000 -1.3185 0.0000 -5.1450
#
#
#
# Elastic Compliance Matrix: (Units=1/GPa)
#
#
# Indices 1 2 3 4 5 6 
#
# 1 0.008943 -0.001334 -0.000753 0.000000 -0.004424 0.000000
# 2 -0.001334 0.014608 -0.006246 0.000000 -0.006316 0.000000
# 3 -0.000753 -0.006246 0.011965 0.000000 0.000777 0.000000
# 4 0.000000 0.000000 0.000000 0.028922 0.000000 -0.007412
# 5 -0.004424 -0.006316 0.000777 0.000000 0.032309 0.000000
# 6 0.000000 0.000000 0.000000 -0.007412 0.000000 -0.192464
#
#
# Mechanical properties :
#
#
# Convention : Reuss Voigt Hill
#
# Bulk Modulus (GPa) = 53.04510 63.40481 58.22495
# Shear Modulus (GPa) = -68.71053 29.38082 -19.66485
#
# Velocity S-wave (km/s) = -5.21632 3.41102 -2.79060
# Velocity P-wave (km/s) = 3.90816 6.37357 3.56011
#
# Compressibility (1/GPa) = 0.01885188
#
# Stress axis : x y z
#
# Youngs Moduli (GPa) = 111.81704 68.45501 83.57837
#
# Poissons Ratio (x) = 0.09129 0.06290
# Poissons Ratio (y) = 0.14912 0.52202
# Poissons Ratio (z) = 0.08416 0.42756
#
# Static dielectric constant tensor:
#      x y z
#    x 2.324120 0.000000 -0.272700 
#    y 0.000000 2.068990 0.000000 
#    z -0.272700 0.000000 2.232340 
# 
# From -- ./inp_files/10314.got.cif
#   From: 2010.05.17/outbox.cif.g08.bks.cpg/sg14_6_cif.got.tgz:10314.got - 2010.06.03 17:49:19.
