data_PCOD9243629
_publ_section_title
;
Structure prediction by ZEFSAII (Michael W. Deem and Ramdas Pophale) SiO2 
 PCOD9243629
Probable space group: P 21/C
;
_chemical_formula_sum "Si O2"
_cell_formula_units_Z 28
_cell_length_a 7.063178
_cell_length_b 15.202479
_cell_length_c 18.777440
_cell_angle_alpha 90.000000
_cell_angle_beta 46.022924
_cell_angle_gamma 90.000000
_cell_volume 1450.951073
_symmetry_space_group_name_H-M "P 21/C"
_symmetry_group_IT_number 14
_symmetry_cell_setting 'monoclinic'
loop_
_space_group_symop_operation_xyz
x,y,z
-x,1/2+y,1/2-z
-x,-y,-z
x,1/2-y,1/2+z
loop_
_atom_site_type_symbol
_atom_site_label
_atom_site_fract_x
_atom_site_fract_y
_atom_site_fract_z
Si Si1 0.155098 0.516711 0.031904
Si Si2 0.424166 0.875755 0.568270
Si Si3 0.075763 0.317934 0.727952
Si Si4 0.067497 0.637112 0.661647
Si Si5 0.226948 0.501869 0.739147
Si Si6 0.813950 0.924554 0.081238
Si Si7 0.671672 0.801988 0.990257
O O1 0.253153 0.609954 0.040354
O O2 0.961975 0.481869 0.144389
O O3 0.427293 0.464687 0.952830
O O4 0.000000 0.500000 0.000000
O O5 0.224558 0.848430 0.682059
O O6 0.643834 0.802201 0.504185
O O7 0.075942 0.220410 0.762726
O O8 0.236022 0.396638 0.724242
O O9 0.168293 0.319966 0.622883
O O10 0.096032 0.554084 0.707178
O O11 0.368375 0.665049 0.564735
O O12 0.926426 0.610357 0.626003
O O13 0.520023 0.538606 0.670251
O O14 0.793029 0.848275 0.027382
O O15 0.000000 0.000000 0.000000
#
# Coordination Sequence:
#
# PCOD9243629 Si02
#       7
#     4   4   4   4   4   4   4
#     4  10  21  37  59  85 117 156 198 242 297 366
#     4   9  21  38  56  84 118 152 191 244 299 350
#     4  10  20  38  62  84 117 156 192 242 302 356
#     4  10  22  41  60  87 123 157 200 250 305 364
#     4  10  22  39  59  87 118 154 199 248 302 361
#     4  11  23  39  62  88 118 159 205 254 304 361
#     4  10  21  38  59  85 116 152 197 246 294 356
#
# _framework density 19.297687
#
# number of rings (size 3 to 8) (size 9 to 14) (size 15 to 20)
#    0.000    2.000    0.000    2.571    0.000   11.429 
#    0.000   11.429    0.000    0.000    0.000    0.000 
#    0.000    0.000    0.000    0.000    0.000    0.000 
#
# Total GULP energy -156116.779221 kJ/mol
# GULP energy per Si atom -5575.599258 kJ/mol
# Density = 1.925376 g / cm^3
# Si number density = 19.297687 Si / 1000 Ang^3
#
#
#
# Elastic Constant Matrix: (Units=GPa)
#
#
# Indices 1 2 3 4 5 6 
#
# 1 118.0379 41.8809 41.3132 0.0000 32.4677 0.0000
# 2 41.8809 85.9431 29.2939 0.0000 12.8222 0.0000
# 3 41.3132 29.2939 119.0423 0.0000 18.1269 0.0000
# 4 0.0000 0.0000 0.0000 29.9424 0.0000 -5.5053
# 5 32.4677 12.8222 18.1269 0.0000 24.8289 0.0000
# 6 0.0000 0.0000 0.0000 -5.5053 0.0000 21.8833
#
#
#
# Elastic Compliance Matrix: (Units=1/GPa)
#
#
# Indices 1 2 3 4 5 6 
#
# 1 0.015069 -0.004346 -0.001689 0.000000 -0.016227 0.000000
# 2 -0.004346 0.014487 -0.002006 0.000000 -0.000333 0.000000
# 3 -0.001689 -0.002006 0.010110 0.000000 -0.004137 0.000000
# 4 0.000000 0.000000 0.000000 0.035017 0.000000 0.008809
# 5 -0.016227 -0.000333 -0.004137 0.000000 0.064687 0.000000
# 6 0.000000 0.000000 0.000000 0.008809 0.000000 0.047913
#
#
# Mechanical properties :
#
#
# Convention : Reuss Voigt Hill
#
# Bulk Modulus (GPa) = 42.40307 60.88880 51.64593
# Shear Modulus (GPa) = 23.67128 29.36661 26.51894
#
# Velocity S-wave (km/s) = 3.50614 3.90522 3.71105
# Velocity P-wave (km/s) = 6.19770 7.20799 6.72186
#
# Compressibility (1/GPa) = 0.02358320
#
# Stress axis : x y z
#
# Youngs Moduli (GPa) = 66.36357 69.02713 98.91188
#
# Poissons Ratio (x) = 0.30002 0.16706
# Poissons Ratio (y) = 0.28844 0.19840
# Poissons Ratio (z) = 0.11209 0.13845
#
# Static dielectric constant tensor:
#      x y z
#    x 1.677030 0.000000 0.003640 
#    y 0.000000 1.723840 0.000000 
#    z 0.003640 0.000000 1.672520 
# 
# From -- ./inp_files/37801.got.cif
#   From: 2010.05.17/outbox.cif.g08.bks.cpg/sg14_19_cif.got.tgz:37801.got - 2010.06.03 17:49:19.
