data_PCOD9243589
_publ_section_title
;
Structure prediction by ZEFSAII (Michael W. Deem and Ramdas Pophale) SiO2 
 PCOD9243589
Probable space group: P 21/C
;
_chemical_formula_sum "Si O2"
_cell_formula_units_Z 32
_cell_length_a 8.120556
_cell_length_b 16.695911
_cell_length_c 10.811945
_cell_angle_alpha 90.000000
_cell_angle_beta 77.024370
_cell_angle_gamma 90.000000
_cell_volume 1428.453976
_symmetry_space_group_name_H-M "P 21/C"
_symmetry_group_IT_number 14
_symmetry_cell_setting 'monoclinic'
loop_
_space_group_symop_operation_xyz
x,y,z
-x,1/2+y,1/2-z
-x,-y,-z
x,1/2-y,1/2+z
loop_
_atom_site_type_symbol
_atom_site_label
_atom_site_fract_x
_atom_site_fract_y
_atom_site_fract_z
Si Si1 0.042765 0.918874 0.346945
Si Si2 0.800978 0.717319 0.872828
Si Si3 0.623235 0.455735 0.319188
Si Si4 0.275423 0.732500 0.387316
Si Si5 0.819568 0.054213 0.415066
Si Si6 0.419483 0.128988 0.071030
Si Si7 0.924175 0.228422 0.339116
Si Si8 0.522077 0.392776 0.088427
O O1 0.954836 0.836003 0.402603
O O2 0.190432 0.916148 0.221804
O O3 0.138024 0.958920 0.446965
O O4 0.894396 0.979048 0.331431
O O5 0.721280 0.801907 0.930647
O O6 0.650106 0.653679 0.904785
O O7 0.889728 0.739227 0.726721
O O8 0.646727 0.548445 0.352433
O O9 0.511114 0.405181 0.433784
O O10 0.523974 0.449425 0.206522
O O11 0.431384 0.670935 0.374212
O O12 0.189546 0.730159 0.267560
O O13 0.155467 0.726269 0.529206
O O14 0.354653 0.820083 0.391352
O O15 0.920520 0.133442 0.362945
O O16 0.619332 0.070071 0.454089
#
# Coordination Sequence:
#
# PCOD9243589 Si02
#       8
#     4   4   4   4   4   4   4   4
#     4  10  20  38  61  84 118 158 205 258 315 367
#     4  11  22  35  57  90 119 155 207 256 307 372
#     4  10  20  40  61  83 124 165 202 254 317 373
#     4  10  21  39  61  88 121 163 206 253 305 364
#     4   9  20  38  59  83 114 161 205 251 311 373
#     4  10  22  38  60  88 119 163 209 251 310 379
#     4  11  21  38  62  88 124 161 205 254 310 368
#     4   9  20  36  55  83 117 154 201 254 305 357
#
# _framework density 22.40184
#
# number of rings (size 3 to 8) (size 9 to 14) (size 15 to 20)
#    0.000    2.000    0.000    4.500    0.000    3.500 
#    0.000   17.500    0.000    5.250    0.000    0.000 
#    0.000    0.000    0.000    0.000    0.000    0.000 
#
# Total GULP energy -178298.944342 kJ/mol
# GULP energy per Si atom -5571.842011 kJ/mol
# Density = 2.235085 g / cm^3
# Si number density = 22.401840 Si / 1000 Ang^3
#
#
#
# Elastic Constant Matrix: (Units=GPa)
#
#
# Indices 1 2 3 4 5 6 
#
# 1 69.6120 53.8192 43.2130 0.0000 -22.1777 0.0000
# 2 53.8192 103.3724 31.2429 0.0000 -15.8408 0.0000
# 3 43.2130 31.2429 80.9120 0.0000 -13.4098 0.0000
# 4 0.0000 0.0000 0.0000 29.3309 0.0000 -12.4865
# 5 -22.1777 -15.8408 -13.4098 0.0000 32.2438 0.0000
# 6 0.0000 0.0000 0.0000 -12.4865 0.0000 46.8290
#
#
#
# Elastic Compliance Matrix: (Units=1/GPa)
#
#
# Indices 1 2 3 4 5 6 
#
# 1 0.036406 -0.013228 -0.012096 0.000000 0.013511 0.000000
# 2 -0.013228 0.016232 0.000656 0.000000 -0.000851 0.000000
# 3 -0.012096 0.000656 0.018517 0.000000 -0.000297 0.000000
# 4 0.000000 0.000000 0.000000 0.038459 0.000000 0.010255
# 5 0.013511 -0.000851 -0.000297 0.000000 0.039765 0.000000
# 6 0.000000 0.000000 0.000000 0.010255 0.000000 0.024089
#
#
# Mechanical properties :
#
#
# Convention : Reuss Voigt Hill
#
# Bulk Modulus (GPa) = 45.83353 56.71628 51.27491
# Shear Modulus (GPa) = 21.73187 30.05549 25.89368
#
# Velocity S-wave (km/s) = 3.11801 3.66683 3.40350
# Velocity P-wave (km/s) = 5.78505 6.58029 6.19544
#
# Compressibility (1/GPa) = 0.02181809
#
# Stress axis : x y z
#
# Youngs Moduli (GPa) = 27.46835 61.60706 54.00425
#
# Poissons Ratio (x) = 0.81491 0.65326
# Poissons Ratio (y) = 0.36334 -0.03542
# Poissons Ratio (z) = 0.33227 -0.04040
#
# Static dielectric constant tensor:
#      x y z
#    x 1.950810 0.000000 -0.041940 
#    y 0.000000 1.878390 0.000000 
#    z -0.041940 0.000000 1.885360 
# 
# From -- ./inp_files/26251.got.cif
#   From: 2010.05.17/outbox.cif.g08.bks.cpg/sg14_14_cif.got.tgz:26251.got - 2010.06.03 17:49:19.
