data_PCOD9243879
_publ_section_title
;
Structure prediction by ZEFSAII (Michael W. Deem and Ramdas Pophale) SiO2 
 PCOD9243879
Probable space group: P 21/C
;
_chemical_formula_sum "Si O2"
_cell_formula_units_Z 28
_cell_length_a 13.886702
_cell_length_b 14.268377
_cell_length_c 9.198554
_cell_angle_alpha 90.000000
_cell_angle_beta 45.553769
_cell_angle_gamma 90.000000
_cell_volume 1301.174196
_symmetry_space_group_name_H-M "P 21/C"
_symmetry_group_IT_number 14
_symmetry_cell_setting 'monoclinic'
loop_
_space_group_symop_operation_xyz
x,y,z
-x,1/2+y,1/2-z
-x,-y,-z
x,1/2-y,1/2+z
loop_
_atom_site_type_symbol
_atom_site_label
_atom_site_fract_x
_atom_site_fract_y
_atom_site_fract_z
Si Si1 0.279626 0.543001 0.489376
Si Si2 0.376364 0.842386 0.642606
Si Si3 0.409834 0.371793 0.520644
Si Si4 0.352510 0.267549 0.294957
Si Si5 0.725992 0.359303 0.224708
Si Si6 0.128286 0.410145 0.432269
Si Si7 0.835946 0.442907 0.830010
O O1 0.389115 0.591259 0.268663
O O2 0.341177 0.460775 0.521351
O O3 0.230259 0.619180 0.656925
O O4 0.172163 0.494932 0.495710
O O5 0.515013 0.810169 0.424568
O O6 0.286975 0.752341 0.783893
O O7 0.294235 0.897965 0.608022
O O8 0.377671 0.288912 0.437406
O O9 0.351395 0.338112 0.736796
O O10 0.568906 0.388271 0.369221
O O11 0.222798 0.324199 0.376096
O O12 0.817345 0.417810 0.017673
O O13 0.152939 0.451539 0.244890
O O14 0.971497 0.393860 0.626616
#
# Coordination Sequence:
#
# PCOD9243879 Si02
#       7
#     4   4   4   4   4   4   4
#     4  10  22  37  59  89 122 148 199 243 300 347
#     4  10  21  37  62  86 116 157 195 245 292 359
#     4  10  22  36  58  90 120 156 192 251 291 352
#     4  10  21  38  59  84 123 151 201 240 297 345
#     4  11  21  35  60  90 117 149 198 253 290 345
#     4   9  22  40  59  83 118 162 193 243 292 375
#     4  10  20  39  60  84 117 156 204 234 303 351
#
# _framework density 21.519024999999999
#
# number of rings (size 3 to 8) (size 9 to 14) (size 15 to 20)
#    0.000    2.000    1.429    1.286    8.000    3.429 
#    5.143    0.000    3.143    0.000    0.000    0.000 
#    0.000    0.000    0.000    0.000    0.000    0.000 
#
# Total GULP energy -156303.807788 kJ/mol
# GULP energy per Si atom -5582.278850 kJ/mol
# Density = 2.147005 g / cm^3
# Si number density = 21.519025 Si / 1000 Ang^3
#
#
#
# Elastic Constant Matrix: (Units=GPa)
#
#
# Indices 1 2 3 4 5 6 
#
# 1 26.8645 4.1743 7.3135 0.0000 5.9144 0.0000
# 2 4.1743 29.1916 -9.1533 0.0000 5.3104 0.0000
# 3 7.3135 -9.1533 41.3267 0.0000 11.1028 0.0000
# 4 0.0000 0.0000 0.0000 21.4100 0.0000 0.7716
# 5 5.9144 5.3104 11.1028 0.0000 31.0153 0.0000
# 6 0.0000 0.0000 0.0000 0.7716 0.0000 17.0071
#
#
#
# Elastic Compliance Matrix: (Units=1/GPa)
#
#
# Indices 1 2 3 4 5 6 
#
# 1 0.041441 -0.007787 -0.008069 0.000000 -0.003681 0.000000
# 2 -0.007787 0.041446 0.013349 0.000000 -0.010390 0.000000
# 3 -0.008069 0.013349 0.031845 0.000000 -0.012147 0.000000
# 4 0.000000 0.000000 0.000000 0.046784 0.000000 -0.002123
# 5 -0.003681 -0.010390 -0.012147 0.000000 0.039071 0.000000
# 6 0.000000 0.000000 0.000000 -0.002123 0.000000 0.058895
#
#
# Mechanical properties :
#
#
# Convention : Reuss Voigt Hill
#
# Bulk Modulus (GPa) = 9.11427 11.33907 10.22667
# Shear Modulus (GPa) = 16.60750 20.22304 18.41527
#
# Velocity S-wave (km/s) = 2.78107 3.06890 2.92852
# Velocity P-wave (km/s) = 3.81538 4.22354 4.02464
#
# Compressibility (1/GPa) = 0.10971802
#
# Stress axis : x y z
#
# Youngs Moduli (GPa) = 24.13076 24.12799 31.40173
#
# Poissons Ratio (x) = 0.18787 0.25339
# Poissons Ratio (y) = 0.18789 -0.41918
# Poissons Ratio (z) = 0.19472 -0.32208
#
# Static dielectric constant tensor:
#      x y z
#    x 1.747210 0.000000 0.029320 
#    y 0.000000 1.858370 0.000000 
#    z 0.029320 0.000000 1.774400 
# 
# From -- ./inp_files/16211.got.cif
#   From: 2010.05.17/outbox.cif.g08.bks.cpg/sg14_9_cif.got.tgz:16211.got - 2010.06.03 17:49:19.
