data_PCOD9243065
_publ_section_title
;
Structure prediction by ZEFSAII (Michael W. Deem and Ramdas Pophale) SiO2 
 PCOD9243065
Probable space group: P 21/C
;
_chemical_formula_sum "Si O2"
_cell_formula_units_Z 24
_cell_length_a 12.333212
_cell_length_b 7.335919
_cell_length_c 23.482522
_cell_angle_alpha 90.000000
_cell_angle_beta 27.386662
_cell_angle_gamma 90.000000
_cell_volume 977.297472
_symmetry_space_group_name_H-M "P 21/C"
_symmetry_group_IT_number 14
_symmetry_cell_setting 'monoclinic'
loop_
_space_group_symop_operation_xyz
x,y,z
-x,1/2+y,1/2-z
-x,-y,-z
x,1/2-y,1/2+z
loop_
_atom_site_type_symbol
_atom_site_label
_atom_site_fract_x
_atom_site_fract_y
_atom_site_fract_z
Si Si1 0.838152 0.522713 0.986137
Si Si2 0.328342 0.086544 0.255239
Si Si3 0.029908 0.915917 0.863212
Si Si4 0.447029 0.544753 0.089143
Si Si5 0.472839 0.024741 0.944972
Si Si6 0.564010 0.316885 0.749165
O O1 0.054666 0.391797 0.899578
O O2 0.960117 0.700400 0.899092
O O3 0.649579 0.444972 0.030272
O O4 0.675971 0.599746 0.112461
O O5 0.349403 0.089396 0.177343
O O6 0.404025 0.883155 0.239915
O O7 0.512231 0.201588 0.206526
O O8 0.191841 0.982420 0.735296
O O9 0.206285 0.929537 0.835882
O O10 0.780073 0.008407 0.967133
O O11 0.479263 0.760432 0.084520
O O12 0.500000 0.500000 0.000000
O O13 0.500000 0.000000 0.000000
#
# Coordination Sequence:
#
# PCOD9243065 Si02
#       6
#     4   4   4   4   4   4
#     4   9  17  38  59  82 114 152 191 237 299 341
#     4  11  21  39  59  86 117 155 193 247 290 351
#     4   9  18  38  61  80 117 157 187 241 294 343
#     4  10  20  36  62  82 113 159 195 234 286 347
#     4  11  23  39  58  86 121 155 192 239 299 347
#     4  10  20  38  63  83 114 154 196 237 301 346
#
# _framework density 24.557517000000001
#
# number of rings (size 3 to 8) (size 9 to 14) (size 15 to 20)
#    0.000    2.000    6.667    0.500    2.333    0.667 
#    6.000    1.667    0.000    0.000    0.000    0.000 
#    0.000    0.000    0.000    0.000    0.000    0.000 
#
# Total GULP energy -133954.749916 kJ/mol
# GULP energy per Si atom -5581.447913 kJ/mol
# Density = 2.450162 g / cm^3
# Si number density = 24.557517 Si / 1000 Ang^3
#
#
#
# Elastic Constant Matrix: (Units=GPa)
#
#
# Indices 1 2 3 4 5 6 
#
# 1 92.5427 7.3668 35.7836 0.0000 15.5934 0.0000
# 2 7.3668 68.9293 13.4561 0.0000 -2.6746 0.0000
# 3 35.7836 13.4561 95.9479 0.0000 -17.2280 0.0000
# 4 0.0000 0.0000 0.0000 21.5221 0.0000 3.0648
# 5 15.5934 -2.6746 -17.2280 0.0000 48.5400 0.0000
# 6 0.0000 0.0000 0.0000 3.0648 0.0000 31.3443
#
#
#
# Elastic Compliance Matrix: (Units=1/GPa)
#
#
# Indices 1 2 3 4 5 6 
#
# 1 0.014612 -0.000539 -0.006645 0.000000 -0.007082 0.000000
# 2 -0.000539 0.014936 -0.001831 0.000000 0.000346 0.000000
# 3 -0.006645 -0.001831 0.014443 0.000000 0.007160 0.000000
# 4 0.000000 0.000000 0.000000 0.047120 0.000000 -0.004607
# 5 -0.007082 0.000346 0.007160 0.000000 0.025437 0.000000
# 6 0.000000 0.000000 0.000000 -0.004607 0.000000 0.032354
#
#
# Mechanical properties :
#
#
# Convention : Reuss Voigt Hill
#
# Bulk Modulus (GPa) = 38.52232 41.18144 39.85188
# Shear Modulus (GPa) = 28.47581 33.66884 31.07233
#
# Velocity S-wave (km/s) = 3.40892 3.70675 3.56095
# Velocity P-wave (km/s) = 5.58703 5.92670 5.75937
#
# Compressibility (1/GPa) = 0.02595898
#
# Stress axis : x y z
#
# Youngs Moduli (GPa) = 68.43827 66.95140 69.23654
#
# Poissons Ratio (x) = 0.03609 0.46011
# Poissons Ratio (y) = 0.03690 0.12681
# Poissons Ratio (z) = 0.45480 0.12262
#
# Static dielectric constant tensor:
#      x y z
#    x 2.016490 0.000000 0.057220 
#    y 0.000000 2.014900 0.000000 
#    z 0.057220 0.000000 2.015400 
# 
# From -- ./inp_files/35848.got.cif
#   From: 2010.05.17/outbox.cif.g08.bks.cpg/sg14_18_cif.got.tgz:35848.got - 2010.06.03 17:49:19.
