data_PCOD9243330
_publ_section_title
;
Structure prediction by ZEFSAII (Michael W. Deem and Ramdas Pophale) SiO2 
 PCOD9243330
Probable space group: P 21/C
;
_chemical_formula_sum "Si O2"
_cell_formula_units_Z 32
_cell_length_a 19.313846
_cell_length_b 13.419826
_cell_length_c 5.672806
_cell_angle_alpha 90.000000
_cell_angle_beta 120.738208
_cell_angle_gamma 90.000000
_cell_volume 1263.762122
_symmetry_space_group_name_H-M "P 21/C"
_symmetry_group_IT_number 14
_symmetry_cell_setting 'monoclinic'
loop_
_space_group_symop_operation_xyz
x,y,z
-x,1/2+y,1/2-z
-x,-y,-z
x,1/2-y,1/2+z
loop_
_atom_site_type_symbol
_atom_site_label
_atom_site_fract_x
_atom_site_fract_y
_atom_site_fract_z
Si Si1 0.908521 0.973353 0.784272
Si Si2 0.147860 0.461637 0.314856
Si Si3 0.702338 0.022970 0.186147
Si Si4 0.178828 0.257648 0.879036
Si Si5 0.214535 0.780580 0.539962
Si Si6 0.422662 0.013881 0.699818
Si Si7 0.382770 0.663267 0.804341
Si Si8 0.557504 0.709539 0.034956
O O1 0.896277 0.007202 0.490420
O O2 0.873459 0.859241 0.708830
O O3 0.866094 0.009309 0.954812
O O4 0.000000 0.000000 0.000000
O O5 0.241979 0.469650 0.408327
O O6 0.126127 0.344158 0.290074
O O7 0.759948 0.103868 0.413470
O O8 0.655699 0.953856 0.285876
O O9 0.635386 0.089087 0.942498
O O10 0.223854 0.251878 0.707041
O O11 0.174801 0.746521 0.224270
O O12 0.299655 0.721005 0.697267
O O13 0.435871 0.093220 0.516734
O O14 0.400505 0.908644 0.551306
O O15 0.500000 0.000000 0.000000
O O16 0.460932 0.727604 0.885887
O O17 0.587596 0.763863 0.848824
#
# Coordination Sequence:
#
# PCOD9243330 Si02
#       8
#     4   4   4   4   4   4   4   4
#     4  10  20  39  69  99 128 171 221 260 309 384
#     4  10  22  38  64  99 133 175 212 265 327 391
#     4  11  24  39  64  95 132 173 227 275 339 411
#     4   8  16  34  59  89 122 167 216 242 300 384
#     4  10  20  37  61  88 113 163 217 272 329 401
#     4  12  25  43  65  96 127 177 235 291 346 407
#     4  11  23  41  66  87 122 171 229 279 350 404
#     4  12  26  42  64  91 129 166 223 292 356 406
#
# _framework density 25.321218999999999
#
# number of rings (size 3 to 8) (size 9 to 14) (size 15 to 20)
#    0.000    1.500    2.500    3.000    3.500    0.000 
#    0.000    3.750    0.000   27.000    0.000    0.000 
#    0.000    0.000    0.000    0.000    0.000    0.000 
#
# Total GULP energy -178691.682858 kJ/mol
# GULP energy per Si atom -5584.115089 kJ/mol
# Density = 2.526359 g / cm^3
# Si number density = 25.321219 Si / 1000 Ang^3
#
#
#
# Elastic Constant Matrix: (Units=GPa)
#
#
# Indices 1 2 3 4 5 6 
#
# 1 80.6809 18.5287 50.4180 0.0000 -29.0842 0.0000
# 2 18.5287 71.4939 23.4825 0.0000 -6.1482 0.0000
# 3 50.4180 23.4825 183.2582 0.0000 -48.2864 0.0000
# 4 0.0000 0.0000 0.0000 43.9173 0.0000 -14.4490
# 5 -29.0842 -6.1482 -48.2864 0.0000 49.0599 0.0000
# 6 0.0000 0.0000 0.0000 -14.4490 0.0000 19.8340
#
#
#
# Elastic Compliance Matrix: (Units=1/GPa)
#
#
# Indices 1 2 3 4 5 6 
#
# 1 0.017299 -0.003053 -0.002385 0.000000 0.007525 0.000000
# 2 -0.003053 0.015140 -0.001454 0.000000 -0.001344 0.000000
# 3 -0.002385 -0.001454 0.007937 0.000000 0.006216 0.000000
# 4 0.000000 0.000000 0.000000 0.029948 0.000000 0.021817
# 5 0.007525 -0.001344 0.006216 0.000000 0.030794 0.000000
# 6 0.000000 0.000000 0.000000 0.021817 0.000000 0.066312
#
#
# Mechanical properties :
#
#
# Convention : Reuss Voigt Hill
#
# Bulk Modulus (GPa) = 37.60545 57.81017 47.70781
# Shear Modulus (GPa) = 26.30491 38.76250 32.53371
#
# Velocity S-wave (km/s) = 3.22661 3.91683 3.58835
# Velocity P-wave (km/s) = 5.36330 6.58298 6.00419
#
# Compressibility (1/GPa) = 0.02659189
#
# Stress axis : x y z
#
# Youngs Moduli (GPa) = 57.80741 66.04823 125.99002
#
# Poissons Ratio (x) = 0.20162 0.30053
# Poissons Ratio (y) = 0.17647 0.18322
# Poissons Ratio (z) = 0.13789 0.09605
#
# Static dielectric constant tensor:
#      x y z
#    x 2.021810 0.000000 -0.058070 
#    y 0.000000 2.033540 0.000000 
#    z -0.058070 0.000000 2.064390 
# 
# From -- ./inp_files/4198.got.cif
#   From: 2010.05.17/outbox.cif.g08.bks.cpg/sg14_3_cif.got.tgz:4198.got - 2010.06.03 17:49:19.
