data_PCOD9243576
_publ_section_title
;
Structure prediction by ZEFSAII (Michael W. Deem and Ramdas Pophale) SiO2 
 PCOD9243576
Probable space group: P 21/C
;
_chemical_formula_sum "Si O2"
_cell_formula_units_Z 30
_cell_length_a 21.392855
_cell_length_b 14.380224
_cell_length_c 8.448296
_cell_angle_alpha 90.000000
_cell_angle_beta 148.339022
_cell_angle_gamma 90.000000
_cell_volume 1364.185833
_symmetry_space_group_name_H-M "P 21/C"
_symmetry_group_IT_number 14
_symmetry_cell_setting 'monoclinic'
loop_
_space_group_symop_operation_xyz
x,y,z
-x,1/2+y,1/2-z
-x,-y,-z
x,1/2-y,1/2+z
loop_
_atom_site_type_symbol
_atom_site_label
_atom_site_fract_x
_atom_site_fract_y
_atom_site_fract_z
Si Si1 0.398408 0.894855 0.025287
Si Si2 0.099359 0.804820 0.549869
Si Si3 0.381157 0.968971 0.493622
Si Si4 0.145849 0.014994 0.143361
Si Si5 0.000000 0.500000 0.000000
Si Si6 0.786737 0.014389 0.161885
Si Si7 0.638732 0.216704 0.379634
Si Si8 0.001549 0.647772 0.500667
O O1 0.423227 0.815041 0.211853
O O2 0.499399 0.972650 0.233581
O O3 0.277138 0.947727 0.819292
O O4 0.387875 0.836044 0.841228
O O5 0.119207 0.900833 0.692485
O O6 0.995241 0.742300 0.391874
O O7 0.072836 0.828165 0.313906
O O8 0.222481 0.747659 0.823804
O O9 0.389460 0.858605 0.543827
O O10 0.284563 0.000697 0.414962
O O11 0.318558 0.990704 0.190777
O O12 0.081594 0.926718 0.081795
O O13 0.083075 0.026475 0.838057
O O14 0.118081 0.100082 0.198817
O O15 0.106587 0.442864 0.110537
#
# Coordination Sequence:
#
# PCOD9243576 Si02
#       8
#     4   4   4   4   2   4   4   4
#     4  11  24  40  65  95 126 167 219 267 323 379
#     4  11  20  36  62  94 125 162 220 271 315 375
#     4  11  22  41  65  93 129 169 216 267 329 387
#     4  10  23  39  62  93 131 170 207 264 325 395
#     4  10  20  38  60  90 126 166 204 260 322 380
#     4  10  21  37  63  92 123 161 214 264 316 375
#     4  11  22  39  65  95 124 167 220 274 310 376
#     4  11  22  36  61  93 130 165 213 261 324 380
#
# _framework density 21.991139
#
# number of rings (size 3 to 8) (size 9 to 14) (size 15 to 20)
#    0.000    1.333    2.667    4.800    1.867    0.000 
#    0.000    1.333    2.933    0.000    0.000    0.000 
#    0.000    0.000    0.000    0.000    0.000    0.000 
#
# Total GULP energy -167137.990460 kJ/mol
# GULP energy per Si atom -5571.266349 kJ/mol
# Density = 2.194109 g / cm^3
# Si number density = 21.991139 Si / 1000 Ang^3
#
#
#
# Elastic Constant Matrix: (Units=GPa)
#
#
# Indices 1 2 3 4 5 6 
#
# 1 92.1600 25.9736 24.1526 0.0000 11.7742 0.0000
# 2 25.9736 74.6640 14.7803 0.0000 14.1752 0.0000
# 3 24.1526 14.7803 56.4593 0.0000 7.5862 0.0000
# 4 0.0000 0.0000 0.0000 33.6845 0.0000 4.2606
# 5 11.7742 14.1752 7.5862 0.0000 37.1820 0.0000
# 6 0.0000 0.0000 0.0000 4.2606 0.0000 46.0055
#
#
#
# Elastic Compliance Matrix: (Units=1/GPa)
#
#
# Indices 1 2 3 4 5 6 
#
# 1 0.013228 -0.003328 -0.004519 0.000000 -0.001998 0.000000
# 2 -0.003328 0.015833 -0.002110 0.000000 -0.004552 0.000000
# 3 -0.004519 -0.002110 0.020458 0.000000 -0.001939 0.000000
# 4 0.000000 0.000000 0.000000 0.030039 0.000000 -0.002782
# 5 -0.001998 -0.004552 -0.001939 0.000000 0.029658 0.000000
# 6 0.000000 0.000000 0.000000 -0.002782 0.000000 0.021994
#
#
# Mechanical properties :
#
#
# Convention : Reuss Voigt Hill
#
# Bulk Modulus (GPa) = 33.77729 39.23291 36.50510
# Shear Modulus (GPa) = 31.05739 33.93286 32.49513
#
# Velocity S-wave (km/s) = 3.76209 3.93240 3.84819
# Velocity P-wave (km/s) = 5.85354 6.20463 6.03164
#
# Compressibility (1/GPa) = 0.02960569
#
# Stress axis : x y z
#
# Youngs Moduli (GPa) = 75.59602 63.16008 48.88087
#
# Poissons Ratio (x) = 0.21018 0.22090
# Poissons Ratio (y) = 0.25157 0.10312
# Poissons Ratio (z) = 0.34164 0.13324
#
# Static dielectric constant tensor:
#      x y z
#    x 2.311620 0.000000 0.303080 
#    y 0.000000 3.576140 0.000000 
#    z 0.303080 0.000000 2.064660 
# 
# From -- ./inp_files/19538.got.cif
#   From: 2010.05.17/outbox.cif.g08.bks.cpg/sg14_10_cif.got.tgz:19538.got - 2010.06.03 17:49:19.
