data_PCOD9243994
_publ_section_title
;
Structure prediction by ZEFSAII (Michael W. Deem and Ramdas Pophale) SiO2 
 PCOD9243994
Probable space group: P 21/C
;
_chemical_formula_sum "Si O2"
_cell_formula_units_Z 28
_cell_length_a 15.458433
_cell_length_b 9.785453
_cell_length_c 7.790135
_cell_angle_alpha 90.000000
_cell_angle_beta 118.261344
_cell_angle_gamma 90.000000
_cell_volume 1037.927976
_symmetry_space_group_name_H-M "P 21/C"
_symmetry_group_IT_number 14
_symmetry_cell_setting 'monoclinic'
loop_
_space_group_symop_operation_xyz
x,y,z
-x,1/2+y,1/2-z
-x,-y,-z
x,1/2-y,1/2+z
loop_
_atom_site_type_symbol
_atom_site_label
_atom_site_fract_x
_atom_site_fract_y
_atom_site_fract_z
Si Si1 0.551278 0.886873 0.169327
Si Si2 0.264012 0.415319 0.345862
Si Si3 0.940898 0.338069 0.410811
Si Si4 0.351958 0.683785 0.605730
Si Si5 0.678355 0.458097 0.060161
Si Si6 0.153770 0.096678 0.078301
Si Si7 0.098464 0.556429 0.007613
O O1 0.464112 0.789749 0.149661
O O2 0.644058 0.833875 0.146580
O O3 0.597413 0.959661 0.378959
O O4 0.500000 0.000000 0.000000
O O5 0.306581 0.561342 0.450691
O O6 0.207360 0.355109 0.456474
O O7 0.185250 0.451012 0.126294
O O8 0.057978 0.319149 0.545610
O O9 0.896864 0.447683 0.502108
O O10 0.884109 0.199021 0.379226
O O11 0.924182 0.402991 0.208768
O O12 0.295622 0.827018 0.535337
O O13 0.353880 0.619280 0.796230
O O14 0.763931 0.559302 0.204988
O O15 0.000000 0.500000 0.000000
#
# Coordination Sequence:
#
# PCOD9243994 Si02
#       7
#     4   4   4   4   4   4   4
#     4  10  21  38  64  95 133 165 214 284 336 411
#     4  10  20  39  63  96 129 175 227 279 344 409
#     4  11  24  41  66  99 141 178 242 281 354 402
#     4  10  21  36  65  94 131 168 227 279 340 408
#     4  11  21  39  67  95 132 175 229 276 349 412
#     4  10  22  41  67  99 134 182 228 297 338 418
#     4  12  24  41  70  95 139 187 230 285 347 422
#
# _framework density 26.976827
#
# number of rings (size 3 to 8) (size 9 to 14) (size 15 to 20)
#    0.000    1.429    1.429    4.714    2.000    3.429 
#    0.000    0.000   22.000    0.000    0.000    0.000 
#    0.000    0.000    0.000    0.000    0.000    0.000 
#
# Total GULP energy -156975.153471 kJ/mol
# GULP energy per Si atom -5606.255481 kJ/mol
# Density = 2.691543 g / cm^3
# Si number density = 26.976827 Si / 1000 Ang^3
#
#
#
# Elastic Constant Matrix: (Units=GPa)
#
#
# Indices 1 2 3 4 5 6 
#
# 1 183.5829 29.5020 55.4194 0.0000 4.8396 0.0000
# 2 29.5020 72.0062 29.7712 0.0000 3.9488 0.0000
# 3 55.4194 29.7712 190.0794 0.0000 9.4206 0.0000
# 4 0.0000 0.0000 0.0000 30.7960 0.0000 4.2278
# 5 4.8396 3.9488 9.4206 0.0000 50.5024 0.0000
# 6 0.0000 0.0000 0.0000 4.2278 0.0000 29.2780
#
#
#
# Elastic Compliance Matrix: (Units=1/GPa)
#
#
# Indices 1 2 3 4 5 6 
#
# 1 0.006213 -0.001915 -0.001503 0.000000 -0.000165 0.000000
# 2 -0.001915 0.015467 -0.001830 0.000000 -0.000684 0.000000
# 3 -0.001503 -0.001830 0.006027 0.000000 -0.000837 0.000000
# 4 0.000000 0.000000 0.000000 0.033128 0.000000 -0.004784
# 5 -0.000165 -0.000684 -0.000837 0.000000 0.020027 0.000000
# 6 0.000000 0.000000 0.000000 -0.004784 0.000000 0.034846
#
#
# Mechanical properties :
#
#
# Convention : Reuss Voigt Hill
#
# Bulk Modulus (GPa) = 58.10585 75.00597 66.55591
# Shear Modulus (GPa) = 37.89550 44.18036 41.03793
#
# Velocity S-wave (km/s) = 3.75206 4.05126 3.90452
# Velocity P-wave (km/s) = 6.35268 7.05321 6.71209
#
# Compressibility (1/GPa) = 0.01720997
#
# Stress axis : x y z
#
# Youngs Moduli (GPa) = 160.95166 64.65582 165.90838
#
# Poissons Ratio (x) = 0.12381 0.24942
# Poissons Ratio (y) = 0.30821 0.30365
# Poissons Ratio (z) = 0.24197 0.11833
#
# Static dielectric constant tensor:
#      x y z
#    x 2.155410 0.000000 -0.008630 
#    y 0.000000 2.052890 0.000000 
#    z -0.008630 0.000000 2.092180 
# 
# From -- ./inp_files/15617.got.cif
#   From: 2010.05.17/outbox.cif.g08.bks.cpg/sg14_8_cif.got.tgz:15617.got - 2010.06.03 17:49:19.
