data_PCOD9243979
_publ_section_title
;
Structure prediction by ZEFSAII (Michael W. Deem and Ramdas Pophale) SiO2 
 PCOD9243979
Probable space group: P 21/C
;
_chemical_formula_sum "Si O2"
_cell_formula_units_Z 30
_cell_length_a 7.478606
_cell_length_b 9.892080
_cell_length_c 17.450484
_cell_angle_alpha 90.000000
_cell_angle_beta 60.520869
_cell_angle_gamma 90.000000
_cell_volume 1123.833528
_symmetry_space_group_name_H-M "P 21/C"
_symmetry_group_IT_number 14
_symmetry_cell_setting 'monoclinic'
loop_
_space_group_symop_operation_xyz
x,y,z
-x,1/2+y,1/2-z
-x,-y,-z
x,1/2-y,1/2+z
loop_
_atom_site_type_symbol
_atom_site_label
_atom_site_fract_x
_atom_site_fract_y
_atom_site_fract_z
Si Si1 0.809025 0.197978 0.345730
Si Si2 0.736342 0.966219 0.949838
Si Si3 0.665484 0.746669 0.085378
Si Si4 0.725008 0.390813 0.701394
Si Si5 0.742240 0.979136 0.467507
Si Si6 0.000000 0.500000 0.500000
Si Si7 0.493424 0.142656 0.731560
Si Si8 0.187206 0.270963 0.176345
O O1 0.575008 0.256847 0.393168
O O2 0.794410 0.093152 0.275319
O O3 0.999625 0.284546 0.275024
O O4 0.842637 0.115991 0.416598
O O5 0.862992 0.086994 0.959360
O O6 0.787686 0.880540 0.864089
O O7 0.785096 0.867680 0.015521
O O8 0.500000 0.000000 0.000000
O O9 0.654502 0.785590 0.174931
O O10 0.744664 0.597460 0.048242
O O11 0.695958 0.230170 0.698579
O O12 0.521192 0.485834 0.744160
O O13 0.860606 0.438862 0.603258
O O14 0.833483 0.864120 0.393208
O O15 0.500000 0.000000 0.500000
O O16 0.397907 0.181769 0.670903
#
# Coordination Sequence:
#
# PCOD9243979 Si02
#       8
#     4   4   4   4   4   2   4   4
#     4  10  20  39  63  90 125 177 220 282 338 404
#     4  11  23  39  62  97 132 175 227 281 348 419
#     4   9  21  39  62  87 127 176 219 274 342 411
#     4  11  23  43  68  96 137 182 227 286 357 409
#     4   9  19  39  62  83 127 174 216 271 347 408
#     4  12  22  42  66 100 142 178 224 302 344 408
#     4  11  23  43  68  97 132 184 230 286 349 426
#     4  11  22  37  63  98 125 172 232 279 342 422
#
# _framework density 26.694345999999999
#
# number of rings (size 3 to 8) (size 9 to 14) (size 15 to 20)
#    0.000    1.600    4.000    0.800    0.000    2.133 
#    2.400    2.000    0.000    0.000    0.000    0.000 
#    0.000    0.000    0.000    0.000    0.000    0.000 
#
# Total GULP energy -167077.015574 kJ/mol
# GULP energy per Si atom -5569.233852 kJ/mol
# Density = 2.663359 g / cm^3
# Si number density = 26.694346 Si / 1000 Ang^3
#
#
#
# Elastic Constant Matrix: (Units=GPa)
#
#
# Indices 1 2 3 4 5 6 
#
# 1 86.2700 9.4636 5.8445 0.0000 -6.1533 0.0000
# 2 9.4636 99.6676 37.7116 0.0000 -17.4204 0.0000
# 3 5.8445 37.7116 122.8360 0.0000 -23.5281 0.0000
# 4 0.0000 0.0000 0.0000 46.7473 0.0000 -7.4543
# 5 -6.1533 -17.4204 -23.5281 0.0000 38.3712 0.0000
# 6 0.0000 0.0000 0.0000 -7.4543 0.0000 23.3081
#
#
#
# Elastic Compliance Matrix: (Units=1/GPa)
#
#
# Indices 1 2 3 4 5 6 
#
# 1 0.011793 -0.000854 -0.000013 0.000000 0.001496 0.000000
# 2 -0.000854 0.011824 -0.002932 0.000000 0.003433 0.000000
# 3 -0.000013 -0.002932 0.009956 0.000000 0.004771 0.000000
# 4 0.000000 0.000000 0.000000 0.022541 0.000000 0.007209
# 5 0.001496 0.003433 0.004771 0.000000 0.030786 0.000000
# 6 0.000000 0.000000 0.000000 0.007209 0.000000 0.045209
#
#
# Mechanical properties :
#
#
# Convention : Reuss Voigt Hill
#
# Bulk Modulus (GPa) = 38.49646 46.09035 42.29340
# Shear Modulus (GPa) = 33.70130 38.73559 36.21844
#
# Velocity S-wave (km/s) = 3.55701 3.81343 3.68745
# Velocity P-wave (km/s) = 5.59663 6.05749 5.83161
#
# Compressibility (1/GPa) = 0.02597642
#
# Stress axis : x y z
#
# Youngs Moduli (GPa) = 84.79826 84.57510 100.44678
#
# Poissons Ratio (x) = 0.07219 0.00126
# Poissons Ratio (y) = 0.07238 0.29448
# Poissons Ratio (z) = 0.00106 0.24795
#
# Static dielectric constant tensor:
#      x y z
#    x 2.526600 0.000000 -0.048190 
#    y 0.000000 2.721470 0.000000 
#    z -0.048190 0.000000 2.071290 
# 
# From -- ./inp_files/55581.got.cif
#   From: 2010.05.17/outbox.cif.g08.bks.cpg/sg14_28_cif.got.tgz:55581.got - 2010.06.03 17:49:19.
