data_PCOD9243840
_publ_section_title
;
Structure prediction by ZEFSAII (Michael W. Deem and Ramdas Pophale) SiO2 
 PCOD9243840
Probable space group: P 21/C
;
_chemical_formula_sum "Si O2"
_cell_formula_units_Z 28
_cell_length_a 5.075412
_cell_length_b 20.343720
_cell_length_c 10.695922
_cell_angle_alpha 90.000000
_cell_angle_beta 77.622315
_cell_angle_gamma 90.000000
_cell_volume 1078.713005
_symmetry_space_group_name_H-M "P 21/C"
_symmetry_group_IT_number 14
_symmetry_cell_setting 'monoclinic'
loop_
_space_group_symop_operation_xyz
x,y,z
-x,1/2+y,1/2-z
-x,-y,-z
x,1/2-y,1/2+z
loop_
_atom_site_type_symbol
_atom_site_label
_atom_site_fract_x
_atom_site_fract_y
_atom_site_fract_z
Si Si1 0.708326 0.360688 0.294670
Si Si2 0.349021 0.257477 0.890174
Si Si3 0.579965 0.623966 0.298274
Si Si4 0.761724 0.564291 0.763801
Si Si5 0.800324 0.309011 0.013865
Si Si6 0.846302 0.932547 0.538063
Si Si7 0.953790 0.055980 0.109843
O O1 0.500404 0.311625 0.380439
O O2 0.519509 0.422522 0.276711
O O3 0.996671 0.387765 0.309380
O O4 0.777620 0.318804 0.163152
O O5 0.390331 0.301971 0.759643
O O6 0.516879 0.296074 0.978736
O O7 0.031669 0.256828 0.951664
O O8 0.293326 0.605294 0.384919
O O9 0.796131 0.600394 0.377443
O O10 0.637568 0.577395 0.171024
O O11 0.721016 0.579581 0.913667
O O12 0.872753 0.491551 0.732991
O O13 0.932318 0.376932 0.954248
O O14 0.000000 0.000000 0.500000
O O15 0.000000 0.000000 0.000000
#
# Coordination Sequence:
#
# PCOD9243840 Si02
#       7
#     4   4   4   4   4   4   4
#     4  11  23  44  65  93 131 165 214 262 314 379
#     4  11  23  43  67  91 132 164 214 263 315 376
#     4  11  23  42  67  98 122 172 213 263 326 366
#     4  11  24  41  67  99 125 172 210 262 331 369
#     4  10  22  40  62 101 126 160 208 269 316 368
#     4  10  20  38  69  98 129 156 203 273 326 377
#     4  12  26  45  63  92 139 168 216 259 302 395
#
# _framework density 25.956858
#
# number of rings (size 3 to 8) (size 9 to 14) (size 15 to 20)
#    0.000    1.143    1.429    6.429    2.000    1.714 
#    7.714    0.000    0.000    0.000    0.000    0.000 
#    0.000    0.000    0.000    0.000    0.000    0.000 
#
# Total GULP energy -156777.168331 kJ/mol
# GULP energy per Si atom -5599.184583 kJ/mol
# Density = 2.589778 g / cm^3
# Si number density = 25.956858 Si / 1000 Ang^3
#
#
#
# Elastic Constant Matrix: (Units=GPa)
#
#
# Indices 1 2 3 4 5 6 
#
# 1 137.5810 7.2358 20.4747 0.0000 -10.7535 0.0000
# 2 7.2358 74.6240 12.9549 0.0000 -9.9782 0.0000
# 3 20.4747 12.9549 67.0919 0.0000 -16.7960 0.0000
# 4 0.0000 0.0000 0.0000 35.3184 0.0000 -8.7311
# 5 -10.7535 -9.9782 -16.7960 0.0000 26.0983 0.0000
# 6 0.0000 0.0000 0.0000 -8.7311 0.0000 36.7333
#
#
#
# Elastic Compliance Matrix: (Units=1/GPa)
#
#
# Indices 1 2 3 4 5 6 
#
# 1 0.007701 -0.000171 -0.001835 0.000000 0.001927 0.000000
# 2 -0.000171 0.014279 -0.001616 0.000000 0.004349 0.000000
# 3 -0.001835 -0.001616 0.018397 0.000000 0.010466 0.000000
# 4 0.000000 0.000000 0.000000 0.030081 0.000000 0.007150
# 5 0.001927 0.004349 0.010466 0.000000 0.047509 0.000000
# 6 0.000000 0.000000 0.000000 0.007150 0.000000 0.028923
#
#
# Mechanical properties :
#
#
# Convention : Reuss Voigt Hill
#
# Bulk Modulus (GPa) = 30.18072 40.06974 35.12523
# Shear Modulus (GPa) = 30.27031 35.53877 32.90454
#
# Velocity S-wave (km/s) = 3.41864 3.70421 3.56429
# Velocity P-wave (km/s) = 5.21874 5.81081 5.52272
#
# Compressibility (1/GPa) = 0.03313373
#
# Stress axis : x y z
#
# Youngs Moduli (GPa) = 129.85163 70.03214 54.35670
#
# Poissons Ratio (x) = 0.01194 0.09973
# Poissons Ratio (y) = 0.02214 0.08786
# Poissons Ratio (z) = 0.23825 0.11320
#
# Static dielectric constant tensor:
#      x y z
#    x 2.005590 0.000000 -0.000540 
#    y 0.000000 2.083340 0.000000 
#    z -0.000540 0.000000 2.124770 
# 
# From -- ./inp_files/21511.got.cif
#   From: 2010.05.17/outbox.cif.g08.bks.cpg/sg14_11_cif.got.tgz:21511.got - 2010.06.03 17:49:19.
