data_PCOD9243276
_publ_section_title
;
Structure prediction by ZEFSAII (Michael W. Deem and Ramdas Pophale) SiO2 
 PCOD9243276
Probable space group: P 21/C
;
_chemical_formula_sum "Si O2"
_cell_formula_units_Z 32
_cell_length_a 12.176186
_cell_length_b 8.487072
_cell_length_c 16.557404
_cell_angle_alpha 90.000000
_cell_angle_beta 88.569718
_cell_angle_gamma 90.000000
_cell_volume 1710.511801
_symmetry_space_group_name_H-M "P 21/C"
_symmetry_group_IT_number 14
_symmetry_cell_setting 'monoclinic'
loop_
_space_group_symop_operation_xyz
x,y,z
-x,1/2+y,1/2-z
-x,-y,-z
x,1/2-y,1/2+z
loop_
_atom_site_type_symbol
_atom_site_label
_atom_site_fract_x
_atom_site_fract_y
_atom_site_fract_z
Si Si1 0.760008 0.564351 0.087832
Si Si2 0.010736 0.568602 0.909208
Si Si3 0.233676 0.467394 0.099893
Si Si4 0.636520 0.082047 0.257363
Si Si5 0.009511 0.055501 0.092413
Si Si6 0.606304 0.447383 0.226552
Si Si7 0.222478 0.357887 0.675902
Si Si8 0.186489 0.362291 0.328924
O O1 0.872665 0.492769 0.123402
O O2 0.656760 0.509756 0.141559
O O3 0.775845 0.751903 0.097360
O O4 0.753962 0.509518 0.995635
O O5 0.013352 0.757099 0.907123
O O6 0.895266 0.513771 0.872960
O O7 0.000000 0.500000 0.000000
O O8 0.308820 0.573135 0.154920
O O9 0.261990 0.284718 0.118006
O O10 0.621319 0.260985 0.231425
O O11 0.519607 0.995830 0.261605
O O12 0.719711 0.984984 0.198883
O O13 0.129318 0.044307 0.131132
O O14 0.922585 0.955514 0.145527
O O15 0.000000 0.000000 0.000000
O O16 0.680073 0.534694 0.292774
O O17 0.175122 0.259571 0.754016
#
# Coordination Sequence:
#
# PCOD9243276 Si02
#       8
#     4   4   4   4   4   4   4   4
#     4  10  20  37  60  84 116 150 187 233 279 330
#     4   9  18  33  53  83 117 147 178 223 281 330
#     4   9  19  37  59  83 114 149 188 232 276 328
#     4  11  23  40  60  81 110 148 191 234 282 337
#     4  11  21  35  59  88 118 149 188 234 277 330
#     4  11  23  40  60  81 110 149 190 234 282 336
#     4   9  21  36  55  83 115 152 187 227 281 333
#     4  10  21  36  56  83 116 152 188 229 280 336
#
# _framework density 18.707851999999999
#
# number of rings (size 3 to 8) (size 9 to 14) (size 15 to 20)
#    0.000    2.000    0.000    5.250    0.000   10.500 
#    0.000    1.250    0.000    5.250    0.000    0.000 
#    0.000    0.000    0.000    0.000    0.000    0.000 
#
# Total GULP energy -178547.435451 kJ/mol
# GULP energy per Si atom -5579.607358 kJ/mol
# Density = 1.866527 g / cm^3
# Si number density = 18.707852 Si / 1000 Ang^3
#
#
#
# Elastic Constant Matrix: (Units=GPa)
#
#
# Indices 1 2 3 4 5 6 
#
# 1 78.2658 19.4318 25.1839 0.0000 9.3705 0.0000
# 2 19.4318 61.7844 4.9813 0.0000 11.9679 0.0000
# 3 25.1839 4.9813 38.0563 0.0000 12.0829 0.0000
# 4 0.0000 0.0000 0.0000 25.1926 0.0000 2.0896
# 5 9.3705 11.9679 12.0829 0.0000 19.9548 0.0000
# 6 0.0000 0.0000 0.0000 2.0896 0.0000 37.4664
#
#
#
# Elastic Compliance Matrix: (Units=1/GPa)
#
#
# Indices 1 2 3 4 5 6 
#
# 1 0.017479 -0.004896 -0.011454 0.000000 0.001664 0.000000
# 2 -0.004896 0.019740 0.004562 0.000000 -0.012303 0.000000
# 3 -0.011454 0.004562 0.040137 0.000000 -0.021661 0.000000
# 4 0.000000 0.000000 0.000000 0.039879 0.000000 -0.002224
# 5 0.001664 -0.012303 -0.021661 0.000000 0.069827 0.000000
# 6 0.000000 0.000000 0.000000 -0.002224 0.000000 0.026815
#
#
# Mechanical properties :
#
#
# Convention : Reuss Voigt Hill
#
# Bulk Modulus (GPa) = 18.59424 30.81115 24.70269
# Shear Modulus (GPa) = 19.57870 25.09007 22.33438
#
# Velocity S-wave (km/s) = 3.23855 3.66615 3.45896
# Velocity P-wave (km/s) = 4.89338 5.86739 5.40238
#
# Compressibility (1/GPa) = 0.05378011
#
# Stress axis : x y z
#
# Youngs Moduli (GPa) = 57.21135 50.65734 24.91465
#
# Poissons Ratio (x) = 0.24803 0.28538
# Poissons Ratio (y) = 0.28012 -0.11367
# Poissons Ratio (z) = 0.65532 -0.23112
#
# Static dielectric constant tensor:
#      x y z
#    x 1.649040 0.000000 0.010670 
#    y 0.000000 1.644080 0.000000 
#    z 0.010670 0.000000 1.672380 
# 
# From -- ./inp_files/57069.got.cif
#   From: 2010.05.17/outbox.cif.g08.bks.cpg/sg14_29_cif.got.tgz:57069.got - 2010.06.03 17:49:19.
