data_PCOD9243149
_publ_section_title
;
Structure prediction by ZEFSAII (Michael W. Deem and Ramdas Pophale) SiO2 
 PCOD9243149
Probable space group: P 21/C
;
_chemical_formula_sum "Si O2"
_cell_formula_units_Z 30
_cell_length_a 4.964698
_cell_length_b 11.379114
_cell_length_c 25.561293
_cell_angle_alpha 90.000000
_cell_angle_beta 61.895933
_cell_angle_gamma 90.000000
_cell_volume 1273.792508
_symmetry_space_group_name_H-M "P 21/C"
_symmetry_group_IT_number 14
_symmetry_cell_setting 'monoclinic'
loop_
_space_group_symop_operation_xyz
x,y,z
-x,1/2+y,1/2-z
-x,-y,-z
x,1/2-y,1/2+z
loop_
_atom_site_type_symbol
_atom_site_label
_atom_site_fract_x
_atom_site_fract_y
_atom_site_fract_z
Si Si1 0.368684 0.608940 0.896326
Si Si2 0.140712 0.821497 0.681605
Si Si3 0.500000 0.000000 0.000000
Si Si4 0.454325 0.788972 0.970155
Si Si5 0.934915 0.070906 0.686025
Si Si6 0.396632 0.317186 0.301236
Si Si7 0.589587 0.636228 0.052613
Si Si8 0.851202 0.630603 0.566931
O O1 0.313754 0.729933 0.932280
O O2 0.158848 0.579575 0.866352
O O3 0.339527 0.497008 0.938474
O O4 0.718886 0.618343 0.844691
O O5 0.434223 0.798507 0.690379
O O6 0.271772 0.833915 0.610832
O O7 0.901557 0.716433 0.704171
O O8 0.970541 0.941571 0.706770
O O9 0.691663 0.893828 0.944853
O O10 0.332602 0.060048 0.959223
O O11 0.560229 0.680422 0.996163
O O12 0.218942 0.879787 0.024530
O O13 0.660206 0.128453 0.742505
O O14 0.279710 0.386578 0.363237
O O15 0.817807 0.729827 0.057561
#
# Coordination Sequence:
#
# PCOD9243149 Si02
#       8
#     4   4   2   4   4   4   4   4
#     4  11  25  39  66  99 141 167 217 290 351 400
#     4  10  20  39  64  95 126 164 218 282 320 394
#     4   8  20  40  60  88 134 164 226 268 328 394
#     4  10  21  40  62  95 130 179 217 276 340 404
#     4  11  24  43  63 100 134 174 216 282 342 394
#     4  11  21  41  70  89 128 177 228 262 332 405
#     4  10  20  36  66  95 127 168 221 277 345 402
#     4   9  20  38  63  92 123 174 224 280 323 402
#
# _framework density 23.551718000000001
#
# number of rings (size 3 to 8) (size 9 to 14) (size 15 to 20)
#    0.800    1.067    1.333    3.600    3.733    1.067 
#    2.400    0.000   11.733    0.000    0.000    0.000 
#    0.000    0.000    0.000    0.000    0.000    0.000 
#
# Total GULP energy -167192.415474 kJ/mol
# GULP energy per Si atom -5573.080516 kJ/mol
# Density = 2.349811 g / cm^3
# Si number density = 23.551718 Si / 1000 Ang^3
#
#
#
# Elastic Constant Matrix: (Units=GPa)
#
#
# Indices 1 2 3 4 5 6 
#
# 1 92.3802 -2.1125 19.4249 0.0000 -5.5547 0.0000
# 2 -2.1125 94.6727 38.1970 0.0000 3.2853 0.0000
# 3 19.4249 38.1970 62.7842 0.0000 -10.6597 0.0000
# 4 0.0000 0.0000 0.0000 22.0711 0.0000 -5.3229
# 5 -5.5547 3.2853 -10.6597 0.0000 35.9790 0.0000
# 6 0.0000 0.0000 0.0000 -5.3229 0.0000 31.7267
#
#
#
# Elastic Compliance Matrix: (Units=1/GPa)
#
#
# Indices 1 2 3 4 5 6 
#
# 1 0.011955 0.002314 -0.005085 0.000000 0.000128 0.000000
# 2 0.002314 0.015017 -0.010555 0.000000 -0.004141 0.000000
# 3 -0.005085 -0.010555 0.025221 0.000000 0.007651 0.000000
# 4 0.000000 0.000000 0.000000 0.047219 0.000000 0.007922
# 5 0.000128 -0.004141 0.007651 0.000000 0.030459 0.000000
# 6 0.000000 0.000000 0.000000 0.007922 0.000000 0.032848
#
#
# Mechanical properties :
#
#
# Convention : Reuss Voigt Hill
#
# Bulk Modulus (GPa) = 39.15273 40.09510 39.62392
# Shear Modulus (GPa) = 25.26748 30.91055 28.08901
#
# Velocity S-wave (km/s) = 3.27899 3.62671 3.45723
# Velocity P-wave (km/s) = 5.56740 5.88206 5.72689
#
# Compressibility (1/GPa) = 0.02554100
#
# Stress axis : x y z
#
# Youngs Moduli (GPa) = 83.65006 66.59339 39.64932
#
# Poissons Ratio (x) = -0.15408 0.20160
# Poissons Ratio (y) = -0.19355 0.41849
# Poissons Ratio (z) = 0.42532 0.70288
#
# Static dielectric constant tensor:
#      x y z
#    x 1.946650 0.000000 -0.045990 
#    y 0.000000 1.955100 0.000000 
#    z -0.045990 0.000000 1.948010 
# 
# From -- ./inp_files/71232.got.cif
#   From: 2010.05.17/outbox.cif.g08.bks.cpg/sg14_36_cif.got.tgz:71232.got - 2010.06.03 17:49:19.
