data_PCOD9243696
_publ_section_title
;
Structure prediction by ZEFSAII (Michael W. Deem and Ramdas Pophale) SiO2 
 PCOD9243696
Probable space group: P 21/C
;
_chemical_formula_sum "Si O2"
_cell_formula_units_Z 16
_cell_length_a 9.188616
_cell_length_b 7.689865
_cell_length_c 15.109465
_cell_angle_alpha 90.000000
_cell_angle_beta 36.852824
_cell_angle_gamma 90.000000
_cell_volume 640.319234
_symmetry_space_group_name_H-M "P 21/C"
_symmetry_group_IT_number 14
_symmetry_cell_setting 'monoclinic'
loop_
_space_group_symop_operation_xyz
x,y,z
-x,1/2+y,1/2-z
-x,-y,-z
x,1/2-y,1/2+z
loop_
_atom_site_type_symbol
_atom_site_label
_atom_site_fract_x
_atom_site_fract_y
_atom_site_fract_z
Si Si1 0.294369 0.039187 0.025303
Si Si2 0.623433 0.999056 0.699807
Si Si3 0.977081 0.212449 0.414278
Si Si4 0.687711 0.574521 0.977561
O O1 0.429635 0.052085 0.865056
O O2 0.213629 0.233979 0.086064
O O3 0.500000 0.000000 0.000000
O O4 0.097913 0.889835 0.097273
O O5 0.547360 0.938872 0.639765
O O6 0.758051 0.833184 0.679909
O O7 0.809087 0.156644 0.581737
O O8 0.910035 0.057089 0.379810
O O9 0.500000 0.500000 0.000000
#
# Coordination Sequence:
#
# PCOD9243696 Si02
#       4
#     4   4   4   4
#     4  12  21  38  65  92 121 168 209 247 321 376
#     4   9  21  42  60  90 129 158 206 264 305 367
#     4   9  21  42  58  88 127 154 210 256 308 363
#     4  10  20  38  63  89 125 158 205 258 303 370
#
# _framework density 24.987535999999999
#
# number of rings (size 3 to 8) (size 9 to 14) (size 15 to 20)
#    1.500    0.500    2.500    1.500    0.000    1.000 
#    4.500    0.000    0.000    0.000    0.000    0.000 
#    0.000    0.000    0.000    0.000    0.000    0.000 
#
# Total GULP energy -89316.313960 kJ/mol
# GULP energy per Si atom -5582.269623 kJ/mol
# Density = 2.493066 g / cm^3
# Si number density = 24.987536 Si / 1000 Ang^3
#
#
#
# Elastic Constant Matrix: (Units=GPa)
#
#
# Indices 1 2 3 4 5 6 
#
# 1 157.8745 68.4011 19.6144 0.0000 43.8903 0.0000
# 2 68.4011 199.9571 39.4342 0.0000 13.0411 0.0000
# 3 19.6144 39.4342 78.2481 0.0000 17.8463 0.0000
# 4 0.0000 0.0000 0.0000 23.9718 0.0000 8.3362
# 5 43.8903 13.0411 17.8463 0.0000 31.4711 0.0000
# 6 0.0000 0.0000 0.0000 8.3362 0.0000 52.8844
#
#
#
# Elastic Compliance Matrix: (Units=1/GPa)
#
#
# Indices 1 2 3 4 5 6 
#
# 1 0.012378 -0.003634 0.002667 0.000000 -0.017270 0.000000
# 2 -0.003634 0.006638 -0.003403 0.000000 0.004247 0.000000
# 3 0.002667 -0.003403 0.016485 0.000000 -0.011658 0.000000
# 4 0.000000 0.000000 0.000000 0.044135 0.000000 -0.006957
# 5 -0.017270 0.004247 -0.011658 0.000000 0.060711 0.000000
# 6 0.000000 0.000000 0.000000 -0.006957 0.000000 0.020006
#
#
# Mechanical properties :
#
#
# Convention : Reuss Voigt Hill
#
# Bulk Modulus (GPa) = 37.36615 76.77546 57.07081
# Shear Modulus (GPa) = 28.08751 42.24076 35.16414
#
# Velocity S-wave (km/s) = 3.35634 4.11600 3.75543
# Velocity P-wave (km/s) = 5.47781 7.30622 6.45706
#
# Compressibility (1/GPa) = 0.02676219
#
# Stress axis : x y z
#
# Youngs Moduli (GPa) = 80.78536 150.63889 60.66030
#
# Poissons Ratio (x) = 0.54744 -0.16181
# Poissons Ratio (y) = 0.29358 0.20644
# Poissons Ratio (z) = -0.21549 0.51266
#
# Static dielectric constant tensor:
#      x y z
#    x 1.999190 0.000000 -0.033290 
#    y 0.000000 1.943020 0.000000 
#    z -0.033290 0.000000 2.043810 
# 
# From -- ./inp_files/22911.got.cif
#   From: 2010.05.17/outbox.cif.g08.bks.cpg/sg14_12_cif.got.tgz:22911.got - 2010.06.03 17:49:19.
