data_PCOD9243725
_publ_section_title
;
Structure prediction by ZEFSAII (Michael W. Deem and Ramdas Pophale) SiO2 
 PCOD9243725
Probable space group: P 21/C
;
_chemical_formula_sum "Si O2"
_cell_formula_units_Z 24
_cell_length_a 15.901493
_cell_length_b 17.106344
_cell_length_c 8.877416
_cell_angle_alpha 90.000000
_cell_angle_beta 30.007591
_cell_angle_gamma 90.000000
_cell_volume 1207.678471
_symmetry_space_group_name_H-M "P 21/C"
_symmetry_group_IT_number 14
_symmetry_cell_setting 'monoclinic'
loop_
_space_group_symop_operation_xyz
x,y,z
-x,1/2+y,1/2-z
-x,-y,-z
x,1/2-y,1/2+z
loop_
_atom_site_type_symbol
_atom_site_label
_atom_site_fract_x
_atom_site_fract_y
_atom_site_fract_z
Si Si1 0.916643 0.498586 0.464925
Si Si2 0.509235 0.134940 0.944909
Si Si3 0.634809 0.061970 0.226760
Si Si4 0.604135 0.735671 0.636381
Si Si5 0.740829 0.007830 0.730536
Si Si6 0.690875 0.649899 0.774420
O O1 0.784387 0.432044 0.616047
O O2 0.802624 0.576002 0.635616
O O3 0.000000 0.500000 0.500000
O O4 0.066000 0.500058 0.112642
O O5 0.520744 0.183727 0.772094
O O6 0.662482 0.078946 0.753255
O O7 0.472175 0.198801 0.132950
O O8 0.356802 0.072253 0.161585
O O9 0.510624 0.134545 0.393209
O O10 0.500000 0.000000 0.500000
O O11 0.704734 0.029905 0.960022
O O12 0.708634 0.676470 0.576745
O O13 0.726398 0.780132 0.332300
#
# Coordination Sequence:
#
# PCOD9243725 Si02
#       6
#     4   4   4   4   4   4
#     4  11  24  37  63  95 127 157 208 268 321 368
#     4  10  21  36  65  90 121 166 211 256 317 379
#     4  10  21  38  62  89 122 157 208 255 315 366
#     4  10  20  38  64  87 123 165 216 255 316 390
#     4  11  22  39  64  94 126 163 218 262 315 372
#     4  10  21  40  63  89 120 170 209 257 317 385
#
# _framework density 19.872838000000002
#
# number of rings (size 3 to 8) (size 9 to 14) (size 15 to 20)
#    0.000    1.667    1.667    3.500    9.333    0.000 
#    0.000    1.667   14.667    0.000    0.000    0.000 
#    0.000    0.000    0.000    0.000    0.000    0.000 
#
# Total GULP energy -133822.045134 kJ/mol
# GULP energy per Si atom -5575.918547 kJ/mol
# Density = 1.982761 g / cm^3
# Si number density = 19.872838 Si / 1000 Ang^3
#
#
#
# Elastic Constant Matrix: (Units=GPa)
#
#
# Indices 1 2 3 4 5 6 
#
# 1 140.3945 46.5255 38.2648 0.0000 3.1258 0.0000
# 2 46.5255 86.4565 9.6556 0.0000 -4.9761 0.0000
# 3 38.2648 9.6556 82.4414 0.0000 -7.3914 0.0000
# 4 0.0000 0.0000 0.0000 14.8272 0.0000 6.9502
# 5 3.1258 -4.9761 -7.3914 0.0000 35.2297 0.0000
# 6 0.0000 0.0000 0.0000 6.9502 0.0000 46.7147
#
#
#
# Elastic Compliance Matrix: (Units=1/GPa)
#
#
# Indices 1 2 3 4 5 6 
#
# 1 0.010023 -0.005059 -0.004284 0.000000 -0.002503 0.000000
# 2 -0.005059 0.014341 0.000907 0.000000 0.002665 0.000000
# 3 -0.004284 0.000907 0.014327 0.000000 0.003514 0.000000
# 4 0.000000 0.000000 0.000000 0.072500 0.000000 -0.010787
# 5 -0.002503 0.002665 0.003514 0.000000 0.029721 0.000000
# 6 0.000000 0.000000 0.000000 -0.010787 0.000000 0.023011
#
#
# Mechanical properties :
#
#
# Convention : Reuss Voigt Hill
#
# Bulk Modulus (GPa) = 45.83028 55.35381 50.59205
# Shear Modulus (GPa) = 26.58628 33.67742 30.13185
#
# Velocity S-wave (km/s) = 3.66159 4.12107 3.89811
# Velocity P-wave (km/s) = 6.40220 7.11047 6.76561
#
# Compressibility (1/GPa) = 0.02181963
#
# Stress axis : x y z
#
# Youngs Moduli (GPa) = 99.77422 69.72978 69.79866
#
# Poissons Ratio (x) = 0.35277 0.29900
# Poissons Ratio (y) = 0.50477 -0.06334
# Poissons Ratio (z) = 0.42741 -0.06328
#
# Static dielectric constant tensor:
#      x y z
#    x 1.771950 0.000000 0.014500 
#    y 0.000000 1.790570 0.000000 
#    z 0.014500 0.000000 1.677700 
# 
# From -- ./inp_files/16599.got.cif
#   From: 2010.05.17/outbox.cif.g08.bks.cpg/sg14_9_cif.got.tgz:16599.got - 2010.06.03 17:49:19.
