data_PCOD9243011
_publ_section_title
;
Structure prediction by ZEFSAII (Michael W. Deem and Ramdas Pophale) SiO2 
 PCOD9243011
Probable space group: P 21/C
;
_chemical_formula_sum "Si O2"
_cell_formula_units_Z 32
_cell_length_a 9.283703
_cell_length_b 11.373112
_cell_length_c 21.285634
_cell_angle_alpha 90.000000
_cell_angle_beta 139.178697
_cell_angle_gamma 90.000000
_cell_volume 1469.152804
_symmetry_space_group_name_H-M "P 21/C"
_symmetry_group_IT_number 14
_symmetry_cell_setting 'monoclinic'
loop_
_space_group_symop_operation_xyz
x,y,z
-x,1/2+y,1/2-z
-x,-y,-z
x,1/2-y,1/2+z
loop_
_atom_site_type_symbol
_atom_site_label
_atom_site_fract_x
_atom_site_fract_y
_atom_site_fract_z
Si Si1 0.871067 0.585967 0.316665
Si Si2 0.926071 0.771651 0.513043
Si Si3 0.380519 0.515343 0.877991
Si Si4 0.385282 0.198164 0.474034
Si Si5 0.713991 0.067905 0.873791
Si Si6 0.831745 0.399340 0.998243
Si Si7 0.662636 0.143324 0.989954
Si Si8 0.734890 0.823308 0.318465
O O1 0.774666 0.499575 0.232719
O O2 0.801224 0.539702 0.362148
O O3 0.763606 0.715934 0.279059
O O4 0.132911 0.599846 0.401278
O O5 0.801513 0.779252 0.536828
O O6 0.082382 0.881887 0.544622
O O7 0.085834 0.660320 0.564567
O O8 0.633591 0.011414 0.440205
O O9 0.401311 0.639610 0.920105
O O10 0.760803 0.724566 0.898640
O O11 0.322539 0.408137 0.906033
O O12 0.453230 0.317771 0.461216
O O13 0.494831 0.115594 0.768172
O O14 0.647939 0.057276 0.925297
O O15 0.047454 0.405695 0.113519
O O16 0.734015 0.270665 0.984473
#
# Coordination Sequence:
#
# PCOD9243011 Si02
#       8
#     4   4   4   4   4   4   4   4
#     4  11  20  36  64  87 113 160 204 242 296 363
#     4   9  19  35  56  84 117 157 186 254 293 344
#     4  10  20  36  60  86 117 160 203 244 302 360
#     4  10  20  38  57  82 123 162 193 248 307 351
#     4  11  20  38  62  87 114 154 207 242 302 347
#     4   7  16  34  55  84 112 152 194 241 289 332
#     4   9  19  36  60  81 117 159 190 243 293 363
#     4   9  19  35  58  90 118 150 199 256 291 338
#
# _framework density 21.78126
#
# number of rings (size 3 to 8) (size 9 to 14) (size 15 to 20)
#    0.750    1.750    1.250    3.375    0.000    0.500 
#    6.750    0.625    2.750    0.000    0.000    0.000 
#    0.000    0.000    0.000    0.000    0.000    0.000 
#
# Total GULP energy -178434.913807 kJ/mol
# GULP energy per Si atom -5576.091056 kJ/mol
# Density = 2.173168 g / cm^3
# Si number density = 21.781260 Si / 1000 Ang^3
#
#
#
# Elastic Constant Matrix: (Units=GPa)
#
#
# Indices 1 2 3 4 5 6 
#
# 1 113.5931 -8.5273 22.8012 0.0000 -12.8312 0.0000
# 2 -8.5273 26.3546 9.9105 0.0000 -5.7549 0.0000
# 3 22.8012 9.9105 68.3066 0.0000 3.7034 0.0000
# 4 0.0000 0.0000 0.0000 19.9956 0.0000 -3.2632
# 5 -12.8312 -5.7549 3.7034 0.0000 24.7768 0.0000
# 6 0.0000 0.0000 0.0000 -3.2632 0.0000 19.8488
#
#
#
# Elastic Compliance Matrix: (Units=1/GPa)
#
#
# Indices 1 2 3 4 5 6 
#
# 1 0.011402 0.007552 -0.005360 0.000000 0.008460 0.000000
# 2 0.007552 0.047910 -0.010372 0.000000 0.016590 0.000000
# 3 -0.005360 -0.010372 0.018364 0.000000 -0.007930 0.000000
# 4 0.000000 0.000000 0.000000 0.051390 0.000000 0.008449
# 5 0.008460 0.016590 -0.007930 0.000000 0.049780 0.000000
# 6 0.000000 0.000000 0.000000 0.008449 0.000000 0.051770
#
#
# Mechanical properties :
#
#
# Convention : Reuss Voigt Hill
#
# Bulk Modulus (GPa) = 16.30879 28.51369 22.41124
# Shear Modulus (GPa) = 18.69754 25.19556 21.94655
#
# Velocity S-wave (km/s) = 2.93306 3.40480 3.17770
# Velocity P-wave (km/s) = 4.35595 5.34567 4.87599
#
# Compressibility (1/GPa) = 0.06131662
#
# Stress axis : x y z
#
# Youngs Moduli (GPa) = 87.70439 20.87228 54.45432
#
# Poissons Ratio (x) = -0.15764 0.29190
# Poissons Ratio (y) = -0.66238 0.56479
# Poissons Ratio (z) = 0.47014 0.21648
#
# Static dielectric constant tensor:
#      x y z
#    x 1.857420 0.000000 -0.031590 
#    y 0.000000 1.849860 0.000000 
#    z -0.031590 0.000000 1.791740 
# 
# From -- ./inp_files/65610.got.cif
#   From: 2010.05.17/outbox.cif.g08.bks.cpg/sg14_33_cif.got.tgz:65610.got - 2010.06.03 17:49:19.
