data_PCOD9243229
_publ_section_title
;
Structure prediction by ZEFSAII (Michael W. Deem and Ramdas Pophale) SiO2 
 PCOD9243229
Probable space group: P 21/C
;
_chemical_formula_sum "Si O2"
_cell_formula_units_Z 20
_cell_length_a 20.495918
_cell_length_b 4.951481
_cell_length_c 13.574393
_cell_angle_alpha 90.000000
_cell_angle_beta 33.882226
_cell_angle_gamma 90.000000
_cell_volume 767.994522
_symmetry_space_group_name_H-M "P 21/C"
_symmetry_group_IT_number 14
_symmetry_cell_setting 'monoclinic'
loop_
_space_group_symop_operation_xyz
x,y,z
-x,1/2+y,1/2-z
-x,-y,-z
x,1/2-y,1/2+z
loop_
_atom_site_type_symbol
_atom_site_label
_atom_site_fract_x
_atom_site_fract_y
_atom_site_fract_z
Si Si1 0.691958 0.442676 0.696219
Si Si2 0.637637 0.960487 0.861714
Si Si3 0.521428 0.826576 0.663344
Si Si4 0.856897 0.007143 0.388752
Si Si5 0.043299 0.511954 0.833079
O O1 0.711603 0.754558 0.698992
O O2 0.563149 0.458069 0.810929
O O3 0.758663 0.230452 0.543546
O O4 0.687108 0.260507 0.800938
O O5 0.630349 0.813520 0.974751
O O6 0.500000 0.000000 0.000000
O O7 0.455159 0.570924 0.793696
O O8 0.916028 0.181633 0.228618
O O9 0.939520 0.011709 0.382260
O O10 0.862248 0.707776 0.331199
O O11 0.000000 0.500000 0.000000
#
# Coordination Sequence:
#
# PCOD9243229 Si02
#       5
#     4   4   4   4   4
#     4  11  21  39  59  86 120 159 212 247 306 377
#     4  10  20  37  59  79 116 167 197 242 309 368
#     4  11  21  36  55  82 120 156 198 251 305 351
#     4  10  22  40  65  93 127 165 205 268 315 380
#     4  10  21  42  66  92 128 165 205 257 335 388
#
# _framework density 26.041851999999999
#
# number of rings (size 3 to 8) (size 9 to 14) (size 15 to 20)
#    0.000    1.600    0.000    7.800    0.000    0.000 
#   10.800    0.000    0.000    0.000    0.000    0.000 
#    0.000    0.000    0.000    0.000    0.000    0.000 
#
# Total GULP energy -111355.498792 kJ/mol
# GULP energy per Si atom -5567.774940 kJ/mol
# Density = 2.598258 g / cm^3
# Si number density = 26.041852 Si / 1000 Ang^3
#
#
#
# Elastic Constant Matrix: (Units=GPa)
#
#
# Indices 1 2 3 4 5 6 
#
# 1 30.2353 34.1724 19.9207 0.0000 4.3835 0.0000
# 2 34.1724 216.9814 30.6861 0.0000 10.1458 0.0000
# 3 19.9207 30.6861 61.3234 0.0000 22.6194 0.0000
# 4 0.0000 0.0000 0.0000 189.1577 0.0000 63.9441
# 5 4.3835 10.1458 22.6194 0.0000 34.6085 0.0000
# 6 0.0000 0.0000 0.0000 63.9441 0.0000 47.4004
#
#
#
# Elastic Compliance Matrix: (Units=1/GPa)
#
#
# Indices 1 2 3 4 5 6 
#
# 1 0.048650 -0.005810 -0.014826 0.000000 0.005231 0.000000
# 2 -0.005810 0.005655 -0.000794 0.000000 -0.000403 0.000000
# 3 -0.014826 -0.000794 0.027331 0.000000 -0.015752 0.000000
# 4 0.000000 0.000000 0.000000 0.009719 0.000000 -0.013111
# 5 0.005231 -0.000403 -0.015752 0.000000 0.038646 0.000000
# 6 0.000000 0.000000 0.000000 -0.013111 0.000000 0.038783
#
#
# Mechanical properties :
#
#
# Convention : Reuss Voigt Hill
#
# Bulk Modulus (GPa) = 25.78898 53.12206 39.45552
# Shear Modulus (GPa) = 22.26501 69.15070 45.70785
#
# Velocity S-wave (km/s) = 2.92716 5.15862 4.19402
# Velocity P-wave (km/s) = 4.62047 7.47829 6.21585
#
# Compressibility (1/GPa) = 0.03877625
#
# Stress axis : x y z
#
# Youngs Moduli (GPa) = 20.55495 176.84223 36.58893
#
# Poissons Ratio (x) = 1.02741 0.54248
# Poissons Ratio (y) = 0.11942 0.02904
# Poissons Ratio (z) = 0.30475 0.14035
#
# Static dielectric constant tensor:
#      x y z
#    x 2.048380 0.000000 -0.034570 
#    y 0.000000 2.026950 0.000000 
#    z -0.034570 0.000000 2.292700 
# 
# From -- ./inp_files/35451.got.cif
#   From: 2010.05.17/outbox.cif.g08.bks.cpg/sg14_18_cif.got.tgz:35451.got - 2010.06.03 17:49:19.
