data_PCOD9243467
_publ_section_title
;
Structure prediction by ZEFSAII (Michael W. Deem and Ramdas Pophale) SiO2 
 PCOD9243467
Probable space group: P 21/C
;
_chemical_formula_sum "Si O2"
_cell_formula_units_Z 28
_cell_length_a 7.792419
_cell_length_b 15.135833
_cell_length_c 12.429223
_cell_angle_alpha 90.000000
_cell_angle_beta 52.460846
_cell_angle_gamma 90.000000
_cell_volume 1162.415436
_symmetry_space_group_name_H-M "P 21/C"
_symmetry_group_IT_number 14
_symmetry_cell_setting 'monoclinic'
loop_
_space_group_symop_operation_xyz
x,y,z
-x,1/2+y,1/2-z
-x,-y,-z
x,1/2-y,1/2+z
loop_
_atom_site_type_symbol
_atom_site_label
_atom_site_fract_x
_atom_site_fract_y
_atom_site_fract_z
Si Si1 0.673784 0.709742 0.868784
Si Si2 0.657004 0.387362 0.141588
Si Si3 0.178320 0.947940 0.210916
Si Si4 0.303951 0.047520 0.511836
Si Si5 0.119575 0.589441 0.484312
Si Si6 0.417840 0.120084 0.191894
Si Si7 0.966509 0.729961 0.095957
O O1 0.573473 0.648019 0.811241
O O2 0.645106 0.402101 0.659640
O O3 0.545601 0.800966 0.909358
O O4 0.915298 0.736676 0.737836
O O5 0.711912 0.380965 0.245815
O O6 0.695334 0.490405 0.097338
O O7 0.828529 0.330497 0.007078
O O8 0.170980 0.919756 0.091097
O O9 0.932590 0.965666 0.344717
O O10 0.313468 0.038074 0.171225
O O11 0.341210 0.151215 0.520357
O O12 0.500000 0.000000 0.500000
O O13 0.991413 0.680995 0.517222
O O14 0.000000 0.500000 0.500000
O O15 0.242409 0.167137 0.336159
#
# Coordination Sequence:
#
# PCOD9243467 Si02
#       7
#     4   4   4   4   4   4   4
#     4   9  20  40  65 101 140 171 228 279 348 413
#     4  11  22  41  71 100 139 179 233 291 351 408
#     4  12  24  44  66 103 135 184 231 288 348 424
#     4  10  20  37  67 101 134 177 217 284 341 401
#     4  12  27  49  70  96 144 191 232 287 364 434
#     4  10  23  42  71 103 137 180 237 284 348 422
#     4  10  20  45  71  97 140 173 236 292 346 422
#
# _framework density 24.087776000000002
#
# number of rings (size 3 to 8) (size 9 to 14) (size 15 to 20)
#    0.857    0.571    4.286    0.857    2.000    0.000 
#    5.143    1.429    0.000    0.000    0.000    0.000 
#    0.000    0.000    0.000    0.000    0.000    0.000 
#
# Total GULP energy -156225.918447 kJ/mol
# GULP energy per Si atom -5579.497087 kJ/mol
# Density = 2.403295 g / cm^3
# Si number density = 24.087776 Si / 1000 Ang^3
#
#
#
# Elastic Constant Matrix: (Units=GPa)
#
#
# Indices 1 2 3 4 5 6 
#
# 1 79.6705 38.4334 33.3602 0.0000 -7.0231 0.0000
# 2 38.4334 131.8356 8.7377 0.0000 -14.8500 0.0000
# 3 33.3602 8.7377 51.4646 0.0000 8.3261 0.0000
# 4 0.0000 0.0000 0.0000 40.4813 0.0000 -12.8414
# 5 -7.0231 -14.8500 8.3261 0.0000 46.6962 0.0000
# 6 0.0000 0.0000 0.0000 -12.8414 0.0000 43.9748
#
#
#
# Elastic Compliance Matrix: (Units=1/GPa)
#
#
# Indices 1 2 3 4 5 6 
#
# 1 0.020745 -0.004717 -0.013292 0.000000 0.003990 0.000000
# 2 -0.004717 0.009104 0.001193 0.000000 0.001973 0.000000
# 3 -0.013292 0.001193 0.028941 0.000000 -0.006780 0.000000
# 4 0.000000 0.000000 0.000000 0.027225 0.000000 0.007950
# 5 0.003990 0.001973 -0.006780 0.000000 0.023851 0.000000
# 6 0.000000 0.000000 0.000000 0.007950 0.000000 0.025062
#
#
# Mechanical properties :
#
#
# Convention : Reuss Voigt Hill
#
# Bulk Modulus (GPa) = 39.74954 47.11482 43.43218
# Shear Modulus (GPa) = 28.25747 38.39308 33.32527
#
# Velocity S-wave (km/s) = 3.42878 3.99668 3.72357
# Velocity P-wave (km/s) = 5.67566 6.39531 6.04620
#
# Compressibility (1/GPa) = 0.02515752
#
# Stress axis : x y z
#
# Youngs Moduli (GPa) = 48.20545 109.84732 34.55308
#
# Poissons Ratio (x) = 0.51817 0.45926
# Poissons Ratio (y) = 0.22740 -0.04122
# Poissons Ratio (z) = 0.64073 -0.13105
#
# Static dielectric constant tensor:
#      x y z
#    x 1.951620 0.000000 0.019010 
#    y 0.000000 1.976970 0.000000 
#    z 0.019010 0.000000 1.966120 
# 
# From -- ./inp_files/25422.got.cif
#   From: 2010.05.17/outbox.cif.g08.bks.cpg/sg14_13_cif.got.tgz:25422.got - 2010.06.03 17:49:19.
