data_PCOD9243739
_publ_section_title
;
Structure prediction by ZEFSAII (Michael W. Deem and Ramdas Pophale) SiO2 
 PCOD9243739
Probable space group: P 21/C
;
_chemical_formula_sum "Si O2"
_cell_formula_units_Z 28
_cell_length_a 16.792230
_cell_length_b 15.571812
_cell_length_c 9.353528
_cell_angle_alpha 90.000000
_cell_angle_beta 23.936153
_cell_angle_gamma 90.000000
_cell_volume 992.310690
_symmetry_space_group_name_H-M "P 21/C"
_symmetry_group_IT_number 14
_symmetry_cell_setting 'monoclinic'
loop_
_space_group_symop_operation_xyz
x,y,z
-x,1/2+y,1/2-z
-x,-y,-z
x,1/2-y,1/2+z
loop_
_atom_site_type_symbol
_atom_site_label
_atom_site_fract_x
_atom_site_fract_y
_atom_site_fract_z
Si Si1 0.662817 0.133788 0.815446
Si Si2 0.436139 0.383215 0.407964
Si Si3 0.090298 0.085256 0.694396
Si Si4 0.918697 0.569263 0.351687
Si Si5 0.634787 0.036759 0.117258
Si Si6 0.814070 0.786809 0.215342
Si Si7 0.784877 0.305108 0.535259
O O1 0.549006 0.070499 0.105162
O O2 0.652928 0.235602 0.831732
O O3 0.878062 0.112184 0.527423
O O4 0.610788 0.116087 0.735972
O O5 0.485008 0.445398 0.194035
O O6 0.341753 0.290231 0.529373
O O7 0.247763 0.423283 0.805165
O O8 0.187999 0.149171 0.647428
O O9 0.904631 0.140318 0.951362
O O10 0.995870 0.990228 0.855827
O O11 0.821597 0.510483 0.390463
O O12 0.792163 0.648582 0.616170
O O13 0.658909 0.130460 0.147786
O O14 0.035091 0.745604 0.840613
#
# Coordination Sequence:
#
# PCOD9243739 Si02
#       7
#     4   4   4   4   4   4   4
#     4  11  22  41  60  96 125 159 215 260 323 381
#     4  11  25  37  64  96 129 170 206 262 329 380
#     4  10  20  38  64  91 124 170 212 262 316 373
#     4  10  22  39  68  91 121 170 217 264 311 373
#     4  11  22  40  66  92 126 164 213 261 310 389
#     4  10  22  38  61  94 128 162 214 262 310 376
#     4   9  22  37  64  92 117 164 215 262 312 372
#
# _framework density 28.216968999999999
#
# number of rings (size 3 to 8) (size 9 to 14) (size 15 to 20)
#    0.000    1.714    1.429    2.143   10.000    1.143 
#    0.000    0.000    0.000    2.571    0.000    0.000 
#    0.000    0.000    0.000    0.000    0.000    0.000 
#
# Total GULP energy -156077.982225 kJ/mol
# GULP energy per Si atom -5574.213651 kJ/mol
# Density = 2.815275 g / cm^3
# Si number density = 28.216969 Si / 1000 Ang^3
#
#
#
# Elastic Constant Matrix: (Units=GPa)
#
#
# Indices 1 2 3 4 5 6 
#
# 1 100.2092 59.3326 49.8168 0.0000 -19.9802 0.0000
# 2 59.3326 235.4723 50.7919 0.0000 -2.3208 0.0000
# 3 49.8168 50.7919 92.4385 0.0000 -14.3406 0.0000
# 4 0.0000 0.0000 0.0000 0.3358 0.0000 -1.8149
# 5 -19.9802 -2.3208 -14.3406 0.0000 28.5714 0.0000
# 6 0.0000 0.0000 0.0000 -1.8149 0.0000 40.7822
#
#
#
# Elastic Compliance Matrix: (Units=1/GPa)
#
#
# Indices 1 2 3 4 5 6 
#
# 1 0.016160 -0.002705 -0.005968 0.000000 0.008085 0.000000
# 2 -0.002705 0.005298 -0.001822 0.000000 -0.002376 0.000000
# 3 -0.005968 -0.001822 0.015578 0.000000 0.003497 0.000000
# 4 0.000000 0.000000 0.000000 3.920335 0.000000 0.174460
# 5 0.008085 -0.002376 0.003497 0.000000 0.042216 0.000000
# 6 0.000000 0.000000 0.000000 0.174460 0.000000 0.032284
#
#
# Mechanical properties :
#
#
# Convention : Reuss Voigt Hill
#
# Bulk Modulus (GPa) = 62.32173 83.11140 72.71657
# Shear Modulus (GPa) = 1.23207 31.81647 16.52427
#
# Velocity S-wave (km/s) = 0.66151 3.36157 2.42257
# Velocity P-wave (km/s) = 4.76634 6.67721 5.80100
#
# Compressibility (1/GPa) = 0.01604577
#
# Stress axis : x y z
#
# Youngs Moduli (GPa) = 61.88262 188.75477 64.19291
#
# Poissons Ratio (x) = 0.51053 0.38312
# Poissons Ratio (y) = 0.16738 0.11695
# Poissons Ratio (z) = 0.36933 0.34390
#
# Static dielectric constant tensor:
#      x y z
#    x 2.289590 0.000000 0.283610 
#    y 0.000000 2.171550 0.000000 
#    z 0.283610 0.000000 2.514470 
# 
# From -- ./inp_files/34083.got.cif
#   From: 2010.05.17/outbox.cif.g08.bks.cpg/sg14_18_cif.got.tgz:34083.got - 2010.06.03 17:49:19.
