data_PCOD9243122
_publ_section_title
;
Structure prediction by ZEFSAII (Michael W. Deem and Ramdas Pophale) SiO2 
 PCOD9243122
Probable space group: P 21/C
;
_chemical_formula_sum "Si O2"
_cell_formula_units_Z 28
_cell_length_a 8.779152
_cell_length_b 8.580480
_cell_length_c 29.612256
_cell_angle_alpha 90.000000
_cell_angle_beta 34.396534
_cell_angle_gamma 90.000000
_cell_volume 1260.144532
_symmetry_space_group_name_H-M "P 21/C"
_symmetry_group_IT_number 14
_symmetry_cell_setting 'monoclinic'
loop_
_space_group_symop_operation_xyz
x,y,z
-x,1/2+y,1/2-z
-x,-y,-z
x,1/2-y,1/2+z
loop_
_atom_site_type_symbol
_atom_site_label
_atom_site_fract_x
_atom_site_fract_y
_atom_site_fract_z
Si Si1 0.319002 0.819548 0.396921
Si Si2 0.179606 0.128578 0.198991
Si Si3 0.448870 0.146183 0.480930
Si Si4 0.110232 0.686250 0.358341
Si Si5 0.740149 0.842251 0.575332
Si Si6 0.238593 0.557820 0.591704
Si Si7 0.712068 0.164242 0.775847
O O1 0.590052 0.758778 0.352924
O O2 0.258039 0.711175 0.369089
O O3 0.058062 0.812496 0.493279
O O4 0.325831 0.001021 0.380734
O O5 0.903073 0.217794 0.257556
O O6 0.241096 0.020992 0.140369
O O7 0.187739 0.009794 0.238849
O O8 0.369377 0.118390 0.448243
O O9 0.708447 0.259144 0.418278
O O10 0.182542 0.231566 0.565501
O O11 0.500000 0.000000 0.500000
O O12 0.261699 0.775373 0.281340
O O13 0.031788 0.508884 0.365122
O O14 0.585642 0.694298 0.632444
O O15 0.500000 0.500000 0.500000
#
# Coordination Sequence:
#
# PCOD9243122 Si02
#       7
#     4   4   4   4   4   4   4
#     4  10  23  43  63  91 130 173 210 264 318 383
#     4  11  23  39  67  92 126 168 214 262 318 381
#     4  10  20  36  64  92 120 166 215 263 309 373
#     4   9  22  40  59  90 132 162 207 264 319 383
#     4  10  22  42  64  92 129 168 217 261 319 382
#     4   9  19  38  59  90 120 158 213 257 300 377
#     4  11  23  40  65  94 126 168 213 266 314 384
#
# _framework density 22.219674000000001
#
# number of rings (size 3 to 8) (size 9 to 14) (size 15 to 20)
#    0.000    2.000    1.429    0.857    8.000    1.714 
#    0.000    0.000    0.000    0.000    0.000    0.000 
#    0.000    0.000    0.000    0.000    0.000    0.000 
#
# Total GULP energy -156490.798930 kJ/mol
# GULP energy per Si atom -5588.957105 kJ/mol
# Density = 2.216910 g / cm^3
# Si number density = 22.219674 Si / 1000 Ang^3
#
#
#
# Elastic Constant Matrix: (Units=GPa)
#
#
# Indices 1 2 3 4 5 6 
#
# 1 26.4420 -0.0884 8.1363 0.0000 0.6783 0.0000
# 2 -0.0884 45.6636 0.9187 0.0000 -4.6534 0.0000
# 3 8.1363 0.9187 50.9014 0.0000 4.8666 0.0000
# 4 0.0000 0.0000 0.0000 30.9467 0.0000 -0.1132
# 5 0.6783 -4.6534 4.8666 0.0000 18.8697 0.0000
# 6 0.0000 0.0000 0.0000 -0.1132 0.0000 26.7287
#
#
#
# Elastic Compliance Matrix: (Units=1/GPa)
#
#
# Indices 1 2 3 4 5 6 
#
# 1 0.039778 0.000234 -0.006389 0.000000 0.000275 0.000000
# 2 0.000234 0.022511 -0.000998 0.000000 0.005800 0.000000
# 3 -0.006389 -0.000998 0.021210 0.000000 -0.005487 0.000000
# 4 0.000000 0.000000 0.000000 0.032314 0.000000 0.000137
# 5 0.000275 0.005800 -0.005487 0.000000 0.055830 0.000000
# 6 0.000000 0.000000 0.000000 0.000137 0.000000 0.037414
#
#
# Mechanical properties :
#
#
# Convention : Reuss Voigt Hill
#
# Bulk Modulus (GPa) = 14.45256 15.66001 15.05629
# Shear Modulus (GPa) = 20.28992 22.91171 21.60081
#
# Velocity S-wave (km/s) = 3.02512 3.21463 3.12131
# Velocity P-wave (km/s) = 4.32670 4.56526 4.44758
#
# Compressibility (1/GPa) = 0.06919190
#
# Stress axis : x y z
#
# Youngs Moduli (GPa) = 25.13934 44.42290 47.14843
#
# Poissons Ratio (x) = -0.01038 0.30123
# Poissons Ratio (y) = -0.00587 0.04706
# Poissons Ratio (z) = 0.16061 0.04434
#
# Static dielectric constant tensor:
#      x y z
#    x 1.810460 0.000000 0.017550 
#    y 0.000000 1.851220 0.000000 
#    z 0.017550 0.000000 1.798150 
# 
# From -- ./inp_files/79455.got.cif
#   From: 2010.05.17/outbox.cif.g08.bks.cpg/sg14_40_cif.got.tgz:79455.got - 2010.06.03 17:49:19.
