data_PCOD9243479
_publ_section_title
;
Structure prediction by ZEFSAII (Michael W. Deem and Ramdas Pophale) SiO2 
 PCOD9243479
Probable space group: P 21/C
;
_chemical_formula_sum "Si O2"
_cell_formula_units_Z 32
_cell_length_a 27.117818
_cell_length_b 7.958142
_cell_length_c 11.358086
_cell_angle_alpha 90.000000
_cell_angle_beta 38.119318
_cell_angle_gamma 90.000000
_cell_volume 1513.103637
_symmetry_space_group_name_H-M "P 21/C"
_symmetry_group_IT_number 14
_symmetry_cell_setting 'monoclinic'
loop_
_space_group_symop_operation_xyz
x,y,z
-x,1/2+y,1/2-z
-x,-y,-z
x,1/2-y,1/2+z
loop_
_atom_site_type_symbol
_atom_site_label
_atom_site_fract_x
_atom_site_fract_y
_atom_site_fract_z
Si Si1 0.890003 0.856937 0.721523
Si Si2 0.955382 0.343925 0.239365
Si Si3 0.276080 0.165338 0.072192
Si Si4 0.412397 0.594702 0.382284
Si Si5 0.505297 0.821118 0.047671
Si Si6 0.332613 0.193177 0.704539
Si Si7 0.050003 0.468020 0.287623
Si Si8 0.557568 0.113753 0.526202
O O1 0.815447 0.883634 0.776061
O O2 0.888015 0.680105 0.796461
O O3 0.969290 0.847717 0.492103
O O4 0.897404 0.011899 0.798216
O O5 0.990950 0.396177 0.298517
O O6 0.921290 0.154001 0.305038
O O7 0.283612 0.280273 0.175722
O O8 0.298628 0.234584 0.898392
O O9 0.337569 0.013432 0.983005
O O10 0.404859 0.706154 0.512247
O O11 0.429962 0.752482 0.260988
O O12 0.498244 0.496890 0.220806
O O13 0.588669 0.808098 0.959013
O O14 0.508523 0.673653 0.943974
O O15 0.500000 0.000000 0.000000
O O16 0.368850 0.005961 0.640832
O O17 0.000000 0.500000 0.500000
#
# Coordination Sequence:
#
# PCOD9243479 Si02
#       8
#     4   4   4   4   4   4   4   4
#     4  10  24  41  68  93 135 174 213 268 327 391
#     4  10  20  42  67 100 128 166 222 267 316 394
#     4  12  25  45  61  96 134 174 208 269 339 389
#     4  11  21  38  63  88 131 162 221 274 327 387
#     4  11  21  36  65  90 120 170 220 275 323 379
#     4  11  25  42  63  91 130 165 217 264 324 395
#     4  10  20  37  69 101 126 165 216 269 319 380
#     4  11  20  40  62  90 119 172 217 276 318 381
#
# _framework density 21.148585000000001
#
# number of rings (size 3 to 8) (size 9 to 14) (size 15 to 20)
#    0.000    1.250    3.750    3.750    3.500    0.000 
#    2.250    1.250    0.000    0.000    0.000    0.000 
#    0.000    0.000    0.000    0.000    0.000    0.000 
#
# Total GULP energy -178243.610241 kJ/mol
# GULP energy per Si atom -5570.112820 kJ/mol
# Density = 2.110045 g / cm^3
# Si number density = 21.148585 Si / 1000 Ang^3
#
#
#
# Elastic Constant Matrix: (Units=GPa)
#
#
# Indices 1 2 3 4 5 6 
#
# 1 147.9783 62.8732 17.0296 0.0000 -6.6111 0.0000
# 2 62.8732 148.0206 11.9064 0.0000 -8.5662 0.0000
# 3 17.0296 11.9064 19.1561 0.0000 -1.1649 0.0000
# 4 0.0000 0.0000 0.0000 17.5899 0.0000 10.1025
# 5 -6.6111 -8.5662 -1.1649 0.0000 37.4242 0.0000
# 6 0.0000 0.0000 0.0000 10.1025 0.0000 33.6750
#
#
#
# Elastic Compliance Matrix: (Units=1/GPa)
#
#
# Indices 1 2 3 4 5 6 
#
# 1 0.008834 -0.003249 -0.005795 0.000000 0.000636 0.000000
# 2 -0.003249 0.008391 -0.002249 0.000000 0.001277 0.000000
# 3 -0.005795 -0.002249 0.058770 0.000000 0.000291 0.000000
# 4 0.000000 0.000000 0.000000 0.068685 0.000000 -0.020606
# 5 0.000636 0.001277 0.000291 0.000000 0.027134 0.000000
# 6 0.000000 0.000000 0.000000 -0.020606 0.000000 0.035877
#
#
# Mechanical properties :
#
#
# Convention : Reuss Voigt Hill
#
# Bulk Modulus (GPa) = 18.72377 55.41924 37.07150
# Shear Modulus (GPa) = 20.15480 32.62752 26.39116
#
# Velocity S-wave (km/s) = 3.09043 3.93208 3.53638
# Velocity P-wave (km/s) = 4.64834 6.84665 5.85165
#
# Compressibility (1/GPa) = 0.05340806
#
# Stress axis : x y z
#
# Youngs Moduli (GPa) = 113.20444 119.17900 17.01555
#
# Poissons Ratio (x) = 0.38724 0.09860
# Poissons Ratio (y) = 0.36782 0.03827
# Poissons Ratio (z) = 0.65599 0.26804
#
# Static dielectric constant tensor:
#      x y z
#    x 2.017630 0.000000 0.224900 
#    y 0.000000 1.895770 0.000000 
#    z 0.224900 0.000000 1.896880 
# 
# From -- ./inp_files/35745.got.cif
#   From: 2010.05.17/outbox.cif.g08.bks.cpg/sg14_18_cif.got.tgz:35745.got - 2010.06.03 17:49:19.
