data_PCOD9243816
_publ_section_title
;
Structure prediction by ZEFSAII (Michael W. Deem and Ramdas Pophale) SiO2 
 PCOD9243816
Probable space group: P 21/C
;
_chemical_formula_sum "Si O2"
_cell_formula_units_Z 30
_cell_length_a 16.450771
_cell_length_b 15.201025
_cell_length_c 8.554185
_cell_angle_alpha 90.000000
_cell_angle_beta 138.277216
_cell_angle_gamma 90.000000
_cell_volume 1423.651149
_symmetry_space_group_name_H-M "P 21/C"
_symmetry_group_IT_number 14
_symmetry_cell_setting 'monoclinic'
loop_
_space_group_symop_operation_xyz
x,y,z
-x,1/2+y,1/2-z
-x,-y,-z
x,1/2-y,1/2+z
loop_
_atom_site_type_symbol
_atom_site_label
_atom_site_fract_x
_atom_site_fract_y
_atom_site_fract_z
Si Si1 0.500000 0.000000 0.000000
Si Si2 0.428102 0.308543 0.434675
Si Si3 0.249424 0.276426 0.432632
Si Si4 0.623329 0.165812 0.707749
Si Si5 0.122716 0.867141 0.332387
Si Si6 0.784264 0.295198 0.720732
Si Si7 0.668083 0.481673 0.035701
Si Si8 0.149031 0.126747 0.075817
O O1 0.486170 0.891963 0.961951
O O2 0.427996 0.014371 0.729242
O O3 0.335326 0.331823 0.440953
O O4 0.503270 0.220189 0.581218
O O5 0.341436 0.282498 0.167559
O O6 0.167375 0.210643 0.214719
O O7 0.172999 0.337398 0.436899
O O8 0.694987 0.233207 0.695373
O O9 0.606861 0.079157 0.581036
O O10 0.705291 0.151954 0.979455
O O11 0.146345 0.852655 0.550764
O O12 0.132624 0.772051 0.260438
O O13 0.230010 0.925012 0.412229
O O14 0.989180 0.906342 0.110704
O O15 0.746552 0.558029 0.229548
#
# Coordination Sequence:
#
# PCOD9243816 Si02
#       8
#     2   4   4   4   4   4   4   4
#     4  12  22  40  66  92 128 160 216 264 320 386
#     4  11  21  40  62  91 123 172 203 265 322 386
#     4  10  23  41  62  88 126 164 222 250 330 385
#     4  10  20  39  65  91 133 163 211 264 321 387
#     4  10  20  38  67  91 132 167 216 261 319 376
#     4   9  18  35  61  99 118 168 215 255 316 383
#     4  11  24  41  63  99 128 168 216 267 329 387
#     4  11  22  44  62  92 126 174 212 271 312 389
#
# _framework density 21.072579000000001
#
# number of rings (size 3 to 8) (size 9 to 14) (size 15 to 20)
#    0.000    1.600    1.333    5.200    0.000    0.000 
#    7.200    2.667    0.000    0.000    0.000    0.000 
#    0.000    0.000    0.000    0.000    0.000    0.000 
#
# Total GULP energy -167133.183380 kJ/mol
# GULP energy per Si atom -5571.106113 kJ/mol
# Density = 2.102462 g / cm^3
# Si number density = 21.072579 Si / 1000 Ang^3
#
#
#
# Elastic Constant Matrix: (Units=GPa)
#
#
# Indices 1 2 3 4 5 6 
#
# 1 55.7889 18.8358 41.5770 0.0000 -11.1013 0.0000
# 2 18.8358 65.0148 12.6696 0.0000 -9.4576 0.0000
# 3 41.5770 12.6696 72.7306 0.0000 -21.0922 0.0000
# 4 0.0000 0.0000 0.0000 22.5857 0.0000 -0.8755
# 5 -11.1013 -9.4576 -21.0922 0.0000 20.3311 0.0000
# 6 0.0000 0.0000 0.0000 -0.8755 0.0000 12.8448
#
#
#
# Elastic Compliance Matrix: (Units=1/GPa)
#
#
# Indices 1 2 3 4 5 6 
#
# 1 0.033804 -0.006700 -0.019607 0.000000 -0.005000 0.000000
# 2 -0.006700 0.017869 0.002957 0.000000 0.007721 0.000000
# 3 -0.019607 0.002957 0.031091 0.000000 0.022924 0.000000
# 4 0.000000 0.000000 0.000000 0.044393 0.000000 0.003026
# 5 -0.005000 0.007721 0.022924 0.000000 0.073830 0.000000
# 6 0.000000 0.000000 0.000000 0.003026 0.000000 0.078059
#
#
# Mechanical properties :
#
#
# Convention : Reuss Voigt Hill
#
# Bulk Modulus (GPa) = 27.72931 37.74433 32.73682
# Shear Modulus (GPa) = 14.80299 19.18245 16.99272
#
# Velocity S-wave (km/s) = 2.65330 3.02040 2.84278
# Velocity P-wave (km/s) = 4.75123 5.48764 5.13266
#
# Compressibility (1/GPa) = 0.03606292
#
# Stress axis : x y z
#
# Youngs Moduli (GPa) = 29.58190 55.96197 32.16343
#
# Poissons Ratio (x) = 0.37495 0.63064
# Poissons Ratio (y) = 0.19820 -0.09509
# Poissons Ratio (z) = 0.58003 -0.16545
#
# Static dielectric constant tensor:
#      x y z
#    x 1.776830 0.000000 -0.003960 
#    y 0.000000 1.742600 0.000000 
#    z -0.003960 0.000000 1.729370 
# 
# From -- ./inp_files/18027.got.cif
#   From: 2010.05.17/outbox.cif.g08.bks.cpg/sg14_10_cif.got.tgz:18027.got - 2010.06.03 17:49:19.
