data_PCOD9243507
_publ_section_title
;
Structure prediction by ZEFSAII (Michael W. Deem and Ramdas Pophale) SiO2 
 PCOD9243507
Probable space group: P 21/C
;
_chemical_formula_sum "Si O2"
_cell_formula_units_Z 24
_cell_length_a 9.141251
_cell_length_b 20.720022
_cell_length_c 5.259945
_cell_angle_alpha 90.000000
_cell_angle_beta 93.989691
_cell_angle_gamma 90.000000
_cell_volume 993.855616
_symmetry_space_group_name_H-M "P 21/C"
_symmetry_group_IT_number 14
_symmetry_cell_setting 'monoclinic'
loop_
_space_group_symop_operation_xyz
x,y,z
-x,1/2+y,1/2-z
-x,-y,-z
x,1/2-y,1/2+z
loop_
_atom_site_type_symbol
_atom_site_label
_atom_site_fract_x
_atom_site_fract_y
_atom_site_fract_z
Si Si1 0.331016 0.515230 0.441901
Si Si2 0.839614 0.482627 0.082963
Si Si3 0.961945 0.789841 0.851866
Si Si4 0.357665 0.328775 0.582216
Si Si5 0.519417 0.817964 0.401172
Si Si6 0.772153 0.357990 0.347172
O O1 0.500000 0.500000 0.500000
O O2 0.223879 0.488749 0.657463
O O3 0.311783 0.591704 0.484539
O O4 0.271031 0.500517 0.156484
O O5 0.840138 0.405629 0.143511
O O6 0.000000 0.500000 0.000000
O O7 0.957221 0.769114 0.556799
O O8 0.813711 0.829149 0.884544
O O9 0.106656 0.825013 0.965937
O O10 0.395980 0.355159 0.311984
O O11 0.410311 0.253291 0.561876
O O12 0.449137 0.353335 0.831871
O O13 0.349853 0.813364 0.300172
#
# Coordination Sequence:
#
# PCOD9243507 Si02
#       6
#     4   4   4   4   4   4
#     4  10  23  47  70  99 134 173 227 289 347 402
#     4  10  23  47  70  98 136 174 224 288 350 403
#     4  12  24  42  61  96 139 182 217 268 323 403
#     4  10  20  40  59  84 133 177 217 258 317 375
#     4  10  20  38  58  91 124 172 218 262 311 386
#     4  10  28  38  72 100 135 171 233 269 346 397
#
# _framework density 24.148378000000001
#
# number of rings (size 3 to 8) (size 9 to 14) (size 15 to 20)
#    1.000    0.667    3.333    1.000    9.333    0.000 
#    3.000    0.000    0.000    0.000    0.000    0.000 
#    0.000    0.000    0.000    0.000    0.000    0.000 
#
# Total GULP energy -134046.812066 kJ/mol
# GULP energy per Si atom -5585.283836 kJ/mol
# Density = 2.409341 g / cm^3
# Si number density = 24.148378 Si / 1000 Ang^3
#
#
#
# Elastic Constant Matrix: (Units=GPa)
#
#
# Indices 1 2 3 4 5 6 
#
# 1 90.7048 15.1103 -23.7612 0.0000 16.6604 0.0000
# 2 15.1103 34.8340 -2.9028 0.0000 1.2192 0.0000
# 3 -23.7612 -2.9028 103.0706 0.0000 0.0091 0.0000
# 4 0.0000 0.0000 0.0000 12.1022 0.0000 -6.0780
# 5 16.6604 1.2192 0.0091 0.0000 48.6764 0.0000
# 6 0.0000 0.0000 0.0000 -6.0780 0.0000 48.7591
#
#
#
# Elastic Compliance Matrix: (Units=1/GPa)
#
#
# Indices 1 2 3 4 5 6 
#
# 1 0.013539 -0.005468 0.002968 0.000000 -0.004498 0.000000
# 2 -0.005468 0.031009 -0.000387 0.000000 0.001095 0.000000
# 3 0.002968 -0.000387 0.010375 0.000000 -0.001008 0.000000
# 4 0.000000 0.000000 0.000000 0.088148 0.000000 0.010988
# 5 -0.004498 0.001095 -0.001008 0.000000 0.022056 0.000000
# 6 0.000000 0.000000 0.000000 0.010988 0.000000 0.021879
#
#
# Mechanical properties :
#
#
# Convention : Reuss Voigt Hill
#
# Bulk Modulus (GPa) = 20.34694 22.83356 21.59025
# Shear Modulus (GPa) = 23.90460 37.91843 30.91151
#
# Velocity S-wave (km/s) = 3.14969 3.96691 3.58168
# Velocity P-wave (km/s) = 4.65526 5.51886 5.10536
#
# Compressibility (1/GPa) = 0.04914744
#
# Stress axis : x y z
#
# Youngs Moduli (GPa) = 73.85929 32.24865 96.38176
#
# Poissons Ratio (x) = 0.17635 -0.28603
# Poissons Ratio (y) = 0.40389 0.03734
# Poissons Ratio (z) = -0.21919 0.01249
#
# Static dielectric constant tensor:
#      x y z
#    x 1.908260 0.000000 -0.056240 
#    y 0.000000 2.108340 0.000000 
#    z -0.056240 0.000000 1.966150 
# 
# From -- ./inp_files/1689.got.cif
#   From: 2010.05.17/outbox.cif.g08.bks.cpg/sg14_1_cif.got.tgz:1689.got - 2010.06.03 17:49:19.
