data_PCOD9243487
_publ_section_title
;
Structure prediction by ZEFSAII (Michael W. Deem and Ramdas Pophale) SiO2 
 PCOD9243487
Probable space group: P 21/C
;
_chemical_formula_sum "Si O2"
_cell_formula_units_Z 28
_cell_length_a 9.454278
_cell_length_b 7.845266
_cell_length_c 19.698738
_cell_angle_alpha 90.000000
_cell_angle_beta 90.979241
_cell_angle_gamma 90.000000
_cell_volume 1460.868126
_symmetry_space_group_name_H-M "P 21/C"
_symmetry_group_IT_number 14
_symmetry_cell_setting 'monoclinic'
loop_
_space_group_symop_operation_xyz
x,y,z
-x,1/2+y,1/2-z
-x,-y,-z
x,1/2-y,1/2+z
loop_
_atom_site_type_symbol
_atom_site_label
_atom_site_fract_x
_atom_site_fract_y
_atom_site_fract_z
Si Si1 0.405821 0.297292 0.053218
Si Si2 0.523988 0.436961 0.656673
Si Si3 0.718969 0.784278 0.189290
Si Si4 0.674667 0.189725 0.759312
Si Si5 0.097871 0.503847 0.830962
Si Si6 0.661462 0.956785 0.580977
Si Si7 0.765860 0.960340 0.327976
O O1 0.444421 0.118187 0.087828
O O2 0.553109 0.400452 0.057932
O O3 0.300951 0.396691 0.102967
O O4 0.344916 0.314085 0.977354
O O5 0.666672 0.548644 0.649758
O O6 0.578598 0.272960 0.699037
O O7 0.417955 0.552792 0.700379
O O8 0.872343 0.699070 0.179929
O O9 0.625208 0.634386 0.153170
O O10 0.712028 0.835883 0.267301
O O11 0.719782 0.349043 0.806611
O O12 0.812605 0.103443 0.726061
O O13 0.184301 0.533320 0.901732
O O14 0.935316 0.547296 0.830804
#
# Coordination Sequence:
#
# PCOD9243487 Si02
#       7
#     4   4   4   4   4   4   4
#     4  11  21  37  59  87 109 160 186 236 282 340
#     4  11  19  33  58  86 116 140 192 237 286 323
#     4   9  20  35  55  84 111 144 185 243 270 333
#     4  11  20  31  57  88 112 144 184 246 282 328
#     4  10  20  38  55  82 116 150 182 237 279 342
#     4   9  22  40  57  82 120 146 199 228 285 334
#     4  11  22  34  60  86 114 147 193 229 291 335
#
# _framework density 19.166685000000001
#
# number of rings (size 3 to 8) (size 9 to 14) (size 15 to 20)
#    0.857    0.857    1.429    5.143    0.000    1.143 
#    0.000    0.000    0.000    0.857    0.000    0.000 
#    0.000    0.000    0.000    0.000    0.000    0.000 
#
# Total GULP energy -155890.878207 kJ/mol
# GULP energy per Si atom -5567.531365 kJ/mol
# Density = 1.912306 g / cm^3
# Si number density = 19.166685 Si / 1000 Ang^3
#
#
#
# Elastic Constant Matrix: (Units=GPa)
#
#
# Indices 1 2 3 4 5 6 
#
# 1 98.0339 11.7412 26.5401 0.0000 9.5631 0.0000
# 2 11.7412 49.8095 17.6554 0.0000 5.7131 0.0000
# 3 26.5401 17.6554 77.6838 0.0000 10.7879 0.0000
# 4 0.0000 0.0000 0.0000 20.5606 0.0000 7.9252
# 5 9.5631 5.7131 10.7879 0.0000 14.2384 0.0000
# 6 0.0000 0.0000 0.0000 7.9252 0.0000 27.4582
#
#
#
# Elastic Compliance Matrix: (Units=1/GPa)
#
#
# Indices 1 2 3 4 5 6 
#
# 1 0.011647 -0.001089 -0.003024 0.000000 -0.005094 0.000000
# 2 -0.001089 0.022343 -0.003981 0.000000 -0.005217 0.000000
# 3 -0.003024 -0.003981 0.015989 0.000000 -0.008486 0.000000
# 4 0.000000 0.000000 0.000000 0.054725 0.000000 -0.015795
# 5 -0.005094 -0.005217 -0.008486 0.000000 0.082177 0.000000
# 6 0.000000 0.000000 0.000000 -0.015795 0.000000 0.040978
#
#
# Mechanical properties :
#
#
# Convention : Reuss Voigt Hill
#
# Bulk Modulus (GPa) = 29.59505 37.48898 33.54201
# Shear Modulus (GPa) = 19.58401 23.75747 21.67074
#
# Velocity S-wave (km/s) = 3.19999 3.52450 3.36616
# Velocity P-wave (km/s) = 5.39700 6.01371 5.71368
#
# Compressibility (1/GPa) = 0.03378944
#
# Stress axis : x y z
#
# Youngs Moduli (GPa) = 85.86197 44.75709 62.54264
#
# Poissons Ratio (x) = 0.04875 0.18913
# Poissons Ratio (y) = 0.09352 0.24900
# Poissons Ratio (z) = 0.25965 0.17819
#
# Static dielectric constant tensor:
#      x y z
#    x 1.670660 0.000000 0.013980 
#    y 0.000000 1.735040 0.000000 
#    z 0.013980 0.000000 1.687930 
# 
# From -- ./inp_files/64570.got.cif
#   From: 2010.05.17/outbox.cif.g08.bks.cpg/sg14_33_cif.got.tgz:64570.got - 2010.06.03 17:49:19.
