data_PCOD9243340
_publ_section_title
;
Structure prediction by ZEFSAII (Michael W. Deem and Ramdas Pophale) SiO2 
 PCOD9243340
Probable space group: P 21/C
;
_chemical_formula_sum "Si O2"
_cell_formula_units_Z 24
_cell_length_a 16.101498
_cell_length_b 10.424411
_cell_length_c 9.307555
_cell_angle_alpha 90.000000
_cell_angle_beta 139.931982
_cell_angle_gamma 90.000000
_cell_volume 1005.621629
_symmetry_space_group_name_H-M "P 21/C"
_symmetry_group_IT_number 14
_symmetry_cell_setting 'monoclinic'
loop_
_space_group_symop_operation_xyz
x,y,z
-x,1/2+y,1/2-z
-x,-y,-z
x,1/2-y,1/2+z
loop_
_atom_site_type_symbol
_atom_site_label
_atom_site_fract_x
_atom_site_fract_y
_atom_site_fract_z
Si Si1 0.707781 0.140045 0.792006
Si Si2 0.323866 0.405819 0.153943
Si Si3 0.149528 0.609519 0.060930
Si Si4 0.462695 0.746445 0.673273
Si Si5 0.876788 0.531144 0.680297
Si Si6 0.268031 0.241587 0.847689
O O1 0.823427 0.242052 0.925223
O O2 0.621591 0.187260 0.812036
O O3 0.617257 0.158030 0.533052
O O4 0.773404 0.007780 0.924430
O O5 0.272169 0.533387 0.158153
O O6 0.474444 0.371166 0.335458
O O7 0.268231 0.290931 0.181291
O O8 0.268069 0.380848 0.920498
O O9 0.132453 0.577341 0.207023
O O10 0.021534 0.552477 0.818282
O O11 0.590965 0.809352 0.911051
O O12 0.840385 0.657422 0.721180
#
# Coordination Sequence:
#
# PCOD9243340 Si02
#       6
#     4   4   4   4   4   4
#     4  12  22  39  61  94 119 153 205 251 296 352
#     4   9  19  39  62  87 118 159 196 242 300 354
#     4  10  23  41  64  85 121 167 200 239 300 365
#     4  10  20  37  61  94 120 154 196 251 299 357
#     4  10  23  41  63  86 122 165 198 247 296 356
#     4   9  19  39  61  88 120 157 195 242 303 350
#
# _framework density 23.865836999999999
#
# number of rings (size 3 to 8) (size 9 to 14) (size 15 to 20)
#    1.000    1.000    3.333    0.000    2.333    2.667 
#    3.000    0.833    0.000    0.000    0.000    0.000 
#    0.000    0.000    0.000    0.000    0.000    0.000 
#
# Total GULP energy -133929.131972 kJ/mol
# GULP energy per Si atom -5580.380499 kJ/mol
# Density = 2.381152 g / cm^3
# Si number density = 23.865837 Si / 1000 Ang^3
#
#
#
# Elastic Constant Matrix: (Units=GPa)
#
#
# Indices 1 2 3 4 5 6 
#
# 1 76.0069 15.9716 31.3158 0.0000 -5.0282 0.0000
# 2 15.9716 33.8627 -10.3042 0.0000 9.6703 0.0000
# 3 31.3158 -10.3042 61.5102 0.0000 -3.5636 0.0000
# 4 0.0000 0.0000 0.0000 26.1417 0.0000 1.3325
# 5 -5.0282 9.6703 -3.5636 0.0000 32.6023 0.0000
# 6 0.0000 0.0000 0.0000 1.3325 0.0000 30.6173
#
#
#
# Elastic Compliance Matrix: (Units=1/GPa)
#
#
# Indices 1 2 3 4 5 6 
#
# 1 0.023140 -0.017293 -0.014264 0.000000 0.007139 0.000000
# 2 -0.017293 0.046713 0.015772 0.000000 -0.014799 0.000000
# 3 -0.014264 0.015772 0.025928 0.000000 -0.004044 0.000000
# 4 0.000000 0.000000 0.000000 0.038338 0.000000 -0.001668
# 5 0.007139 -0.014799 -0.004044 0.000000 0.035721 0.000000
# 6 0.000000 0.000000 0.000000 -0.001668 0.000000 0.032734
#
#
# Mechanical properties :
#
#
# Convention : Reuss Voigt Hill
#
# Bulk Modulus (GPa) = 15.57391 27.26067 21.41729
# Shear Modulus (GPa) = 19.56581 26.83205 23.19893
#
# Velocity S-wave (km/s) = 2.86637 3.35668 3.12116
# Velocity P-wave (km/s) = 4.18264 5.14493 4.68854
#
# Compressibility (1/GPa) = 0.06420994
#
# Stress axis : x y z
#
# Youngs Moduli (GPa) = 43.21526 21.40726 38.56906
#
# Poissons Ratio (x) = 0.37020 0.55016
# Poissons Ratio (y) = 0.74734 -0.60833
# Poissons Ratio (z) = 0.61644 -0.33764
#
# Static dielectric constant tensor:
#      x y z
#    x 1.891710 0.000000 -0.017280 
#    y 0.000000 1.919840 0.000000 
#    z -0.017280 0.000000 1.936550 
# 
# From -- ./inp_files/35063.got.cif
#   From: 2010.05.17/outbox.cif.g08.bks.cpg/sg14_18_cif.got.tgz:35063.got - 2010.06.03 17:49:19.
