data_PCOD9243428
_publ_section_title
;
Structure prediction by ZEFSAII (Michael W. Deem and Ramdas Pophale) SiO2 
 PCOD9243428
Probable space group: P 21/C
;
_chemical_formula_sum "Si O2"
_cell_formula_units_Z 28
_cell_length_a 7.128469
_cell_length_b 7.299984
_cell_length_c 21.910977
_cell_angle_alpha 90.000000
_cell_angle_beta 87.588227
_cell_angle_gamma 90.000000
_cell_volume 1139.187078
_symmetry_space_group_name_H-M "P 21/C"
_symmetry_group_IT_number 14
_symmetry_cell_setting 'monoclinic'
loop_
_space_group_symop_operation_xyz
x,y,z
-x,1/2+y,1/2-z
-x,-y,-z
x,1/2-y,1/2+z
loop_
_atom_site_type_symbol
_atom_site_label
_atom_site_fract_x
_atom_site_fract_y
_atom_site_fract_z
Si Si1 0.141631 0.585061 0.641231
Si Si2 0.850749 0.724642 0.001137
Si Si3 0.941365 0.020805 0.401373
Si Si4 0.939543 0.971213 0.725017
Si Si5 0.517419 0.857803 0.848995
Si Si6 0.311079 0.114581 0.757549
Si Si7 0.808323 0.073637 0.064794
O O1 0.306027 0.449089 0.619604
O O2 0.144265 0.566125 0.714372
O O3 0.949642 0.509271 0.614197
O O4 0.157692 0.793550 0.619945
O O5 0.804053 0.606521 0.942231
O O6 0.056114 0.809162 0.980365
O O7 0.893642 0.587747 0.056003
O O8 0.736604 0.897032 0.027715
O O9 0.035657 0.929959 0.340384
O O10 0.158279 0.961838 0.741376
O O11 0.814202 0.789326 0.718304
O O12 0.438596 0.021827 0.806488
O O13 0.356420 0.819077 0.899988
O O14 0.578610 0.693217 0.802997
#
# Coordination Sequence:
#
# PCOD9243428 Si02
#       7
#     4   4   4   4   4   4   4
#     4  10  22  39  67  99 129 172 213 279 346 409
#     4   9  21  38  67  91 120 187 227 266 331 396
#     4  10  20  37  64  92 127 168 230 267 320 406
#     4  11  21  41  67  98 134 179 211 276 351 413
#     4  11  25  42  64 106 134 173 223 282 335 416
#     4  11  25  39  67 102 143 175 222 272 357 419
#     4  10  20  44  66  90 133 175 225 275 335 398
#
# _framework density 24.578931000000001
#
# number of rings (size 3 to 8) (size 9 to 14) (size 15 to 20)
#    0.000    1.714    2.857    0.857    6.000    2.286 
#    0.000    7.143    0.000    0.000    0.000    0.000 
#    0.000    0.000    0.000    0.000    0.000    0.000 
#
# Total GULP energy -156428.896892 kJ/mol
# GULP energy per Si atom -5586.746318 kJ/mol
# Density = 2.452299 g / cm^3
# Si number density = 24.578931 Si / 1000 Ang^3
#
#
#
# Elastic Constant Matrix: (Units=GPa)
#
#
# Indices 1 2 3 4 5 6 
#
# 1 59.9335 10.9209 19.9835 0.0000 -14.7306 0.0000
# 2 10.9209 86.6641 15.2879 0.0000 14.9905 0.0000
# 3 19.9835 15.2879 131.1610 0.0000 3.5358 0.0000
# 4 0.0000 0.0000 0.0000 47.2568 0.0000 5.1765
# 5 -14.7306 14.9905 3.5358 0.0000 32.3405 0.0000
# 6 0.0000 0.0000 0.0000 5.1765 0.0000 33.6869
#
#
#
# Elastic Compliance Matrix: (Units=1/GPa)
#
#
# Indices 1 2 3 4 5 6 
#
# 1 0.021463 -0.004248 -0.003101 0.000000 0.012084 0.000000
# 2 -0.004248 0.013614 -0.000719 0.000000 -0.008166 0.000000
# 3 -0.003101 -0.000719 0.008234 0.000000 -0.001979 0.000000
# 4 0.000000 0.000000 0.000000 0.021523 0.000000 -0.003307
# 5 0.012084 -0.008166 -0.001979 0.000000 0.040427 0.000000
# 6 0.000000 0.000000 0.000000 -0.003307 0.000000 0.030193
#
#
# Mechanical properties :
#
#
# Convention : Reuss Voigt Hill
#
# Bulk Modulus (GPa) = 36.79924 41.12700 38.96312
# Shear Modulus (GPa) = 31.12392 38.09458 34.60925
#
# Velocity S-wave (km/s) = 3.56235 3.94113 3.75652
# Velocity P-wave (km/s) = 5.65020 6.12201 5.89083
#
# Compressibility (1/GPa) = 0.02717447
#
# Stress axis : x y z
#
# Youngs Moduli (GPa) = 46.59154 73.45619 121.44998
#
# Poissons Ratio (x) = 0.31203 0.37658
# Poissons Ratio (y) = 0.19792 0.08737
# Poissons Ratio (z) = 0.14447 0.05285
#
# Static dielectric constant tensor:
#      x y z
#    x 1.952070 0.000000 0.016220 
#    y 0.000000 2.006540 0.000000 
#    z 0.016220 0.000000 2.034700 
# 
# From -- ./inp_files/71757.got.cif
#   From: 2010.05.17/outbox.cif.g08.bks.cpg/sg14_36_cif.got.tgz:71757.got - 2010.06.03 17:49:19.
