data_PCOD9243396
_publ_section_title
;
Structure prediction by ZEFSAII (Michael W. Deem and Ramdas Pophale) SiO2 
 PCOD9243396
Probable space group: P 21/C
;
_chemical_formula_sum "Si O2"
_cell_formula_units_Z 20
_cell_length_a 12.557929
_cell_length_b 4.938869
_cell_length_c 27.932296
_cell_angle_alpha 90.000000
_cell_angle_beta 27.884450
_cell_angle_gamma 90.000000
_cell_volume 810.233505
_symmetry_space_group_name_H-M "P 21/C"
_symmetry_group_IT_number 14
_symmetry_cell_setting 'monoclinic'
loop_
_space_group_symop_operation_xyz
x,y,z
-x,1/2+y,1/2-z
-x,-y,-z
x,1/2-y,1/2+z
loop_
_atom_site_type_symbol
_atom_site_label
_atom_site_fract_x
_atom_site_fract_y
_atom_site_fract_z
Si Si1 0.248313 0.419522 0.023943
Si Si2 0.987662 0.071175 0.722472
Si Si3 0.617983 0.124436 0.180067
Si Si4 0.614240 0.782068 0.321735
Si Si5 0.985166 0.919875 0.099208
O O1 0.188592 0.451089 0.103524
O O2 0.191130 0.114288 0.032253
O O3 0.485916 0.534214 0.911282
O O4 0.064780 0.611439 0.069841
O O5 0.760315 0.954432 0.788083
O O6 0.029286 0.871604 0.750501
O O7 0.563339 0.404604 0.228589
O O8 0.569487 0.170367 0.143687
O O9 0.859448 0.012406 0.101326
O O10 0.792016 0.945432 0.217451
#
# Coordination Sequence:
#
# PCOD9243396 Si02
#       5
#     4   4   4   4   4
#     4  11  24  41  66  94 122 163 207 250 309 369
#     4  11  24  43  63  87 124 161 206 265 311 358
#     4  10  20  37  63  91 128 169 198 241 304 363
#     4  10  24  42  66  92 125 164 207 254 304 365
#     4  10  22  41  62  95 133 159 198 250 300 367
#
# _framework density 24.684242000000001
#
# number of rings (size 3 to 8) (size 9 to 14) (size 15 to 20)
#    0.000    1.600    0.000    6.000    0.000   12.800 
#    0.000    0.000    0.000    0.000    0.000    0.000 
#    0.000    0.000    0.000    0.000    0.000    0.000 
#
# Total GULP energy -112079.373485 kJ/mol
# GULP energy per Si atom -5603.968674 kJ/mol
# Density = 2.462806 g / cm^3
# Si number density = 24.684242 Si / 1000 Ang^3
#
#
#
# Elastic Constant Matrix: (Units=GPa)
#
#
# Indices 1 2 3 4 5 6 
#
# 1 100.7834 2.0772 24.8865 0.0000 16.1348 0.0000
# 2 2.0772 69.3319 9.4743 0.0000 8.0021 0.0000
# 3 24.8865 9.4743 123.1291 0.0000 28.2096 0.0000
# 4 0.0000 0.0000 0.0000 32.7192 0.0000 -3.8966
# 5 16.1348 8.0021 28.2096 0.0000 31.6401 0.0000
# 6 0.0000 0.0000 0.0000 -3.8966 0.0000 31.6889
#
#
#
# Elastic Compliance Matrix: (Units=1/GPa)
#
#
# Indices 1 2 3 4 5 6 
#
# 1 0.010946 0.000367 -0.001182 0.000000 -0.004621 0.000000
# 2 0.000367 0.014882 -0.000395 0.000000 -0.003599 0.000000
# 3 -0.001182 -0.000395 0.010342 0.000000 -0.008519 0.000000
# 4 0.000000 0.000000 0.000000 0.031017 0.000000 0.003814
# 5 -0.004621 -0.003599 -0.008519 0.000000 0.042467 0.000000
# 6 0.000000 0.000000 0.000000 0.003814 0.000000 0.032026
#
#
# Mechanical properties :
#
#
# Convention : Reuss Voigt Hill
#
# Bulk Modulus (GPa) = 29.62878 40.68005 35.15442
# Shear Modulus (GPa) = 32.18524 36.33006 34.25765
#
# Velocity S-wave (km/s) = 3.61484 3.84056 3.72941
# Velocity P-wave (km/s) = 5.42697 6.01518 5.72863
#
# Compressibility (1/GPa) = 0.03375096
#
# Stress axis : x y z
#
# Youngs Moduli (GPa) = 91.35454 67.19664 96.68866
#
# Poissons Ratio (x) = -0.02465 0.11428
# Poissons Ratio (y) = -0.03352 0.03816
# Poissons Ratio (z) = 0.10798 0.02652
#
# Static dielectric constant tensor:
#      x y z
#    x 1.944630 0.000000 -0.033880 
#    y 0.000000 1.883790 0.000000 
#    z -0.033880 0.000000 1.990680 
# 
# From -- ./inp_files/42478.got.cif
#   From: 2010.05.17/outbox.cif.g08.bks.cpg/sg14_22_cif.got.tgz:42478.got - 2010.06.03 17:49:19.
