data_PCOD9243709
_publ_section_title
;
Structure prediction by ZEFSAII (Michael W. Deem and Ramdas Pophale) SiO2 
 PCOD9243709
Probable space group: P 21/C
;
_chemical_formula_sum "Si O2"
_cell_formula_units_Z 26
_cell_length_a 7.050076
_cell_length_b 17.806110
_cell_length_c 14.050674
_cell_angle_alpha 90.000000
_cell_angle_beta 35.599947
_cell_angle_gamma 90.000000
_cell_volume 1026.772394
_symmetry_space_group_name_H-M "P 21/C"
_symmetry_group_IT_number 14
_symmetry_cell_setting 'monoclinic'
loop_
_space_group_symop_operation_xyz
x,y,z
-x,1/2+y,1/2-z
-x,-y,-z
x,1/2-y,1/2+z
loop_
_atom_site_type_symbol
_atom_site_label
_atom_site_fract_x
_atom_site_fract_y
_atom_site_fract_z
Si Si1 0.737411 0.433712 0.114454
Si Si2 0.930227 0.923889 0.237237
Si Si3 0.255638 0.843879 0.664590
Si Si4 0.500000 0.500000 0.000000
Si Si5 0.657940 0.010816 0.085151
Si Si6 0.327407 0.155339 0.317067
Si Si7 0.268873 0.262965 0.172943
O O1 0.443698 0.448000 0.153424
O O2 0.544794 0.439671 0.292710
O O3 0.000000 0.500000 0.000000
O O4 0.953140 0.361985 0.999976
O O5 0.819373 0.943839 0.387699
O O6 0.957773 0.835750 0.213649
O O7 0.216179 0.967973 0.070731
O O8 0.244126 0.930824 0.640743
O O9 0.452056 0.835686 0.681048
O O10 0.442007 0.798000 0.506113
O O11 0.909613 0.802905 0.811968
O O12 0.469243 0.083324 0.202272
O O13 0.000000 0.000000 0.000000
O O14 0.356364 0.226334 0.237193
#
# Coordination Sequence:
#
# PCOD9243709 Si02
#       7
#     4   4   4   2   4   4   4
#     4   9  18  34  62  95 123 165 218 265 336 414
#     4  10  20  38  63  95 137 176 220 288 345 401
#     4  11  25  44  68 100 135 178 232 286 347 417
#     4  10  20  40  66  94 134 174 222 288 342 402
#     4   9  18  34  62  98 124 159 218 272 331 409
#     4  11  22  41  67  90 130 181 217 273 346 408
#     4  11  25  42  64  97 134 177 230 279 340 424
#
# _framework density 25.322068999999999
#
# number of rings (size 3 to 8) (size 9 to 14) (size 15 to 20)
#    0.000    1.846    0.000    5.538    0.000    4.923 
#    0.000    3.077    0.000   24.000    0.000    0.000 
#    0.000    0.000    0.000    0.000    0.000    0.000 
#
# Total GULP energy -145043.479631 kJ/mol
# GULP energy per Si atom -5578.595370 kJ/mol
# Density = 2.526443 g / cm^3
# Si number density = 25.322069 Si / 1000 Ang^3
#
#
#
# Elastic Constant Matrix: (Units=GPa)
#
#
# Indices 1 2 3 4 5 6 
#
# 1 86.2732 27.3732 -2.5350 0.0000 -8.3059 0.0000
# 2 27.3732 136.3776 32.6495 0.0000 2.5318 0.0000
# 3 -2.5350 32.6495 116.4285 0.0000 17.7867 0.0000
# 4 0.0000 0.0000 0.0000 53.3256 0.0000 2.7982
# 5 -8.3059 2.5318 17.7867 0.0000 44.4352 0.0000
# 6 0.0000 0.0000 0.0000 2.7982 0.0000 35.6627
#
#
#
# Elastic Compliance Matrix: (Units=1/GPa)
#
#
# Indices 1 2 3 4 5 6 
#
# 1 0.012704 -0.002761 0.000707 0.000000 0.002249 0.000000
# 2 -0.002761 0.008469 -0.002431 0.000000 -0.000025 0.000000
# 3 0.000707 -0.002431 0.009847 0.000000 -0.003671 0.000000
# 4 0.000000 0.000000 0.000000 0.018830 0.000000 -0.001477
# 5 0.002249 -0.000025 -0.003671 0.000000 0.024396 0.000000
# 6 0.000000 0.000000 0.000000 -0.001477 0.000000 0.028156
#
#
# Mechanical properties :
#
#
# Convention : Reuss Voigt Hill
#
# Bulk Modulus (GPa) = 45.35003 50.45052 47.90027
# Shear Modulus (GPa) = 42.11470 45.45748 43.78609
#
# Velocity S-wave (km/s) = 4.08261 4.24154 4.16284
# Velocity P-wave (km/s) = 6.33812 6.62981 6.48561
#
# Compressibility (1/GPa) = 0.02205070
#
# Stress axis : x y z
#
# Youngs Moduli (GPa) = 78.71269 118.07358 101.55446
#
# Poissons Ratio (x) = 0.32601 -0.07183
# Poissons Ratio (y) = 0.21733 0.24690
# Poissons Ratio (z) = -0.05568 0.28706
#
# Static dielectric constant tensor:
#      x y z
#    x 1.649610 0.000000 -0.450290 
#    y 0.000000 1.847500 0.000000 
#    z -0.450290 0.000000 1.614180 
# 
# From -- ./inp_files/56140.got.cif
#   From: 2010.05.17/outbox.cif.g08.bks.cpg/sg14_29_cif.got.tgz:56140.got - 2010.06.03 17:49:19.
