data_PCOD9243203
_publ_section_title
;
Structure prediction by ZEFSAII (Michael W. Deem and Ramdas Pophale) SiO2 
 PCOD9243203
Probable space group: P 21/C
;
_chemical_formula_sum "Si O2"
_cell_formula_units_Z 32
_cell_length_a 9.363729
_cell_length_b 19.770735
_cell_length_c 14.197894
_cell_angle_alpha 90.000000
_cell_angle_beta 29.655913
_cell_angle_gamma 90.000000
_cell_volume 1300.518752
_symmetry_space_group_name_H-M "P 21/C"
_symmetry_group_IT_number 14
_symmetry_cell_setting 'monoclinic'
loop_
_space_group_symop_operation_xyz
x,y,z
-x,1/2+y,1/2-z
-x,-y,-z
x,1/2-y,1/2+z
loop_
_atom_site_type_symbol
_atom_site_label
_atom_site_fract_x
_atom_site_fract_y
_atom_site_fract_z
Si Si1 0.543083 0.508392 0.208164
Si Si2 0.849191 0.753266 0.221483
Si Si3 0.778839 0.283428 0.164740
Si Si4 0.812315 0.010209 0.755131
Si Si5 0.927856 0.625019 0.280693
Si Si6 0.009936 0.852717 0.270086
Si Si7 0.363862 0.634408 0.199871
Si Si8 0.485702 0.633300 0.829803
O O1 0.605656 0.497686 0.282714
O O2 0.383187 0.576386 0.267681
O O3 0.389117 0.441876 0.252588
O O4 0.864285 0.512393 0.977384
O O5 0.071725 0.803443 0.147463
O O6 0.626462 0.806343 0.307002
O O7 0.763028 0.694618 0.345727
O O8 0.981700 0.719953 0.053450
O O9 0.651553 0.209138 0.248636
O O10 0.556653 0.338217 0.251408
O O11 0.919935 0.308865 0.178526
O O12 0.779050 0.945666 0.842068
O O13 0.820882 0.078092 0.812617
O O14 0.089424 0.626697 0.288133
O O15 0.187723 0.623959 0.055754
O O16 0.665733 0.868973 0.468960
#
# Coordination Sequence:
#
# PCOD9243203 Si02
#       8
#     4   4   4   4   4   4   4   4
#     4   9  19  33  58  85 112 146 193 244 285 331
#     4  11  23  37  59  87 119 154 188 237 295 345
#     4  11  23  39  56  88 120 152 190 240 287 351
#     4   9  19  34  57  86 114 143 193 248 288 323
#     4  10  21  35  56  88 116 144 194 243 282 338
#     4  11  21  39  63  84 116 154 195 239 289 339
#     4  11  22  36  59  87 115 152 194 237 289 339
#     4  10  20  37  58  83 113 151 194 239 289 336
#
# _framework density 24.605564000000001
#
# number of rings (size 3 to 8) (size 9 to 14) (size 15 to 20)
#    0.000    1.750    3.750    0.750    8.750    1.500 
#    0.000    0.625    0.000    0.750    0.000    0.000 
#    0.000    0.000    0.000    0.000    0.000    0.000 
#
# Total GULP energy -178884.383890 kJ/mol
# GULP energy per Si atom -5590.136997 kJ/mol
# Density = 2.454956 g / cm^3
# Si number density = 24.605564 Si / 1000 Ang^3
#
#
#
# Elastic Constant Matrix: (Units=GPa)
#
#
# Indices 1 2 3 4 5 6 
#
# 1 96.2441 25.8256 17.9828 0.0000 -25.5328 0.0000
# 2 25.8256 157.1821 -3.8895 0.0000 -10.6469 0.0000
# 3 17.9828 -3.8895 51.3849 0.0000 -14.9387 0.0000
# 4 0.0000 0.0000 0.0000 -12.9393 0.0000 -293.8885
# 5 -25.5328 -10.6469 -14.9387 0.0000 36.1089 0.0000
# 6 0.0000 0.0000 0.0000 -293.8885 0.0000-2649.7462
#
#
#
# Elastic Compliance Matrix: (Units=1/GPa)
#
#
# Indices 1 2 3 4 5 6 
#
# 1 0.013434 -0.001732 -0.002523 0.000000 0.007945 0.000000
# 2 -0.001732 0.006780 0.001528 0.000000 0.001407 0.000000
# 3 -0.002523 0.001528 0.022816 0.000000 0.008106 0.000000
# 4 0.000000 0.000000 0.000000 0.050874 0.000000 -0.005643
# 5 0.007945 0.001407 0.008106 0.000000 0.037080 0.000000
# 6 0.000000 0.000000 0.000000 -0.005643 0.000000 0.000248
#
#
# Mechanical properties :
#
#
# Convention : Reuss Voigt Hill
#
# Bulk Modulus (GPa) = 26.61153 42.73877 34.67515
# Shear Modulus (GPa) = 33.50970 -507.65584 -237.07307
#
# Velocity S-wave (km/s) = 3.69436 -14.37934 -9.82642
# Velocity P-wave (km/s) = 5.38855 16.07109 10.70615
#
# Compressibility (1/GPa) = 0.03757770
#
# Stress axis : x y z
#
# Youngs Moduli (GPa) = 74.43811 147.50025 43.82868
#
# Poissons Ratio (x) = 0.25540 0.11056
# Poissons Ratio (y) = 0.12889 -0.06698
# Poissons Ratio (z) = 0.18778 -0.22540
#
# Static dielectric constant tensor:
#      x y z
#    x 1.948730 0.000000 -0.056430 
#    y 0.000000 2.058520 0.000000 
#    z -0.056430 0.000000 2.023870 
# 
# From -- ./inp_files/42042.got.cif
#   From: 2010.05.17/outbox.cif.g08.bks.cpg/sg14_22_cif.got.tgz:42042.got - 2010.06.03 17:49:19.
