data_PCOD9243293
_publ_section_title
;
Structure prediction by ZEFSAII (Michael W. Deem and Ramdas Pophale) SiO2 
 PCOD9243293
Probable space group: P 21/C
;
_chemical_formula_sum "Si O2"
_cell_formula_units_Z 32
_cell_length_a 14.594061
_cell_length_b 11.600812
_cell_length_c 20.366134
_cell_angle_alpha 90.000000
_cell_angle_beta 155.481354
_cell_angle_gamma 90.000000
_cell_volume 1430.902681
_symmetry_space_group_name_H-M "P 21/C"
_symmetry_group_IT_number 14
_symmetry_cell_setting 'monoclinic'
loop_
_space_group_symop_operation_xyz
x,y,z
-x,1/2+y,1/2-z
-x,-y,-z
x,1/2-y,1/2+z
loop_
_atom_site_type_symbol
_atom_site_label
_atom_site_fract_x
_atom_site_fract_y
_atom_site_fract_z
Si Si1 0.494474 0.416482 0.289696
Si Si2 0.379420 0.352154 0.474247
Si Si3 0.383335 0.475785 0.751663
Si Si4 0.726362 0.899093 0.561798
Si Si5 0.239211 0.467940 0.254310
Si Si6 0.017573 0.646119 0.547011
Si Si7 0.087125 0.004383 0.889009
Si Si8 0.896821 0.860454 0.536627
O O1 0.514075 0.528400 0.254451
O O2 0.340253 0.427894 0.252041
O O3 0.740305 0.403613 0.477771
O O4 0.354712 0.335696 0.150152
O O5 0.401466 0.215923 0.499757
O O6 0.266972 0.376968 0.330662
O O7 0.609661 0.422050 0.625323
O O8 0.225478 0.413096 0.429514
O O9 0.227634 0.590186 0.649846
O O10 0.202050 0.375664 0.640115
O O11 0.566813 0.504274 0.925233
O O12 0.890411 0.854621 0.610832
O O13 0.874056 0.953960 0.714555
O O14 0.991682 0.512988 0.084762
O O15 0.980547 0.573705 0.590141
O O16 0.038993 0.774467 0.585774
#
# Coordination Sequence:
#
# PCOD9243293 Si02
#       8
#     4   4   4   4   4   4   4   4
#     4   9  21  39  57  84 122 152 193 253 296 340
#     4  10  20  37  60  89 119 157 194 250 304 349
#     4   9  21  40  60  83 115 159 203 247 292 366
#     4  11  21  38  62  88 121 159 207 240 305 361
#     4  10  20  37  62  88 121 152 200 251 300 356
#     4  10  20  40  62  83 122 160 197 246 308 348
#     4  10  20  39  59  85 124 157 191 255 293 353
#     4  11  20  36  63  91 114 158 201 241 303 366
#
# _framework density 22.363506000000001
#
# number of rings (size 3 to 8) (size 9 to 14) (size 15 to 20)
#    0.000    2.000    2.500    1.125    0.000    0.500 
#    9.000    0.000    0.000    0.000    0.000    0.000 
#    0.000    0.000    0.000    0.000    0.000    0.000 
#
# Total GULP energy -178379.995161 kJ/mol
# GULP energy per Si atom -5574.374849 kJ/mol
# Density = 2.231261 g / cm^3
# Si number density = 22.363506 Si / 1000 Ang^3
#
#
#
# Elastic Constant Matrix: (Units=GPa)
#
#
# Indices 1 2 3 4 5 6 
#
# 1 85.7152 0.4726 22.7280 0.0000 -8.4664 0.0000
# 2 0.4726 27.6447 10.8054 0.0000 -13.4383 0.0000
# 3 22.7280 10.8054 93.3728 0.0000 -20.4115 0.0000
# 4 0.0000 0.0000 0.0000 18.6766 0.0000 3.2085
# 5 -8.4664 -13.4383 -20.4115 0.0000 33.6461 0.0000
# 6 0.0000 0.0000 0.0000 3.2085 0.0000 18.5965
#
#
#
# Elastic Compliance Matrix: (Units=1/GPa)
#
#
# Indices 1 2 3 4 5 6 
#
# 1 0.012624 0.001983 -0.002807 0.000000 0.002266 0.000000
# 2 0.001983 0.045376 -0.001917 0.000000 0.017459 0.000000
# 3 -0.002807 -0.001917 0.013020 0.000000 0.006426 0.000000
# 4 0.000000 0.000000 0.000000 0.055178 0.000000 -0.009520
# 5 0.002266 0.017459 0.006426 0.000000 0.041163 0.000000
# 6 0.000000 0.000000 0.000000 -0.009520 0.000000 0.055416
#
#
# Mechanical properties :
#
#
# Convention : Reuss Voigt Hill
#
# Bulk Modulus (GPa) = 15.25873 30.52718 22.89296
# Shear Modulus (GPa) = 19.99168 25.69898 22.84533
#
# Velocity S-wave (km/s) = 2.99313 3.39359 3.19963
# Velocity P-wave (km/s) = 4.33393 5.38844 4.88970
#
# Compressibility (1/GPa) = 0.06553623
#
# Stress axis : x y z
#
# Youngs Moduli (GPa) = 79.21632 22.03829 76.80688
#
# Poissons Ratio (x) = -0.04369 0.21559
# Poissons Ratio (y) = -0.15705 0.14724
# Poissons Ratio (z) = 0.22235 0.04225
#
# Static dielectric constant tensor:
#      x y z
#    x 1.834410 0.000000 0.014010 
#    y 0.000000 1.832280 0.000000 
#    z 0.014010 0.000000 1.892520 
# 
# From -- ./inp_files/68719.got.cif
#   From: 2010.05.17/outbox.cif.g08.bks.cpg/sg14_35_cif.got.tgz:68719.got - 2010.06.03 17:49:19.
