data_PCOD9243508
_publ_section_title
;
Structure prediction by ZEFSAII (Michael W. Deem and Ramdas Pophale) SiO2 
 PCOD9243508
Probable space group: P 21/C
;
_chemical_formula_sum "Si O2"
_cell_formula_units_Z 18
_cell_length_a 4.844975
_cell_length_b 7.028598
_cell_length_c 21.339341
_cell_angle_alpha 90.000000
_cell_angle_beta 81.703007
_cell_angle_gamma 90.000000
_cell_volume 719.070861
_symmetry_space_group_name_H-M "P 21/C"
_symmetry_group_IT_number 14
_symmetry_cell_setting 'monoclinic'
loop_
_space_group_symop_operation_xyz
x,y,z
-x,1/2+y,1/2-z
-x,-y,-z
x,1/2-y,1/2+z
loop_
_atom_site_type_symbol
_atom_site_label
_atom_site_fract_x
_atom_site_fract_y
_atom_site_fract_z
Si Si1 0.177853 0.960549 0.318430
Si Si2 0.000000 0.500000 0.500000
Si Si3 0.478697 0.981902 0.920482
Si Si4 0.687529 0.707775 0.295083
Si Si5 0.274844 0.561659 0.957069
O O1 0.424491 0.830399 0.282582
O O2 0.279691 0.003450 0.385034
O O3 0.895064 0.839121 0.328910
O O4 0.150676 0.130340 0.270291
O O5 0.236220 0.493405 0.550827
O O6 0.235515 0.375949 0.448157
O O7 0.561558 0.949248 0.846426
O O8 0.288384 0.794921 0.949235
O O9 0.500000 0.500000 0.000000
O O10 0.000000 0.500000 0.000000
#
# Coordination Sequence:
#
# PCOD9243508 Si02
#       5
#     4   2   4   4   4
#     4  11  24  44  69  97 133 176 221 276 333 401
#     4  10  20  38  58  92 118 166 212 240 334 382
#     4  10  21  40  63  87 135 166 202 275 325 381
#     4  11  23  45  68  95 134 175 221 271 344 386
#     4  11  22  41  65  91 130 170 216 263 329 386
#
# _framework density 25.032305999999998
#
# number of rings (size 3 to 8) (size 9 to 14) (size 15 to 20)
#    0.000    1.333    0.000    8.000    0.000    0.000 
#   24.000    0.000    0.000    0.000    0.000    0.000 
#    0.000    0.000    0.000    0.000    0.000    0.000 
#
# Total GULP energy -100258.140501 kJ/mol
# GULP energy per Si atom -5569.896694 kJ/mol
# Density = 2.497533 g / cm^3
# Si number density = 25.032306 Si / 1000 Ang^3
#
#
#
# Elastic Constant Matrix: (Units=GPa)
#
#
# Indices 1 2 3 4 5 6 
#
# 1 211.9501 8.1367 31.5222 0.0000 0.7899 0.0000
# 2 8.1367 35.3091 42.2246 0.0000 9.0903 0.0000
# 3 31.5222 42.2246 168.5944 0.0000 4.5150 0.0000
# 4 0.0000 0.0000 0.0000 35.2361 0.0000 1.1499
# 5 0.7899 9.0903 4.5150 0.0000 36.5444 0.0000
# 6 0.0000 0.0000 0.0000 1.1499 0.0000 27.0467
#
#
#
# Elastic Compliance Matrix: (Units=1/GPa)
#
#
# Indices 1 2 3 4 5 6 
#
# 1 0.004853 -0.000054 -0.000894 0.000000 0.000019 0.000000
# 2 -0.000054 0.043489 -0.010627 0.000000 -0.009504 0.000000
# 3 -0.000894 -0.010627 0.008718 0.000000 0.001586 0.000000
# 4 0.000000 0.000000 0.000000 0.028419 0.000000 -0.001208
# 5 0.000019 -0.009504 0.001586 0.000000 0.029532 0.000000
# 6 0.000000 0.000000 0.000000 -0.001208 0.000000 0.037025
#
#
# Mechanical properties :
#
#
# Convention : Reuss Voigt Hill
#
# Bulk Modulus (GPa) = 29.49050 64.40228 46.94639
# Shear Modulus (GPa) = 26.81117 42.03011 34.42064
#
# Velocity S-wave (km/s) = 3.27626 4.10205 3.71219
# Velocity P-wave (km/s) = 5.11062 6.94401 6.09662
#
# Compressibility (1/GPa) = 0.03390922
#
# Stress axis : x y z
#
# Youngs Moduli (GPa) = 206.05348 22.99427 114.70790
#
# Poissons Ratio (x) = 0.00123 0.10260
# Poissons Ratio (y) = 0.01104 1.21904
# Poissons Ratio (z) = 0.18431 0.24437
#
# Static dielectric constant tensor:
#      x y z
#    x 1.759320 0.000000 0.059110 
#    y 0.000000 1.875540 0.000000 
#    z 0.059110 0.000000 1.879720 
# 
# From -- ./inp_files/62891.got.cif
#   From: 2010.05.17/outbox.cif.g08.bks.cpg/sg14_32_cif.got.tgz:62891.got - 2010.06.03 17:49:19.
