data_PCOD9243612
_publ_section_title
;
Structure prediction by ZEFSAII (Michael W. Deem and Ramdas Pophale) SiO2 
 PCOD9243612
Probable space group: P 21/C
;
_chemical_formula_sum "Si O2"
_cell_formula_units_Z 24
_cell_length_a 14.603652
_cell_length_b 13.037016
_cell_length_c 8.389007
_cell_angle_alpha 90.000000
_cell_angle_beta 41.804408
_cell_angle_gamma 90.000000
_cell_volume 1064.655025
_symmetry_space_group_name_H-M "P 21/C"
_symmetry_group_IT_number 14
_symmetry_cell_setting 'monoclinic'
loop_
_space_group_symop_operation_xyz
x,y,z
-x,1/2+y,1/2-z
-x,-y,-z
x,1/2-y,1/2+z
loop_
_atom_site_type_symbol
_atom_site_label
_atom_site_fract_x
_atom_site_fract_y
_atom_site_fract_z
Si Si1 0.406942 0.651086 0.159412
Si Si2 0.024531 0.793417 0.282385
Si Si3 0.705552 0.149002 0.864424
Si Si4 0.041199 0.115680 0.962773
Si Si5 0.300396 0.426473 0.285358
Si Si6 0.848104 0.950003 0.682534
O O1 0.410378 0.643248 0.347485
O O2 0.336166 0.757187 0.195641
O O3 0.327315 0.546848 0.212980
O O4 0.558066 0.634977 0.891948
O O5 0.018885 0.671683 0.305249
O O6 0.019935 0.825764 0.107261
O O7 0.888724 0.847323 0.534181
O O8 0.159535 0.826848 0.202729
O O9 0.746119 0.037169 0.740810
O O10 0.203606 0.118759 0.774352
O O11 0.000000 0.000000 0.000000
O O12 0.219665 0.425582 0.558494
O O13 0.000000 0.000000 0.500000
#
# Coordination Sequence:
#
# PCOD9243612 Si02
#       6
#     4   4   4   4   4   4
#     4  10  22  39  62  86 125 172 215 268 318 408
#     4  11  23  38  63  95 126 163 215 278 332 392
#     4  10  20  38  61  90 122 166 216 260 330 392
#     4  12  24  40  65  95 131 170 214 275 341 396
#     4  10  22  41  60  90 128 168 216 266 334 395
#     4   9  19  38  63  92 126 161 212 277 331 391
#
# _framework density 22.542513
#
# number of rings (size 3 to 8) (size 9 to 14) (size 15 to 20)
#    0.000    1.667    0.000    6.000    0.000    8.000 
#    0.000    0.000    0.000    7.000    0.000    0.000 
#    0.000    0.000    0.000    0.000    0.000    0.000 
#
# Total GULP energy -133991.213807 kJ/mol
# GULP energy per Si atom -5582.967242 kJ/mol
# Density = 2.249120 g / cm^3
# Si number density = 22.542513 Si / 1000 Ang^3
#
#
#
# Elastic Constant Matrix: (Units=GPa)
#
#
# Indices 1 2 3 4 5 6 
#
# 1 48.8480 23.2188 15.3710 0.0000 -3.8299 0.0000
# 2 23.2188 109.3586 23.6594 0.0000 8.6309 0.0000
# 3 15.3710 23.6594 128.6562 0.0000 -5.7156 0.0000
# 4 0.0000 0.0000 0.0000 37.8929 0.0000 6.2471
# 5 -3.8299 8.6309 -5.7156 0.0000 20.8034 0.0000
# 6 0.0000 0.0000 0.0000 6.2471 0.0000 39.2883
#
#
#
# Elastic Compliance Matrix: (Units=1/GPa)
#
#
# Indices 1 2 3 4 5 6 
#
# 1 0.023943 -0.005214 -0.001630 0.000000 0.006123 0.000000
# 2 -0.005214 0.011091 -0.001684 0.000000 -0.006024 0.000000
# 3 -0.001630 -0.001684 0.008397 0.000000 0.002706 0.000000
# 4 0.000000 0.000000 0.000000 0.027101 0.000000 -0.004309
# 5 0.006123 -0.006024 0.002706 0.000000 0.052439 0.000000
# 6 0.000000 0.000000 0.000000 -0.004309 0.000000 0.026138
#
#
# Mechanical properties :
#
#
# Convention : Reuss Voigt Hill
#
# Bulk Modulus (GPa) = 37.91451 45.70682 41.81067
# Shear Modulus (GPa) = 28.57838 34.57114 31.57476
#
# Velocity S-wave (km/s) = 3.56442 3.92037 3.74662
# Velocity P-wave (km/s) = 5.81341 6.38844 6.10770
#
# Compressibility (1/GPa) = 0.02637512
#
# Stress axis : x y z
#
# Youngs Moduli (GPa) = 41.76579 90.16206 119.08597
#
# Poissons Ratio (x) = 0.47013 0.19407
# Poissons Ratio (y) = 0.21778 0.20057
# Poissons Ratio (z) = 0.06806 0.15186
#
# Static dielectric constant tensor:
#      x y z
#    x 1.816210 0.000000 -0.007190 
#    y 0.000000 1.921000 0.000000 
#    z -0.007190 0.000000 1.863360 
# 
# From -- ./inp_files/16130.got.cif
#   From: 2010.05.17/outbox.cif.g08.bks.cpg/sg14_9_cif.got.tgz:16130.got - 2010.06.03 17:49:19.
