data_PCOD9243750
_publ_section_title
;
Structure prediction by ZEFSAII (Michael W. Deem and Ramdas Pophale) SiO2 
 PCOD9243750
Probable space group: P 21/C
;
_chemical_formula_sum "Si O2"
_cell_formula_units_Z 32
_cell_length_a 26.660672
_cell_length_b 9.163156
_cell_length_c 18.648611
_cell_angle_alpha 90.000000
_cell_angle_beta 19.731408
_cell_angle_gamma 90.000000
_cell_volume 1538.082504
_symmetry_space_group_name_H-M "P 21/C"
_symmetry_group_IT_number 14
_symmetry_cell_setting 'monoclinic'
loop_
_space_group_symop_operation_xyz
x,y,z
-x,1/2+y,1/2-z
-x,-y,-z
x,1/2-y,1/2+z
loop_
_atom_site_type_symbol
_atom_site_label
_atom_site_fract_x
_atom_site_fract_y
_atom_site_fract_z
Si Si1 0.375540 0.262648 0.861043
Si Si2 0.418187 0.002391 0.426578
Si Si3 0.888533 0.971888 0.085931
Si Si4 0.235136 0.254877 0.838573
Si Si5 0.623856 0.521796 0.272250
Si Si6 0.122077 0.650480 0.537851
Si Si7 0.432264 0.793723 0.666180
Si Si8 0.887341 0.604535 0.355907
O O1 0.368899 0.384549 0.931381
O O2 0.404884 0.353457 0.748055
O O3 0.506627 0.147396 0.699383
O O4 0.224702 0.167390 0.053520
O O5 0.541913 0.087551 0.307295
O O6 0.273193 0.975295 0.669891
O O7 0.864369 0.803518 0.092942
O O8 0.938756 0.060617 0.948047
O O9 0.000000 0.000000 0.000000
O O10 0.238403 0.417901 0.865943
O O11 0.405705 0.221918 0.587133
O O12 0.191403 0.156011 0.964375
O O13 0.500000 0.500000 0.500000
O O14 0.624700 0.365874 0.231975
O O15 0.300040 0.661099 0.291486
O O16 0.095071 0.566469 0.649967
O O17 0.038846 0.804225 0.649041
#
# Coordination Sequence:
#
# PCOD9243750 Si02
#       8
#     4   4   4   4   4   4   4   4
#     4  11  22  40  59  92 126 166 210 269 317 377
#     4  11  23  39  66  89 129 167 215 266 320 384
#     4  10  22  40  61  90 121 174 215 255 321 389
#     4   8  19  36  62  85 121 158 206 259 302 369
#     4   9  19  35  61  92 124 155 206 262 314 368
#     4  11  23  38  65  92 125 165 214 264 320 381
#     4  10  20  38  64  93 116 166 217 254 317 379
#     4  10  22  38  58  90 126 157 203 264 314 367
#
# _framework density 20.805125
#
# number of rings (size 3 to 8) (size 9 to 14) (size 15 to 20)
#    0.000    2.000    1.250    1.500    8.750    1.500 
#    4.500    0.000    0.000    0.750    0.000    0.000 
#    0.000    0.000    0.000    0.000    0.000    0.000 
#
# Total GULP energy -178255.450859 kJ/mol
# GULP energy per Si atom -5570.482839 kJ/mol
# Density = 2.075777 g / cm^3
# Si number density = 20.805125 Si / 1000 Ang^3
#
#
#
# Elastic Constant Matrix: (Units=GPa)
#
#
# Indices 1 2 3 4 5 6 
#
# 1 72.2699 17.5785 13.7873 0.0000 -18.5049 0.0000
# 2 17.5785 79.1355 22.4691 0.0000 -5.9036 0.0000
# 3 13.7873 22.4691 57.6373 0.0000 -18.9804 0.0000
# 4 0.0000 0.0000 0.0000 22.7462 0.0000 -9.7788
# 5 -18.5049 -5.9036 -18.9804 0.0000 31.1209 0.0000
# 6 0.0000 0.0000 0.0000 -9.7788 0.0000 32.9454
#
#
#
# Elastic Compliance Matrix: (Units=1/GPa)
#
#
# Indices 1 2 3 4 5 6 
#
# 1 0.017033 -0.003161 0.000370 0.000000 0.009754 0.000000
# 2 -0.003161 0.014814 -0.005897 0.000000 -0.002666 0.000000
# 3 0.000370 -0.005897 0.024106 0.000000 0.013803 0.000000
# 4 0.000000 0.000000 0.000000 0.050394 0.000000 0.014958
# 5 0.009754 -0.002666 0.013803 0.000000 0.045845 0.000000
# 6 0.000000 0.000000 0.000000 0.014958 0.000000 0.034793
#
#
# Mechanical properties :
#
#
# Convention : Reuss Voigt Hill
#
# Bulk Modulus (GPa) = 25.92220 35.19028 30.55624
# Shear Modulus (GPa) = 23.01819 27.70969 25.36394
#
# Velocity S-wave (km/s) = 3.32982 3.65344 3.49538
# Velocity P-wave (km/s) = 5.22209 5.89472 5.56857
#
# Compressibility (1/GPa) = 0.03857697
#
# Stress axis : x y z
#
# Youngs Moduli (GPa) = 58.71019 67.50319 41.48403
#
# Poissons Ratio (x) = 0.21337 -0.01534
# Poissons Ratio (y) = 0.18558 0.24462
# Poissons Ratio (z) = -0.02172 0.39805
#
# Static dielectric constant tensor:
#      x y z
#    x 1.758070 0.000000 -0.016030 
#    y 0.000000 1.877060 0.000000 
#    z -0.016030 0.000000 1.769450 
# 
# From -- ./inp_files/70499.got.cif
#   From: 2010.05.17/outbox.cif.g08.bks.cpg/sg14_36_cif.got.tgz:70499.got - 2010.06.03 17:49:19.
