data_PCOD9243407
_publ_section_title
;
Structure prediction by ZEFSAII (Michael W. Deem and Ramdas Pophale) SiO2 
 PCOD9243407
Probable space group: P 21/C
;
_chemical_formula_sum "Si O2"
_cell_formula_units_Z 28
_cell_length_a 13.857774
_cell_length_b 4.993163
_cell_length_c 17.374690
_cell_angle_alpha 90.000000
_cell_angle_beta 93.519021
_cell_angle_gamma 90.000000
_cell_volume 1199.959635
_symmetry_space_group_name_H-M "P 21/C"
_symmetry_group_IT_number 14
_symmetry_cell_setting 'monoclinic'
loop_
_space_group_symop_operation_xyz
x,y,z
-x,1/2+y,1/2-z
-x,-y,-z
x,1/2-y,1/2+z
loop_
_atom_site_type_symbol
_atom_site_label
_atom_site_fract_x
_atom_site_fract_y
_atom_site_fract_z
Si Si1 0.971522 0.459025 0.702622
Si Si2 0.784685 0.157405 0.269102
Si Si3 0.152757 0.346133 0.628266
Si Si4 0.622880 0.759837 0.219464
Si Si5 0.703646 0.584606 0.498094
Si Si6 0.532565 0.930123 0.874666
Si Si7 0.348535 0.603392 0.909265
O O1 0.861315 0.368876 0.703205
O O2 0.961245 0.906003 0.867553
O O3 0.979968 0.766696 0.729439
O O4 0.823498 0.944951 0.336051
O O5 0.684478 0.024612 0.238989
O O6 0.794607 0.439874 0.312403
O O7 0.200429 0.380549 0.547681
O O8 0.580909 0.673892 0.298810
O O9 0.678755 0.533127 0.173817
O O10 0.535345 0.831546 0.157878
O O11 0.616599 0.494064 0.437203
O O12 0.670058 0.866859 0.531210
O O13 0.710076 0.360325 0.563681
O O14 0.457966 0.716181 0.906916
#
# Coordination Sequence:
#
# PCOD9243407 Si02
#       7
#     4   4   4   4   4   4   4
#     4   8  16  33  58  90 121 148 194 253 306 355
#     4  10  21  37  62  92 124 154 199 258 311 355
#     4  10  20  37  63  94 119 158 201 252 307 363
#     4  12  26  40  64  91 126 161 210 258 309 359
#     4  12  26  42  64  88 126 166 208 251 300 371
#     4  12  26  42  64  88 123 168 215 254 301 359
#     4  12  27  44  60  89 124 170 209 251 305 361
#
# _framework density 23.334119000000001
#
# number of rings (size 3 to 8) (size 9 to 14) (size 15 to 20)
#    0.000    1.143    4.286    1.714    6.000    0.000 
#    0.000    0.000    0.000    1.714    0.000    0.000 
#    0.000    0.000    0.000    0.000    0.000    0.000 
#
# Total GULP energy -156631.381597 kJ/mol
# GULP energy per Si atom -5593.977914 kJ/mol
# Density = 2.328101 g / cm^3
# Si number density = 23.334119 Si / 1000 Ang^3
#
#
#
# Elastic Constant Matrix: (Units=GPa)
#
#
# Indices 1 2 3 4 5 6 
#
# 1 92.5897 10.0103 46.3515 0.0000 -49.6530 0.0000
# 2 10.0103 87.9769 31.6712 0.0000 -7.8764 0.0000
# 3 46.3515 31.6712 89.3080 0.0000 -42.8979 0.0000
# 4 0.0000 0.0000 0.0000 19.6939 0.0000 -2.0016
# 5 -49.6530 -7.8764 -42.8979 0.0000 39.2287 0.0000
# 6 0.0000 0.0000 0.0000 -2.0016 0.0000 19.9476
#
#
#
# Elastic Compliance Matrix: (Units=1/GPa)
#
#
# Indices 1 2 3 4 5 6 
#
# 1 0.035720 -0.002110 0.007842 0.000000 0.053363 0.000000
# 2 -0.002110 0.013665 -0.007827 0.000000 -0.008486 0.000000
# 3 0.007842 -0.007827 0.029313 0.000000 0.040408 0.000000
# 4 0.000000 0.000000 0.000000 0.051300 0.000000 0.005148
# 5 0.053363 -0.008486 0.040408 0.000000 0.135519 0.000000
# 6 0.000000 0.000000 0.000000 0.005148 0.000000 0.050648
#
#
# Mechanical properties :
#
#
# Convention : Reuss Voigt Hill
#
# Bulk Modulus (GPa) = 13.42157 49.54896 31.48526
# Shear Modulus (GPa) = 14.48476 27.89681 21.19079
#
# Velocity S-wave (km/s) = 2.49420 3.46141 3.01682
# Velocity P-wave (km/s) = 3.74955 6.10375 5.06532
#
# Compressibility (1/GPa) = 0.07450693
#
# Stress axis : x y z
#
# Youngs Moduli (GPa) = 27.99559 73.18172 34.11507
#
# Poissons Ratio (x) = 0.15440 -0.26752
# Poissons Ratio (y) = 0.05907 0.26702
# Poissons Ratio (z) = -0.21953 0.57279
#
# Static dielectric constant tensor:
#      x y z
#    x 1.912220 0.000000 -0.010540 
#    y 0.000000 1.916910 0.000000 
#    z -0.010540 0.000000 1.863040 
# 
# From -- ./inp_files/58353.got.cif
#   From: 2010.05.17/outbox.cif.g08.bks.cpg/sg14_30_cif.got.tgz:58353.got - 2010.06.03 17:49:19.
