data_PCOD9243439
_publ_section_title
;
Structure prediction by ZEFSAII (Michael W. Deem and Ramdas Pophale) SiO2 
 PCOD9243439
Probable space group: P 21/C
;
_chemical_formula_sum "Si O2"
_cell_formula_units_Z 32
_cell_length_a 12.911772
_cell_length_b 13.222309
_cell_length_c 12.301609
_cell_angle_alpha 90.000000
_cell_angle_beta 40.555562
_cell_angle_gamma 90.000000
_cell_volume 1365.501270
_symmetry_space_group_name_H-M "P 21/C"
_symmetry_group_IT_number 14
_symmetry_cell_setting 'monoclinic'
loop_
_space_group_symop_operation_xyz
x,y,z
-x,1/2+y,1/2-z
-x,-y,-z
x,1/2-y,1/2+z
loop_
_atom_site_type_symbol
_atom_site_label
_atom_site_fract_x
_atom_site_fract_y
_atom_site_fract_z
Si Si1 0.335894 0.273981 0.986266
Si Si2 0.009749 0.243685 0.853575
Si Si3 0.151519 0.931964 0.898421
Si Si4 0.814290 0.215192 0.328004
Si Si5 0.339261 0.992892 0.291179
Si Si6 0.453421 0.644551 0.523045
Si Si7 0.114472 0.328549 0.994879
Si Si8 0.487549 0.516800 0.139332
O O1 0.415410 0.188491 0.996927
O O2 0.260021 0.258552 0.926896
O O3 0.456889 0.367107 0.887099
O O4 0.169576 0.304994 0.175895
O O5 0.077870 0.301843 0.901418
O O6 0.899854 0.317988 0.870246
O O7 0.892516 0.154494 0.981638
O O8 0.190154 0.873243 0.756138
O O9 0.303023 0.994543 0.814308
O O10 0.000000 0.000000 0.000000
O O11 0.644050 0.269019 0.462356
O O12 0.950180 0.297660 0.184433
O O13 0.183204 0.058400 0.443037
O O14 0.411773 0.957925 0.349351
O O15 0.329247 0.908198 0.206311
O O16 0.464127 0.069929 0.129518
O O17 0.500000 0.500000 0.000000
#
# Coordination Sequence:
#
# PCOD9243439 Si02
#       8
#     4   4   4   4   4   4   4   4
#     4  10  20  37  65  86 125 167 210 265 315 384
#     4  10  20  40  62  88 127 169 211 261 323 384
#     4  11  23  41  63  93 129 168 217 264 325 389
#     4  10  22  40  62  92 128 168 211 263 326 384
#     4  10  23  40  65  94 126 167 218 268 319 383
#     4  11  21  41  64  96 126 168 215 267 327 377
#     4   9  20  39  60  89 124 166 213 256 318 379
#     4  11  23  42  60  95 129 163 215 265 322 383
#
# _framework density 23.434619000000001
#
# number of rings (size 3 to 8) (size 9 to 14) (size 15 to 20)
#    0.000    1.750    2.500    1.500    0.000    4.500 
#    6.750    0.000    0.000    0.000    0.000    0.000 
#    0.000    0.000    0.000    0.000    0.000    0.000 
#
# Total GULP energy -178590.041497 kJ/mol
# GULP energy per Si atom -5580.938797 kJ/mol
# Density = 2.338128 g / cm^3
# Si number density = 23.434619 Si / 1000 Ang^3
#
#
#
# Elastic Constant Matrix: (Units=GPa)
#
#
# Indices 1 2 3 4 5 6 
#
# 1 134.7036 15.0260 33.3507 0.0000 -3.6280 0.0000
# 2 15.0260 25.1776 7.2606 0.0000 -5.0336 0.0000
# 3 33.3507 7.2606 27.6158 0.0000 -12.8381 0.0000
# 4 0.0000 0.0000 0.0000 22.0528 0.0000 -17.2605
# 5 -3.6280 -5.0336 -12.8381 0.0000 37.8424 0.0000
# 6 0.0000 0.0000 0.0000 -17.2605 0.0000 10.8375
#
#
#
# Elastic Compliance Matrix: (Units=1/GPa)
#
#
# Indices 1 2 3 4 5 6 
#
# 1 0.011368 -0.003372 -0.014893 0.000000 -0.004411 0.000000
# 2 -0.003372 0.044136 -0.005881 0.000000 0.003552 0.000000
# 3 -0.014893 -0.005881 0.064961 0.000000 0.019828 0.000000
# 4 0.000000 0.000000 0.000000 -0.183911 0.000000 -0.292909
# 5 -0.004411 0.003552 0.019828 0.000000 0.033202 0.000000
# 6 0.000000 0.000000 0.000000 -0.292909 0.000000 -0.374235
#
#
# Mechanical properties :
#
#
# Convention : Reuss Voigt Hill
#
# Bulk Modulus (GPa) = 13.85538 33.19683 23.52611
# Shear Modulus (GPa) = -15.05441 22.93719 3.94139
#
# Velocity S-wave (km/s) = -2.53731 3.13193 1.29828
# Velocity P-wave (km/s) = 1.63056 5.22256 3.50830
#
# Compressibility (1/GPa) = 0.07217412
#
# Stress axis : x y z
#
# Youngs Moduli (GPa) = 87.96309 22.65720 15.39379
#
# Poissons Ratio (x) = 0.07639 0.22927
# Poissons Ratio (y) = 0.29658 0.09053
# Poissons Ratio (z) = 1.31007 0.13324
#
# Static dielectric constant tensor:
#      x y z
#    x 0.086430 0.000000 0.513280 
#    y 0.000000 1.851950 0.000000 
#    z 0.513280 0.000000 1.898660 
# 
# From -- ./inp_files/30441.got.cif
#   From: 2010.05.17/outbox.cif.g08.bks.cpg/sg14_16_cif.got.tgz:30441.got - 2010.06.03 17:49:19.
