data_PCOD9243253
_publ_section_title
;
Structure prediction by ZEFSAII (Michael W. Deem and Ramdas Pophale) SiO2 
 PCOD9243253
Probable space group: P 21/C
;
_chemical_formula_sum "Si O2"
_cell_formula_units_Z 16
_cell_length_a 8.899449
_cell_length_b 11.293423
_cell_length_c 7.580794
_cell_angle_alpha 90.000000
_cell_angle_beta 67.097247
_cell_angle_gamma 90.000000
_cell_volume 701.845698
_symmetry_space_group_name_H-M "P 21/C"
_symmetry_group_IT_number 14
_symmetry_cell_setting 'monoclinic'
loop_
_space_group_symop_operation_xyz
x,y,z
-x,1/2+y,1/2-z
-x,-y,-z
x,1/2-y,1/2+z
loop_
_atom_site_type_symbol
_atom_site_label
_atom_site_fract_x
_atom_site_fract_y
_atom_site_fract_z
Si Si1 0.197158 0.305125 0.624444
Si Si2 0.738141 0.938430 0.537009
Si Si3 0.413923 0.491803 0.350400
Si Si4 0.889537 0.086803 0.171132
O O1 0.207633 0.379587 0.801484
O O2 0.271384 0.175175 0.586154
O O3 0.302437 0.377572 0.433518
O O4 0.007372 0.302037 0.651154
O O5 0.566702 0.002601 0.650603
O O6 0.853028 0.027766 0.377837
O O7 0.500000 0.500000 0.500000
O O8 0.284204 0.592986 0.349480
O O9 0.000000 0.000000 0.000000
#
# Coordination Sequence:
#
# PCOD9243253 Si02
#       4
#     4   4   4   4
#     4  10  21  38  59  87 118 154 195 241 293 348
#     4  11  21  39  61  84 118 156 193 243 292 345
#     4   9  20  38  61  88 118 151 194 242 293 348
#     4  10  20  37  59  87 118 153 194 242 292 349
#
# _framework density 22.797037
#
# number of rings (size 3 to 8) (size 9 to 14) (size 15 to 20)
#    0.000    2.000    0.000    4.500    0.000    0.000 
#    0.000   25.000    0.000    0.000    0.000    0.000 
#    0.000    0.000    0.000    0.000    0.000    0.000 
#
# Total GULP energy -89132.918264 kJ/mol
# GULP energy per Si atom -5570.807392 kJ/mol
# Density = 2.274515 g / cm^3
# Si number density = 22.797037 Si / 1000 Ang^3
#
#
#
# Elastic Constant Matrix: (Units=GPa)
#
#
# Indices 1 2 3 4 5 6 
#
# 1 73.6844 7.4244 56.8309 0.0000 3.0430 0.0000
# 2 7.4244 45.8195 38.9312 0.0000 -12.4520 0.0000
# 3 56.8309 38.9312 177.8980 0.0000 -9.2353 0.0000
# 4 0.0000 0.0000 0.0000 30.1202 0.0000 -2.4964
# 5 3.0430 -12.4520 -9.2353 0.0000 53.9700 0.0000
# 6 0.0000 0.0000 0.0000 -2.4964 0.0000 9.9982
#
#
#
# Elastic Compliance Matrix: (Units=1/GPa)
#
#
# Indices 1 2 3 4 5 6 
#
# 1 0.018369 0.002002 -0.006393 0.000000 -0.001668 0.000000
# 2 0.002002 0.028574 -0.006615 0.000000 0.005348 0.000000
# 3 -0.006393 -0.006615 0.009132 0.000000 0.000397 0.000000
# 4 0.000000 0.000000 0.000000 0.033902 0.000000 0.008465
# 5 -0.001668 0.005348 0.000397 0.000000 0.019925 0.000000
# 6 0.000000 0.000000 0.000000 0.008465 0.000000 0.102132
#
#
# Mechanical properties :
#
#
# Convention : Reuss Voigt Hill
#
# Bulk Modulus (GPa) = 29.35705 55.97499 42.66602
# Shear Modulus (GPa) = 20.37487 31.76535 26.07011
#
# Velocity S-wave (km/s) = 2.99281 3.73687 3.38535
# Velocity P-wave (km/s) = 4.98478 6.57464 5.83412
#
# Compressibility (1/GPa) = 0.03406337
#
# Stress axis : x y z
#
# Youngs Moduli (GPa) = 54.43886 34.99640 109.50826
#
# Poissons Ratio (x) = -0.07007 0.70008
# Poissons Ratio (y) = -0.10899 0.72442
# Poissons Ratio (z) = 0.34802 0.23151
#
# Static dielectric constant tensor:
#      x y z
#    x 1.976590 0.000000 0.114820 
#    y 0.000000 1.889800 0.000000 
#    z 0.114820 0.000000 1.913940 
# 
# From -- ./inp_files/7425.got.cif
#   From: 2010.05.17/outbox.cif.g08.bks.cpg/sg14_4_cif.got.tgz:7425.got - 2010.06.03 17:49:19.
