data_PCOD9243810
_publ_section_title
;
Structure prediction by ZEFSAII (Michael W. Deem and Ramdas Pophale) SiO2 
 PCOD9243810
Probable space group: P 21/C
;
_chemical_formula_sum "Si O2"
_cell_formula_units_Z 30
_cell_length_a 17.099018
_cell_length_b 13.691556
_cell_length_c 8.074423
_cell_angle_alpha 90.000000
_cell_angle_beta 139.113330
_cell_angle_gamma 90.000000
_cell_volume 1237.337619
_symmetry_space_group_name_H-M "P 21/C"
_symmetry_group_IT_number 14
_symmetry_cell_setting 'monoclinic'
loop_
_space_group_symop_operation_xyz
x,y,z
-x,1/2+y,1/2-z
-x,-y,-z
x,1/2-y,1/2+z
loop_
_atom_site_type_symbol
_atom_site_label
_atom_site_fract_x
_atom_site_fract_y
_atom_site_fract_z
Si Si1 0.695979 0.427956 0.321610
Si Si2 0.546950 0.324375 0.844379
Si Si3 0.803834 0.258979 0.668732
Si Si4 0.709343 0.730743 0.493834
Si Si5 0.798617 0.888927 0.830451
Si Si6 0.500000 0.500000 0.500000
Si Si7 0.074487 0.887676 0.360021
Si Si8 0.255453 0.039023 0.758269
O O1 0.785513 0.337684 0.491587
O O2 0.742535 0.505263 0.263049
O O3 0.694668 0.480466 0.497736
O O4 0.572948 0.385920 0.053708
O O5 0.431257 0.258536 0.693108
O O6 0.522284 0.400630 0.657483
O O7 0.667089 0.262362 0.005334
O O8 0.861252 0.160051 0.695185
O O9 0.888247 0.313841 0.933358
O O10 0.779196 0.831365 0.629512
O O11 0.729058 0.680222 0.349636
O O12 0.757698 0.648382 0.698434
O O13 0.935187 0.893898 0.104199
O O14 0.642774 0.517617 0.711232
O O15 0.133111 0.989870 0.505106
#
# Coordination Sequence:
#
# PCOD9243810 Si02
#       8
#     4   4   4   4   4   2   4   4
#     4  10  24  44  66  99 132 178 224 272 338 400
#     4  11  23  43  66 100 130 171 223 283 334 400
#     4  11  22  41  69 102 127 175 225 280 331 396
#     4  10  25  43  63  96 131 174 217 270 337 384
#     4  11  25  45  64  98 134 179 220 271 334 404
#     4  10  20  38  66  96 136 158 222 276 328 386
#     4  11  22  41  69  96 133 175 225 270 330 403
#     4   9  21  41  66  95 128 178 214 277 331 394
#
# _framework density 24.245607
#
# number of rings (size 3 to 8) (size 9 to 14) (size 15 to 20)
#    0.000    1.600    2.667    0.800    1.867   12.800 
#    7.200    0.667    0.000    0.000    0.000    0.000 
#    0.000    0.000    0.000    0.000    0.000    0.000 
#
# Total GULP energy -167427.747018 kJ/mol
# GULP energy per Si atom -5580.924901 kJ/mol
# Density = 2.419042 g / cm^3
# Si number density = 24.245607 Si / 1000 Ang^3
#
#
#
# Elastic Constant Matrix: (Units=GPa)
#
#
# Indices 1 2 3 4 5 6 
#
# 1 29.9302 13.7256 17.3945 0.0000 4.2218 0.0000
# 2 13.7256 77.3495 32.9315 0.0000 -0.1056 0.0000
# 3 17.3945 32.9315 126.1467 0.0000 19.2458 0.0000
# 4 0.0000 0.0000 0.0000 35.3775 0.0000 -12.2166
# 5 4.2218 -0.1056 19.2458 0.0000 24.8235 0.0000
# 6 0.0000 0.0000 0.0000 -12.2166 0.0000 22.1468
#
#
#
# Elastic Compliance Matrix: (Units=1/GPa)
#
#
# Indices 1 2 3 4 5 6 
#
# 1 0.038360 -0.005424 -0.003260 0.000000 -0.004019 0.000000
# 2 -0.005424 0.015571 -0.003933 0.000000 0.004038 0.000000
# 3 -0.003260 -0.003933 0.010572 0.000000 -0.007659 0.000000
# 4 0.000000 0.000000 0.000000 0.034918 0.000000 0.019261
# 5 -0.004019 0.004038 -0.007659 0.000000 0.046923 0.000000
# 6 0.000000 0.000000 0.000000 0.019261 0.000000 0.055778
#
#
# Mechanical properties :
#
#
# Convention : Reuss Voigt Hill
#
# Bulk Modulus (GPa) = 25.46607 40.16996 32.81801
# Shear Modulus (GPa) = 20.79460 27.76121 24.27790
#
# Velocity S-wave (km/s) = 2.93177 3.38745 3.16782
# Velocity P-wave (km/s) = 4.68898 5.64834 5.19087
#
# Compressibility (1/GPa) = 0.03926794
#
# Stress axis : x y z
#
# Youngs Moduli (GPa) = 26.06863 64.22254 94.58892
#
# Poissons Ratio (x) = 0.34837 0.30838
# Poissons Ratio (y) = 0.14141 0.37202
# Poissons Ratio (z) = 0.08499 0.25259
#
# Static dielectric constant tensor:
#      x y z
#    x 1.968080 0.000000 -0.110880 
#    y 0.000000 1.931220 0.000000 
#    z -0.110880 0.000000 1.903570 
# 
# From -- ./inp_files/18032.got.cif
#   From: 2010.05.17/outbox.cif.g08.bks.cpg/sg14_10_cif.got.tgz:18032.got - 2010.06.03 17:49:19.
