data_PCOD9243223
_publ_section_title
;
Structure prediction by ZEFSAII (Michael W. Deem and Ramdas Pophale) SiO2 
 PCOD9243223
Probable space group: P 21/C
;
_chemical_formula_sum "Si O2"
_cell_formula_units_Z 32
_cell_length_a 9.460037
_cell_length_b 7.649424
_cell_length_c 21.824516
_cell_angle_alpha 90.000000
_cell_angle_beta 115.570942
_cell_angle_gamma 90.000000
_cell_volume 1424.615107
_symmetry_space_group_name_H-M "P 21/C"
_symmetry_group_IT_number 14
_symmetry_cell_setting 'monoclinic'
loop_
_space_group_symop_operation_xyz
x,y,z
-x,1/2+y,1/2-z
-x,-y,-z
x,1/2-y,1/2+z
loop_
_atom_site_type_symbol
_atom_site_label
_atom_site_fract_x
_atom_site_fract_y
_atom_site_fract_z
Si Si1 0.040185 0.702028 0.517418
Si Si2 0.834524 0.866130 0.375022
Si Si3 0.390095 0.429249 0.663059
Si Si4 0.584506 0.334888 0.808958
Si Si5 0.905614 0.902997 0.602072
Si Si6 0.557712 0.414460 0.574488
Si Si7 0.327438 0.657178 0.996866
Si Si8 0.358440 0.216420 0.368678
O O1 0.927262 0.822098 0.454455
O O2 0.001060 0.762589 0.579160
O O3 0.000000 0.500000 0.500000
O O4 0.213064 0.735548 0.521398
O O5 0.753421 0.687303 0.341196
O O6 0.701820 0.015428 0.354162
O O7 0.970744 0.946318 0.358934
O O8 0.541519 0.371667 0.730703
O O9 0.364182 0.635068 0.668995
O O10 0.421078 0.375879 0.597827
O O11 0.421664 0.347131 0.815746
O O12 0.811468 0.840499 0.642777
O O13 0.765868 0.980230 0.533299
O O14 0.500000 0.500000 0.500000
O O15 0.653971 0.252168 0.565906
O O16 0.642930 0.573293 0.624945
O O17 0.498703 0.650800 0.059643
#
# Coordination Sequence:
#
# PCOD9243223 Si02
#       8
#     4   4   4   4   4   4   4   4
#     4  11  24  38  62  97 142 179 222 281 359 421
#     4  11  25  41  67  94 136 177 226 284 348 407
#     4  11  24  42  74 101 133 176 236 288 340 416
#     4  11  23  45  70  99 129 177 237 284 337 412
#     4  11  23  38  59  97 135 174 219 278 345 409
#     4   9  21  37  63  99 129 168 222 282 343 399
#     4  10  20  37  58  95 130 175 217 269 338 410
#     4  10  21  36  65  91 132 170 220 275 329 402
#
# _framework density 22.462208
#
# number of rings (size 3 to 8) (size 9 to 14) (size 15 to 20)
#    0.000    1.500    1.250    4.125   12.250    0.000 
#    0.000    0.000    8.250    0.000    0.000    0.000 
#    0.000    0.000    0.000    0.000    0.000    0.000 
#
# Total GULP energy -178672.991953 kJ/mol
# GULP energy per Si atom -5583.530999 kJ/mol
# Density = 2.241108 g / cm^3
# Si number density = 22.462208 Si / 1000 Ang^3
#
#
#
# Elastic Constant Matrix: (Units=GPa)
#
#
# Indices 1 2 3 4 5 6 
#
# 1 145.2903 48.0311 25.5934 0.0000 -8.7716 0.0000
# 2 48.0311 90.6700 15.7093 0.0000 0.9811 0.0000
# 3 25.5934 15.7093 68.8390 0.0000 -3.6168 0.0000
# 4 0.0000 0.0000 0.0000 20.9735 0.0000 3.1030
# 5 -8.7716 0.9811 -3.6168 0.0000 21.6465 0.0000
# 6 0.0000 0.0000 0.0000 3.1030 0.0000 47.5834
#
#
#
# Elastic Compliance Matrix: (Units=1/GPa)
#
#
# Indices 1 2 3 4 5 6 
#
# 1 0.008919 -0.004393 -0.002132 0.000000 0.003457 0.000000
# 2 -0.004393 0.013667 -0.001626 0.000000 -0.002671 0.000000
# 3 -0.002132 -0.001626 0.015787 0.000000 0.001848 0.000000
# 4 0.000000 0.000000 0.000000 0.048144 0.000000 -0.003140
# 5 0.003457 -0.002671 0.001848 0.000000 0.048028 0.000000
# 6 0.000000 0.000000 0.000000 -0.003140 0.000000 0.021220
#
#
# Mechanical properties :
#
#
# Convention : Reuss Voigt Hill
#
# Bulk Modulus (GPa) = 45.30659 53.71853 49.51256
# Shear Modulus (GPa) = 27.86699 32.40506 30.13602
#
# Velocity S-wave (km/s) = 3.52606 3.80234 3.66680
# Velocity P-wave (km/s) = 6.06559 6.57602 6.32596
#
# Compressibility (1/GPa) = 0.02207184
#
# Stress axis : x y z
#
# Youngs Moduli (GPa) = 112.11687 73.17066 63.34169
#
# Poissons Ratio (x) = 0.32143 0.13504
# Poissons Ratio (y) = 0.49252 0.10299
# Poissons Ratio (z) = 0.23903 0.11897
#
# Static dielectric constant tensor:
#      x y z
#    x 1.866630 0.000000 -0.008780 
#    y 0.000000 1.923090 0.000000 
#    z -0.008780 0.000000 1.868690 
# 
# From -- ./inp_files/71989.got.cif
#   From: 2010.05.17/outbox.cif.g08.bks.cpg/sg14_36_cif.got.tgz:71989.got - 2010.06.03 17:49:19.
