data_PCOD9243443
_publ_section_title
;
Structure prediction by ZEFSAII (Michael W. Deem and Ramdas Pophale) SiO2 
 PCOD9243443
Probable space group: P 21/C
;
_chemical_formula_sum "Si O2"
_cell_formula_units_Z 32
_cell_length_a 20.228373
_cell_length_b 10.515337
_cell_length_c 21.354119
_cell_angle_alpha 90.000000
_cell_angle_beta 18.673441
_cell_angle_gamma 90.000000
_cell_volume 1454.292326
_symmetry_space_group_name_H-M "P 21/C"
_symmetry_group_IT_number 14
_symmetry_cell_setting 'monoclinic'
loop_
_space_group_symop_operation_xyz
x,y,z
-x,1/2+y,1/2-z
-x,-y,-z
x,1/2-y,1/2+z
loop_
_atom_site_type_symbol
_atom_site_label
_atom_site_fract_x
_atom_site_fract_y
_atom_site_fract_z
Si Si1 0.340692 0.551762 0.325221
Si Si2 0.507327 0.816444 0.135942
Si Si3 0.710504 0.069675 0.568403
Si Si4 0.795771 0.816986 0.125974
Si Si5 0.355720 0.178549 0.602858
Si Si6 0.399098 0.774281 0.928275
Si Si7 0.242996 0.896897 0.681236
Si Si8 0.841434 0.519414 0.386777
O O1 0.383337 0.686335 0.257177
O O2 0.304682 0.454007 0.301076
O O3 0.163017 0.522364 0.536275
O O4 0.546176 0.520105 0.181060
O O5 0.342485 0.919275 0.310528
O O6 0.607282 0.794334 0.978096
O O7 0.707413 0.851832 0.999089
O O8 0.653629 0.208590 0.590416
O O9 0.937870 0.034919 0.342710
O O10 0.773434 0.787301 0.219095
O O11 0.643936 0.725190 0.222549
O O12 0.029321 0.837028 0.896305
O O13 0.578830 0.138696 0.429367
O O14 0.252635 0.050554 0.666538
O O15 0.299996 0.676699 0.066794
O O16 0.286424 0.908426 0.033186
#
# Coordination Sequence:
#
# PCOD9243443 Si02
#       8
#     4   4   4   4   4   4   4   4
#     4  10  21  38  59  88 120 151 201 254 302 361
#     4  11  23  38  58  86 126 157 192 258 306 360
#     4  10  22  38  59  86 116 161 201 245 306 364
#     4  10  21  38  66  89 120 163 200 257 313 349
#     4  10  21  38  59  96 123 151 215 253 297 368
#     4  10  21  40  57  91 121 152 208 246 301 377
#     4  10  20  37  65  89 120 161 195 258 303 356
#     4  11  24  38  60  88 122 161 202 248 308 378
#
# _framework density 22.003830000000001
#
# number of rings (size 3 to 8) (size 9 to 14) (size 15 to 20)
#    0.000    1.750    1.250    4.125    1.750    4.000 
#    0.000    2.500    0.000    4.500    0.000    0.000 
#    0.000    0.000    0.000    0.000    0.000    0.000 
#
# Total GULP energy -178536.369098 kJ/mol
# GULP energy per Si atom -5579.261534 kJ/mol
# Density = 2.195375 g / cm^3
# Si number density = 22.003830 Si / 1000 Ang^3
#
#
#
# Elastic Constant Matrix: (Units=GPa)
#
#
# Indices 1 2 3 4 5 6 
#
# 1 62.9304 9.9547 30.1528 0.0000 19.0687 0.0000
# 2 9.9547 42.8598 17.4149 0.0000 2.8482 0.0000
# 3 30.1528 17.4149 181.7459 0.0000 2.0660 0.0000
# 4 0.0000 0.0000 0.0000 22.5979 0.0000 10.6622
# 5 19.0687 2.8482 2.0660 0.0000 32.9216 0.0000
# 6 0.0000 0.0000 0.0000 10.6622 0.0000 20.4685
#
#
#
# Elastic Compliance Matrix: (Units=1/GPa)
#
#
# Indices 1 2 3 4 5 6 
#
# 1 0.021498 -0.002915 -0.003151 0.000000 -0.012002 0.000000
# 2 -0.002915 0.024799 -0.001889 0.000000 -0.000338 0.000000
# 3 -0.003151 -0.001889 0.006188 0.000000 0.001600 0.000000
# 4 0.000000 0.000000 0.000000 0.058672 0.000000 -0.030563
# 5 -0.012002 -0.000338 0.001600 0.000000 0.037256 0.000000
# 6 0.000000 0.000000 0.000000 -0.030563 0.000000 0.064776
#
#
# Mechanical properties :
#
#
# Convention : Reuss Voigt Hill
#
# Bulk Modulus (GPa) = 27.34112 44.73121 36.03617
# Shear Modulus (GPa) = 20.72189 30.53185 25.62687
#
# Velocity S-wave (km/s) = 3.07211 3.72905 3.41641
# Velocity P-wave (km/s) = 5.00364 6.23811 5.65466
#
# Compressibility (1/GPa) = 0.03657494
#
# Stress axis : x y z
#
# Youngs Moduli (GPa) = 46.51526 40.32437 161.61015
#
# Poissons Ratio (x) = 0.11756 0.50922
# Poissons Ratio (y) = 0.13561 0.30523
# Poissons Ratio (z) = 0.14657 0.07616
#
# Static dielectric constant tensor:
#      x y z
#    x 1.860700 0.000000 0.038540 
#    y 0.000000 1.853460 0.000000 
#    z 0.038540 0.000000 1.867090 
# 
# From -- ./inp_files/69903.got.cif
#   From: 2010.05.17/outbox.cif.g08.bks.cpg/sg14_35_cif.got.tgz:69903.got - 2010.06.03 17:49:19.
