data_PCOD9243256
_publ_section_title
;
Structure prediction by ZEFSAII (Michael W. Deem and Ramdas Pophale) SiO2 
 PCOD9243256
Probable space group: P 21/C
;
_chemical_formula_sum "Si O2"
_cell_formula_units_Z 28
_cell_length_a 12.506331
_cell_length_b 9.659524
_cell_length_c 13.865361
_cell_angle_alpha 90.000000
_cell_angle_beta 53.335449
_cell_angle_gamma 90.000000
_cell_volume 1343.599514
_symmetry_space_group_name_H-M "P 21/C"
_symmetry_group_IT_number 14
_symmetry_cell_setting 'monoclinic'
loop_
_space_group_symop_operation_xyz
x,y,z
-x,1/2+y,1/2-z
-x,-y,-z
x,1/2-y,1/2+z
loop_
_atom_site_type_symbol
_atom_site_label
_atom_site_fract_x
_atom_site_fract_y
_atom_site_fract_z
Si Si1 0.468927 0.585494 0.864758
Si Si2 0.303317 0.952085 0.649318
Si Si3 0.547385 0.624205 0.343620
Si Si4 0.666959 0.566308 0.471312
Si Si5 0.858167 0.672718 0.885549
Si Si6 0.162276 0.662185 0.740621
Si Si7 0.224512 0.028679 0.378212
O O1 0.605295 0.506392 0.813168
O O2 0.490210 0.742360 0.823512
O O3 0.365445 0.518740 0.847973
O O4 0.395484 0.585149 0.007948
O O5 0.228307 0.811723 0.715519
O O6 0.209383 0.073921 0.658091
O O7 0.563947 0.636039 0.450850
O O8 0.435307 0.502636 0.397119
O O9 0.706745 0.631253 0.234089
O O10 0.772161 0.686000 0.442866
O O11 0.749636 0.440232 0.375334
O O12 0.014270 0.687636 0.779586
O O13 0.852416 0.593550 0.991893
O O14 0.158681 0.587927 0.847712
#
# Coordination Sequence:
#
# PCOD9243256 Si02
#       7
#     4   4   4   4   4   4   4
#     4  10  20  37  59  88 120 146 196 254 299 346
#     4  10  21  37  63  87 114 155 202 247 294 342
#     4  10  20  37  59  88 120 146 196 254 299 346
#     4  10  21  37  63  87 114 155 202 247 294 342
#     4  11  22  41  60  87 122 161 201 237 289 361
#     4  11  22  41  60  87 122 161 201 237 289 361
#     4  10  25  34  62  86 121 160 188 244 308 348
#
# _framework density 20.839542999999999
#
# number of rings (size 3 to 8) (size 9 to 14) (size 15 to 20)
#    0.000    1.714    2.857    1.286    4.000    0.000 
#    0.000    0.000    0.000    1.714    0.000    0.000 
#    0.000    0.000    0.000    0.000    0.000    0.000 
#
# Total GULP energy -155923.307789 kJ/mol
# GULP energy per Si atom -5568.689564 kJ/mol
# Density = 2.079211 g / cm^3
# Si number density = 20.839543 Si / 1000 Ang^3
#
#
#
# Elastic Constant Matrix: (Units=GPa)
#
#
# Indices 1 2 3 4 5 6 
#
# 1 100.7045 37.0857 17.3182 0.0000 -24.1098 0.0000
# 2 37.0857 84.0907 -0.0984 0.0000 -14.5352 0.0000
# 3 17.3182 -0.0984 35.9705 0.0000 -14.1285 0.0000
# 4 0.0000 0.0000 0.0000 23.1018 0.0000 -3.7787
# 5 -24.1098 -14.5352 -14.1285 0.0000 28.6087 0.0000
# 6 0.0000 0.0000 0.0000 -3.7787 0.0000 18.5319
#
#
#
# Elastic Compliance Matrix: (Units=1/GPa)
#
#
# Indices 1 2 3 4 5 6 
#
# 1 0.014242 -0.004982 -0.003909 0.000000 0.007541 0.000000
# 2 -0.004982 0.015098 0.004719 0.000000 0.005802 0.000000
# 3 -0.003909 0.004719 0.036405 0.000000 0.017082 0.000000
# 4 0.000000 0.000000 0.000000 0.044780 0.000000 0.009131
# 5 0.007541 0.005802 0.017082 0.000000 0.052694 0.000000
# 6 0.000000 0.000000 0.000000 0.009131 0.000000 0.055823
#
#
# Mechanical properties :
#
#
# Convention : Reuss Voigt Hill
#
# Bulk Modulus (GPa) = 17.42122 36.59743 27.00933
# Shear Modulus (GPa) = 20.28238 25.14582 22.71410
#
# Velocity S-wave (km/s) = 3.12310 3.47744 3.30502
# Velocity P-wave (km/s) = 4.62416 5.80716 5.24909
#
# Compressibility (1/GPa) = 0.05740125
#
# Stress axis : x y z
#
# Youngs Moduli (GPa) = 70.21270 66.23526 27.46878
#
# Poissons Ratio (x) = 0.33000 0.10737
# Poissons Ratio (y) = 0.34982 -0.12963
# Poissons Ratio (z) = 0.27445 -0.31257
#
# Static dielectric constant tensor:
#      x y z
#    x 1.724160 0.000000 0.044710 
#    y 0.000000 3.258020 0.000000 
#    z 0.044710 0.000000 0.725730 
# 
# From -- ./inp_files/43321.got.cif
#   From: 2010.05.17/outbox.cif.g08.bks.cpg/sg14_22_cif.got.tgz:43321.got - 2010.06.03 17:49:19.
