data_PCOD9243401
_publ_section_title
;
Structure prediction by ZEFSAII (Michael W. Deem and Ramdas Pophale) SiO2 
 PCOD9243401
Probable space group: P 21/C
;
_chemical_formula_sum "Si O2"
_cell_formula_units_Z 24
_cell_length_a 8.418157
_cell_length_b 19.521371
_cell_length_c 11.591294
_cell_angle_alpha 90.000000
_cell_angle_beta 36.705843
_cell_angle_gamma 90.000000
_cell_volume 1138.538008
_symmetry_space_group_name_H-M "P 21/C"
_symmetry_group_IT_number 14
_symmetry_cell_setting 'monoclinic'
loop_
_space_group_symop_operation_xyz
x,y,z
-x,1/2+y,1/2-z
-x,-y,-z
x,1/2-y,1/2+z
loop_
_atom_site_type_symbol
_atom_site_label
_atom_site_fract_x
_atom_site_fract_y
_atom_site_fract_z
Si Si1 0.649789 0.170166 0.196836
Si Si2 0.729276 0.018543 0.778319
Si Si3 0.127098 0.601667 0.004460
Si Si4 0.920545 0.726690 0.975440
Si Si5 0.033188 0.867473 0.202335
Si Si6 0.481470 0.918022 0.509256
O O1 0.915556 0.205643 0.091661
O O2 0.560706 0.111652 0.337961
O O3 0.400230 0.222748 0.333271
O O4 0.730949 0.141272 0.025261
O O5 0.664270 0.063315 0.702781
O O6 0.921822 0.068675 0.738353
O O7 0.878918 0.950135 0.653510
O O8 0.500000 0.000000 0.000000
O O9 0.029934 0.671662 0.004845
O O10 0.249438 0.606038 0.059350
O O11 0.002840 0.698620 0.801358
O O12 0.754157 0.884242 0.305169
O O13 0.500000 0.000000 0.500000
#
# Coordination Sequence:
#
# PCOD9243401 Si02
#       6
#     4   4   4   4   4   4
#     4  11  26  44  69  94 133 177 221 280 331 406
#     4  10  20  37  63  92 123 169 212 261 333 386
#     4  10  22  40  63  91 132 166 211 278 319 393
#     4  10  25  45  64  93 128 173 224 270 334 396
#     4  10  23  42  63  95 130 171 218 273 325 398
#     4  11  24  43  65  99 138 172 222 279 336 387
#
# _framework density 21.079664999999999
#
# number of rings (size 3 to 8) (size 9 to 14) (size 15 to 20)
#    0.000    1.667    1.667    1.000    9.333    3.333 
#    3.000    0.000    0.000    0.000    0.000    0.000 
#    0.000    0.000    0.000    0.000    0.000    0.000 
#
# Total GULP energy -134071.431189 kJ/mol
# GULP energy per Si atom -5586.309633 kJ/mol
# Density = 2.103169 g / cm^3
# Si number density = 21.079665 Si / 1000 Ang^3
#
#
#
# Elastic Constant Matrix: (Units=GPa)
#
#
# Indices 1 2 3 4 5 6 
#
# 1 69.1848 5.0473 9.3049 0.0000 -1.7226 0.0000
# 2 5.0473 59.9153 20.5590 0.0000 -3.5197 0.0000
# 3 9.3049 20.5590 120.7346 0.0000 10.4264 0.0000
# 4 0.0000 0.0000 0.0000 21.5180 0.0000 0.4744
# 5 -1.7226 -3.5197 10.4264 0.0000 20.9962 0.0000
# 6 0.0000 0.0000 0.0000 0.4744 0.0000 25.4281
#
#
#
# Elastic Compliance Matrix: (Units=1/GPa)
#
#
# Indices 1 2 3 4 5 6 
#
# 1 0.014704 -0.000748 -0.001149 0.000000 0.001651 0.000000
# 2 -0.000748 0.018213 -0.003450 0.000000 0.004705 0.000000
# 3 -0.001149 -0.003450 0.009421 0.000000 -0.005351 0.000000
# 4 0.000000 0.000000 0.000000 0.046492 0.000000 -0.000867
# 5 0.001651 0.004705 -0.005351 0.000000 0.051209 0.000000
# 6 0.000000 0.000000 0.000000 -0.000867 0.000000 0.039343
#
#
# Mechanical properties :
#
#
# Convention : Reuss Voigt Hill
#
# Bulk Modulus (GPa) = 31.59976 35.51746 33.55861
# Shear Modulus (GPa) = 24.92236 27.91669 26.41952
#
# Velocity S-wave (km/s) = 3.44218 3.64310 3.54406
# Velocity P-wave (km/s) = 5.55169 5.88064 5.71853
#
# Compressibility (1/GPa) = 0.03164581
#
# Stress axis : x y z
#
# Youngs Moduli (GPa) = 68.00795 54.90443 106.14884
#
# Poissons Ratio (x) = 0.04105 0.12192
# Poissons Ratio (y) = 0.05084 0.36623
# Poissons Ratio (z) = 0.07811 0.18943
#
# Static dielectric constant tensor:
#      x y z
#    x 1.784960 0.000000 -0.005230 
#    y 0.000000 1.756930 0.000000 
#    z -0.005230 0.000000 1.745330 
# 
# From -- ./inp_files/26544.got.cif
#   From: 2010.05.17/outbox.cif.g08.bks.cpg/sg14_14_cif.got.tgz:26544.got - 2010.06.03 17:49:19.
