data_PCOD9243063
_publ_section_title
;
Structure prediction by ZEFSAII (Michael W. Deem and Ramdas Pophale) SiO2 
 PCOD9243063
Probable space group: P 21/C
;
_chemical_formula_sum "Si O2"
_cell_formula_units_Z 32
_cell_length_a 25.039365
_cell_length_b 5.700166
_cell_length_c 21.302423
_cell_angle_alpha 90.000000
_cell_angle_beta 153.295004
_cell_angle_gamma 90.000000
_cell_volume 1366.374935
_symmetry_space_group_name_H-M "P 21/C"
_symmetry_group_IT_number 14
_symmetry_cell_setting 'monoclinic'
loop_
_space_group_symop_operation_xyz
x,y,z
-x,1/2+y,1/2-z
-x,-y,-z
x,1/2-y,1/2+z
loop_
_atom_site_type_symbol
_atom_site_label
_atom_site_fract_x
_atom_site_fract_y
_atom_site_fract_z
Si Si1 0.514896 0.967107 0.941735
Si Si2 0.061593 0.811004 0.609100
Si Si3 0.071633 0.555715 0.382971
Si Si4 0.845088 0.464973 0.404915
Si Si5 0.737120 0.493352 0.593892
Si Si6 0.602334 0.963690 0.717021
Si Si7 0.185416 0.336434 0.934310
Si Si8 0.294749 0.722956 0.557207
O O1 0.460555 0.709519 0.869166
O O2 0.462419 0.212167 0.857191
O O3 0.649527 0.948695 0.058185
O O4 0.500000 0.000000 0.000000
O O5 0.149690 0.664515 0.655828
O O6 0.953249 0.648856 0.516870
O O7 0.138311 0.915720 0.745820
O O8 0.000000 0.000000 0.500000
O O9 0.112951 0.683269 0.489961
O O10 0.125357 0.295226 0.430764
O O11 0.153070 0.669275 0.414506
O O12 0.934357 0.574946 0.226349
O O13 0.717076 0.555124 0.291308
O O14 0.754279 0.693382 0.559539
O O15 0.676677 0.296631 0.485810
O O16 0.642378 0.042979 0.829849
O O17 0.288539 0.506234 0.068411
#
# Coordination Sequence:
#
# PCOD9243063 Si02
#       8
#     4   4   4   4   4   4   4   4
#     4  12  29  54  81 112 151 208 267 328 379 460
#     4  11  24  42  68 106 149 197 247 321 386 470
#     4  10  20  36  62 103 144 194 237 300 385 460
#     4  10  24  41  67 102 146 196 253 308 388 458
#     4  11  27  44  74 109 150 202 259 323 395 459
#     4  11  28  50  82 109 152 205 263 323 382 458
#     4  11  21  38  67 108 150 196 245 313 389 472
#     4  10  24  43  71 106 150 194 248 312 382 464
#
# _framework density 23.419635
#
# number of rings (size 3 to 8) (size 9 to 14) (size 15 to 20)
#    0.000    1.250    1.250    2.625   12.250    3.000 
#    0.000    0.000    0.000    0.000    0.000    0.000 
#    0.000    0.000    0.000    0.000    0.000    0.000 
#
# Total GULP energy -178271.068091 kJ/mol
# GULP energy per Si atom -5570.970878 kJ/mol
# Density = 2.336633 g / cm^3
# Si number density = 23.419635 Si / 1000 Ang^3
#
#
#
# Elastic Constant Matrix: (Units=GPa)
#
#
# Indices 1 2 3 4 5 6 
#
# 1 114.8841 21.3951 19.1940 0.0000 -1.9106 0.0000
# 2 21.3951 84.7029 40.6333 0.0000 -3.6134 0.0000
# 3 19.1940 40.6333 65.6283 0.0000 -8.3368 0.0000
# 4 0.0000 0.0000 0.0000 40.0798 0.0000 -4.0709
# 5 -1.9106 -3.6134 -8.3368 0.0000 36.8876 0.0000
# 6 0.0000 0.0000 0.0000 -4.0709 0.0000 14.4661
#
#
#
# Elastic Compliance Matrix: (Units=1/GPa)
#
#
# Indices 1 2 3 4 5 6 
#
# 1 0.009281 -0.001481 -0.001807 0.000000 -0.000073 0.000000
# 2 -0.001481 0.017049 -0.010214 0.000000 -0.000715 0.000000
# 3 -0.001807 -0.010214 0.022599 0.000000 0.004013 0.000000
# 4 0.000000 0.000000 0.000000 0.025684 0.000000 0.007228
# 5 -0.000073 -0.000715 0.004013 0.000000 0.027943 0.000000
# 6 0.000000 0.000000 0.000000 0.007228 0.000000 0.071161
#
#
# Mechanical properties :
#
#
# Convention : Reuss Voigt Hill
#
# Bulk Modulus (GPa) = 45.60567 47.51778 46.56172
# Shear Modulus (GPa) = 24.03516 30.55290 27.29403
#
# Velocity S-wave (km/s) = 3.20704 3.61582 3.41755
# Velocity P-wave (km/s) = 5.76446 6.14540 5.95798
#
# Compressibility (1/GPa) = 0.02192710
#
# Stress axis : x y z
#
# Youngs Moduli (GPa) = 107.74909 58.65415 44.24911
#
# Poissons Ratio (x) = 0.08684 0.07995
# Poissons Ratio (y) = 0.15953 0.45194
# Poissons Ratio (z) = 0.19469 0.59907
#
# Static dielectric constant tensor:
#      x y z
#    x 3.625300 0.000000 -0.263260 
#    y 0.000000 2.232010 0.000000 
#    z -0.263260 0.000000 1.934760 
# 
# From -- ./inp_files/70111.got.cif
#   From: 2010.05.17/outbox.cif.g08.bks.cpg/sg14_36_cif.got.tgz:70111.got - 2010.06.03 17:49:19.
