data_PCOD9243271
_publ_section_title
;
Structure prediction by ZEFSAII (Michael W. Deem and Ramdas Pophale) SiO2 
 PCOD9243271
Probable space group: P 21/C
;
_chemical_formula_sum "Si O2"
_cell_formula_units_Z 20
_cell_length_a 7.379679
_cell_length_b 16.758867
_cell_length_c 7.809614
_cell_angle_alpha 90.000000
_cell_angle_beta 53.941725
_cell_angle_gamma 90.000000
_cell_volume 780.814860
_symmetry_space_group_name_H-M "P 21/C"
_symmetry_group_IT_number 14
_symmetry_cell_setting 'monoclinic'
loop_
_space_group_symop_operation_xyz
x,y,z
-x,1/2+y,1/2-z
-x,-y,-z
x,1/2-y,1/2+z
loop_
_atom_site_type_symbol
_atom_site_label
_atom_site_fract_x
_atom_site_fract_y
_atom_site_fract_z
Si Si1 0.916630 0.342218 0.166364
Si Si2 0.589141 0.015740 0.743508
Si Si3 0.282101 0.081619 0.666207
Si Si4 0.454795 0.778283 0.628694
Si Si5 0.322260 0.151386 0.180460
O O1 0.736074 0.409672 0.219444
O O2 0.785951 0.259982 0.260183
O O3 0.053177 0.371430 0.257592
O O4 0.093192 0.338173 0.911757
O O5 0.342389 0.037904 0.807806
O O6 0.698694 0.979112 0.505269
O O7 0.622655 0.942081 0.855306
O O8 0.475424 0.148759 0.531663
O O9 0.641786 0.708058 0.500763
O O10 0.487445 0.813220 0.798714
#
# Coordination Sequence:
#
# PCOD9243271 Si02
#       5
#     4   4   4   4   4
#     4  10  20  37  60  82 113 153 189 234 290 337
#     4   9  18  36  59  81 114 150 189 236 283 338
#     4   9  19  35  56  84 113 150 190 231 286 343
#     4  10  21  36  57  86 117 146 190 238 281 340
#     4  10  22  38  58  87 115 151 194 236 285 341
#
# _framework density 25.614266000000001
#
# number of rings (size 3 to 8) (size 9 to 14) (size 15 to 20)
#    0.000    2.800    0.000    3.600    0.000    7.200 
#    0.000    5.000    0.000    0.000    0.000    2.800 
#    0.000    0.000    0.000    0.000    0.000    0.000 
#
# Total GULP energy -111902.185400 kJ/mol
# GULP energy per Si atom -5595.109270 kJ/mol
# Density = 2.555597 g / cm^3
# Si number density = 25.614266 Si / 1000 Ang^3
#
#
#
# Elastic Constant Matrix: (Units=GPa)
#
#
# Indices 1 2 3 4 5 6 
#
# 1 129.8109 42.1369 18.8153 0.0000 -7.0072 0.0000
# 2 42.1369 104.1436 9.9373 0.0000 8.4164 0.0000
# 3 18.8153 9.9373 66.2010 0.0000 -10.0428 0.0000
# 4 0.0000 0.0000 0.0000 32.5839 0.0000 -8.8153
# 5 -7.0072 8.4164 -10.0428 0.0000 39.7844 0.0000
# 6 0.0000 0.0000 0.0000 -8.8153 0.0000 60.2311
#
#
#
# Elastic Compliance Matrix: (Units=1/GPa)
#
#
# Indices 1 2 3 4 5 6 
#
# 1 0.009284 -0.003747 -0.001776 0.000000 0.001980 0.000000
# 2 -0.003747 0.011504 -0.001176 0.000000 -0.003391 0.000000
# 3 -0.001776 -0.001176 0.016405 0.000000 0.004077 0.000000
# 4 0.000000 0.000000 0.000000 0.031955 0.000000 0.004677
# 5 0.001980 -0.003391 0.004077 0.000000 0.027231 0.000000
# 6 0.000000 0.000000 0.000000 0.004677 0.000000 0.017287
#
#
# Mechanical properties :
#
#
# Convention : Reuss Voigt Hill
#
# Bulk Modulus (GPa) = 42.02479 49.10384 45.56432
# Shear Modulus (GPa) = 37.03788 41.80430 39.42109
#
# Velocity S-wave (km/s) = 3.80674 4.04427 3.92730
# Velocity P-wave (km/s) = 5.98031 6.40471 6.19614
#
# Compressibility (1/GPa) = 0.02379548
#
# Stress axis : x y z
#
# Youngs Moduli (GPa) = 107.71197 86.92333 60.95573
#
# Poissons Ratio (x) = 0.32569 0.10825
# Poissons Ratio (y) = 0.40358 0.07171
# Poissons Ratio (z) = 0.19129 0.10225
#
# Static dielectric constant tensor:
#      x y z
#    x 2.035020 0.000000 0.074030 
#    y 0.000000 2.075840 0.000000 
#    z 0.074030 0.000000 2.154100 
# 
# From -- ./inp_files/24427.got.cif
#   From: 2010.05.17/outbox.cif.g08.bks.cpg/sg14_13_cif.got.tgz:24427.got - 2010.06.03 17:49:19.
