data_PCOD9243086
_publ_section_title
;
Structure prediction by ZEFSAII (Michael W. Deem and Ramdas Pophale) SiO2 
 PCOD9243086
Probable space group: P 21/C
;
_chemical_formula_sum "Si O2"
_cell_formula_units_Z 32
_cell_length_a 9.240786
_cell_length_b 17.312571
_cell_length_c 21.207112
_cell_angle_alpha 90.000000
_cell_angle_beta 150.630937
_cell_angle_gamma 90.000000
_cell_volume 1663.918049
_symmetry_space_group_name_H-M "P 21/C"
_symmetry_group_IT_number 14
_symmetry_cell_setting 'monoclinic'
loop_
_space_group_symop_operation_xyz
x,y,z
-x,1/2+y,1/2-z
-x,-y,-z
x,1/2-y,1/2+z
loop_
_atom_site_type_symbol
_atom_site_label
_atom_site_fract_x
_atom_site_fract_y
_atom_site_fract_z
Si Si1 0.329617 0.560320 0.274120
Si Si2 0.660056 0.884611 0.779091
Si Si3 0.667525 0.525053 0.999934
Si Si4 0.715472 0.193777 0.999941
Si Si5 0.193117 0.856317 0.500071
Si Si6 0.455962 0.384609 0.278948
Si Si7 0.232925 0.939678 0.225748
Si Si8 0.563347 0.586075 0.499944
O O1 0.542044 0.601814 0.304570
O O2 0.396488 0.468645 0.288822
O O3 0.410544 0.589542 0.373869
O O4 0.978593 0.567939 0.129043
O O5 0.376663 0.852924 0.634011
O O6 0.943023 0.831087 0.877522
O O7 0.759042 0.968648 0.788976
O O8 0.744179 0.441975 0.999921
O O9 0.462004 0.567923 0.870787
O O10 0.500000 0.500000 0.000000
O O11 0.566345 0.147045 0.000008
O O12 0.695013 0.285729 0.999959
O O13 0.566534 0.168923 0.877321
O O14 0.840901 0.852942 0.366148
O O15 0.676105 0.398178 0.304546
O O16 0.914805 0.910438 0.125925
O O17 0.500000 0.500000 0.500000
#
# Coordination Sequence:
#
# PCOD9243086 Si02
#       8
#     4   4   4   4   4   4   4   4
#     4  10  20  36  62  92 115 146 203 254 294 330
#     4  10  20  38  62  87 114 154 201 251 288 348
#     4  10  21  37  65  90 116 151 198 255 297 349
#     4  12  23  37  61  84 125 166 193 237 304 367
#     4  10  23  39  61  85 115 158 204 237 303 362
#     4  10  20  38  62  87 114 154 201 251 288 348
#     4  10  20  36  62  92 115 146 203 254 294 330
#     4  12  21  35  58  95 126 155 196 245 291 358
#
# _framework density 19.231717
#
# number of rings (size 3 to 8) (size 9 to 14) (size 15 to 20)
#    0.000    1.500    2.500    3.000    3.500    5.000 
#    0.000    0.000   16.500    0.000    0.000    0.000 
#    0.000    0.000    0.000    0.000    0.000    0.000 
#
# Total GULP energy -178585.779493 kJ/mol
# GULP energy per Si atom -5580.805609 kJ/mol
# Density = 1.918795 g / cm^3
# Si number density = 19.231717 Si / 1000 Ang^3
#
#
#
# Elastic Constant Matrix: (Units=GPa)
#
#
# Indices 1 2 3 4 5 6 
#
# 1 103.4893 20.9513 61.8483 0.0000 -0.1281 0.0000
# 2 20.9513 51.3819 28.2861 0.0000 -0.0508 0.0000
# 3 61.8483 28.2861 152.5106 0.0000 -0.1947 0.0000
# 4 0.0000 0.0000 0.0000 3.2256 0.0000 0.0907
# 5 -0.1281 -0.0508 -0.1947 0.0000 30.5794 0.0000
# 6 0.0000 0.0000 0.0000 0.0907 0.0000 14.4589
#
#
#
# Elastic Compliance Matrix: (Units=1/GPa)
#
#
# Indices 1 2 3 4 5 6 
#
# 1 0.013079 -0.002688 -0.004805 0.000000 0.000020 0.000000
# 2 -0.002688 0.022227 -0.003033 0.000000 0.000006 0.000000
# 3 -0.004805 -0.003033 0.009068 0.000000 0.000033 0.000000
# 4 0.000000 0.000000 0.000000 0.310072 0.000000 -0.001944
# 5 0.000020 0.000006 0.000033 0.000000 0.032702 0.000000
# 6 0.000000 0.000000 0.000000 -0.001944 0.000000 0.069174
#
#
# Mechanical properties :
#
#
# Convention : Reuss Voigt Hill
#
# Bulk Modulus (GPa) = 42.87563 58.83925 50.85744
# Shear Modulus (GPa) = 10.30613 22.73918 16.52265
#
# Velocity S-wave (km/s) = 2.31745 3.44230 2.93428
# Velocity P-wave (km/s) = 5.43170 6.81620 6.16295
#
# Compressibility (1/GPa) = 0.02332327
#
# Stress axis : x y z
#
# Youngs Moduli (GPa) = 76.45948 44.98944 110.27554
#
# Poissons Ratio (x) = 0.12091 0.52992
# Poissons Ratio (y) = 0.20549 0.33442
# Poissons Ratio (z) = 0.36742 0.13644
#
# Static dielectric constant tensor:
#      x y z
#    x -0.277430 0.000000 -0.015770 
#    y 0.000000 1.604830 0.000000 
#    z -0.015770 0.000000 1.705040 
# 
# From -- ./inp_files/66039.got.cif
#   From: 2010.05.17/outbox.cif.g08.bks.cpg/sg14_34_cif.got.tgz:66039.got - 2010.06.03 17:49:19.
