data_PCOD9243724
_publ_section_title
;
Structure prediction by ZEFSAII (Michael W. Deem and Ramdas Pophale) SiO2 
 PCOD9243724
Probable space group: P 21/C
;
_chemical_formula_sum "Si O2"
_cell_formula_units_Z 24
_cell_length_a 24.560002
_cell_length_b 4.548802
_cell_length_c 7.792871
_cell_angle_alpha 90.000000
_cell_angle_beta 104.602215
_cell_angle_gamma 90.000000
_cell_volume 842.487375
_symmetry_space_group_name_H-M "P 21/C"
_symmetry_group_IT_number 14
_symmetry_cell_setting 'monoclinic'
loop_
_space_group_symop_operation_xyz
x,y,z
-x,1/2+y,1/2-z
-x,-y,-z
x,1/2-y,1/2+z
loop_
_atom_site_type_symbol
_atom_site_label
_atom_site_fract_x
_atom_site_fract_y
_atom_site_fract_z
Si Si1 0.500000 0.500000 0.500000
Si Si2 0.332516 0.492701 0.928789
Si Si3 0.750719 0.007980 0.137852
Si Si4 0.413673 0.099240 0.220992
Si Si5 0.000000 0.000000 0.500000
Si Si6 0.914530 0.078597 0.727748
Si Si7 0.169661 0.934627 0.078100
O O1 0.455509 0.272183 0.379684
O O2 0.545858 0.431411 0.377285
O O3 0.294699 0.756203 0.965961
O O4 0.374383 0.596482 0.811953
O O5 0.287383 0.254740 0.823979
O O6 0.371839 0.322010 0.092956
O O7 0.791315 0.193857 0.295085
O O8 0.789192 0.888388 0.013554
O O9 0.957162 0.917942 0.633549
O O10 0.953606 0.227084 0.384116
O O11 0.872851 0.273303 0.583312
O O12 0.871459 0.903989 0.818864
#
# Coordination Sequence:
#
# PCOD9243724 Si02
#       7
#     2   4   4   4   2   4   4
#     4  10  24  44  64  96 142 186 234 300 358 424
#     4  11  24  42  70 102 138 185 237 293 358 434
#     4  11  22  42  67  98 141 184 232 297 360 432
#     4  10  24  42  67 102 140 186 241 293 360 432
#     4  10  20  38  64  86 134 178 232 290 354 420
#     4   9  20  40  61  96 134 180 231 294 354 426
#     4   9  20  39  61  89 139 181 234 289 360 430
#
# _framework density 28.487074
#
# number of rings (size 3 to 8) (size 9 to 14) (size 15 to 20)
#    0.000    2.000    0.000    2.000    0.000   10.667 
#    0.000   25.000    0.000    0.000    0.000    0.000 
#    0.000    0.000    0.000    0.000    0.000    0.000 
#
# Total GULP energy -133624.576397 kJ/mol
# GULP energy per Si atom -5567.690683 kJ/mol
# Density = 2.842224 g / cm^3
# Si number density = 28.487074 Si / 1000 Ang^3
#
#
#
# Elastic Constant Matrix: (Units=GPa)
#
#
# Indices 1 2 3 4 5 6 
#
# 1 282.0794 48.0892 60.2246 0.0000 -59.1646 0.0000
# 2 48.0892 67.3166 28.6074 0.0000 27.8734 0.0000
# 3 60.2246 28.6074 85.0508 0.0000 29.2020 0.0000
# 4 0.0000 0.0000 0.0000 49.3962 0.0000 26.9379
# 5 -59.1646 27.8734 29.2020 0.0000 85.9591 0.0000
# 6 0.0000 0.0000 0.0000 26.9379 0.0000 30.9362
#
#
#
# Elastic Compliance Matrix: (Units=1/GPa)
#
#
# Indices 1 2 3 4 5 6 
#
# 1 0.008738 -0.007660 -0.007391 0.000000 0.011009 0.000000
# 2 -0.007660 0.025440 0.001709 0.000000 -0.014102 0.000000
# 3 -0.007391 0.001709 0.020777 0.000000 -0.012699 0.000000
# 4 0.000000 0.000000 0.000000 0.038551 0.000000 -0.033568
# 5 0.011009 -0.014102 -0.012699 0.000000 0.028097 0.000000
# 6 0.000000 0.000000 0.000000 -0.033568 0.000000 0.061554
#
#
# Mechanical properties :
#
#
# Convention : Reuss Voigt Hill
#
# Bulk Modulus (GPa) = 35.37192 78.69881 57.03536
# Shear Modulus (GPa) = 22.80360 53.09334 37.94847
#
# Velocity S-wave (km/s) = 2.83236 4.32182 3.65379
# Velocity P-wave (km/s) = 4.81042 7.25192 6.15347
#
# Compressibility (1/GPa) = 0.02827101
#
# Stress axis : x y z
#
# Youngs Moduli (GPa) = 114.44457 39.30846 48.13109
#
# Poissons Ratio (x) = 0.30109 0.35572
# Poissons Ratio (y) = 0.87660 -0.08224
# Poissons Ratio (z) = 0.84583 -0.06717
#
# Static dielectric constant tensor:
#      x y z
#    x 2.090810 0.000000 -0.064290 
#    y 0.000000 2.159460 0.000000 
#    z -0.064290 0.000000 2.225870 
# 
# From -- ./inp_files/19256.got.cif
#   From: 2010.05.17/outbox.cif.g08.bks.cpg/sg14_10_cif.got.tgz:19256.got - 2010.06.03 17:49:19.
