data_PCOD9243515
_publ_section_title
;
Structure prediction by ZEFSAII (Michael W. Deem and Ramdas Pophale) SiO2 
 PCOD9243515
Probable space group: P 21/C
;
_chemical_formula_sum "Si O2"
_cell_formula_units_Z 32
_cell_length_a 9.350897
_cell_length_b 24.126053
_cell_length_c 6.945560
_cell_angle_alpha 90.000000
_cell_angle_beta 57.394620
_cell_angle_gamma 90.000000
_cell_volume 1319.976216
_symmetry_space_group_name_H-M "P 21/C"
_symmetry_group_IT_number 14
_symmetry_cell_setting 'monoclinic'
loop_
_space_group_symop_operation_xyz
x,y,z
-x,1/2+y,1/2-z
-x,-y,-z
x,1/2-y,1/2+z
loop_
_atom_site_type_symbol
_atom_site_label
_atom_site_fract_x
_atom_site_fract_y
_atom_site_fract_z
Si Si1 0.715159 0.632499 0.788325
Si Si2 0.028197 0.065126 0.455327
Si Si3 0.715157 0.367501 0.288324
Si Si4 0.865448 0.747262 0.220929
Si Si5 0.971801 0.065126 0.044674
Si Si6 0.134553 0.747261 0.279072
Si Si7 0.663682 0.367604 0.866525
Si Si8 0.336316 0.132396 0.133474
O O1 0.770047 0.694239 0.803892
O O2 0.881841 0.594560 0.684939
O O3 0.680511 0.625960 0.585312
O O4 0.535728 0.623448 0.021243
O O5 0.881838 0.094560 0.684939
O O6 0.999999 0.078523 0.250000
O O7 0.217013 0.090000 0.337947
O O8 0.000000 0.000000 0.500000
O O9 0.770046 0.305760 0.303891
O O10 0.535726 0.376551 0.521243
O O11 0.680509 0.374039 0.085311
O O12 0.745570 0.693519 0.279560
O O13 0.082363 0.742348 0.066085
O O14 0.917638 0.757652 0.933916
O O15 0.782984 0.090000 0.162054
O O16 0.000000 0.000000 0.000000
O O17 0.254431 0.693519 0.220442
#
# Coordination Sequence:
#
# PCOD9243515 Si02
#       8
#     4   4   4   4   4   4   4   4
#     4  10  21  37  60  84 114 153 188 230 282 338
#     4  10  21  39  60  81 111 150 190 236 284 332
#     4  10  21  37  60  84 114 153 188 230 282 338
#     4  12  20  36  61  86 119 152 185 227 282 339
#     4  10  21  39  60  81 111 150 190 236 284 332
#     4  12  20  36  61  86 119 152 185 227 282 339
#     4  10  20  38  59  84 115 151 189 229 284 338
#     4  10  20  38  59  84 115 151 189 229 284 338
#
# _framework density 24.242858999999999
#
# number of rings (size 3 to 8) (size 9 to 14) (size 15 to 20)
#    0.000    1.500    5.000    1.500    0.000    2.000 
#    0.000    0.000    0.000    0.000    0.000    0.000 
#    0.000    0.000    0.000    0.000    0.000    0.000 
#
# Total GULP energy -178654.679130 kJ/mol
# GULP energy per Si atom -5582.958723 kJ/mol
# Density = 2.418768 g / cm^3
# Si number density = 24.242859 Si / 1000 Ang^3
#
#
#
# Elastic Constant Matrix: (Units=GPa)
#
#
# Indices 1 2 3 4 5 6 
#
# 1 141.3108 51.9234 101.5470 0.0000 -31.8079 0.0000
# 2 51.9234 158.5024 99.3958 0.0000 -68.7102 0.0000
# 3 101.5470 99.3958 266.5754 0.0000 -42.5100 0.0000
# 4 0.0000 0.0000 0.0000 19.8226 0.0000 11.0286
# 5 -31.8079 -68.7102 -42.5100 0.0000 77.9877 0.0000
# 6 0.0000 0.0000 0.0000 11.0286 0.0000 14.5480
#
#
#
# Elastic Compliance Matrix: (Units=1/GPa)
#
#
# Indices 1 2 3 4 5 6 
#
# 1 0.010088 -0.000303 -0.003413 0.000000 0.001987 0.000000
# 2 -0.000303 0.012174 -0.002993 0.000000 0.008971 0.000000
# 3 -0.003413 -0.002993 0.006051 0.000000 -0.000731 0.000000
# 4 0.000000 0.000000 0.000000 0.087245 0.000000 -0.066139
# 5 0.001987 0.008971 -0.000731 0.000000 0.021138 0.000000
# 6 0.000000 0.000000 0.000000 -0.066139 0.000000 0.118877
#
#
# Mechanical properties :
#
#
# Convention : Reuss Voigt Hill
#
# Bulk Modulus (GPa) = 67.13954 119.12454 93.13204
# Shear Modulus (GPa) = 18.25115 43.37315 30.81215
#
# Velocity S-wave (km/s) = 2.74678 4.23438 3.56895
# Velocity P-wave (km/s) = 6.14934 8.55285 7.44868
#
# Compressibility (1/GPa) = 0.01489435
#
# Stress axis : x y z
#
# Youngs Moduli (GPa) = 99.13026 82.14091 165.26501
#
# Poissons Ratio (x) = 0.02489 0.56403
# Poissons Ratio (y) = 0.03004 0.49469
# Poissons Ratio (z) = 0.33832 0.24587
#
# Static dielectric constant tensor:
#      x y z
#    x 2.111690 0.000000 0.176710 
#    y 0.000000 1.809180 0.000000 
#    z 0.176710 0.000000 2.046140 
# 
# From -- ./inp_files/14537.got.cif
#   From: 2010.05.17/outbox.cif.g08.bks.cpg/sg14_8_cif.got.tgz:14537.got - 2010.06.03 17:49:19.
