data_PCOD9243945
_publ_section_title
;
Structure prediction by ZEFSAII (Michael W. Deem and Ramdas Pophale) SiO2 
 PCOD9243945
Probable space group: P 21/C
;
_chemical_formula_sum "Si O2"
_cell_formula_units_Z 24
_cell_length_a 7.163725
_cell_length_b 13.572316
_cell_length_c 9.127929
_cell_angle_alpha 90.000000
_cell_angle_beta 73.771576
_cell_angle_gamma 90.000000
_cell_volume 852.131349
_symmetry_space_group_name_H-M "P 21/C"
_symmetry_group_IT_number 14
_symmetry_cell_setting 'monoclinic'
loop_
_space_group_symop_operation_xyz
x,y,z
-x,1/2+y,1/2-z
-x,-y,-z
x,1/2-y,1/2+z
loop_
_atom_site_type_symbol
_atom_site_label
_atom_site_fract_x
_atom_site_fract_y
_atom_site_fract_z
Si Si1 0.679331 0.026399 0.112329
Si Si2 0.280256 0.328952 0.945068
Si Si3 0.670408 0.045930 0.627832
Si Si4 0.368474 0.740087 0.323070
Si Si5 0.034917 0.529070 0.692692
Si Si6 0.033026 0.255688 0.262871
O O1 0.495097 0.968516 0.211024
O O2 0.620611 0.138399 0.090433
O O3 0.800577 0.984866 0.949575
O O4 0.198872 0.277248 0.106416
O O5 0.336982 0.443451 0.959002
O O6 0.453346 0.269789 0.828944
O O7 0.108140 0.324461 0.860465
O O8 0.637040 0.158043 0.584526
O O9 0.876592 0.042991 0.667283
O O10 0.168146 0.738816 0.275693
O O11 0.991337 0.640392 0.647744
O O12 0.835329 0.473167 0.711085
#
# Coordination Sequence:
#
# PCOD9243945 Si02
#       6
#     4   4   4   4   4   4
#     4  10  20  39  62  91 128 168 214 266 317 381
#     4  11  25  44  66  95 132 169 214 271 323 385
#     4  10  22  39  60  90 126 166 213 264 320 382
#     4  10  23  41  65  96 130 173 218 265 326 387
#     4  10  21  37  64  93 124 168 216 263 320 379
#     4  11  24  43  67  97 130 170 215 265 325 386
#
# _framework density 28.164670000000001
#
# number of rings (size 3 to 8) (size 9 to 14) (size 15 to 20)
#    0.000    1.667    0.000    3.500    0.000   13.333 
#    0.000   10.833    0.000    0.000    0.000    0.000 
#    0.000    0.000    0.000    0.000    0.000    0.000 
#
# Total GULP energy -134631.074519 kJ/mol
# GULP energy per Si atom -5609.628105 kJ/mol
# Density = 2.810057 g / cm^3
# Si number density = 28.164670 Si / 1000 Ang^3
#
#
#
# Elastic Constant Matrix: (Units=GPa)
#
#
# Indices 1 2 3 4 5 6 
#
# 1 114.9505 15.6882 22.8031 0.0000 -12.8727 0.0000
# 2 15.6882 153.0748 -8.0660 0.0000 2.4650 0.0000
# 3 22.8031 -8.0660 135.7431 0.0000 -17.0539 0.0000
# 4 0.0000 0.0000 0.0000 19.8096 0.0000 1.3381
# 5 -12.8727 2.4650 -17.0539 0.0000 36.3343 0.0000
# 6 0.0000 0.0000 0.0000 1.3381 0.0000 43.5346
#
#
#
# Elastic Compliance Matrix: (Units=1/GPa)
#
#
# Indices 1 2 3 4 5 6 
#
# 1 0.009417 -0.001078 -0.001294 0.000000 0.002802 0.000000
# 2 -0.001078 0.006679 0.000503 0.000000 -0.000599 0.000000
# 3 -0.001294 0.000503 0.008025 0.000000 0.003274 0.000000
# 4 0.000000 0.000000 0.000000 0.050586 0.000000 -0.001555
# 5 0.002802 -0.000599 0.003274 0.000000 0.030092 0.000000
# 6 0.000000 0.000000 0.000000 -0.001555 0.000000 0.023018
#
#
# Mechanical properties :
#
#
# Convention : Reuss Voigt Hill
#
# Bulk Modulus (GPa) = 49.06127 51.62433 50.34280
# Shear Modulus (GPa) = 36.13982 44.82524 40.48253
#
# Velocity S-wave (km/s) = 3.58601 3.99374 3.79535
# Velocity P-wave (km/s) = 5.88245 6.29570 6.09258
#
# Compressibility (1/GPa) = 0.02038268
#
# Stress axis : x y z
#
# Youngs Moduli (GPa) = 106.19011 149.71360 124.60337
#
# Poissons Ratio (x) = 0.16146 0.16123
# Poissons Ratio (y) = 0.11452 -0.06265
# Poissons Ratio (z) = 0.13741 -0.07527
#
# Static dielectric constant tensor:
#      x y z
#    x 2.182110 0.000000 0.014490 
#    y 0.000000 2.168360 0.000000 
#    z 0.014490 0.000000 2.143940 
# 
# From -- ./inp_files/39817.got.cif
#   From: 2010.05.17/outbox.cif.g08.bks.cpg/sg14_20_cif.got.tgz:39817.got - 2010.06.03 17:49:19.
