data_PCOD9243235
_publ_section_title
;
Structure prediction by ZEFSAII (Michael W. Deem and Ramdas Pophale) SiO2 
 PCOD9243235
Probable space group: P 21/C
;
_chemical_formula_sum "Si O2"
_cell_formula_units_Z 32
_cell_length_a 8.613521
_cell_length_b 7.795834
_cell_length_c 19.455274
_cell_angle_alpha 90.000000
_cell_angle_beta 98.331289
_cell_angle_gamma 90.000000
_cell_volume 1292.626645
_symmetry_space_group_name_H-M "P 21/C"
_symmetry_group_IT_number 14
_symmetry_cell_setting 'monoclinic'
loop_
_space_group_symop_operation_xyz
x,y,z
-x,1/2+y,1/2-z
-x,-y,-z
x,1/2-y,1/2+z
loop_
_atom_site_type_symbol
_atom_site_label
_atom_site_fract_x
_atom_site_fract_y
_atom_site_fract_z
Si Si1 0.142995 0.447822 0.820762
Si Si2 0.520340 0.665006 0.152140
Si Si3 0.102200 0.201531 0.699205
Si Si4 0.468261 0.799288 0.913094
Si Si5 0.684921 0.125543 0.962006
Si Si6 0.643282 0.018212 0.226085
Si Si7 0.022261 0.783212 0.565073
Si Si8 0.775847 0.629401 0.941087
O O1 0.320807 0.432526 0.857237
O O2 0.135785 0.371042 0.744029
O O3 0.075040 0.638216 0.820728
O O4 0.037832 0.323888 0.862439
O O5 0.417258 0.731272 0.083494
O O6 0.426515 0.565613 0.204692
O O7 0.571128 0.842795 0.192397
O O8 0.180398 0.209092 0.629973
O O9 0.179682 0.041584 0.746656
O O10 0.403098 0.838649 0.832863
O O11 0.586829 0.639659 0.931873
O O12 0.592029 0.951301 0.940644
O O13 0.328539 0.824196 0.958850
O O14 0.859149 0.128668 0.941869
O O15 0.867282 0.775223 0.508415
O O16 0.133379 0.946399 0.552752
#
# Coordination Sequence:
#
# PCOD9243235 Si02
#       8
#     4   4   4   4   4   4   4   4
#     4  10  21  37  58  84 115 151 189 233 285 340
#     4  10  20  37  59  83 114 150 188 235 286 336
#     4  10  22  38  57  84 116 148 189 234 281 339
#     4  10  21  38  59  85 114 147 191 238 285 337
#     4  10  22  38  58  85 115 149 191 237 285 338
#     4  10  21  37  59  84 113 147 189 237 283 336
#     4  10  22  39  59  84 116 153 191 231 281 340
#     4  10  21  40  59  83 117 150 190 235 280 338
#
# _framework density 24.755794999999999
#
# number of rings (size 3 to 8) (size 9 to 14) (size 15 to 20)
#    0.000    2.000    0.000    3.750    0.000    7.000 
#    0.000    6.250    0.000    0.000    0.000    0.000 
#    0.000    0.000    0.000    0.000    0.000    0.000 
#
# Total GULP energy -178994.870488 kJ/mol
# GULP energy per Si atom -5593.589703 kJ/mol
# Density = 2.469945 g / cm^3
# Si number density = 24.755795 Si / 1000 Ang^3
#
#
#
# Elastic Constant Matrix: (Units=GPa)
#
#
# Indices 1 2 3 4 5 6 
#
# 1 70.6703 11.7100 -12.2291 0.0000 6.1616 0.0000
# 2 11.7100 39.4522 -0.8823 0.0000 6.8372 0.0000
# 3 -12.2291 -0.8823 83.1643 0.0000 -0.7532 0.0000
# 4 0.0000 0.0000 0.0000 21.3544 0.0000 -2.6461
# 5 6.1616 6.8372 -0.7532 0.0000 16.2186 0.0000
# 6 0.0000 0.0000 0.0000 -2.6461 0.0000 32.7130
#
#
#
# Elastic Compliance Matrix: (Units=1/GPa)
#
#
# Indices 1 2 3 4 5 6 
#
# 1 0.015532 -0.003836 0.002205 0.000000 -0.004181 0.000000
# 2 -0.003836 0.028295 -0.000359 0.000000 -0.010488 0.000000
# 3 0.002205 -0.000359 0.012344 0.000000 -0.000113 0.000000
# 4 0.000000 0.000000 0.000000 0.047303 0.000000 0.003826
# 5 -0.004181 -0.010488 -0.000113 0.000000 0.067662 0.000000
# 6 0.000000 0.000000 0.000000 0.003826 0.000000 0.030878
#
#
# Mechanical properties :
#
#
# Convention : Reuss Voigt Hill
#
# Bulk Modulus (GPa) = 19.16016 21.16492 20.16254
# Shear Modulus (GPa) = 22.38225 27.03641 24.70933
#
# Velocity S-wave (km/s) = 3.01012 3.30832 3.16274
# Velocity P-wave (km/s) = 4.45394 4.81262 4.63675
#
# Compressibility (1/GPa) = 0.05219162
#
# Stress axis : x y z
#
# Youngs Moduli (GPa) = 64.38306 35.34159 81.01199
#
# Poissons Ratio (x) = 0.13558 -0.17866
# Poissons Ratio (y) = 0.24699 0.02908
# Poissons Ratio (z) = -0.14199 0.01268
#
# Static dielectric constant tensor:
#      x y z
#    x 1.968350 0.000000 0.033930 
#    y 0.000000 2.036640 0.000000 
#    z 0.033930 0.000000 1.897700 
# 
# From -- ./inp_files/64864.got.cif
#   From: 2010.05.17/outbox.cif.g08.bks.cpg/sg14_33_cif.got.tgz:64864.got - 2010.06.03 17:49:19.
