data_PCOD9243090
_publ_section_title
;
Structure prediction by ZEFSAII (Michael W. Deem and Ramdas Pophale) SiO2 
 PCOD9243090
Probable space group: P 21/C
;
_chemical_formula_sum "Si O2"
_cell_formula_units_Z 32
_cell_length_a 8.225349
_cell_length_b 12.460246
_cell_length_c 26.810390
_cell_angle_alpha 90.000000
_cell_angle_beta 29.478908
_cell_angle_gamma 90.000000
_cell_volume 1352.197744
_symmetry_space_group_name_H-M "P 21/C"
_symmetry_group_IT_number 14
_symmetry_cell_setting 'monoclinic'
loop_
_space_group_symop_operation_xyz
x,y,z
-x,1/2+y,1/2-z
-x,-y,-z
x,1/2-y,1/2+z
loop_
_atom_site_type_symbol
_atom_site_label
_atom_site_fract_x
_atom_site_fract_y
_atom_site_fract_z
Si Si1 0.462029 0.070437 0.803134
Si Si2 0.404982 0.132649 0.082339
Si Si3 0.756241 0.398071 0.123563
Si Si4 0.256345 0.224095 0.229021
Si Si5 0.368911 0.816010 0.145100
Si Si6 0.345373 0.396367 0.896703
Si Si7 0.002532 0.722942 0.097943
Si Si8 0.876626 0.924395 0.942149
O O1 0.729714 0.076255 0.688530
O O2 0.608574 0.097151 0.817426
O O3 0.217243 0.169446 0.853345
O O4 0.236144 0.964221 0.862790
O O5 0.310334 0.154399 0.164896
O O6 0.127834 0.111923 0.114272
O O7 0.624387 0.234802 0.006039
O O8 0.638013 0.027796 0.014539
O O9 0.593803 0.284432 0.153357
O O10 0.539520 0.488816 0.152937
O O11 0.122112 0.408661 0.005103
O O12 0.974534 0.313565 0.291877
O O13 0.102953 0.175036 0.320560
O O14 0.402097 0.698562 0.160798
O O15 0.687697 0.835827 0.025252
O O16 0.097146 0.354749 0.919952
#
# Coordination Sequence:
#
# PCOD9243090 Si02
#       8
#     4   4   4   4   4   4   4   4
#     4   9  21  38  59  87 121 158 210 252 304 378
#     4  10  20  36  62  92 120 166 198 260 321 364
#     4  10  22  42  62  86 124 175 205 253 312 383
#     4  11  22  37  67  95 128 164 210 261 315 372
#     4  11  23  38  60  97 123 156 209 266 310 374
#     4  10  22  41  63  84 126 172 207 248 318 376
#     4   9  18  40  58  89 123 159 208 252 304 373
#     4  10  21  38  62  86 127 157 205 265 319 359
#
# _framework density 23.665177
#
# number of rings (size 3 to 8) (size 9 to 14) (size 15 to 20)
#    0.000    2.000    2.500    0.375    3.500    2.000 
#    4.500    0.000    0.000    3.750    0.000    0.000 
#    0.000    0.000    0.000    0.000    0.000    0.000 
#
# Total GULP energy -178911.518654 kJ/mol
# GULP energy per Si atom -5590.984958 kJ/mol
# Density = 2.361131 g / cm^3
# Si number density = 23.665177 Si / 1000 Ang^3
#
#
#
# Elastic Constant Matrix: (Units=GPa)
#
#
# Indices 1 2 3 4 5 6 
#
# 1 50.7600 5.4760 32.6091 0.0000 10.9444 0.0000
# 2 5.4760 80.8105 15.6783 0.0000 7.0292 0.0000
# 3 32.6091 15.6783 82.6402 0.0000 30.5119 0.0000
# 4 0.0000 0.0000 0.0000 29.3214 0.0000 11.1939
# 5 10.9444 7.0292 30.5119 0.0000 38.0356 0.0000
# 6 0.0000 0.0000 0.0000 11.1939 0.0000 27.2190
#
#
#
# Elastic Compliance Matrix: (Units=1/GPa)
#
#
# Indices 1 2 3 4 5 6 
#
# 1 0.026425 0.000224 -0.010865 0.000000 0.001071 0.000000
# 2 0.000224 0.012859 -0.002311 0.000000 -0.000587 0.000000
# 3 -0.010865 -0.002311 0.022043 0.000000 -0.014129 0.000000
# 4 0.000000 0.000000 0.000000 0.040456 0.000000 -0.016638
# 5 0.001071 -0.000587 -0.014129 0.000000 0.037426 0.000000
# 6 0.000000 0.000000 0.000000 -0.016638 0.000000 0.043581
#
#
# Mechanical properties :
#
#
# Convention : Reuss Voigt Hill
#
# Bulk Modulus (GPa) = 28.23038 35.74862 31.98950
# Shear Modulus (GPa) = 22.67535 29.61170 26.14353
#
# Velocity S-wave (km/s) = 3.09880 3.54118 3.32735
# Velocity P-wave (km/s) = 4.97578 5.64435 5.32058
#
# Compressibility (1/GPa) = 0.03542283
#
# Stress axis : x y z
#
# Youngs Moduli (GPa) = 37.84233 77.76704 45.36539
#
# Poissons Ratio (x) = -0.01743 0.49290
# Poissons Ratio (y) = -0.00848 0.10486
# Poissons Ratio (z) = 0.41116 0.17975
#
# Static dielectric constant tensor:
#      x y z
#    x 1.861910 0.000000 0.002040 
#    y 0.000000 1.961560 0.000000 
#    z 0.002040 0.000000 1.876420 
# 
# From -- ./inp_files/76729.got.cif
#   From: 2010.05.17/outbox.cif.g08.bks.cpg/sg14_39_cif.got.tgz:76729.got - 2010.06.03 17:49:19.
