data_PCOD9243559
_publ_section_title
;
Structure prediction by ZEFSAII (Michael W. Deem and Ramdas Pophale) SiO2 
 PCOD9243559
Probable space group: P 21/C
;
_chemical_formula_sum "Si O2"
_cell_formula_units_Z 26
_cell_length_a 5.300293
_cell_length_b 27.685182
_cell_length_c 6.841909
_cell_angle_alpha 90.000000
_cell_angle_beta 99.017403
_cell_angle_gamma 90.000000
_cell_volume 991.570433
_symmetry_space_group_name_H-M "P 21/C"
_symmetry_group_IT_number 14
_symmetry_cell_setting 'monoclinic'
loop_
_space_group_symop_operation_xyz
x,y,z
-x,1/2+y,1/2-z
-x,-y,-z
x,1/2-y,1/2+z
loop_
_atom_site_type_symbol
_atom_site_label
_atom_site_fract_x
_atom_site_fract_y
_atom_site_fract_z
Si Si1 0.096444 0.795928 0.156055
Si Si2 0.717391 0.038519 0.203840
Si Si3 0.588382 0.450047 0.237867
Si Si4 0.978309 0.183951 0.306410
Si Si5 0.000000 0.000000 0.500000
Si Si6 0.532803 0.866260 0.739622
Si Si7 0.395239 0.343988 0.288163
O O1 0.020275 0.740052 0.139094
O O2 0.893322 0.824527 0.264970
O O3 0.392446 0.804238 0.244587
O O4 0.069010 0.816025 0.934219
O O5 0.518653 0.077003 0.257149
O O6 0.662374 0.985796 0.300850
O O7 0.695931 0.039340 0.969666
O O8 0.996845 0.042938 0.323249
O O9 0.808366 0.464435 0.116751
O O10 0.486305 0.395688 0.216226
O O11 0.241738 0.155755 0.359330
O O12 0.732198 0.157345 0.358015
O O13 0.579872 0.851923 0.972588
#
# Coordination Sequence:
#
# PCOD9243559 Si02
#       7
#     4   4   4   4   2   4   4
#     4  10  20  38  60  87 120 157 206 263 323 387
#     4  10  23  43  66  92 131 180 220 268 336 394
#     4  10  23  43  66  92 131 180 220 268 336 394
#     4  10  20  38  60  87 120 157 206 263 323 387
#     4  12  24  40  64 100 136 160 228 284 318 398
#     4   9  20  38  62  86 120 166 212 258 319 396
#     4   9  20  38  62  86 120 166 212 258 319 396
#
# _framework density 26.221032000000001
#
# number of rings (size 3 to 8) (size 9 to 14) (size 15 to 20)
#    0.000    2.154    0.000    1.846    4.308    0.000 
#    5.538    0.000    0.000    0.000    0.000    0.000 
#    0.000    0.000    0.000    0.000    0.000    0.000 
#
# Total GULP energy -145219.557808 kJ/mol
# GULP energy per Si atom -5585.367608 kJ/mol
# Density = 2.616135 g / cm^3
# Si number density = 26.221032 Si / 1000 Ang^3
#
#
#
# Elastic Constant Matrix: (Units=GPa)
#
#
# Indices 1 2 3 4 5 6 
#
# 1 134.2494 38.0566 20.4546 0.0000 -9.0549 0.0000
# 2 38.0566 100.2714 9.6047 0.0000 -8.9975 0.0000
# 3 20.4546 9.6047 107.2473 0.0000 -3.7411 0.0000
# 4 0.0000 0.0000 0.0000 28.5906 0.0000 -5.8808
# 5 -9.0549 -8.9975 -3.7411 0.0000 24.8750 0.0000
# 6 0.0000 0.0000 0.0000 -5.8808 0.0000 46.0878
#
#
#
# Elastic Compliance Matrix: (Units=1/GPa)
#
#
# Indices 1 2 3 4 5 6 
#
# 1 0.008619 -0.002978 -0.001312 0.000000 0.001863 0.000000
# 2 -0.002978 0.011405 -0.000349 0.000000 0.002989 0.000000
# 3 -0.001312 -0.000349 0.009635 0.000000 0.000845 0.000000
# 4 0.000000 0.000000 0.000000 0.035919 0.000000 0.004583
# 5 0.001863 0.002989 0.000845 0.000000 0.042087 0.000000
# 6 0.000000 0.000000 0.000000 0.004583 0.000000 0.022283
#
#
# Mechanical properties :
#
#
# Convention : Reuss Voigt Hill
#
# Bulk Modulus (GPa) = 49.06798 53.11110 51.08954
# Shear Modulus (GPa) = 34.24189 38.15417 36.19803
#
# Velocity S-wave (km/s) = 3.61764 3.81871 3.71953
# Velocity P-wave (km/s) = 6.01694 6.30417 6.16223
#
# Compressibility (1/GPa) = 0.02037989
#
# Stress axis : x y z
#
# Youngs Moduli (GPa) = 116.02761 87.68169 103.78570
#
# Poissons Ratio (x) = 0.26114 0.13618
# Poissons Ratio (y) = 0.34556 0.03623
# Poissons Ratio (z) = 0.15224 0.03061
#
# Static dielectric constant tensor:
#      x y z
#    x -1.660630 0.000000 -1.755720 
#    y 0.000000 1.977060 0.000000 
#    z -1.755720 0.000000 1.225720 
# 
# From -- ./inp_files/6440.got.cif
#   From: 2010.05.17/outbox.cif.g08.bks.cpg/sg14_4_cif.got.tgz:6440.got - 2010.06.03 17:49:19.
