data_PCOD9243975
_publ_section_title
;
Structure prediction by ZEFSAII (Michael W. Deem and Ramdas Pophale) SiO2 
 PCOD9243975
Probable space group: P 21/C
;
_chemical_formula_sum "Si O2"
_cell_formula_units_Z 32
_cell_length_a 16.756635
_cell_length_b 8.797226
_cell_length_c 16.145747
_cell_angle_alpha 90.000000
_cell_angle_beta 150.127248
_cell_angle_gamma 90.000000
_cell_volume 1185.457006
_symmetry_space_group_name_H-M "P 21/C"
_symmetry_group_IT_number 14
_symmetry_cell_setting 'monoclinic'
loop_
_space_group_symop_operation_xyz
x,y,z
-x,1/2+y,1/2-z
-x,-y,-z
x,1/2-y,1/2+z
loop_
_atom_site_type_symbol
_atom_site_label
_atom_site_fract_x
_atom_site_fract_y
_atom_site_fract_z
Si Si1 0.133053 0.058309 0.397013
Si Si2 0.678232 0.832146 0.966719
Si Si3 0.400656 0.858581 0.606844
Si Si4 0.400710 0.816143 0.949349
Si Si5 0.961330 0.177369 0.399111
Si Si6 0.652256 0.023892 0.710097
Si Si7 0.075836 0.999437 0.930748
Si Si8 0.745131 0.697448 0.719195
O O1 0.283153 0.169781 0.539970
O O2 0.027039 0.080865 0.380825
O O3 0.217422 0.899497 0.458696
O O4 0.045223 0.098031 0.232107
O O5 0.801134 0.936579 0.027298
O O6 0.720721 0.828744 0.100290
O O7 0.494779 0.856187 0.777676
O O8 0.388281 0.712292 0.536832
O O9 0.514221 0.969482 0.650944
O O10 0.224708 0.866017 0.760561
O O11 0.407413 0.655005 0.904066
O O12 0.581068 0.879868 0.105608
O O13 0.986285 0.354922 0.391400
O O14 0.085890 0.156516 0.586562
O O15 0.721198 0.875107 0.725029
O O16 0.808830 0.082083 0.900756
#
# Coordination Sequence:
#
# PCOD9243975 Si02
#       8
#     4   4   4   4   4   4   4   4
#     4  11  20  40  62  86 127 164 197 266 317 349
#     4  10  22  40  60  93 122 164 208 252 311 374
#     4  10  20  39  63  89 125 157 210 257 303 377
#     4  11  19  37  61  93 121 153 204 261 320 361
#     4  10  23  38  59  91 122 161 206 250 310 379
#     4   9  19  34  62  97 116 153 200 263 329 360
#     4   9  20  38  59  92 123 153 205 257 303 379
#     4  10  21  39  59  86 130 159 199 262 310 362
#
# _framework density 26.99381
#
# number of rings (size 3 to 8) (size 9 to 14) (size 15 to 20)
#    0.000    2.000    1.250    5.250    1.750    1.000 
#   13.500    1.250    0.000    0.000    0.000    0.000 
#    0.000    0.000    0.000    0.000    0.000    0.000 
#
# Total GULP energy -179039.372755 kJ/mol
# GULP energy per Si atom -5594.980399 kJ/mol
# Density = 2.693237 g / cm^3
# Si number density = 26.993810 Si / 1000 Ang^3
#
#
#
# Elastic Constant Matrix: (Units=GPa)
#
#
# Indices 1 2 3 4 5 6 
#
# 1 110.6580 29.4739 61.8423 0.0000 5.6036 0.0000
# 2 29.4739 22.0407 30.5218 0.0000 7.4545 0.0000
# 3 61.8423 30.5218 253.5103 0.0000 1.8720 0.0000
# 4 0.0000 0.0000 0.0000 41.9517 0.0000 6.5143
# 5 5.6036 7.4545 1.8720 0.0000 47.4736 0.0000
# 6 0.0000 0.0000 0.0000 6.5143 0.0000 29.6236
#
#
#
# Elastic Compliance Matrix: (Units=1/GPa)
#
#
# Indices 1 2 3 4 5 6 
#
# 1 0.014520 -0.017866 -0.001399 0.000000 0.001147 0.000000
# 2 -0.017866 0.079905 -0.005186 0.000000 -0.010234 0.000000
# 3 -0.001399 -0.005186 0.004905 0.000000 0.000786 0.000000
# 4 0.000000 0.000000 0.000000 0.024680 0.000000 -0.005427
# 5 0.001147 -0.010234 0.000786 0.000000 0.022505 0.000000
# 6 0.000000 0.000000 0.000000 -0.005427 0.000000 0.034950
#
#
# Mechanical properties :
#
#
# Convention : Reuss Voigt Hill
#
# Bulk Modulus (GPa) = 19.83125 69.98723 44.90924
# Shear Modulus (GPa) = 20.22844 41.43450 30.83147
#
# Velocity S-wave (km/s) = 2.74044 3.92211 3.38326
# Velocity P-wave (km/s) = 4.16844 6.81865 5.65110
#
# Compressibility (1/GPa) = 0.05042546
#
# Stress axis : x y z
#
# Youngs Moduli (GPa) = 68.87287 12.51482 203.88983
#
# Poissons Ratio (x) = 0.22359 0.28532
# Poissons Ratio (y) = 1.23049 1.05746
# Poissons Ratio (z) = 0.09638 0.06491
#
# Static dielectric constant tensor:
#      x y z
#    x 2.099600 0.000000 0.043720 
#    y 0.000000 2.300260 0.000000 
#    z 0.043720 0.000000 2.074550 
# 
# From -- ./inp_files/49030.got.cif
#   From: 2010.05.17/outbox.cif.g08.bks.cpg/sg14_25_cif.got.tgz:49030.got - 2010.06.03 17:49:19.
