data_PCOD9243457
_publ_section_title
;
Structure prediction by ZEFSAII (Michael W. Deem and Ramdas Pophale) SiO2 
 PCOD9243457
Probable space group: P 21/C
;
_chemical_formula_sum "Si O2"
_cell_formula_units_Z 24
_cell_length_a 9.559968
_cell_length_b 13.965103
_cell_length_c 14.580345
_cell_angle_alpha 90.000000
_cell_angle_beta 152.616463
_cell_angle_gamma 90.000000
_cell_volume 895.311101
_symmetry_space_group_name_H-M "P 21/C"
_symmetry_group_IT_number 14
_symmetry_cell_setting 'monoclinic'
loop_
_space_group_symop_operation_xyz
x,y,z
-x,1/2+y,1/2-z
-x,-y,-z
x,1/2-y,1/2+z
loop_
_atom_site_type_symbol
_atom_site_label
_atom_site_fract_x
_atom_site_fract_y
_atom_site_fract_z
Si Si1 0.114680 0.120233 0.163680
Si Si2 0.741302 0.821008 0.191143
Si Si3 0.434910 0.116362 0.709538
Si Si4 0.662016 0.252968 0.201685
Si Si5 0.017264 0.430478 0.322428
Si Si6 0.590808 0.089754 0.284835
O O1 0.089448 0.219486 0.202452
O O2 0.395458 0.127977 0.256988
O O3 0.150348 0.028929 0.250693
O O4 0.805750 0.103823 0.926410
O O5 0.635063 0.849054 0.229377
O O6 0.937393 0.903569 0.256925
O O7 0.468234 0.801732 0.961798
O O8 0.395931 0.192352 0.605177
O O9 0.284895 0.012693 0.610787
O O10 0.862108 0.337704 0.276898
O O11 0.779029 0.174640 0.344845
O O12 0.345267 0.437314 0.562821
#
# Coordination Sequence:
#
# PCOD9243457 Si02
#       6
#     4   4   4   4   4   4
#     4  11  20  39  63  84 117 163 192 235 299 348
#     4  11  25  36  60  94 119 149 196 252 288 341
#     4  11  21  40  62  85 116 157 203 233 289 354
#     4  11  21  38  61  88 116 152 197 244 288 344
#     4  10  21  39  60  86 118 155 199 237 287 354
#     4  10  20  37  66  84 113 161 199 234 286 355
#
# _framework density 26.806325999999999
#
# number of rings (size 3 to 8) (size 9 to 14) (size 15 to 20)
#    0.000    1.333    5.000    2.000    0.000    8.000 
#    0.000    0.000    0.000    4.000    0.000    0.000 
#    0.000    0.000    0.000    0.000    0.000    0.000 
#
# Total GULP energy -134431.347049 kJ/mol
# GULP energy per Si atom -5601.306127 kJ/mol
# Density = 2.674531 g / cm^3
# Si number density = 26.806326 Si / 1000 Ang^3
#
#
#
# Elastic Constant Matrix: (Units=GPa)
#
#
# Indices 1 2 3 4 5 6 
#
# 1 139.0620 43.2960 24.0433 0.0000 -13.3769 0.0000
# 2 43.2960 124.9016 21.2016 0.0000 -18.9034 0.0000
# 3 24.0433 21.2016 60.0013 0.0000 -10.3206 0.0000
# 4 0.0000 0.0000 0.0000 35.7532 0.0000 -5.7759
# 5 -13.3769 -18.9034 -10.3206 0.0000 22.0709 0.0000
# 6 0.0000 0.0000 0.0000 -5.7759 0.0000 39.6702
#
#
#
# Elastic Compliance Matrix: (Units=1/GPa)
#
#
# Indices 1 2 3 4 5 6 
#
# 1 0.008482 -0.002230 -0.002235 0.000000 0.002186 0.000000
# 2 -0.002230 0.010026 -0.001527 0.000000 0.006521 0.000000
# 3 -0.002235 -0.001527 0.019187 0.000000 0.006309 0.000000
# 4 0.000000 0.000000 0.000000 0.028643 0.000000 0.004170
# 5 0.002186 0.006521 0.006309 0.000000 0.055169 0.000000
# 6 0.000000 0.000000 0.000000 0.004170 0.000000 0.025815
#
#
# Mechanical properties :
#
#
# Convention : Reuss Voigt Hill
#
# Bulk Modulus (GPa) = 38.89561 55.67186 47.28373
# Shear Modulus (GPa) = 29.78394 35.19379 32.48887
#
# Velocity S-wave (km/s) = 3.33690 3.62732 3.48513
# Velocity P-wave (km/s) = 5.42106 6.19326 5.81998
#
# Compressibility (1/GPa) = 0.02570984
#
# Stress axis : x y z
#
# Youngs Moduli (GPa) = 117.89662 99.74565 52.11931
#
# Poissons Ratio (x) = 0.22244 0.11648
# Poissons Ratio (y) = 0.26291 0.07960
# Poissons Ratio (z) = 0.26349 0.15234
#
# Static dielectric constant tensor:
#      x y z
#    x 2.074890 0.000000 0.070690 
#    y 0.000000 2.163210 0.000000 
#    z 0.070690 0.000000 2.151040 
# 
# From -- ./inp_files/35351.got.cif
#   From: 2010.05.17/outbox.cif.g08.bks.cpg/sg14_18_cif.got.tgz:35351.got - 2010.06.03 17:49:19.
