data_PCOD9243684
_publ_section_title
;
Structure prediction by ZEFSAII (Michael W. Deem and Ramdas Pophale) SiO2 
 PCOD9243684
Probable space group: P 21/C
;
_chemical_formula_sum "Si O2"
_cell_formula_units_Z 32
_cell_length_a 12.713667
_cell_length_b 17.331144
_cell_length_c 9.221737
_cell_angle_alpha 90.000000
_cell_angle_beta 56.851649
_cell_angle_gamma 90.000000
_cell_volume 1701.256818
_symmetry_space_group_name_H-M "P 21/C"
_symmetry_group_IT_number 14
_symmetry_cell_setting 'monoclinic'
loop_
_space_group_symop_operation_xyz
x,y,z
-x,1/2+y,1/2-z
-x,-y,-z
x,1/2-y,1/2+z
loop_
_atom_site_type_symbol
_atom_site_label
_atom_site_fract_x
_atom_site_fract_y
_atom_site_fract_z
Si Si1 0.161958 0.820499 0.841279
Si Si2 0.858632 0.333105 0.301827
Si Si3 0.659479 0.429080 0.970884
Si Si4 0.911439 0.748026 0.473375
Si Si5 0.596065 0.605501 0.992464
Si Si6 0.317332 0.555625 0.706844
Si Si7 0.566434 0.609689 0.355898
Si Si8 0.261982 0.238957 0.145065
O O1 0.203046 0.736972 0.745519
O O2 0.235589 0.885879 0.700992
O O3 0.013175 0.819389 0.916699
O O4 0.175462 0.825238 0.003857
O O5 0.808015 0.412314 0.273611
O O6 0.006725 0.315188 0.166031
O O7 0.656551 0.520566 0.941156
O O8 0.525180 0.396434 0.019346
O O9 0.677512 0.419063 0.129110
O O10 0.787860 0.725761 0.478859
O O11 0.861346 0.775212 0.665140
O O12 0.690295 0.673538 0.880973
O O13 0.554454 0.618653 0.191465
O O14 0.433439 0.591476 0.529383
O O15 0.342556 0.464030 0.686176
O O16 0.629574 0.683073 0.382334
#
# Coordination Sequence:
#
# PCOD9243684 Si02
#       8
#     4   4   4   4   4   4   4   4
#     4  10  20  38  63  85 117 156 195 248 289 343
#     4  10  20  38  63  85 118 154 197 248 287 344
#     4  10  22  40  62  91 119 154 199 246 301 348
#     4  10  22  39  60  85 121 155 204 242 283 356
#     4  10  23  41  61  88 125 155 194 250 297 358
#     4  10  22  40  62  91 118 155 200 245 300 348
#     4  10  23  41  61  88 124 156 196 247 296 362
#     4  12  22  41  62  85 119 161 194 243 301 346
#
# _framework density 18.809622999999998
#
# number of rings (size 3 to 8) (size 9 to 14) (size 15 to 20)
#    0.750    1.000    2.500    1.500    5.250    1.000 
#    0.000    2.500    0.000    0.000    0.000    0.000 
#    0.000    0.000    0.000    0.000    0.000    0.000 
#
# Total GULP energy -178404.293634 kJ/mol
# GULP energy per Si atom -5575.134176 kJ/mol
# Density = 1.876681 g / cm^3
# Si number density = 18.809623 Si / 1000 Ang^3
#
#
#
# Elastic Constant Matrix: (Units=GPa)
#
#
# Indices 1 2 3 4 5 6 
#
# 1 38.7731 18.0955 -0.2240 0.0000 14.6353 0.0000
# 2 18.0955 37.5464 22.2299 0.0000 4.7997 0.0000
# 3 -0.2240 22.2299 74.6976 0.0000 3.5110 0.0000
# 4 0.0000 0.0000 0.0000 5.8816 0.0000 34.7552
# 5 14.6353 4.7997 3.5110 0.0000 26.3763 0.0000
# 6 0.0000 0.0000 0.0000 34.7552 0.0000 -31.7338
#
#
#
# Elastic Compliance Matrix: (Units=1/GPa)
#
#
# Indices 1 2 3 4 5 6 
#
# 1 0.045252 -0.023918 0.008281 0.000000 -0.021859 0.000000
# 2 -0.023918 0.045544 -0.013947 0.000000 0.006840 0.000000
# 3 0.008281 -0.013947 0.017771 0.000000 -0.004422 0.000000
# 4 0.000000 0.000000 0.000000 0.022755 0.000000 0.024922
# 5 -0.021859 0.006840 -0.004422 0.000000 0.049386 0.000000
# 6 0.000000 0.000000 0.000000 0.024922 0.000000 -0.004217
#
#
# Mechanical properties :
#
#
# Convention : Reuss Voigt Hill
#
# Bulk Modulus (GPa) = 20.24321 25.69108 22.96714
# Shear Modulus (GPa) = 19.83144 7.49920 13.66532
#
# Velocity S-wave (km/s) = 3.25056 1.99889 2.69830
# Velocity P-wave (km/s) = 4.98735 4.36068 4.68451
#
# Compressibility (1/GPa) = 0.04939928
#
# Stress axis : x y z
#
# Youngs Moduli (GPa) = 22.09827 21.95672 56.27260
#
# Poissons Ratio (x) = 0.52516 -0.46600
# Poissons Ratio (y) = 0.52855 0.78484
# Poissons Ratio (z) = -0.18300 0.30623
#
# Static dielectric constant tensor:
#      x y z
#    x 1.650140 0.000000 0.001840 
#    y 0.000000 1.634940 0.000000 
#    z 0.001840 0.000000 1.645950 
# 
# From -- ./inp_files/13709.got.cif
#   From: 2010.05.17/outbox.cif.g08.bks.cpg/sg14_7_cif.got.tgz:13709.got - 2010.06.03 17:49:19.
