data_PCOD9243417
_publ_section_title
;
Structure prediction by ZEFSAII (Michael W. Deem and Ramdas Pophale) SiO2 
 PCOD9243417
Probable space group: P 21/C
;
_chemical_formula_sum "Si O2"
_cell_formula_units_Z 32
_cell_length_a 12.410975
_cell_length_b 19.869351
_cell_length_c 9.724870
_cell_angle_alpha 90.000000
_cell_angle_beta 134.804529
_cell_angle_gamma 90.000000
_cell_volume 1701.511899
_symmetry_space_group_name_H-M "P 21/C"
_symmetry_group_IT_number 14
_symmetry_cell_setting 'monoclinic'
loop_
_space_group_symop_operation_xyz
x,y,z
-x,1/2+y,1/2-z
-x,-y,-z
x,1/2-y,1/2+z
loop_
_atom_site_type_symbol
_atom_site_label
_atom_site_fract_x
_atom_site_fract_y
_atom_site_fract_z
Si Si1 0.631335 0.995470 0.228280
Si Si2 0.263247 0.876471 0.518617
Si Si3 0.989467 0.701064 0.878101
Si Si4 0.938296 0.009768 0.792015
Si Si5 0.603832 0.641909 0.241745
Si Si6 0.802567 0.931979 0.142494
Si Si7 0.318080 0.096953 0.496502
Si Si8 0.185933 0.227399 0.506253
O O1 0.755209 0.955552 0.250665
O O2 0.583375 0.953892 0.320837
O O3 0.694767 0.067468 0.329722
O O4 0.500000 0.000000 0.000000
O O5 0.161581 0.817562 0.493860
O O6 0.163276 0.921933 0.321233
O O7 0.423774 0.850494 0.605146
O O8 0.899057 0.634898 0.750513
O O9 0.915203 0.758315 0.718471
O O10 0.936547 0.715585 0.984194
O O11 0.083877 0.015606 0.825100
O O12 0.834760 0.946634 0.659958
O O13 0.000000 0.000000 0.000000
O O14 0.670311 0.589067 0.415333
O O15 0.626458 0.615639 0.106236
O O16 0.702833 0.710172 0.353574
O O17 0.287279 0.163187 0.558658
#
# Coordination Sequence:
#
# PCOD9243417 Si02
#       8
#     4   4   4   4   4   4   4   4
#     4  11  22  38  62  95 125 159 202 255 319 367
#     4  10  24  39  62  93 126 158 202 262 316 357
#     4  10  22  41  63  88 119 159 211 254 299 366
#     4  10  21  37  63  93 125 160 203 255 308 371
#     4  11  22  42  63  87 129 165 206 255 308 370
#     4  10  20  37  64  87 125 163 199 255 311 362
#     4  11  23  38  65  92 119 166 215 243 312 377
#     4  11  22  41  65  86 117 169 213 250 301 367
#
# _framework density 18.806802999999999
#
# number of rings (size 3 to 8) (size 9 to 14) (size 15 to 20)
#    0.000    1.500    5.000    0.000    1.750    4.500 
#    2.250    0.000    0.000    0.000    0.000    0.000 
#    0.000    0.000    0.000    0.000    0.000    0.000 
#
# Total GULP energy -178375.738162 kJ/mol
# GULP energy per Si atom -5574.241818 kJ/mol
# Density = 1.876400 g / cm^3
# Si number density = 18.806803 Si / 1000 Ang^3
#
#
#
# Elastic Constant Matrix: (Units=GPa)
#
#
# Indices 1 2 3 4 5 6 
#
# 1 94.2437 9.5067 3.4251 0.0000 4.2037 0.0000
# 2 9.5067 45.0808 5.1316 0.0000 4.3345 0.0000
# 3 3.4251 5.1316 60.6882 0.0000 -4.3096 0.0000
# 4 0.0000 0.0000 0.0000 13.7145 0.0000 -6.2479
# 5 4.2037 4.3345 -4.3096 0.0000 37.2370 0.0000
# 6 0.0000 0.0000 0.0000 -6.2479 0.0000 31.5353
#
#
#
# Elastic Compliance Matrix: (Units=1/GPa)
#
#
# Indices 1 2 3 4 5 6 
#
# 1 0.010891 -0.002139 -0.000508 0.000000 -0.001039 0.000000
# 2 -0.002139 0.023122 -0.002025 0.000000 -0.002684 0.000000
# 3 -0.000508 -0.002025 0.016837 0.000000 0.002242 0.000000
# 4 0.000000 0.000000 0.000000 0.080150 0.000000 0.015880
# 5 -0.001039 -0.002684 0.002242 0.000000 0.027544 0.000000
# 6 0.000000 0.000000 0.000000 0.015880 0.000000 0.034857
#
#
# Mechanical properties :
#
#
# Convention : Reuss Voigt Hill
#
# Bulk Modulus (GPa) = 24.09246 26.23772 25.16509
# Shear Modulus (GPa) = 23.08619 28.62732 25.85676
#
# Velocity S-wave (km/s) = 3.50743 3.90574 3.71194
# Velocity P-wave (km/s) = 5.40750 5.85843 5.63748
#
# Compressibility (1/GPa) = 0.04150676
#
# Stress axis : x y z
#
# Youngs Moduli (GPa) = 91.81578 43.24871 59.39402
#
# Poissons Ratio (x) = 0.09251 0.03015
# Poissons Ratio (y) = 0.19640 0.12027
# Poissons Ratio (z) = 0.04661 0.08758
#
# Static dielectric constant tensor:
#      x y z
#    x 1.705460 0.000000 0.008800 
#    y 0.000000 1.675930 0.000000 
#    z 0.008800 0.000000 1.680950 
# 
# From -- ./inp_files/14327.got.cif
#   From: 2010.05.17/outbox.cif.g08.bks.cpg/sg14_8_cif.got.tgz:14327.got - 2010.06.03 17:49:19.
