data_PCOD9243832
_publ_section_title
;
Structure prediction by ZEFSAII (Michael W. Deem and Ramdas Pophale) SiO2 
 PCOD9243832
Probable space group: P 21/C
;
_chemical_formula_sum "Si O2"
_cell_formula_units_Z 32
_cell_length_a 26.320546
_cell_length_b 13.179237
_cell_length_c 14.043274
_cell_angle_alpha 90.000000
_cell_angle_beta 162.156808
_cell_angle_gamma 90.000000
_cell_volume 1492.659266
_symmetry_space_group_name_H-M "P 21/C"
_symmetry_group_IT_number 14
_symmetry_cell_setting 'monoclinic'
loop_
_space_group_symop_operation_xyz
x,y,z
-x,1/2+y,1/2-z
-x,-y,-z
x,1/2-y,1/2+z
loop_
_atom_site_type_symbol
_atom_site_label
_atom_site_fract_x
_atom_site_fract_y
_atom_site_fract_z
Si Si1 0.170789 0.007506 0.244328
Si Si2 0.856022 0.218215 0.850485
Si Si3 0.477148 0.113213 0.420467
Si Si4 0.706591 0.631046 0.605987
Si Si5 0.497827 0.805911 0.333703
Si Si6 0.739255 0.274675 0.837530
Si Si7 0.531213 0.046922 0.885907
Si Si8 0.039029 0.220080 0.996025
O O1 0.358095 0.007468 0.620590
O O2 0.168664 0.903043 0.181671
O O3 0.149566 0.122268 0.167954
O O4 0.000000 0.000000 0.000000
O O5 0.694382 0.270174 0.513162
O O6 0.857309 0.267666 0.956067
O O7 0.014547 0.233456 0.065635
O O8 0.434886 0.177866 0.440102
O O9 0.644346 0.168837 0.682625
O O10 0.500000 0.000000 0.500000
O O11 0.354709 0.113010 0.111880
O O12 0.593330 0.719372 0.447457
O O13 0.669921 0.536928 0.609696
O O14 0.888446 0.678726 0.921499
O O15 0.508728 0.907869 0.290450
O O16 0.604194 0.360992 0.576529
O O17 0.856252 0.302789 0.132560
#
# Coordination Sequence:
#
# PCOD9243832 Si02
#       8
#     4   4   4   4   4   4   4   4
#     4  10  20  38  68  92 129 179 225 282 346 408
#     4  10  21  42  64  90 134 177 220 284 352 396
#     4  12  23  40  70 102 127 183 232 273 350 418
#     4  12  24  43  69 102 142 177 233 294 340 425
#     4  11  21  39  68  96 133 180 228 277 342 414
#     4  11  24  42  68  94 141 181 224 293 343 419
#     4  11  21  43  68  99 135 185 232 286 351 419
#     4  11  24  42  63  99 135 177 229 290 347 406
#
# _framework density 21.438247
#
# number of rings (size 3 to 8) (size 9 to 14) (size 15 to 20)
#    0.000    1.000    7.500    0.000    0.000    2.000 
#    0.000   13.750    0.000    0.000    0.000    0.000 
#    0.000    0.000    0.000    0.000    0.000    0.000 
#
# Total GULP energy -178416.640674 kJ/mol
# GULP energy per Si atom -5575.520021 kJ/mol
# Density = 2.138945 g / cm^3
# Si number density = 21.438247 Si / 1000 Ang^3
#
#
#
# Elastic Constant Matrix: (Units=GPa)
#
#
# Indices 1 2 3 4 5 6 
#
# 1 64.1485 23.8976 25.1985 0.0000 2.5153 0.0000
# 2 23.8976 90.0087 8.8952 0.0000 16.6102 0.0000
# 3 25.1985 8.8952 46.2054 0.0000 9.9055 0.0000
# 4 0.0000 0.0000 0.0000 22.3669 0.0000 7.9674
# 5 2.5153 16.6102 9.9055 0.0000 30.1603 0.0000
# 6 0.0000 0.0000 0.0000 7.9674 0.0000 42.1775
#
#
#
# Elastic Compliance Matrix: (Units=1/GPa)
#
#
# Indices 1 2 3 4 5 6 
#
# 1 0.022290 -0.005687 -0.012193 0.000000 0.005277 0.000000
# 2 -0.005687 0.013860 0.002117 0.000000 -0.007854 0.000000
# 3 -0.012193 0.002117 0.030031 0.000000 -0.010012 0.000000
# 4 0.000000 0.000000 0.000000 0.047934 0.000000 -0.009055
# 5 0.005277 -0.007854 -0.010012 0.000000 0.040330 0.000000
# 6 0.000000 0.000000 0.000000 -0.009055 0.000000 0.025420
#
#
# Mechanical properties :
#
#
# Convention : Reuss Voigt Hill
#
# Bulk Modulus (GPa) = 28.85547 35.14949 32.00248
# Shear Modulus (GPa) = 22.42740 28.43236 25.42988
#
# Velocity S-wave (km/s) = 3.23792 3.64571 3.44785
# Velocity P-wave (km/s) = 5.24098 5.84405 5.55071
#
# Compressibility (1/GPa) = 0.03465548
#
# Stress axis : x y z
#
# Youngs Moduli (GPa) = 44.86339 72.14931 33.29941
#
# Poissons Ratio (x) = 0.41031 0.40600
# Poissons Ratio (y) = 0.25514 -0.07049
# Poissons Ratio (z) = 0.54700 -0.15274
#
# Static dielectric constant tensor:
#      x y z
#    x 1.818950 0.000000 0.016060 
#    y 0.000000 1.792740 0.000000 
#    z 0.016060 0.000000 1.764190 
# 
# From -- ./inp_files/52073.got.cif
#   From: 2010.05.17/outbox.cif.g08.bks.cpg/sg14_27_cif.got.tgz:52073.got - 2010.06.03 17:49:19.
