data_PCOD9243077
_publ_section_title
;
Structure prediction by ZEFSAII (Michael W. Deem and Ramdas Pophale) SiO2 
 PCOD9243077
Probable space group: P 21/C
;
_chemical_formula_sum "Si O2"
_cell_formula_units_Z 26
_cell_length_a 15.163157
_cell_length_b 4.833002
_cell_length_c 14.887107
_cell_angle_alpha 90.000000
_cell_angle_beta 79.333388
_cell_angle_gamma 90.000000
_cell_volume 1072.129078
_symmetry_space_group_name_H-M "P 21/C"
_symmetry_group_IT_number 14
_symmetry_cell_setting 'monoclinic'
loop_
_space_group_symop_operation_xyz
x,y,z
-x,1/2+y,1/2-z
-x,-y,-z
x,1/2-y,1/2+z
loop_
_atom_site_type_symbol
_atom_site_label
_atom_site_fract_x
_atom_site_fract_y
_atom_site_fract_z
Si Si1 0.308222 0.907184 0.934223
Si Si2 0.650282 0.914245 0.454149
Si Si3 0.164129 0.815813 0.343411
Si Si4 0.500000 0.000000 0.000000
Si Si5 0.017385 0.059902 0.687124
Si Si6 0.534536 0.881764 0.194592
Si Si7 0.200338 0.316111 0.211096
O O1 0.363859 0.711029 0.993731
O O2 0.221585 0.735592 0.921849
O O3 0.367537 0.976767 0.835516
O O4 0.299005 0.197134 0.987511
O O5 0.562102 0.750831 0.444664
O O6 0.713618 0.930349 0.355984
O O7 0.060157 0.903549 0.371980
O O8 0.168100 0.520125 0.295094
O O9 0.207808 0.027012 0.262473
O O10 0.507879 0.849560 0.096841
O O11 0.981942 0.245646 0.778355
O O12 0.117511 0.172921 0.655478
O O13 0.468799 0.086958 0.258686
#
# Coordination Sequence:
#
# PCOD9243077 Si02
#       7
#     4   4   4   2   4   4   4
#     4  11  24  41  58  90 125 152 202 263 312 365
#     4  11  24  41  60  87 123 162 199 258 318 373
#     4  10  20  36  62  88 120 157 200 259 302 359
#     4  10  26  44  64  90 132 164 208 274 320 356
#     4   8  16  32  54  86 119 150 199 250 297 360
#     4  11  25  42  66  91 122 165 215 258 317 387
#     4  10  20  36  62  89 114 163 210 241 302 387
#
# _framework density 24.250812
#
# number of rings (size 3 to 8) (size 9 to 14) (size 15 to 20)
#    0.000    1.846    0.000    3.692    4.308    5.538 
#    0.000    1.538    0.000    0.000    0.000    0.000 
#    0.000    0.000    0.000    0.000    0.000    0.000 
#
# Total GULP energy -144857.837591 kJ/mol
# GULP energy per Si atom -5571.455292 kJ/mol
# Density = 2.419562 g / cm^3
# Si number density = 24.250812 Si / 1000 Ang^3
#
#
#
# Elastic Constant Matrix: (Units=GPa)
#
#
# Indices 1 2 3 4 5 6 
#
# 1 60.0055 -9.9186 6.4050 0.0000 13.1695 0.0000
# 2 -9.9186 104.7838 -6.7289 0.0000 -6.2609 0.0000
# 3 6.4050 -6.7289 52.9090 0.0000 -0.1681 0.0000
# 4 0.0000 0.0000 0.0000 38.0749 0.0000 1.2917
# 5 13.1695 -6.2609 -0.1681 0.0000 24.5133 0.0000
# 6 0.0000 0.0000 0.0000 1.2917 0.0000 22.5400
#
#
#
# Elastic Compliance Matrix: (Units=1/GPa)
#
#
# Indices 1 2 3 4 5 6 
#
# 1 0.019300 0.001080 -0.002231 0.000000 -0.010108 0.000000
# 2 0.001080 0.009834 0.001126 0.000000 0.001939 0.000000
# 3 -0.002231 0.001126 0.019319 0.000000 0.001619 0.000000
# 4 0.000000 0.000000 0.000000 0.026315 0.000000 -0.001508
# 5 -0.010108 0.001939 0.001619 0.000000 0.046731 0.000000
# 6 0.000000 0.000000 0.000000 -0.001508 0.000000 0.044452
#
#
# Mechanical properties :
#
#
# Convention : Reuss Voigt Hill
#
# Bulk Modulus (GPa) = 20.66030 21.91259 21.28644
# Shear Modulus (GPa) = 27.45196 32.22169 29.83683
#
# Velocity S-wave (km/s) = 3.36817 3.64907 3.51143
# Velocity P-wave (km/s) = 4.86457 5.17781 5.02363
#
# Compressibility (1/GPa) = 0.04840202
#
# Stress axis : x y z
#
# Youngs Moduli (GPa) = 51.81270 101.68957 51.76288
#
# Poissons Ratio (x) = -0.10979 0.11550
# Poissons Ratio (y) = -0.05594 -0.05829
# Poissons Ratio (z) = 0.11561 -0.11451
#
# Static dielectric constant tensor:
#      x y z
#    x 2.246890 0.000000 -0.018360 
#    y 0.000000 1.833350 0.000000 
#    z -0.018360 0.000000 1.863570 
# 
# From -- ./inp_files/45849.got.cif
#   From: 2010.05.17/outbox.cif.g08.bks.cpg/sg14_23_cif.got.tgz:45849.got - 2010.06.03 17:49:19.
