data_PCOD9243540
_publ_section_title
;
Structure prediction by ZEFSAII (Michael W. Deem and Ramdas Pophale) SiO2 
 PCOD9243540
Probable space group: P 21/C
;
_chemical_formula_sum "Si O2"
_cell_formula_units_Z 20
_cell_length_a 7.610166
_cell_length_b 8.642964
_cell_length_c 18.810380
_cell_angle_alpha 90.000000
_cell_angle_beta 144.012422
_cell_angle_gamma 90.000000
_cell_volume 727.015153
_symmetry_space_group_name_H-M "P 21/C"
_symmetry_group_IT_number 14
_symmetry_cell_setting 'monoclinic'
loop_
_space_group_symop_operation_xyz
x,y,z
-x,1/2+y,1/2-z
-x,-y,-z
x,1/2-y,1/2+z
loop_
_atom_site_type_symbol
_atom_site_label
_atom_site_fract_x
_atom_site_fract_y
_atom_site_fract_z
Si Si1 0.077880 0.249995 0.133993
Si Si2 0.041894 0.249991 0.366002
Si Si3 0.083040 0.536401 0.290405
Si Si4 0.421427 0.536411 0.709597
Si Si5 0.614670 0.499996 0.932333
O O1 0.336130 0.360425 0.252827
O O2 0.922999 0.151355 0.144751
O O3 0.822457 0.354686 0.017233
O O4 0.251952 0.125970 0.141027
O O5 0.824812 0.139560 0.247168
O O6 0.843980 0.348634 0.355242
O O7 0.187834 0.374017 0.358969
O O8 0.253508 0.145300 0.482762
O O9 0.729879 0.512681 0.157392
O O10 0.600320 0.512680 0.842609
#
# Coordination Sequence:
#
# PCOD9243540 Si02
#       5
#     4   4   4   4   4
#     4  10  20  39  60  83 118 151 191 238 283 340
#     4  10  20  39  60  83 118 151 191 238 283 340
#     4  10  23  39  59  88 115 153 194 235 288 340
#     4  10  23  39  59  88 115 153 194 235 288 340
#     4  10  20  38  60  84 116 152 188 240 290 336
#
# _framework density 27.509743
#
# number of rings (size 3 to 8) (size 9 to 14) (size 15 to 20)
#    0.000    2.400    0.000    3.600    0.000    3.200 
#    0.000   48.000    0.000    0.000    0.000    0.000 
#    0.000    0.000    0.000    0.000    0.000    0.000 
#
# Total GULP energy -111969.215393 kJ/mol
# GULP energy per Si atom -5598.460770 kJ/mol
# Density = 2.744713 g / cm^3
# Si number density = 27.509743 Si / 1000 Ang^3
#
#
#
# Elastic Constant Matrix: (Units=GPa)
#
#
# Indices 1 2 3 4 5 6 
#
# 1 31.8334 28.1061 27.9067 0.0000 -2.7132 0.0000
# 2 28.1061 206.2566 84.7691 0.0000 -2.9289 0.0000
# 3 27.9067 84.7691 154.3495 0.0000 -3.6090 0.0000
# 4 0.0000 0.0000 0.0000 59.8012 0.0000 -0.7205
# 5 -2.7132 -2.9289 -3.6090 0.0000 28.3274 0.0000
# 6 0.0000 0.0000 0.0000 -0.7205 0.0000 45.8318
#
#
#
# Elastic Compliance Matrix: (Units=1/GPa)
#
#
# Indices 1 2 3 4 5 6 
#
# 1 0.039023 -0.003106 -0.005285 0.000000 0.002743 0.000000
# 2 -0.003106 0.006510 -0.003014 0.000000 -0.000008 0.000000
# 3 -0.005285 -0.003014 0.009098 0.000000 0.000341 0.000000
# 4 0.000000 0.000000 0.000000 0.016725 0.000000 0.000263
# 5 0.002743 -0.000008 0.000341 0.000000 0.035607 0.000000
# 6 0.000000 0.000000 0.000000 0.000263 0.000000 0.021823
#
#
# Mechanical properties :
#
#
# Convention : Reuss Voigt Hill
#
# Bulk Modulus (GPa) = 31.42691 74.88924 53.15807
# Shear Modulus (GPa) = 30.82525 43.56925 37.19725
#
# Velocity S-wave (km/s) = 3.35105 3.98398 3.68115
# Velocity P-wave (km/s) = 5.14018 6.96023 6.11826
#
# Compressibility (1/GPa) = 0.03181987
#
# Stress axis : x y z
#
# Youngs Moduli (GPa) = 25.62559 153.60441 109.91837
#
# Poissons Ratio (x) = 0.47717 0.58095
# Poissons Ratio (y) = 0.07961 0.33129
# Poissons Ratio (z) = 0.13544 0.46296
#
# Static dielectric constant tensor:
#      x y z
#    x 2.419630 0.000000 0.018570 
#    y 0.000000 2.223300 0.000000 
#    z 0.018570 0.000000 2.059630 
# 
# From -- ./inp_files/27584.got.cif
#   From: 2010.05.17/outbox.cif.g08.bks.cpg/sg14_14_cif.got.tgz:27584.got - 2010.06.03 17:49:19.
