data_PCOD9243034
_publ_section_title
;
Structure prediction by ZEFSAII (Michael W. Deem and Ramdas Pophale) SiO2 
 PCOD9243034
Probable space group: P 21/C
;
_chemical_formula_sum "Si O2"
_cell_formula_units_Z 28
_cell_length_a 14.351301
_cell_length_b 11.162607
_cell_length_c 9.815466
_cell_angle_alpha 90.000000
_cell_angle_beta 128.054923
_cell_angle_gamma 90.000000
_cell_volume 1238.153237
_symmetry_space_group_name_H-M "P 21/C"
_symmetry_group_IT_number 14
_symmetry_cell_setting 'monoclinic'
loop_
_space_group_symop_operation_xyz
x,y,z
-x,1/2+y,1/2-z
-x,-y,-z
x,1/2-y,1/2+z
loop_
_atom_site_type_symbol
_atom_site_label
_atom_site_fract_x
_atom_site_fract_y
_atom_site_fract_z
Si Si1 0.717415 0.190448 0.029766
Si Si2 0.347060 0.658599 0.253221
Si Si3 0.051074 0.626307 0.383254
Si Si4 0.517634 0.014715 0.810771
Si Si5 0.570188 0.661913 0.977245
Si Si6 0.307324 0.318093 0.621444
Si Si7 0.972913 0.645927 0.626352
O O1 0.748579 0.180733 0.215957
O O2 0.807866 0.118502 0.016952
O O3 0.705266 0.316557 0.943709
O O4 0.586114 0.133811 0.913375
O O5 0.411244 0.531145 0.307526
O O6 0.451103 0.756907 0.369603
O O7 0.000840 0.492564 0.302667
O O8 0.019241 0.651363 0.511962
O O9 0.016974 0.742110 0.259014
O O10 0.471089 0.033051 0.615203
O O11 0.620802 0.917359 0.898884
O O12 0.657204 0.701199 0.931983
O O13 0.638162 0.678266 0.178612
O O14 0.168773 0.339429 0.503068
#
# Coordination Sequence:
#
# PCOD9243034 Si02
#       7
#     4   4   4   4   4   4   4
#     4  11  21  40  62  88 131 168 212 271 332 390
#     4  10  21  36  59  94 128 169 210 258 323 407
#     4  11  25  48  71 100 133 178 231 291 341 396
#     4  10  20  36  60  94 127 168 206 263 319 407
#     4  10  21  36  60  94 130 168 210 257 325 408
#     4  11  21  40  62  91 129 170 212 270 334 388
#     4  11  25  48  73  99 135 177 233 292 339 399
#
# _framework density 22.614326999999999
#
# number of rings (size 3 to 8) (size 9 to 14) (size 15 to 20)
#    0.000    1.429    1.429    5.143    0.000    2.857 
#   10.286    0.000    0.000    0.000    0.000    0.000 
#    0.000    0.000    0.000    0.000    0.000    0.000 
#
# Total GULP energy -156135.387999 kJ/mol
# GULP energy per Si atom -5576.263857 kJ/mol
# Density = 2.256286 g / cm^3
# Si number density = 22.614327 Si / 1000 Ang^3
#
#
#
# Elastic Constant Matrix: (Units=GPa)
#
#
# Indices 1 2 3 4 5 6 
#
# 1 135.1022 27.5109 22.6799 0.0000 -24.9637 0.0000
# 2 27.5109 98.7038 30.9660 0.0000 -9.1786 0.0000
# 3 22.6799 30.9660 56.1319 0.0000 -18.8558 0.0000
# 4 0.0000 0.0000 0.0000 34.4413 0.0000 -0.2467
# 5 -24.9637 -9.1786 -18.8558 0.0000 35.8996 0.0000
# 6 0.0000 0.0000 0.0000 -0.2467 0.0000 28.3068
#
#
#
# Elastic Compliance Matrix: (Units=1/GPa)
#
#
# Indices 1 2 3 4 5 6 
#
# 1 0.008870 -0.001709 -0.000869 0.000000 0.005275 0.000000
# 2 -0.001709 0.012589 -0.006766 0.000000 -0.001524 0.000000
# 3 -0.000869 -0.006766 0.025638 0.000000 0.011132 0.000000
# 4 0.000000 0.000000 0.000000 0.029037 0.000000 0.000253
# 5 0.005275 -0.001524 0.011132 0.000000 0.036981 0.000000
# 6 0.000000 0.000000 0.000000 0.000253 0.000000 0.035329
#
#
# Mechanical properties :
#
#
# Convention : Reuss Voigt Hill
#
# Bulk Modulus (GPa) = 35.20061 50.25016 42.72538
# Shear Modulus (GPa) = 28.31213 33.64828 30.98021
#
# Velocity S-wave (km/s) = 3.54214 3.86154 3.70528
# Velocity P-wave (km/s) = 5.68581 6.49236 6.10242
#
# Compressibility (1/GPa) = 0.02840860
#
# Stress axis : x y z
#
# Youngs Moduli (GPa) = 112.73440 79.43635 39.00397
#
# Poissons Ratio (x) = 0.13577 0.03391
# Poissons Ratio (y) = 0.19268 0.26390
# Poissons Ratio (z) = 0.09800 0.53747
#
# Static dielectric constant tensor:
#      x y z
#    x 1.831890 0.000000 -0.028670 
#    y 0.000000 1.930920 0.000000 
#    z -0.028670 0.000000 1.956310 
# 
# From -- ./inp_files/15663.got.cif
#   From: 2010.05.17/outbox.cif.g08.bks.cpg/sg14_8_cif.got.tgz:15663.got - 2010.06.03 17:49:19.
