data_PCOD9243551
_publ_section_title
;
Structure prediction by ZEFSAII (Michael W. Deem and Ramdas Pophale) SiO2 
 PCOD9243551
Probable space group: P 21/C
;
_chemical_formula_sum "Si O2"
_cell_formula_units_Z 20
_cell_length_a 6.845998
_cell_length_b 14.357577
_cell_length_c 14.896172
_cell_angle_alpha 90.000000
_cell_angle_beta 32.029467
_cell_angle_gamma 90.000000
_cell_volume 776.532341
_symmetry_space_group_name_H-M "P 21/C"
_symmetry_group_IT_number 14
_symmetry_cell_setting 'monoclinic'
loop_
_space_group_symop_operation_xyz
x,y,z
-x,1/2+y,1/2-z
-x,-y,-z
x,1/2-y,1/2+z
loop_
_atom_site_type_symbol
_atom_site_label
_atom_site_fract_x
_atom_site_fract_y
_atom_site_fract_z
Si Si1 0.258152 0.284603 0.806224
Si Si2 0.200961 0.730316 0.690240
Si Si3 0.116005 0.403024 0.625733
Si Si4 0.205152 0.630016 0.855629
Si Si5 0.531645 0.036419 0.137068
O O1 0.039565 0.249232 0.804339
O O2 0.436408 0.196423 0.783433
O O3 0.573293 0.357527 0.651472
O O4 0.000931 0.341842 0.974036
O O5 0.225495 0.834172 0.724646
O O6 0.553927 0.670091 0.524119
O O7 0.011157 0.664782 0.839571
O O8 0.134443 0.479861 0.539926
O O9 0.232261 0.454354 0.672140
O O10 0.343425 0.526292 0.786554
#
# Coordination Sequence:
#
# PCOD9243551 Si02
#       5
#     4   4   4   4   4
#     4  11  22  38  61  86 116 157 199 243 295 348
#     4  10  20  38  60  86 116 150 194 240 290 348
#     4   9  18  36  62  83 116 159 190 238 296 345
#     4  11  22  38  61  86 116 157 199 243 295 348
#     4   9  19  36  57  85 119 154 196 240 289 348
#
# _framework density 25.755528000000002
#
# number of rings (size 3 to 8) (size 9 to 14) (size 15 to 20)
#    0.000    2.000    0.000    5.400    0.000    0.000 
#    0.000   17.000    0.000   42.000    0.000    0.000 
#    0.000    0.000    0.000    0.000    0.000    0.000 
#
# Total GULP energy -111884.178361 kJ/mol
# GULP energy per Si atom -5594.208918 kJ/mol
# Density = 2.569691 g / cm^3
# Si number density = 25.755528 Si / 1000 Ang^3
#
#
#
# Elastic Constant Matrix: (Units=GPa)
#
#
# Indices 1 2 3 4 5 6 
#
# 1 100.8254 47.4075 40.7675 0.0000 23.8294 0.0000
# 2 47.4075 141.3204 31.0446 0.0000 -1.6743 0.0000
# 3 40.7675 31.0446 96.7588 0.0000 4.0605 0.0000
# 4 0.0000 0.0000 0.0000 65.7484 0.0000 13.3867
# 5 23.8294 -1.6743 4.0605 0.0000 28.3585 0.0000
# 6 0.0000 0.0000 0.0000 13.3867 0.0000 48.6093
#
#
#
# Elastic Compliance Matrix: (Units=1/GPa)
#
#
# Indices 1 2 3 4 5 6 
#
# 1 0.017846 -0.004993 -0.005307 0.000000 -0.014531 0.000000
# 2 -0.004993 0.009028 -0.000997 0.000000 0.004871 0.000000
# 3 -0.005307 -0.000997 0.012783 0.000000 0.002570 0.000000
# 4 0.000000 0.000000 0.000000 0.016113 0.000000 -0.004437
# 5 -0.014531 0.004871 0.002570 0.000000 0.047392 0.000000
# 6 0.000000 0.000000 0.000000 -0.004437 0.000000 0.021794
#
#
# Mechanical properties :
#
#
# Convention : Reuss Voigt Hill
#
# Bulk Modulus (GPa) = 58.60988 64.14932 61.37960
# Shear Modulus (GPa) = 32.62877 43.18890 37.90884
#
# Velocity S-wave (km/s) = 3.56317 4.09941 3.84066
# Velocity P-wave (km/s) = 6.30348 6.88244 6.59931
#
# Compressibility (1/GPa) = 0.01706197
#
# Stress axis : x y z
#
# Youngs Moduli (GPa) = 56.03512 110.76857 78.22744
#
# Poissons Ratio (x) = 0.55305 0.41518
# Poissons Ratio (y) = 0.27978 0.07802
# Poissons Ratio (z) = 0.29740 0.11047
#
# Static dielectric constant tensor:
#      x y z
#    x 2.079740 0.000000 0.034470 
#    y 0.000000 1.972730 0.000000 
#    z 0.034470 0.000000 2.072280 
# 
# From -- ./inp_files/8214.got.cif
#   From: 2010.05.17/outbox.cif.g08.bks.cpg/sg14_5_cif.got.tgz:8214.got - 2010.06.03 17:49:19.
