data_PCOD9243812
_publ_section_title
;
Structure prediction by ZEFSAII (Michael W. Deem and Ramdas Pophale) SiO2 
 PCOD9243812
Probable space group: P 21/C
;
_chemical_formula_sum "Si O2"
_cell_formula_units_Z 30
_cell_length_a 10.923086
_cell_length_b 11.611939
_cell_length_c 14.583461
_cell_angle_alpha 90.000000
_cell_angle_beta 139.627356
_cell_angle_gamma 90.000000
_cell_volume 1198.180649
_symmetry_space_group_name_H-M "P 21/C"
_symmetry_group_IT_number 14
_symmetry_cell_setting 'monoclinic'
loop_
_space_group_symop_operation_xyz
x,y,z
-x,1/2+y,1/2-z
-x,-y,-z
x,1/2-y,1/2+z
loop_
_atom_site_type_symbol
_atom_site_label
_atom_site_fract_x
_atom_site_fract_y
_atom_site_fract_z
Si Si1 0.075884 0.780907 0.264245
Si Si2 0.450541 0.976346 0.841766
Si Si3 0.500000 0.500000 0.000000
Si Si4 0.486952 0.697932 0.509318
Si Si5 0.169362 0.367858 0.748924
Si Si6 0.643356 0.580050 0.891233
Si Si7 0.028896 0.444713 0.139749
Si Si8 0.902962 0.745047 0.466445
O O1 0.300955 0.776035 0.407751
O O2 0.988931 0.669814 0.268737
O O3 0.984018 0.885218 0.268695
O O4 0.016334 0.776013 0.124463
O O5 0.516115 0.858810 0.925980
O O6 0.466589 0.999123 0.743384
O O7 0.226770 0.991049 0.737842
O O8 0.543880 0.085661 0.945171
O O9 0.716630 0.519919 0.161106
O O10 0.449205 0.424001 0.063545
O O11 0.664616 0.769379 0.647070
O O12 0.105658 0.362115 0.607419
O O13 0.697620 0.702685 0.877986
O O14 0.849667 0.523753 0.022128
O O15 0.014430 0.342961 0.055450
#
# Coordination Sequence:
#
# PCOD9243812 Si02
#       8
#     4   4   2   4   4   4   4   4
#     4  11  21  39  66  94 137 173 216 290 332 405
#     4  10  21  38  67 100 125 168 233 287 321 403
#     4  12  26  40  64  96 140 178 212 278 354 404
#     4  11  21  40  67  99 130 171 229 284 344 391
#     4  11  24  44  61  99 132 177 229 270 348 418
#     4  11  20  40  64  95 129 174 216 272 334 408
#     4  10  20  38  66  98 123 169 231 270 338 399
#     4  10  20  41  67  89 129 176 225 277 319 403
#
# _framework density 25.037963000000001
#
# number of rings (size 3 to 8) (size 9 to 14) (size 15 to 20)
#    0.000    1.333    5.333    4.000    0.000    1.067 
#    0.000    8.000    0.000    4.000    0.000    0.000 
#    0.000    0.000    0.000    0.000    0.000    0.000 
#
# Total GULP energy -167485.690503 kJ/mol
# GULP energy per Si atom -5582.856350 kJ/mol
# Density = 2.498098 g / cm^3
# Si number density = 25.037963 Si / 1000 Ang^3
#
#
#
# Elastic Constant Matrix: (Units=GPa)
#
#
# Indices 1 2 3 4 5 6 
#
# 1 109.4837 16.6795 44.2834 0.0000 -19.3134 0.0000
# 2 16.6795 54.3991 6.2084 0.0000 -4.7865 0.0000
# 3 44.2834 6.2084 111.9992 0.0000 -28.3584 0.0000
# 4 0.0000 0.0000 0.0000 37.8656 0.0000 -6.6933
# 5 -19.3134 -4.7865 -28.3584 0.0000 50.4437 0.0000
# 6 0.0000 0.0000 0.0000 -6.6933 0.0000 34.0845
#
#
#
# Elastic Compliance Matrix: (Units=1/GPa)
#
#
# Indices 1 2 3 4 5 6 
#
# 1 0.011493 -0.002909 -0.003893 0.000000 0.001936 0.000000
# 2 -0.002909 0.019318 0.000305 0.000000 0.000891 0.000000
# 3 -0.003893 0.000305 0.011754 0.000000 0.005146 0.000000
# 4 0.000000 0.000000 0.000000 0.027359 0.000000 0.005373
# 5 0.001936 0.000891 0.005146 0.000000 0.023543 0.000000
# 6 0.000000 0.000000 0.000000 0.005373 0.000000 0.030394
#
#
# Mechanical properties :
#
#
# Convention : Reuss Voigt Hill
#
# Bulk Modulus (GPa) = 33.81698 45.58050 39.69874
# Shear Modulus (GPa) = 34.08032 38.39281 36.23657
#
# Velocity S-wave (km/s) = 3.69337 3.92009 3.80842
# Velocity P-wave (km/s) = 5.63237 6.22363 5.93537
#
# Compressibility (1/GPa) = 0.02957094
#
# Stress axis : x y z
#
# Youngs Moduli (GPa) = 87.00918 51.76449 85.07770
#
# Poissons Ratio (x) = 0.15060 0.33119
# Poissons Ratio (y) = 0.25314 -0.02595
# Poissons Ratio (z) = 0.33871 -0.01579
#
# Static dielectric constant tensor:
#      x y z
#    x 1.956510 0.000000 -0.033670 
#    y 0.000000 2.164430 0.000000 
#    z -0.033670 0.000000 1.961550 
# 
# From -- ./inp_files/44943.got.cif
#   From: 2010.05.17/outbox.cif.g08.bks.cpg/sg14_23_cif.got.tgz:44943.got - 2010.06.03 17:49:19.
