data_PCOD9243935
_publ_section_title
;
Structure prediction by ZEFSAII (Michael W. Deem and Ramdas Pophale) SiO2 
 PCOD9243935
Probable space group: P 21/C
;
_chemical_formula_sum "Si O2"
_cell_formula_units_Z 32
_cell_length_a 6.680524
_cell_length_b 22.675561
_cell_length_c 11.128253
_cell_angle_alpha 90.000000
_cell_angle_beta 66.447910
_cell_angle_gamma 90.000000
_cell_volume 1545.330773
_symmetry_space_group_name_H-M "P 21/C"
_symmetry_group_IT_number 14
_symmetry_cell_setting 'monoclinic'
loop_
_space_group_symop_operation_xyz
x,y,z
-x,1/2+y,1/2-z
-x,-y,-z
x,1/2-y,1/2+z
loop_
_atom_site_type_symbol
_atom_site_label
_atom_site_fract_x
_atom_site_fract_y
_atom_site_fract_z
Si Si1 0.180802 0.841833 0.724807
Si Si2 0.618463 0.280269 0.625158
Si Si3 0.985578 0.341758 0.374733
Si Si4 0.167433 0.244813 0.629270
Si Si5 0.213220 0.931006 0.269216
Si Si6 0.878558 0.327218 0.041370
Si Si7 0.721775 0.558998 0.596257
Si Si8 0.007091 0.029763 0.188739
O O1 0.990991 0.800709 0.824728
O O2 0.180933 0.827394 0.583958
O O3 0.115150 0.909516 0.755774
O O4 0.389098 0.821962 0.755106
O O5 0.406774 0.269430 0.595707
O O6 0.804974 0.308530 0.496065
O O7 0.699758 0.215462 0.646853
O O8 0.104628 0.297284 0.256054
O O9 0.163292 0.378052 0.407507
O O10 0.862277 0.390529 0.324500
O O11 0.104174 0.205254 0.527561
O O12 0.471094 0.939446 0.193807
O O13 0.143529 0.892397 0.400394
O O14 0.087277 0.992586 0.283759
O O15 0.780315 0.542024 0.445537
O O16 0.845716 0.511121 0.649249
#
# Coordination Sequence:
#
# PCOD9243935 Si02
#       8
#     4   4   4   4   4   4   4   4
#     4  11  23  41  59  92 128 161 213 264 307 377
#     4  11  22  39  64  90 125 165 206 258 321 377
#     4  10  20  39  62  93 119 155 212 259 310 381
#     4  10  23  40  63  90 127 166 201 257 324 378
#     4  10  22  38  64  87 120 172 205 254 326 365
#     4  10  23  43  59  91 130 161 211 257 310 392
#     4  10  20  39  62  88 127 157 211 269 309 359
#     4  10  22  37  59  91 125 163 213 267 301 370
#
# _framework density 20.707540999999999
#
# number of rings (size 3 to 8) (size 9 to 14) (size 15 to 20)
#    0.000    1.750    2.500    1.125    1.750    2.500 
#    0.000    0.625    0.000    0.000    0.000    0.000 
#    0.000    0.000    0.000    0.000    0.000    0.000 
#
# Total GULP energy -178646.269331 kJ/mol
# GULP energy per Si atom -5582.695917 kJ/mol
# Density = 2.066041 g / cm^3
# Si number density = 20.707541 Si / 1000 Ang^3
#
#
#
# Elastic Constant Matrix: (Units=GPa)
#
#
# Indices 1 2 3 4 5 6 
#
# 1 64.0605 6.8430 16.7600 0.0000 -8.3530 0.0000
# 2 6.8430 96.1054 16.6816 0.0000 -6.3473 0.0000
# 3 16.7600 16.6816 61.1756 0.0000 17.4303 0.0000
# 4 0.0000 0.0000 0.0000 27.5287 0.0000 1.3458
# 5 -8.3530 -6.3473 17.4303 0.0000 20.9185 0.0000
# 6 0.0000 0.0000 0.0000 1.3458 0.0000 22.9997
#
#
#
# Elastic Compliance Matrix: (Units=1/GPa)
#
#
# Indices 1 2 3 4 5 6 
#
# 1 0.020789 0.001702 -0.011372 0.000000 0.018293 0.000000
# 2 0.001702 0.012068 -0.006549 0.000000 0.009798 0.000000
# 3 -0.011372 -0.006549 0.030301 0.000000 -0.031776 0.000000
# 4 0.000000 0.000000 0.000000 0.036430 0.000000 -0.002132
# 5 0.018293 0.009798 -0.031776 0.000000 0.084560 0.000000
# 6 0.000000 0.000000 0.000000 -0.002132 0.000000 0.043604
#
#
# Mechanical properties :
#
#
# Convention : Reuss Voigt Hill
#
# Bulk Modulus (GPa) = 32.55073 33.54564 33.04819
# Shear Modulus (GPa) = 18.48916 26.35983 22.42449
#
# Velocity S-wave (km/s) = 2.99134 3.57172 3.29434
# Velocity P-wave (km/s) = 5.26158 5.76580 5.51945
#
# Compressibility (1/GPa) = 0.03072127
#
# Stress axis : x y z
#
# Youngs Moduli (GPa) = 48.10262 82.86486 33.00188
#
# Poissons Ratio (x) = -0.14102 0.37528
# Poissons Ratio (y) = -0.08186 0.21612
# Poissons Ratio (z) = 0.54700 0.54265
#
# Static dielectric constant tensor:
#      x y z
#    x 1.782270 0.000000 0.041890 
#    y 0.000000 1.758630 0.000000 
#    z 0.041890 0.000000 1.759350 
# 
# From -- ./inp_files/22171.got.cif
#   From: 2010.05.17/outbox.cif.g08.bks.cpg/sg14_12_cif.got.tgz:22171.got - 2010.06.03 17:49:19.
