data_PCOD9243188
_publ_section_title
;
Structure prediction by ZEFSAII (Michael W. Deem and Ramdas Pophale) SiO2 
 PCOD9243188
Probable space group: P 21/C
;
_chemical_formula_sum "Si O2"
_cell_formula_units_Z 24
_cell_length_a 5.122358
_cell_length_b 7.155656
_cell_length_c 27.924378
_cell_angle_alpha 90.000000
_cell_angle_beta 108.668851
_cell_angle_gamma 90.000000
_cell_volume 969.681562
_symmetry_space_group_name_H-M "P 21/C"
_symmetry_group_IT_number 14
_symmetry_cell_setting 'monoclinic'
loop_
_space_group_symop_operation_xyz
x,y,z
-x,1/2+y,1/2-z
-x,-y,-z
x,1/2-y,1/2+z
loop_
_atom_site_type_symbol
_atom_site_label
_atom_site_fract_x
_atom_site_fract_y
_atom_site_fract_z
Si Si1 0.595830 0.078137 0.555914
Si Si2 0.420167 0.033485 0.050976
Si Si3 0.002480 0.913433 0.903771
Si Si4 0.599160 0.765602 0.309474
Si Si5 0.183509 0.860091 0.703534
Si Si6 0.411274 0.380941 0.850674
O O1 0.382350 0.243596 0.554745
O O2 0.592213 0.909326 0.593013
O O3 0.874535 0.205024 0.574524
O O4 0.500000 0.000000 0.500000
O O5 0.144942 0.970190 0.061784
O O6 0.709009 0.991181 0.094639
O O7 0.500000 0.000000 0.000000
O O8 0.780632 0.880434 0.849368
O O9 0.806885 0.914319 0.297717
O O10 0.386807 0.693647 0.257923
O O11 0.431720 0.899994 0.335500
O O12 0.326397 0.799746 0.661704
O O13 0.869943 0.798497 0.686760
#
# Coordination Sequence:
#
# PCOD9243188 Si02
#       6
#     4   4   4   4   4   4
#     4  10  21  38  63  85 114 159 193 240 301 343
#     4  10  20  37  57  83 115 154 192 237 287 350
#     4  10  20  37  62  80 117 154 193 234 295 353
#     4  10  21  40  62  84 116 155 196 235 300 349
#     4  10  22  35  63  81 117 150 192 241 290 346
#     4  10  21  38  57  87 118 147 197 239 289 355
#
# _framework density 24.750392999999999
#
# number of rings (size 3 to 8) (size 9 to 14) (size 15 to 20)
#    2.000    0.000    3.333    0.500    2.333    0.667 
#    0.000    3.333    0.000    0.000    0.000    0.000 
#    0.000    0.000    0.000    0.000    0.000    0.000 
#
# Total GULP energy -133712.191541 kJ/mol
# GULP energy per Si atom -5571.341314 kJ/mol
# Density = 2.469406 g / cm^3
# Si number density = 24.750393 Si / 1000 Ang^3
#
#
#
# Elastic Constant Matrix: (Units=GPa)
#
#
# Indices 1 2 3 4 5 6 
#
# 1 99.5428 6.6615 -4.8041 0.0000 -1.0505 0.0000
# 2 6.6615 76.8966 22.5862 0.0000 -0.1056 0.0000
# 3 -4.8041 22.5862 116.2638 0.0000 -4.9432 0.0000
# 4 0.0000 0.0000 0.0000 36.4925 0.0000 4.9166
# 5 -1.0505 -0.1056 -4.9432 0.0000 22.4307 0.0000
# 6 0.0000 0.0000 0.0000 4.9166 0.0000 9.6883
#
#
#
# Elastic Compliance Matrix: (Units=1/GPa)
#
#
# Indices 1 2 3 4 5 6 
#
# 1 0.010156 -0.001071 0.000654 0.000000 0.000615 0.000000
# 2 -0.001071 0.013911 -0.002772 0.000000 -0.000596 0.000000
# 3 0.000654 -0.002772 0.009254 0.000000 0.002057 0.000000
# 4 0.000000 0.000000 0.000000 0.029414 0.000000 -0.014927
# 5 0.000615 -0.000596 0.002057 0.000000 0.045061 0.000000
# 6 0.000000 0.000000 0.000000 -0.014927 0.000000 0.110792
#
#
# Mechanical properties :
#
#
# Convention : Reuss Voigt Hill
#
# Bulk Modulus (GPa) = 37.11654 37.95449 37.53551
# Shear Modulus (GPa) = 21.37239 31.60628 26.48933
#
# Velocity S-wave (km/s) = 2.94175 3.57739 3.27503
# Velocity P-wave (km/s) = 5.15436 5.69490 5.43136
#
# Compressibility (1/GPa) = 0.02694217
#
# Stress axis : x y z
#
# Youngs Moduli (GPa) = 98.46743 71.88757 108.06019
#
# Poissons Ratio (x) = 0.07699 -0.07065
# Poissons Ratio (y) = 0.10546 0.29954
# Poissons Ratio (z) = -0.06438 0.19927
#
# Static dielectric constant tensor:
#      x y z
#    x 2.230220 0.000000 -0.142380 
#    y 0.000000 2.101340 0.000000 
#    z -0.142380 0.000000 2.060560 
# 
# From -- ./inp_files/75774.got.cif
#   From: 2010.05.17/outbox.cif.g08.bks.cpg/sg14_38_cif.got.tgz:75774.got - 2010.06.03 17:49:19.
