data_PCOD9243317
_publ_section_title
;
Structure prediction by ZEFSAII (Michael W. Deem and Ramdas Pophale) SiO2 
 PCOD9243317
Probable space group: P 21/C
;
_chemical_formula_sum "Si O2"
_cell_formula_units_Z 32
_cell_length_a 16.422171
_cell_length_b 7.532133
_cell_length_c 16.173002
_cell_angle_alpha 90.000000
_cell_angle_beta 40.347183
_cell_angle_gamma 90.000000
_cell_volume 1295.160834
_symmetry_space_group_name_H-M "P 21/C"
_symmetry_group_IT_number 14
_symmetry_cell_setting 'monoclinic'
loop_
_space_group_symop_operation_xyz
x,y,z
-x,1/2+y,1/2-z
-x,-y,-z
x,1/2-y,1/2+z
loop_
_atom_site_type_symbol
_atom_site_label
_atom_site_fract_x
_atom_site_fract_y
_atom_site_fract_z
Si Si1 0.092738 0.351366 0.769765
Si Si2 0.008447 0.720431 0.924657
Si Si3 0.717483 0.050716 0.982287
Si Si4 0.766348 0.841306 0.201687
Si Si5 0.671436 0.993077 0.587838
Si Si6 0.780611 0.200329 0.110902
Si Si7 0.870269 0.368742 0.821561
Si Si8 0.528470 0.775575 0.814291
O O1 0.047487 0.528581 0.856180
O O2 0.203623 0.400761 0.620979
O O3 0.156250 0.204656 0.777174
O O4 0.973038 0.298038 0.808197
O O5 0.088228 0.748133 0.947303
O O6 0.053603 0.865328 0.822340
O O7 0.863316 0.759226 0.058111
O O8 0.762831 0.221172 0.893366
O O9 0.767256 0.092813 0.035468
O O10 0.567769 0.061941 0.098958
O O11 0.632428 0.745261 0.303747
O O12 0.735222 0.047820 0.209577
O O13 0.712908 0.116985 0.634935
O O14 0.791514 0.984759 0.433913
O O15 0.558572 0.104386 0.632506
O O16 0.610971 0.814276 0.668503
#
# Coordination Sequence:
#
# PCOD9243317 Si02
#       8
#     4   4   4   4   4   4   4   4
#     4  11  22  38  60  89 117 152 196 247 300 350
#     4  11  22  37  60  88 120 153 194 249 301 350
#     4   9  21  40  60  82 121 157 191 240 299 355
#     4  12  22  34  59  87 117 152 201 244 293 360
#     4  10  20  39  62  84 119 156 197 243 293 355
#     4  10  21  38  57  85 116 153 193 241 294 346
#     4   9  20  37  59  86 120 152 192 247 300 347
#     4  10  20  37  61  86 114 160 202 239 288 357
#
# _framework density 24.707357999999999
#
# number of rings (size 3 to 8) (size 9 to 14) (size 15 to 20)
#    0.000    2.000    0.000    6.000    0.000    2.500 
#    0.000    3.750    0.000   15.000    0.000    0.000 
#    0.000    0.000    0.000    0.000    0.000    0.000 
#
# Total GULP energy -178576.918983 kJ/mol
# GULP energy per Si atom -5580.528718 kJ/mol
# Density = 2.465112 g / cm^3
# Si number density = 24.707358 Si / 1000 Ang^3
#
#
#
# Elastic Constant Matrix: (Units=GPa)
#
#
# Indices 1 2 3 4 5 6 
#
# 1 135.3147 32.6969 59.6620 0.0000 -31.1689 0.0000
# 2 32.6969 79.5956 7.4004 0.0000 -6.9880 0.0000
# 3 59.6620 7.4004 108.5251 0.0000 -23.4432 0.0000
# 4 0.0000 0.0000 0.0000 17.4274 0.0000 -2.8378
# 5 -31.1689 -6.9880 -23.4432 0.0000 36.7585 0.0000
# 6 0.0000 0.0000 0.0000 -2.8378 0.0000 20.5625
#
#
#
# Elastic Compliance Matrix: (Units=1/GPa)
#
#
# Indices 1 2 3 4 5 6 
#
# 1 0.011956 -0.003903 -0.004960 0.000000 0.006232 0.000000
# 2 -0.003903 0.014066 0.001217 0.000000 0.000141 0.000000
# 3 -0.004960 0.001217 0.012757 0.000000 0.004161 0.000000
# 4 0.000000 0.000000 0.000000 0.058700 0.000000 0.008101
# 5 0.006232 0.000141 0.004161 0.000000 0.035170 0.000000
# 6 0.000000 0.000000 0.000000 0.008101 0.000000 0.049750
#
#
# Mechanical properties :
#
#
# Convention : Reuss Voigt Hill
#
# Bulk Modulus (GPa) = 42.57782 58.10600 50.34191
# Shear Modulus (GPa) = 24.32838 29.86142 27.09490
#
# Velocity S-wave (km/s) = 3.14134 3.48027 3.31514
# Velocity P-wave (km/s) = 5.51612 6.30226 5.92225
#
# Compressibility (1/GPa) = 0.02348640
#
# Stress axis : x y z
#
# Youngs Moduli (GPa) = 83.64014 71.09327 78.38583
#
# Poissons Ratio (x) = 0.27748 0.38882
# Poissons Ratio (y) = 0.32645 -0.09539
# Poissons Ratio (z) = 0.41489 -0.08651
#
# Static dielectric constant tensor:
#      x y z
#    x 1.917040 0.000000 0.070510 
#    y 0.000000 2.150510 0.000000 
#    z 0.070510 0.000000 2.027730 
# 
# From -- ./inp_files/60162.got.cif
#   From: 2010.05.17/outbox.cif.g08.bks.cpg/sg14_31_cif.got.tgz:60162.got - 2010.06.03 17:49:19.
