data_PCOD9243275
_publ_section_title
;
Structure prediction by ZEFSAII (Michael W. Deem and Ramdas Pophale) SiO2 
 PCOD9243275
Probable space group: P 21/C
;
_chemical_formula_sum "Si O2"
_cell_formula_units_Z 24
_cell_length_a 28.862557
_cell_length_b 7.501643
_cell_length_c 9.630918
_cell_angle_alpha 90.000000
_cell_angle_beta 28.774606
_cell_angle_gamma 90.000000
_cell_volume 1003.768603
_symmetry_space_group_name_H-M "P 21/C"
_symmetry_group_IT_number 14
_symmetry_cell_setting 'monoclinic'
loop_
_space_group_symop_operation_xyz
x,y,z
-x,1/2+y,1/2-z
-x,-y,-z
x,1/2-y,1/2+z
loop_
_atom_site_type_symbol
_atom_site_label
_atom_site_fract_x
_atom_site_fract_y
_atom_site_fract_z
Si Si1 0.110318 0.541235 0.387596
Si Si2 0.236197 0.030228 0.162383
Si Si3 0.589629 0.340572 0.897694
Si Si4 0.061501 0.805274 0.734277
Si Si5 0.286720 0.341134 0.830402
Si Si6 0.513409 0.746134 0.082060
O O1 0.087953 0.619195 0.596009
O O2 0.077692 0.683679 0.356183
O O3 0.045104 0.369406 0.524338
O O4 0.220106 0.492528 0.072106
O O5 0.276947 0.137753 0.190043
O O6 0.133663 0.952852 0.477246
O O7 0.243909 0.158731 0.008802
O O8 0.306458 0.865675 0.942297
O O9 0.518205 0.222306 0.991897
O O10 0.547176 0.541498 0.005106
O O11 0.580291 0.275655 0.077896
O O12 0.396162 0.352424 0.594826
#
# Coordination Sequence:
#
# PCOD9243275 Si02
#       6
#     4   4   4   4   4   4
#     4  10  22  39  60  87 118 151 191 238 286 342
#     4  10  22  39  59  85 116 151 193 239 285 341
#     4  10  22  37  57  84 115 150 193 237 285 340
#     4  10  22  39  60  88 119 150 190 238 286 342
#     4  10  20  37  60  84 115 151 192 236 285 340
#     4  10  20  38  58  82 115 151 191 239 285 339
#
# _framework density 23.909894000000001
#
# number of rings (size 3 to 8) (size 9 to 14) (size 15 to 20)
#    0.000    2.000    0.000    4.000    0.000    6.667 
#    0.000    5.000    0.000    0.000    0.000    0.000 
#    0.000    0.000    0.000    0.000    0.000    0.000 
#
# Total GULP energy -134246.688495 kJ/mol
# GULP energy per Si atom -5593.612021 kJ/mol
# Density = 2.385547 g / cm^3
# Si number density = 23.909894 Si / 1000 Ang^3
#
#
#
# Elastic Constant Matrix: (Units=GPa)
#
#
# Indices 1 2 3 4 5 6 
#
# 1 54.4835 21.8460 32.5524 0.0000 -10.5559 0.0000
# 2 21.8460 23.7012 -0.0417 0.0000 -12.5233 0.0000
# 3 32.5524 -0.0417 99.6157 0.0000 -6.5233 0.0000
# 4 0.0000 0.0000 0.0000 50.4806 0.0000 14.0687
# 5 -10.5559 -12.5233 -6.5233 0.0000 19.3910 0.0000
# 6 0.0000 0.0000 0.0000 14.0687 0.0000 20.3509
#
#
#
# Elastic Compliance Matrix: (Units=1/GPa)
#
#
# Indices 1 2 3 4 5 6 
#
# 1 0.043683 -0.046141 -0.015019 0.000000 -0.011072 0.000000
# 2 -0.046141 0.113556 0.018695 0.000000 0.054509 0.000000
# 3 -0.015019 0.018695 0.015552 0.000000 0.009130 0.000000
# 4 0.000000 0.000000 0.000000 0.024537 0.000000 -0.016962
# 5 -0.011072 0.054509 0.009130 0.000000 0.083818 0.000000
# 6 0.000000 0.000000 0.000000 -0.016962 0.000000 0.060864
#
#
# Mechanical properties :
#
#
# Convention : Reuss Voigt Hill
#
# Bulk Modulus (GPa) = 11.38158 31.83487 21.60822
# Shear Modulus (GPa) = 10.95945 26.27409 18.61677
#
# Velocity S-wave (km/s) = 2.14327 3.31853 2.79341
# Velocity P-wave (km/s) = 3.30081 5.29405 4.41148
#
# Compressibility (1/GPa) = 0.08786128
#
# Stress axis : x y z
#
# Youngs Moduli (GPa) = 22.89200 8.80626 64.29956
#
# Poissons Ratio (x) = 0.40633 0.96573
# Poissons Ratio (y) = 1.05625 -1.20207
# Poissons Ratio (z) = 0.34382 -0.16463
#
# Static dielectric constant tensor:
#      x y z
#    x 1.861830 0.000000 -0.034120 
#    y 0.000000 1.927520 0.000000 
#    z -0.034120 0.000000 1.873180 
# 
# From -- ./inp_files/19925.got.cif
#   From: 2010.05.17/outbox.cif.g08.bks.cpg/sg14_10_cif.got.tgz:19925.got - 2010.06.03 17:49:19.
