data_PCOD9243104
_publ_section_title
;
Structure prediction by ZEFSAII (Michael W. Deem and Ramdas Pophale) SiO2 
 PCOD9243104
Probable space group: P 21/C
;
_chemical_formula_sum "Si O2"
_cell_formula_units_Z 32
_cell_length_a 9.041434
_cell_length_b 30.002423
_cell_length_c 5.050146
_cell_angle_alpha 90.000000
_cell_angle_beta 100.896954
_cell_angle_gamma 90.000000
_cell_volume 1345.226002
_symmetry_space_group_name_H-M "P 21/C"
_symmetry_group_IT_number 14
_symmetry_cell_setting 'monoclinic'
loop_
_space_group_symop_operation_xyz
x,y,z
-x,1/2+y,1/2-z
-x,-y,-z
x,1/2-y,1/2+z
loop_
_atom_site_type_symbol
_atom_site_label
_atom_site_fract_x
_atom_site_fract_y
_atom_site_fract_z
Si Si1 0.712656 0.223311 0.053238
Si Si2 0.497183 0.398118 0.136179
Si Si3 0.069036 0.388303 0.404657
Si Si4 0.622636 0.457474 0.806019
Si Si5 0.751137 0.373218 0.523540
Si Si6 0.220531 0.147409 0.443224
Si Si7 0.348679 0.225097 0.866634
Si Si8 0.694403 0.543122 0.550631
O O1 0.763646 0.239995 0.783584
O O2 0.773149 0.174920 0.162168
O O3 0.529694 0.223004 0.967543
O O4 0.614111 0.362579 0.276970
O O5 0.377511 0.376631 0.898856
O O6 0.382731 0.417139 0.310991
O O7 0.603719 0.439460 0.094320
O O8 0.106522 0.378025 0.110295
O O9 0.153345 0.435116 0.503613
O O10 0.894063 0.389583 0.410030
O O11 0.131894 0.351830 0.636143
O O12 0.686757 0.413216 0.682576
O O13 0.714296 0.500393 0.746993
O O14 0.445180 0.468112 0.688235
O O15 0.284771 0.184644 0.668754
O O16 0.301487 0.266041 0.654575
#
# Coordination Sequence:
#
# PCOD9243104 Si02
#       8
#     4   4   4   4   4   4   4   4
#     4  10  23  40  64  93 126 161 210 272 320 380
#     4  10  20  37  66  91 123 170 221 265 308 388
#     4  11  25  41  63  92 136 173 208 262 320 387
#     4  10  20  37  68  90 131 165 225 265 315 389
#     4  11  25  40  62  98 125 174 218 260 328 388
#     4  11  22  42  63  89 125 169 209 261 321 379
#     4  10  20  36  63  94 118 150 210 273 319 374
#     4   9  20  39  59  99 126 172 214 269 325 369
#
# _framework density 23.787822999999999
#
# number of rings (size 3 to 8) (size 9 to 14) (size 15 to 20)
#    0.000    1.750    2.500    1.125    3.500    1.500 
#    0.000    4.375    0.000    0.000    0.000    0.000 
#    0.000    0.000    0.000    0.000    0.000    0.000 
#
# Total GULP energy -178162.077803 kJ/mol
# GULP energy per Si atom -5567.564931 kJ/mol
# Density = 2.373368 g / cm^3
# Si number density = 23.787823 Si / 1000 Ang^3
#
#
#
# Elastic Constant Matrix: (Units=GPa)
#
#
# Indices 1 2 3 4 5 6 
#
# 1 79.9858 32.3132 16.7746 0.0000 -10.7740 0.0000
# 2 32.3132 81.7857 0.4397 0.0000 -11.6554 0.0000
# 3 16.7746 0.4397 81.4712 0.0000 -12.8197 0.0000
# 4 0.0000 0.0000 0.0000 25.3854 0.0000 -1.3069
# 5 -10.7740 -11.6554 -12.8197 0.0000 20.2433 0.0000
# 6 0.0000 0.0000 0.0000 -1.3069 0.0000 16.9787
#
#
#
# Elastic Compliance Matrix: (Units=1/GPa)
#
#
# Indices 1 2 3 4 5 6 
#
# 1 0.015856 -0.005764 -0.002697 0.000000 0.003413 0.000000
# 2 -0.005764 0.015533 0.002252 0.000000 0.007302 0.000000
# 3 -0.002697 0.002252 0.014212 0.000000 0.008861 0.000000
# 4 0.000000 0.000000 0.000000 0.039549 0.000000 0.003044
# 5 0.003413 0.007302 0.008861 0.000000 0.061031 0.000000
# 6 0.000000 0.000000 0.000000 0.003044 0.000000 0.059132
#
#
# Mechanical properties :
#
#
# Convention : Reuss Voigt Hill
#
# Bulk Modulus (GPa) = 30.13560 38.03309 34.08434
# Shear Modulus (GPa) = 21.85405 25.43582 23.64493
#
# Velocity S-wave (km/s) = 3.03431 3.27353 3.15619
# Velocity P-wave (km/s) = 4.99720 5.50556 5.25753
#
# Compressibility (1/GPa) = 0.03318335
#
# Stress axis : x y z
#
# Youngs Moduli (GPa) = 63.06792 64.38003 70.36463
#
# Poissons Ratio (x) = 0.37107 0.18974
# Poissons Ratio (y) = 0.36351 -0.15845
# Poissons Ratio (z) = 0.17007 -0.14497
#
# Static dielectric constant tensor:
#      x y z
#    x 1.870470 0.000000 0.030440 
#    y 0.000000 2.085790 0.000000 
#    z 0.030440 0.000000 2.009850 
# 
# From -- ./inp_files/2134.got.cif
#   From: 2010.05.17/outbox.cif.g08.bks.cpg/sg14_2_cif.got.tgz:2134.got - 2010.06.03 17:49:19.
