data_PCOD9243891
_publ_section_title
;
Structure prediction by ZEFSAII (Michael W. Deem and Ramdas Pophale) SiO2 
 PCOD9243891
Probable space group: P 21/C
;
_chemical_formula_sum "Si O2"
_cell_formula_units_Z 30
_cell_length_a 17.380876
_cell_length_b 14.102692
_cell_length_c 20.680933
_cell_angle_alpha 90.000000
_cell_angle_beta 17.719455
_cell_angle_gamma 90.000000
_cell_volume 1542.859661
_symmetry_space_group_name_H-M "P 21/C"
_symmetry_group_IT_number 14
_symmetry_cell_setting 'monoclinic'
loop_
_space_group_symop_operation_xyz
x,y,z
-x,1/2+y,1/2-z
-x,-y,-z
x,1/2-y,1/2+z
loop_
_atom_site_type_symbol
_atom_site_label
_atom_site_fract_x
_atom_site_fract_y
_atom_site_fract_z
Si Si1 0.103518 0.427867 0.271940
Si Si2 0.323810 0.913627 0.238677
Si Si3 0.296386 0.654478 0.901353
Si Si4 0.733258 0.873637 0.707696
Si Si5 0.000000 0.000000 0.000000
Si Si6 0.574128 0.011364 0.594745
Si Si7 0.721172 0.781189 0.848931
Si Si8 0.465673 0.639156 0.285123
O O1 0.094326 0.468389 0.351298
O O2 0.260103 0.328880 0.147431
O O3 0.816537 0.403060 0.481144
O O4 0.229270 0.498440 0.120437
O O5 0.355751 0.907896 0.290740
O O6 0.034966 0.882919 0.456187
O O7 0.354812 0.023474 0.194972
O O8 0.511455 0.840921 0.054426
O O9 0.996079 0.673196 0.142997
O O10 0.384366 0.605201 0.896341
O O11 0.428983 0.755620 0.786856
O O12 0.681509 0.795474 0.803749
O O13 0.601447 0.855423 0.745257
O O14 0.707085 0.994701 0.207663
O O15 0.608634 0.925962 0.618910
#
# Coordination Sequence:
#
# PCOD9243891 Si02
#       8
#     4   4   4   4   2   4   4   4
#     4  10  23  42  63  89 121 164 208 255 310 367
#     4  10  20  39  60  90 122 164 197 251 313 365
#     4  10  22  38  62  88 120 157 204 253 304 364
#     4  10  21  36  60  92 123 159 205 247 313 368
#     4  10  24  42  62  86 120 160 202 260 306 356
#     4  11  22  41  66  87 121 164 206 253 310 371
#     4  10  22  38  61  88 126 160 204 252 301 370
#     4  10  22  40  60  91 126 156 202 260 301 366
#
# _framework density 19.444413000000001
#
# number of rings (size 3 to 8) (size 9 to 14) (size 15 to 20)
#    0.000    1.867    1.333    1.600    3.733    2.133 
#    0.000    0.000    0.000    0.000    0.000    0.000 
#    0.000    0.000    0.000    0.000    0.000    0.000 
#
# Total GULP energy -167054.583152 kJ/mol
# GULP energy per Si atom -5568.486105 kJ/mol
# Density = 1.940016 g / cm^3
# Si number density = 19.444413 Si / 1000 Ang^3
#
#
#
# Elastic Constant Matrix: (Units=GPa)
#
#
# Indices 1 2 3 4 5 6 
#
# 1 99.5236 -6.7369 15.8260 0.0000 -5.5137 0.0000
# 2 -6.7369 12.7146 7.2663 0.0000 5.0784 0.0000
# 3 15.8260 7.2663 32.8753 0.0000 11.9775 0.0000
# 4 0.0000 0.0000 0.0000 19.9818 0.0000 7.3623
# 5 -5.5137 5.0784 11.9775 0.0000 15.1685 0.0000
# 6 0.0000 0.0000 0.0000 7.3623 0.0000 19.6593
#
#
#
# Elastic Compliance Matrix: (Units=1/GPa)
#
#
# Indices 1 2 3 4 5 6 
#
# 1 0.013419 0.009779 -0.012924 0.000000 0.011809 0.000000
# 2 0.009779 0.101809 -0.022584 0.000000 -0.012698 0.000000
# 3 -0.012924 -0.022584 0.056980 0.000000 -0.042130 0.000000
# 4 0.000000 0.000000 0.000000 0.058056 0.000000 -0.021742
# 5 0.011809 -0.012698 -0.042130 0.000000 0.107736 0.000000
# 6 0.000000 0.000000 0.000000 -0.021742 0.000000 0.059009
#
#
# Mechanical properties :
#
#
# Convention : Reuss Voigt Hill
#
# Bulk Modulus (GPa) = 8.28144 19.75825 14.01984
# Shear Modulus (GPa) = 10.23086 19.54579 14.88833
#
# Velocity S-wave (km/s) = 2.29631 3.17395 2.77011
# Velocity P-wave (km/s) = 3.36139 4.85957 4.17818
#
# Compressibility (1/GPa) = 0.12075202
#
# Stress axis : x y z
#
# Youngs Moduli (GPa) = 74.52036 9.82229 17.54995
#
# Poissons Ratio (x) = -0.09606 0.22681
# Poissons Ratio (y) = -0.72877 0.39635
# Poissons Ratio (z) = 0.96308 0.22183
#
# Static dielectric constant tensor:
#      x y z
#    x 1.655850 0.000000 -0.006080 
#    y 0.000000 1.689610 0.000000 
#    z -0.006080 0.000000 1.647040 
# 
# From -- ./inp_files/69381.got.cif
#   From: 2010.05.17/outbox.cif.g08.bks.cpg/sg14_35_cif.got.tgz:69381.got - 2010.06.03 17:49:19.
