data_PCOD9243573
_publ_section_title
;
Structure prediction by ZEFSAII (Michael W. Deem and Ramdas Pophale) SiO2 
 PCOD9243573
Probable space group: P 21/C
;
_chemical_formula_sum "Si O2"
_cell_formula_units_Z 28
_cell_length_a 13.651494
_cell_length_b 9.400507
_cell_length_c 9.863793
_cell_angle_alpha 90.000000
_cell_angle_beta 76.342256
_cell_angle_gamma 90.000000
_cell_volume 1230.036861
_symmetry_space_group_name_H-M "P 21/C"
_symmetry_group_IT_number 14
_symmetry_cell_setting 'monoclinic'
loop_
_space_group_symop_operation_xyz
x,y,z
-x,1/2+y,1/2-z
-x,-y,-z
x,1/2-y,1/2+z
loop_
_atom_site_type_symbol
_atom_site_label
_atom_site_fract_x
_atom_site_fract_y
_atom_site_fract_z
Si Si1 0.637143 0.021326 0.487902
Si Si2 0.961007 0.296507 0.417182
Si Si3 0.211585 0.968391 0.160388
Si Si4 0.434426 0.513242 0.679752
Si Si5 0.525120 0.750347 0.998189
Si Si6 0.909604 0.738771 0.381099
Si Si7 0.152130 0.530375 0.989002
O O1 0.602382 0.018075 0.655759
O O2 0.567182 0.141807 0.447272
O O3 0.752411 0.063812 0.447491
O O4 0.616135 0.860267 0.447703
O O5 0.854590 0.371093 0.418544
O O6 0.939390 0.127453 0.434831
O O7 0.035395 0.311442 0.265182
O O8 0.010051 0.337807 0.545053
O O9 0.333015 0.960299 0.122146
O O10 0.176973 0.933764 0.325391
O O11 0.173473 0.127537 0.140748
O O12 0.477581 0.358887 0.626966
O O13 0.516566 0.634330 0.621317
O O14 0.863830 0.863638 0.487080
#
# Coordination Sequence:
#
# PCOD9243573 Si02
#       7
#     4   4   4   4   4   4   4
#     4  10  21  37  62  85 121 155 195 242 299 356
#     4  12  23  41  65  87 123 162 203 250 303 356
#     4  11  23  40  60  91 122 161 202 250 302 355
#     4  10  21  37  61  86 123 152 193 249 295 351
#     4  10  20  38  60  90 114 156 200 234 298 358
#     4  12  23  41  65  87 123 162 203 250 303 356
#     4  11  23  41  59  91 124 158 200 257 300 353
#
# _framework density 22.763544
#
# number of rings (size 3 to 8) (size 9 to 14) (size 15 to 20)
#    0.000    1.143    2.857    4.286    0.000    0.000 
#    0.000    0.000   12.571    0.000    0.000    0.000 
#    0.000    0.000    0.000    0.000    0.000    0.000 
#
# Total GULP energy -156406.908728 kJ/mol
# GULP energy per Si atom -5585.961026 kJ/mol
# Density = 2.271173 g / cm^3
# Si number density = 22.763544 Si / 1000 Ang^3
#
#
#
# Elastic Constant Matrix: (Units=GPa)
#
#
# Indices 1 2 3 4 5 6 
#
# 1 69.5924 -3.1468 -9.0247 0.0000 11.6936 0.0000
# 2 -3.1468 84.7554 -9.2592 0.0000 -0.3049 0.0000
# 3 -9.0247 -9.2592 44.1898 0.0000 2.7167 0.0000
# 4 0.0000 0.0000 0.0000 25.9436 0.0000 6.5913
# 5 11.6936 -0.3049 2.7167 0.0000 22.6548 0.0000
# 6 0.0000 0.0000 0.0000 6.5913 0.0000 37.2948
#
#
#
# Elastic Compliance Matrix: (Units=1/GPa)
#
#
# Indices 1 2 3 4 5 6 
#
# 1 0.016460 0.001030 0.004129 0.000000 -0.008977 0.000000
# 2 0.001030 0.012140 0.002797 0.000000 -0.000704 0.000000
# 3 0.004129 0.002797 0.024367 0.000000 -0.005016 0.000000
# 4 0.000000 0.000000 0.000000 0.040357 0.000000 -0.007133
# 5 -0.008977 -0.000704 -0.005016 0.000000 0.049366 0.000000
# 6 0.000000 0.000000 0.000000 -0.007133 0.000000 0.028074
#
#
# Mechanical properties :
#
#
# Convention : Reuss Voigt Hill
#
# Bulk Modulus (GPa) = 14.51794 17.29736 15.90765
# Shear Modulus (GPa) = 28.11957 31.84321 29.98139
#
# Velocity S-wave (km/s) = 3.51848 3.74420 3.63310
# Velocity P-wave (km/s) = 4.78517 5.12906 4.96010
#
# Compressibility (1/GPa) = 0.06888031
#
# Stress axis : x y z
#
# Youngs Moduli (GPa) = 60.75377 82.37255 41.03834
#
# Poissons Ratio (x) = -0.08484 -0.16946
# Poissons Ratio (y) = -0.06257 -0.11480
# Poissons Ratio (z) = -0.25087 -0.23042
#
# Static dielectric constant tensor:
#      x y z
#    x 1.905830 0.000000 0.032990 
#    y 0.000000 1.846340 0.000000 
#    z 0.032990 0.000000 1.801250 
# 
# From -- ./inp_files/31528.got.cif
#   From: 2010.05.17/outbox.cif.g08.bks.cpg/sg14_16_cif.got.tgz:31528.got - 2010.06.03 17:49:19.
