data_PCOD9243830
_publ_section_title
;
Structure prediction by ZEFSAII (Michael W. Deem and Ramdas Pophale) SiO2 
 PCOD9243830
Probable space group: P 21/C
;
_chemical_formula_sum "Si O2"
_cell_formula_units_Z 32
_cell_length_a 11.392544
_cell_length_b 10.591889
_cell_length_c 12.906500
_cell_angle_alpha 90.000000
_cell_angle_beta 74.418400
_cell_angle_gamma 90.000000
_cell_volume 1500.172269
_symmetry_space_group_name_H-M "P 21/C"
_symmetry_group_IT_number 14
_symmetry_cell_setting 'monoclinic'
loop_
_space_group_symop_operation_xyz
x,y,z
-x,1/2+y,1/2-z
-x,-y,-z
x,1/2-y,1/2+z
loop_
_atom_site_type_symbol
_atom_site_label
_atom_site_fract_x
_atom_site_fract_y
_atom_site_fract_z
Si Si1 0.054305 0.412862 0.328764
Si Si2 0.146899 0.007862 0.474341
Si Si3 0.273057 0.652555 0.124441
Si Si4 0.730682 0.780502 0.025556
Si Si5 0.488165 0.352894 0.040896
Si Si6 0.988099 0.660193 0.445520
Si Si7 0.864740 0.137316 0.715185
Si Si8 0.320971 0.416481 0.252694
O O1 0.006880 0.321664 0.431277
O O2 0.183713 0.369480 0.252944
O O3 0.068539 0.540704 0.391757
O O4 0.955242 0.440913 0.266380
O O5 0.190063 0.933239 0.567280
O O6 0.200811 0.942184 0.357852
O O7 0.200265 0.149262 0.460615
O O8 0.000000 0.000000 0.500000
O O9 0.382160 0.698709 0.024384
O O10 0.212137 0.771809 0.193020
O O11 0.317314 0.559293 0.207723
O O12 0.617074 0.727913 0.989296
O O13 0.681650 0.871445 0.128341
O O14 0.845672 0.855549 0.950132
O O15 0.500000 0.500000 0.000000
O O16 0.438579 0.357508 0.169292
O O17 0.044782 0.773091 0.369993
#
# Coordination Sequence:
#
# PCOD9243830 Si02
#       8
#     4   4   4   4   4   4   4   4
#     4  10  21  37  57  94 129 163 204 259 330 388
#     4  12  24  40  61  98 132 161 214 263 321 391
#     4  11  24  44  63  88 131 175 208 264 330 373
#     4  11  22  39  67  94 120 167 214 259 317 386
#     4  10  21  43  64  85 123 170 217 259 308 374
#     4  10  21  36  59  88 131 161 202 258 320 388
#     4  12  23  35  62  92 126 167 203 258 324 386
#     4  10  20  38  68  90 119 172 215 257 320 384
#
# _framework density 21.330884000000001
#
# number of rings (size 3 to 8) (size 9 to 14) (size 15 to 20)
#    0.000    1.250    5.000    2.250    1.750    2.000 
#    0.000    0.000    0.000    1.500    0.000    0.000 
#    0.000    0.000    0.000    0.000    0.000    0.000 
#
# Total GULP energy -178256.984102 kJ/mol
# GULP energy per Si atom -5570.530753 kJ/mol
# Density = 2.128233 g / cm^3
# Si number density = 21.330884 Si / 1000 Ang^3
#
#
#
# Elastic Constant Matrix: (Units=GPa)
#
#
# Indices 1 2 3 4 5 6 
#
# 1 49.7396 4.2741 15.5289 0.0000 -20.8820 0.0000
# 2 4.2741 30.9097 14.1586 0.0000 -2.0477 0.0000
# 3 15.5289 14.1586 79.1209 0.0000 -37.4223 0.0000
# 4 0.0000 0.0000 0.0000 30.3205 0.0000 -1.0535
# 5 -20.8820 -2.0477 -37.4223 0.0000 43.5641 0.0000
# 6 0.0000 0.0000 0.0000 -1.0535 0.0000 26.2920
#
#
#
# Elastic Compliance Matrix: (Units=1/GPa)
#
#
# Indices 1 2 3 4 5 6 
#
# 1 0.025611 -0.003653 0.002278 0.000000 0.014061 0.000000
# 2 -0.003653 0.036831 -0.009910 0.000000 -0.008532 0.000000
# 3 0.002278 -0.009910 0.024021 0.000000 0.021260 0.000000
# 4 0.000000 0.000000 0.000000 0.033027 0.000000 0.001323
# 5 0.014061 -0.008532 0.021260 0.000000 0.047557 0.000000
# 6 0.000000 0.000000 0.000000 0.001323 0.000000 0.038087
#
#
# Mechanical properties :
#
#
# Convention : Reuss Voigt Hill
#
# Bulk Modulus (GPa) = 15.65118 25.29926 20.47522
# Shear Modulus (GPa) = 20.08020 28.42256 24.25138
#
# Velocity S-wave (km/s) = 3.07150 3.65425 3.37547
# Velocity P-wave (km/s) = 4.46454 5.44893 4.98111
#
# Compressibility (1/GPa) = 0.06389295
#
# Stress axis : x y z
#
# Youngs Moduli (GPa) = 39.04606 27.15073 41.63073
#
# Poissons Ratio (x) = 0.09919 -0.09483
# Poissons Ratio (y) = 0.14264 0.41254
# Poissons Ratio (z) = -0.08894 0.26905
#
# Static dielectric constant tensor:
#      x y z
#    x 1.828010 0.000000 0.027560 
#    y 0.000000 1.853260 0.000000 
#    z 0.027560 0.000000 1.857080 
# 
# From -- ./inp_files/29056.got.cif
#   From: 2010.05.17/outbox.cif.g08.bks.cpg/sg14_15_cif.got.tgz:29056.got - 2010.06.03 17:49:19.
