data_PCOD9243107
_publ_section_title
;
Structure prediction by ZEFSAII (Michael W. Deem and Ramdas Pophale) SiO2 
 PCOD9243107
Probable space group: P 21/C
;
_chemical_formula_sum "Si O2"
_cell_formula_units_Z 26
_cell_length_a 14.376700
_cell_length_b 15.485112
_cell_length_c 8.432146
_cell_angle_alpha 90.000000
_cell_angle_beta 141.159437
_cell_angle_gamma 90.000000
_cell_volume 1177.299175
_symmetry_space_group_name_H-M "P 21/C"
_symmetry_group_IT_number 14
_symmetry_cell_setting 'monoclinic'
loop_
_space_group_symop_operation_xyz
x,y,z
-x,1/2+y,1/2-z
-x,-y,-z
x,1/2-y,1/2+z
loop_
_atom_site_type_symbol
_atom_site_label
_atom_site_fract_x
_atom_site_fract_y
_atom_site_fract_z
Si Si1 0.243085 0.904230 0.607241
Si Si2 0.520364 0.843162 0.791165
Si Si3 0.500000 0.000000 0.500000
Si Si4 0.298671 0.512818 0.517384
Si Si5 0.314146 0.225934 0.693950
Si Si6 0.080477 0.381463 0.371525
Si Si7 0.231495 0.432315 0.863793
O O1 0.368288 0.850683 0.682453
O O2 0.297248 0.938573 0.850561
O O3 0.083163 0.860129 0.404158
O O4 0.218719 0.988890 0.467275
O O5 0.539923 0.773734 0.680426
O O6 0.646256 0.817123 0.086149
O O7 0.564104 0.940023 0.783830
O O8 0.371511 0.054567 0.434461
O O9 0.641431 0.065804 0.755231
O O10 0.153562 0.455981 0.357029
O O11 0.187758 0.298794 0.523695
O O12 0.263342 0.151191 0.510375
O O13 0.091140 0.418241 0.563720
#
# Coordination Sequence:
#
# PCOD9243107 Si02
#       7
#     4   4   2   4   4   4   4
#     4  12  22  40  66  99 118 161 223 268 300 374
#     4  11  22  39  64  89 123 161 215 258 311 377
#     4  10  20  36  64 102 116 156 210 272 304 360
#     4  10  20  38  64  91 124 159 206 263 309 369
#     4  11  22  42  63  86 128 179 197 254 328 385
#     4  10  24  40  60  93 134 165 204 255 331 381
#     4  11  21  39  69  89 128 164 213 261 319 368
#
# _framework density 22.084446
#
# number of rings (size 3 to 8) (size 9 to 14) (size 15 to 20)
#    0.000    1.231    4.615    2.308    0.000    0.000 
#    2.769    0.000    6.769    0.000    0.000    0.000 
#    0.000    0.000    0.000    0.000    0.000    0.000 
#
# Total GULP energy -144905.335816 kJ/mol
# GULP energy per Si atom -5573.282147 kJ/mol
# Density = 2.203418 g / cm^3
# Si number density = 22.084446 Si / 1000 Ang^3
#
#
#
# Elastic Constant Matrix: (Units=GPa)
#
#
# Indices 1 2 3 4 5 6 
#
# 1 57.5921 19.2911 39.9431 0.0000 -4.3083 0.0000
# 2 19.2911 63.8161 23.8084 0.0000 -6.2350 0.0000
# 3 39.9431 23.8084 91.4131 0.0000 -1.2615 0.0000
# 4 0.0000 0.0000 0.0000 26.3932 0.0000 -8.7361
# 5 -4.3083 -6.2350 -1.2615 0.0000 42.7949 0.0000
# 6 0.0000 0.0000 0.0000 -8.7361 0.0000 30.9148
#
#
#
# Elastic Compliance Matrix: (Units=1/GPa)
#
#
# Indices 1 2 3 4 5 6 
#
# 1 0.025923 -0.003820 -0.010308 0.000000 0.001749 0.000000
# 2 -0.003820 0.018169 -0.003033 0.000000 0.002173 0.000000
# 3 -0.010308 -0.003033 0.016220 0.000000 -0.001002 0.000000
# 4 0.000000 0.000000 0.000000 0.041798 0.000000 0.011811
# 5 0.001749 0.002173 -0.001002 0.000000 0.023830 0.000000
# 6 0.000000 0.000000 0.000000 0.011811 0.000000 0.035685
#
#
# Mechanical properties :
#
#
# Convention : Reuss Voigt Hill
#
# Bulk Modulus (GPa) = 38.47690 42.10074 40.28882
# Shear Modulus (GPa) = 24.43684 28.67250 26.55467
#
# Velocity S-wave (km/s) = 3.33005 3.60712 3.47135
# Velocity P-wave (km/s) = 5.67856 6.03766 5.86086
#
# Compressibility (1/GPa) = 0.02598962
#
# Stress axis : x y z
#
# Youngs Moduli (GPa) = 38.57578 55.04013 61.65372
#
# Poissons Ratio (x) = 0.21024 0.63553
# Poissons Ratio (y) = 0.14735 0.18699
# Poissons Ratio (z) = 0.39764 0.16694
#
# Static dielectric constant tensor:
#      x y z
#    x 1.999740 0.000000 -0.207280 
#    y 0.000000 2.031050 0.000000 
#    z -0.207280 0.000000 2.220890 
# 
# From -- ./inp_files/13193.got.cif
#   From: 2010.05.17/outbox.cif.g08.bks.cpg/sg14_7_cif.got.tgz:13193.got - 2010.06.03 17:49:19.
