data_PCOD9243841
_publ_section_title
;
Structure prediction by ZEFSAII (Michael W. Deem and Ramdas Pophale) SiO2 
 PCOD9243841
Probable space group: P 21/C
;
_chemical_formula_sum "Si O2"
_cell_formula_units_Z 28
_cell_length_a 13.915922
_cell_length_b 8.923477
_cell_length_c 14.500166
_cell_angle_alpha 90.000000
_cell_angle_beta 136.963031
_cell_angle_gamma 90.000000
_cell_volume 1228.860838
_symmetry_space_group_name_H-M "P 21/C"
_symmetry_group_IT_number 14
_symmetry_cell_setting 'monoclinic'
loop_
_space_group_symop_operation_xyz
x,y,z
-x,1/2+y,1/2-z
-x,-y,-z
x,1/2-y,1/2+z
loop_
_atom_site_type_symbol
_atom_site_label
_atom_site_fract_x
_atom_site_fract_y
_atom_site_fract_z
Si Si1 0.706166 0.213026 0.854868
Si Si2 0.099947 0.794732 0.850357
Si Si3 0.631286 0.717456 0.078575
Si Si4 0.690031 0.128780 0.639847
Si Si5 0.481849 0.986874 0.748951
Si Si6 0.832624 0.860841 0.088856
Si Si7 0.314560 0.239784 0.182521
O O1 0.737503 0.135186 0.779877
O O2 0.615945 0.099286 0.858277
O O3 0.607616 0.356443 0.764022
O O4 0.842829 0.255095 0.009182
O O5 0.202210 0.715700 0.848726
O O6 0.943378 0.747850 0.714954
O O7 0.115029 0.972751 0.857501
O O8 0.675948 0.543592 0.097852
O O9 0.683420 0.823887 0.032871
O O10 0.702144 0.777673 0.222587
O O11 0.463085 0.707515 0.969631
O O12 0.364848 0.115807 0.659640
O O13 0.557698 0.882689 0.725936
O O14 0.811390 0.828881 0.965333
#
# Coordination Sequence:
#
# PCOD9243841 Si02
#       7
#     4   4   4   4   4   4   4
#     4  11  23  42  68 100 141 178 222 282 345 400
#     4  12  28  47  68  98 141 188 229 276 339 411
#     4  11  24  42  72 107 136 174 226 284 344 406
#     4  11  24  42  72 107 136 174 226 284 344 406
#     4  10  20  38  70 100 134 176 218 280 348 396
#     4  12  28  47  68  98 141 188 229 276 339 411
#     4  11  23  42  68 100 141 178 222 282 345 400
#
# _framework density 22.785329000000001
#
# number of rings (size 3 to 8) (size 9 to 14) (size 15 to 20)
#    0.000    0.857    2.857    4.286   10.000    1.714 
#    0.000    4.286    0.000    0.000    0.000    0.000 
#    0.000    0.000    0.000    0.000    0.000    0.000 
#
# Total GULP energy -156186.868814 kJ/mol
# GULP energy per Si atom -5578.102458 kJ/mol
# Density = 2.273347 g / cm^3
# Si number density = 22.785329 Si / 1000 Ang^3
#
#
#
# Elastic Constant Matrix: (Units=GPa)
#
#
# Indices 1 2 3 4 5 6 
#
# 1 28.3503 4.1061 17.3528 0.0000 -7.5123 0.0000
# 2 4.1061 90.0191 3.3199 0.0000 5.0771 0.0000
# 3 17.3528 3.3199 106.3554 0.0000 -13.4190 0.0000
# 4 0.0000 0.0000 0.0000 28.0961 0.0000 7.3865
# 5 -7.5123 5.0771 -13.4190 0.0000 35.4094 0.0000
# 6 0.0000 0.0000 0.0000 7.3865 0.0000 37.7257
#
#
#
# Elastic Compliance Matrix: (Units=1/GPa)
#
#
# Indices 1 2 3 4 5 6 
#
# 1 0.040886 -0.002036 -0.005751 0.000000 0.006787 0.000000
# 2 -0.002036 0.011335 -0.000295 0.000000 -0.002169 0.000000
# 3 -0.005751 -0.000295 0.010714 0.000000 0.002882 0.000000
# 4 0.000000 0.000000 0.000000 0.037524 0.000000 -0.007347
# 5 0.006787 -0.002169 0.002882 0.000000 0.031084 0.000000
# 6 0.000000 0.000000 0.000000 -0.007347 0.000000 0.027946
#
#
# Mechanical properties :
#
#
# Convention : Reuss Voigt Hill
#
# Bulk Modulus (GPa) = 21.38098 30.47583 25.92841
# Shear Modulus (GPa) = 26.14478 33.57597 29.86037
#
# Velocity S-wave (km/s) = 3.39106 3.84289 3.62402
# Velocity P-wave (km/s) = 4.97357 5.75279 5.37731
#
# Compressibility (1/GPa) = 0.04677054
#
# Stress axis : x y z
#
# Youngs Moduli (GPa) = 24.45806 88.22365 93.33864
#
# Poissons Ratio (x) = 0.17959 0.53680
# Poissons Ratio (y) = 0.04979 0.02757
# Poissons Ratio (z) = 0.14066 0.02606
#
# Static dielectric constant tensor:
#      x y z
#    x 1.830430 0.000000 -0.009350 
#    y 0.000000 1.855730 0.000000 
#    z -0.009350 0.000000 1.863440 
# 
# From -- ./inp_files/46756.got.cif
#   From: 2010.05.17/outbox.cif.g08.bks.cpg/sg14_24_cif.got.tgz:46756.got - 2010.06.03 17:49:19.
