data_PCOD9243759
_publ_section_title
;
Structure prediction by ZEFSAII (Michael W. Deem and Ramdas Pophale) SiO2 
 PCOD9243759
Probable space group: P 21/C
;
_chemical_formula_sum "Si O2"
_cell_formula_units_Z 28
_cell_length_a 16.183269
_cell_length_b 7.554404
_cell_length_c 22.865834
_cell_angle_alpha 90.000000
_cell_angle_beta 156.114060
_cell_angle_gamma 90.000000
_cell_volume 1131.930483
_symmetry_space_group_name_H-M "P 21/C"
_symmetry_group_IT_number 14
_symmetry_cell_setting 'monoclinic'
loop_
_space_group_symop_operation_xyz
x,y,z
-x,1/2+y,1/2-z
-x,-y,-z
x,1/2-y,1/2+z
loop_
_atom_site_type_symbol
_atom_site_label
_atom_site_fract_x
_atom_site_fract_y
_atom_site_fract_z
Si Si1 0.648968 0.879798 0.059793
Si Si2 0.207685 0.818764 0.546223
Si Si3 0.157885 0.400295 0.645296
Si Si4 0.222248 0.356894 0.472035
Si Si5 0.787983 0.990255 0.696318
Si Si6 0.126995 0.964123 0.369941
Si Si7 0.372417 0.186555 0.688090
O O1 0.600430 0.905744 0.958998
O O2 0.661146 0.684575 0.096677
O O3 0.885120 0.936595 0.215239
O O4 0.500000 0.000000 0.000000
O O5 0.985444 0.749500 0.418300
O O6 0.387140 0.676105 0.669753
O O7 0.215893 0.874701 0.484298
O O8 0.269607 0.994161 0.622382
O O9 0.000000 0.500000 0.500000
O O10 0.246580 0.518532 0.756582
O O11 0.324247 0.301442 0.713994
O O12 0.151056 0.174261 0.394495
O O13 0.280501 0.293382 0.573685
O O14 0.039147 0.499242 0.357630
O O15 0.765937 0.098822 0.620981
#
# Coordination Sequence:
#
# PCOD9243759 Si02
#       7
#     4   4   4   4   4   4   4
#     4  10  20  38  64  96 126 170 232 285 335 403
#     4  11  24  45  70  98 135 184 230 284 343 412
#     4  12  23  42  66 102 139 179 228 281 344 413
#     4   9  20  40  62  90 131 177 220 275 343 403
#     4  10  20  40  66  91 131 174 215 281 339 400
#     4   9  20  42  67  91 129 177 222 273 348 395
#     4  11  24  42  66  98 134 183 231 281 344 418
#
# _framework density 24.736501000000001
#
# number of rings (size 3 to 8) (size 9 to 14) (size 15 to 20)
#    0.000    1.714    2.857    1.286    0.000    1.143 
#    7.714    4.286    0.000    0.000    0.000    1.000 
#    0.000    0.000    0.000    0.000    0.000    0.000 
#
# Total GULP energy -156257.999250 kJ/mol
# GULP energy per Si atom -5580.642830 kJ/mol
# Density = 2.468020 g / cm^3
# Si number density = 24.736501 Si / 1000 Ang^3
#
#
#
# Elastic Constant Matrix: (Units=GPa)
#
#
# Indices 1 2 3 4 5 6 
#
# 1 136.7679 11.0968 21.2025 0.0000 -17.3807 0.0000
# 2 11.0968 59.2383 0.4842 0.0000 2.0588 0.0000
# 3 21.2025 0.4842 57.0370 0.0000 3.2577 0.0000
# 4 0.0000 0.0000 0.0000 30.7639 0.0000 -0.3133
# 5 -17.3807 2.0588 3.2577 0.0000 41.4137 0.0000
# 6 0.0000 0.0000 0.0000 -0.3133 0.0000 29.0524
#
#
#
# Elastic Compliance Matrix: (Units=1/GPa)
#
#
# Indices 1 2 3 4 5 6 
#
# 1 0.008465 -0.001694 -0.003355 0.000000 0.003901 0.000000
# 2 -0.001694 0.017250 0.000575 0.000000 -0.001614 0.000000
# 3 -0.003355 0.000575 0.018942 0.000000 -0.002927 0.000000
# 4 0.000000 0.000000 0.000000 0.032509 0.000000 0.000351
# 5 0.003901 -0.001614 -0.002927 0.000000 0.026094 0.000000
# 6 0.000000 0.000000 0.000000 0.000351 0.000000 0.034424
#
#
# Mechanical properties :
#
#
# Convention : Reuss Voigt Hill
#
# Bulk Modulus (GPa) = 28.00380 35.40113 31.70246
# Shear Modulus (GPa) = 31.53889 34.92998 33.23443
#
# Velocity S-wave (km/s) = 3.57458 3.76185 3.66941
# Velocity P-wave (km/s) = 5.32750 5.76290 5.54947
#
# Compressibility (1/GPa) = 0.03570944
#
# Stress axis : x y z
#
# Youngs Moduli (GPa) = 118.13460 57.97221 52.79287
#
# Poissons Ratio (x) = 0.09820 0.17713
# Poissons Ratio (y) = 0.20010 -0.03038
# Poissons Ratio (z) = 0.39635 -0.03336
#
# Static dielectric constant tensor:
#      x y z
#    x 2.015810 0.000000 -0.077450 
#    y 0.000000 2.031040 0.000000 
#    z -0.077450 0.000000 2.006040 
# 
# From -- ./inp_files/68357.got.cif
#   From: 2010.05.17/outbox.cif.g08.bks.cpg/sg14_35_cif.got.tgz:68357.got - 2010.06.03 17:49:19.
