data_PCOD9243778
_publ_section_title
;
Structure prediction by ZEFSAII (Michael W. Deem and Ramdas Pophale) SiO2 
 PCOD9243778
Probable space group: P 21/C
;
_chemical_formula_sum "Si O2"
_cell_formula_units_Z 30
_cell_length_a 15.347773
_cell_length_b 8.023878
_cell_length_c 12.494788
_cell_angle_alpha 90.000000
_cell_angle_beta 134.188876
_cell_angle_gamma 90.000000
_cell_volume 1103.330344
_symmetry_space_group_name_H-M "P 21/C"
_symmetry_group_IT_number 14
_symmetry_cell_setting 'monoclinic'
loop_
_space_group_symop_operation_xyz
x,y,z
-x,1/2+y,1/2-z
-x,-y,-z
x,1/2-y,1/2+z
loop_
_atom_site_type_symbol
_atom_site_label
_atom_site_fract_x
_atom_site_fract_y
_atom_site_fract_z
Si Si1 0.030560 0.268479 0.889284
Si Si2 0.404721 0.989740 0.688688
Si Si3 0.000000 0.500000 0.000000
Si Si4 0.104508 0.462000 0.752821
Si Si5 0.328133 0.210593 0.431027
Si Si6 0.221165 0.573594 0.366614
Si Si7 0.463342 0.740694 0.554959
Si Si8 0.824280 0.205358 0.491583
O O1 0.107702 0.372357 0.039063
O O2 0.997311 0.080353 0.885860
O O3 0.913588 0.405182 0.802812
O O4 0.068140 0.309134 0.800246
O O5 0.470047 0.877304 0.654964
O O6 0.303245 0.871229 0.653908
O O7 0.348892 0.137171 0.567676
O O8 0.486459 0.071043 0.848984
O O9 0.935415 0.330847 0.009743
O O10 0.222642 0.406462 0.790409
O O11 0.146135 0.601449 0.874986
O O12 0.274320 0.394065 0.392945
O O13 0.451507 0.209156 0.469672
O O14 0.321665 0.704416 0.411222
O O15 0.201095 0.615402 0.475293
#
# Coordination Sequence:
#
# PCOD9243778 Si02
#       8
#     4   4   2   4   4   4   4   4
#     4  10  20  38  65  91 127 172 210 270 329 389
#     4  10  22  41  59  90 132 167 215 285 325 393
#     4  10  20  38  66  98 130 168 212 266 336 400
#     4   9  19  38  61  90 123 168 212 266 322 387
#     4  11  22  40  66  94 128 173 225 274 334 402
#     4  10  21  38  60  92 126 167 220 260 328 394
#     4  11  23  41  64  95 127 178 221 269 342 402
#     4   8  19  38  60  87 128 163 210 259 334 383
#
# _framework density 27.190404999999998
#
# number of rings (size 3 to 8) (size 9 to 14) (size 15 to 20)
#    0.000    2.133    0.000    3.200    1.867    0.000 
#    9.600    0.000    0.000   10.400    0.000    0.000 
#    0.000    0.000    0.000    0.000    0.000    0.000 
#
# Total GULP energy -167430.573563 kJ/mol
# GULP energy per Si atom -5581.019119 kJ/mol
# Density = 2.712852 g / cm^3
# Si number density = 27.190405 Si / 1000 Ang^3
#
#
#
# Elastic Constant Matrix: (Units=GPa)
#
#
# Indices 1 2 3 4 5 6 
#
# 1 171.0560 47.3350 22.6080 0.0000 13.1710 0.0000
# 2 47.3350 101.5089 20.3337 0.0000 8.3644 0.0000
# 3 22.6080 20.3337 66.9314 0.0000 1.5807 0.0000
# 4 0.0000 0.0000 0.0000 42.6595 0.0000 0.9415
# 5 13.1710 8.3644 1.5807 0.0000 36.9259 0.0000
# 6 0.0000 0.0000 0.0000 0.9415 0.0000 49.0107
#
#
#
# Elastic Compliance Matrix: (Units=1/GPa)
#
#
# Indices 1 2 3 4 5 6 
#
# 1 0.006951 -0.002803 -0.001454 0.000000 -0.001782 0.000000
# 2 -0.002803 0.011809 -0.002604 0.000000 -0.001564 0.000000
# 3 -0.001454 -0.002604 0.016213 0.000000 0.000414 0.000000
# 4 0.000000 0.000000 0.000000 0.023451 0.000000 -0.000451
# 5 -0.001782 -0.001564 0.000414 0.000000 0.028053 0.000000
# 6 0.000000 0.000000 0.000000 -0.000451 0.000000 0.020412
#
#
# Mechanical properties :
#
#
# Convention : Reuss Voigt Hill
#
# Bulk Modulus (GPa) = 47.05716 57.78329 52.42023
# Shear Modulus (GPa) = 39.15534 42.33386 40.74460
#
# Velocity S-wave (km/s) = 3.79891 3.95009 3.87524
# Velocity P-wave (km/s) = 6.04867 6.48859 6.27248
#
# Compressibility (1/GPa) = 0.02125075
#
# Stress axis : x y z
#
# Youngs Moduli (GPa) = 143.86018 84.68135 61.67847
#
# Poissons Ratio (x) = 0.23739 0.08970
# Poissons Ratio (y) = 0.40328 0.16059
# Poissons Ratio (z) = 0.20921 0.22049
#
# Static dielectric constant tensor:
#      x y z
#    x 2.205760 0.000000 -0.140620 
#    y 0.000000 2.359020 0.000000 
#    z -0.140620 0.000000 2.683500 
# 
# From -- ./inp_files/46585.got.cif
#   From: 2010.05.17/outbox.cif.g08.bks.cpg/sg14_24_cif.got.tgz:46585.got - 2010.06.03 17:49:19.
