data_PCOD9243326
_publ_section_title
;
Structure prediction by ZEFSAII (Michael W. Deem and Ramdas Pophale) SiO2 
 PCOD9243326
Probable space group: P 21/C
;
_chemical_formula_sum "Si O2"
_cell_formula_units_Z 32
_cell_length_a 12.832397
_cell_length_b 7.701842
_cell_length_c 15.464247
_cell_angle_alpha 90.000000
_cell_angle_beta 63.371599
_cell_angle_gamma 90.000000
_cell_volume 1366.267506
_symmetry_space_group_name_H-M "P 21/C"
_symmetry_group_IT_number 14
_symmetry_cell_setting 'monoclinic'
loop_
_space_group_symop_operation_xyz
x,y,z
-x,1/2+y,1/2-z
-x,-y,-z
x,1/2-y,1/2+z
loop_
_atom_site_type_symbol
_atom_site_label
_atom_site_fract_x
_atom_site_fract_y
_atom_site_fract_z
Si Si1 0.721210 0.441245 0.813397
Si Si2 0.294312 0.195791 0.466393
Si Si3 0.807755 0.279689 0.613884
Si Si4 0.955066 0.856597 0.893527
Si Si5 0.753176 0.895069 0.701271
Si Si6 0.583892 0.728925 0.408992
Si Si7 0.943860 0.673836 0.721945
Si Si8 0.317688 0.716538 0.005652
O O1 0.735001 0.393052 0.709054
O O2 0.615298 0.572067 0.869788
O O3 0.837744 0.549094 0.791292
O O4 0.714047 0.281356 0.881592
O O5 0.166822 0.276359 0.532592
O O6 0.306416 0.203592 0.358229
O O7 0.379341 0.287683 0.504049
O O8 0.306442 0.990533 0.486376
O O9 0.762710 0.306217 0.534721
O O10 0.942998 0.323460 0.575878
O O11 0.783987 0.084311 0.654817
O O12 0.990821 0.759187 0.791124
O O13 0.963677 0.056696 0.861979
O O14 0.665716 0.883641 0.815233
O O15 0.874830 0.807953 0.686436
O O16 0.447437 0.711655 0.447402
#
# Coordination Sequence:
#
# PCOD9243326 Si02
#       8
#     4   4   4   4   4   4   4   4
#     4   9  18  39  59  82 113 156 203 244 290 358
#     4  10  20  37  61  89 116 156 209 238 297 362
#     4  10  23  35  56  89 122 156 197 249 303 351
#     4  11  20  37  61  89 119 157 199 240 297 365
#     4  10  21  39  56  89 123 154 199 250 300 355
#     4  10  20  38  63  83 116 161 208 247 301 351
#     4  10  20  37  62  85 124 156 191 241 299 354
#     4  10  20  37  61  87 116 162 207 244 300 362
#
# _framework density 23.421474
#
# number of rings (size 3 to 8) (size 9 to 14) (size 15 to 20)
#    0.000    2.000    3.750    2.250    0.000    5.500 
#    4.500    4.375    0.000    0.000    0.000    0.000 
#    0.000    0.000    0.000    0.000    0.000    0.000 
#
# Total GULP energy -178909.677810 kJ/mol
# GULP energy per Si atom -5590.927432 kJ/mol
# Density = 2.336817 g / cm^3
# Si number density = 23.421474 Si / 1000 Ang^3
#
#
#
# Elastic Constant Matrix: (Units=GPa)
#
#
# Indices 1 2 3 4 5 6 
#
# 1 112.3641 19.1875 21.4883 0.0000 8.8869 0.0000
# 2 19.1875 44.2420 21.8031 0.0000 -3.4870 0.0000
# 3 21.4883 21.8031 60.9677 0.0000 12.2740 0.0000
# 4 0.0000 0.0000 0.0000 11.6700 0.0000 -3.5518
# 5 8.8869 -3.4870 12.2740 0.0000 24.9600 0.0000
# 6 0.0000 0.0000 0.0000 -3.5518 0.0000 6.3750
#
#
#
# Elastic Compliance Matrix: (Units=1/GPa)
#
#
# Indices 1 2 3 4 5 6 
#
# 1 0.010124 -0.003937 -0.001469 0.000000 -0.003432 0.000000
# 2 -0.003937 0.031217 -0.012138 0.000000 0.011732 0.000000
# 3 -0.001469 -0.012138 0.023859 0.000000 -0.012905 0.000000
# 4 0.000000 0.000000 0.000000 0.103187 0.000000 0.057490
# 5 -0.003432 0.011732 -0.012905 0.000000 0.049271 0.000000
# 6 0.000000 0.000000 0.000000 0.057490 0.000000 0.188894
#
#
# Mechanical properties :
#
#
# Convention : Reuss Voigt Hill
#
# Bulk Modulus (GPa) = 33.21032 38.05906 35.63469
# Shear Modulus (GPa) = 11.06981 18.94063 15.00522
#
# Velocity S-wave (km/s) = 2.17638 2.84683 2.53387
# Velocity P-wave (km/s) = 4.53053 5.20488 4.87937
#
# Compressibility (1/GPa) = 0.03011112
#
# Stress axis : x y z
#
# Youngs Moduli (GPa) = 98.77086 32.03394 41.91339
#
# Poissons Ratio (x) = 0.12613 0.06159
# Poissons Ratio (y) = 0.38889 0.50874
# Poissons Ratio (z) = 0.14513 0.38882
#
# Static dielectric constant tensor:
#      x y z
#    x 1.842460 0.000000 0.020890 
#    y 0.000000 1.955270 0.000000 
#    z 0.020890 0.000000 1.893360 
# 
# From -- ./inp_files/43711.got.cif
#   From: 2010.05.17/outbox.cif.g08.bks.cpg/sg14_22_cif.got.tgz:43711.got - 2010.06.03 17:49:19.
