data_PCOD9243451
_publ_section_title
;
Structure prediction by ZEFSAII (Michael W. Deem and Ramdas Pophale) SiO2 
 PCOD9243451
Probable space group: P 21/C
;
_chemical_formula_sum "Si O2"
_cell_formula_units_Z 28
_cell_length_a 13.790696
_cell_length_b 13.834676
_cell_length_c 8.760259
_cell_angle_alpha 90.000000
_cell_angle_beta 138.006479
_cell_angle_gamma 90.000000
_cell_volume 1118.223129
_symmetry_space_group_name_H-M "P 21/C"
_symmetry_group_IT_number 14
_symmetry_cell_setting 'monoclinic'
loop_
_space_group_symop_operation_xyz
x,y,z
-x,1/2+y,1/2-z
-x,-y,-z
x,1/2-y,1/2+z
loop_
_atom_site_type_symbol
_atom_site_label
_atom_site_fract_x
_atom_site_fract_y
_atom_site_fract_z
Si Si1 0.502355 0.982244 0.180249
Si Si2 0.346188 0.042974 0.255256
Si Si3 0.790054 0.622153 0.021966
Si Si4 0.378354 0.692828 0.407990
Si Si5 0.307711 0.247262 0.842472
Si Si6 0.187348 0.695882 0.909086
Si Si7 0.904452 0.115886 0.999457
O O1 0.665742 0.956180 0.414595
O O2 0.403810 0.057744 0.150582
O O3 0.418156 0.880659 0.089504
O O4 0.500000 0.000000 0.000000
O O5 0.295023 0.145239 0.255275
O O6 0.500000 0.000000 0.500000
O O7 0.221086 0.963319 0.126604
O O8 0.746021 0.722848 0.053767
O O9 0.940826 0.582391 0.256400
O O10 0.781875 0.659750 0.838491
O O11 0.523834 0.722572 0.491128
O O12 0.307457 0.779146 0.419896
O O13 0.268731 0.650149 0.151541
O O14 0.079265 0.644901 0.662211
O O15 0.126721 0.791925 0.923261
#
# Coordination Sequence:
#
# PCOD9243451 Si02
#       7
#     4   4   4   4   4   4   4
#     4  11  25  41  66  98 129 169 225 282 331 393
#     4  12  24  44  68 103 133 175 227 288 330 398
#     4  11  25  46  65 100 135 182 220 275 346 417
#     4  10  20  38  64  96 123 168 225 275 323 395
#     4  11  24  40  71  94 139 174 229 273 349 396
#     4  10  20  37  65  95 124 176 219 268 329 398
#     4  11  24  43  69  95 141 171 229 276 341 410
#
# _framework density 25.039725000000001
#
# number of rings (size 3 to 8) (size 9 to 14) (size 15 to 20)
#    0.000    1.143    2.857    4.286    8.000    0.571 
#    0.000    3.571    0.000    0.000    0.000    0.000 
#    0.000    0.000    0.000    0.000    0.000    0.000 
#
# Total GULP energy -156356.277748 kJ/mol
# GULP energy per Si atom -5584.152777 kJ/mol
# Density = 2.498273 g / cm^3
# Si number density = 25.039725 Si / 1000 Ang^3
#
#
#
# Elastic Constant Matrix: (Units=GPa)
#
#
# Indices 1 2 3 4 5 6 
#
# 1 62.9864 11.7478 35.1412 0.0000 -3.9967 0.0000
# 2 11.7478 72.0477 23.2783 0.0000 8.5103 0.0000
# 3 35.1412 23.2783 156.3346 0.0000 18.1867 0.0000
# 4 0.0000 0.0000 0.0000 26.8729 0.0000 -12.0328
# 5 -3.9967 8.5103 18.1867 0.0000 38.3732 0.0000
# 6 0.0000 0.0000 0.0000 -12.0328 0.0000 45.1583
#
#
#
# Elastic Compliance Matrix: (Units=1/GPa)
#
#
# Indices 1 2 3 4 5 6 
#
# 1 0.019090 -0.002204 -0.004499 0.000000 0.004609 0.000000
# 2 -0.002204 0.015036 -0.001406 0.000000 -0.002897 0.000000
# 3 -0.004499 -0.001406 0.008081 0.000000 -0.003987 0.000000
# 4 0.000000 0.000000 0.000000 0.042254 0.000000 0.011259
# 5 0.004609 -0.002897 -0.003987 0.000000 0.029072 0.000000
# 6 0.000000 0.000000 0.000000 0.011259 0.000000 0.025144
#
#
# Mechanical properties :
#
#
# Convention : Reuss Voigt Hill
#
# Bulk Modulus (GPa) = 38.47863 47.96704 43.22283
# Shear Modulus (GPa) = 30.57022 36.82764 33.69893
#
# Velocity S-wave (km/s) = 3.49788 3.83922 3.67252
# Velocity P-wave (km/s) = 5.63152 6.23304 5.93990
#
# Compressibility (1/GPa) = 0.02598845
#
# Stress axis : x y z
#
# Youngs Moduli (GPa) = 52.38321 66.50854 123.74600
#
# Poissons Ratio (x) = 0.14655 0.55676
# Poissons Ratio (y) = 0.11543 0.17404
# Poissons Ratio (z) = 0.23568 0.09354
#
# Static dielectric constant tensor:
#      x y z
#    x 2.053300 0.000000 -0.106150 
#    y 0.000000 2.153640 0.000000 
#    z -0.106150 0.000000 2.187760 
# 
# From -- ./inp_files/16399.got.cif
#   From: 2010.05.17/outbox.cif.g08.bks.cpg/sg14_9_cif.got.tgz:16399.got - 2010.06.03 17:49:19.
