data_PCOD9243324
_publ_section_title
;
Structure prediction by ZEFSAII (Michael W. Deem and Ramdas Pophale) SiO2 
 PCOD9243324
Probable space group: P 21/C
;
_chemical_formula_sum "Si O2"
_cell_formula_units_Z 20
_cell_length_a 17.300344
_cell_length_b 8.467658
_cell_length_c 18.151434
_cell_angle_alpha 90.000000
_cell_angle_beta 160.583538
_cell_angle_gamma 90.000000
_cell_volume 883.958690
_symmetry_space_group_name_H-M "P 21/C"
_symmetry_group_IT_number 14
_symmetry_cell_setting 'monoclinic'
loop_
_space_group_symop_operation_xyz
x,y,z
-x,1/2+y,1/2-z
-x,-y,-z
x,1/2-y,1/2+z
loop_
_atom_site_type_symbol
_atom_site_label
_atom_site_fract_x
_atom_site_fract_y
_atom_site_fract_z
Si Si1 0.317304 0.091949 0.243874
Si Si2 0.028923 0.807724 0.634829
Si Si3 0.459757 0.750307 0.424968
Si Si4 0.373847 0.953830 0.715167
Si Si5 0.693528 0.262774 0.478860
O O1 0.337634 0.189867 0.338859
O O2 0.529817 0.153796 0.384204
O O3 0.351477 0.909882 0.292927
O O4 0.085369 0.142859 0.993670
O O5 0.265321 0.828790 0.802354
O O6 0.083893 0.800679 0.771062
O O7 0.840421 0.941495 0.448666
O O8 0.507412 0.633259 0.401157
O O9 0.275103 0.829372 0.568239
O O10 0.550866 0.076864 0.837201
#
# Coordination Sequence:
#
# PCOD9243324 Si02
#       5
#     4   4   4   4   4
#     4   9  20  39  61  85 116 150 188 232 283 339
#     4  10  22  38  59  87 115 147 190 235 283 338
#     4  10  20  37  61  87 115 150 188 233 283 336
#     4  11  23  38  58  83 116 151 191 236 282 335
#     4  10  23  40  57  83 115 152 192 234 284 338
#
# _framework density 22.625491
#
# number of rings (size 3 to 8) (size 9 to 14) (size 15 to 20)
#    0.000    2.000    0.000    2.400    0.000   13.600 
#    0.000    0.000    0.000    0.000    0.000    0.000 
#    0.000    0.000    0.000    0.000    0.000    0.000 
#
# Total GULP energy -111854.979988 kJ/mol
# GULP energy per Si atom -5592.748999 kJ/mol
# Density = 2.257399 g / cm^3
# Si number density = 22.625491 Si / 1000 Ang^3
#
#
#
# Elastic Constant Matrix: (Units=GPa)
#
#
# Indices 1 2 3 4 5 6 
#
# 1 31.9004 21.4416 -5.5397 0.0000 -18.4388 0.0000
# 2 21.4416 98.8544 17.5906 0.0000 -15.7975 0.0000
# 3 -5.5397 17.5906 53.0711 0.0000 -19.1119 0.0000
# 4 0.0000 0.0000 0.0000 23.0132 0.0000 -19.9202
# 5 -18.4388 -15.7975 -19.1119 0.0000 28.0736 0.0000
# 6 0.0000 0.0000 0.0000 -19.9202 0.0000 36.3669
#
#
#
# Elastic Compliance Matrix: (Units=1/GPa)
#
#
# Indices 1 2 3 4 5 6 
#
# 1 0.106805 -0.017023 0.051141 0.000000 0.095386 0.000000
# 2 -0.017023 0.013975 -0.010073 0.000000 -0.010174 0.000000
# 3 0.051141 -0.010073 0.049778 0.000000 0.061809 0.000000
# 4 0.000000 0.000000 0.000000 0.082633 0.000000 0.045263
# 5 0.095386 -0.010174 0.061809 0.000000 0.134624 0.000000
# 6 0.000000 0.000000 0.000000 0.045263 0.000000 0.052290
#
#
# Mechanical properties :
#
#
# Convention : Reuss Voigt Hill
#
# Bulk Modulus (GPa) = 4.57355 27.86787 16.22071
# Shear Modulus (GPa) = 10.75507 27.51296 19.13402
#
# Velocity S-wave (km/s) = 2.18262 3.49093 2.91122
# Velocity P-wave (km/s) = 2.89441 5.34720 4.29942
#
# Compressibility (1/GPa) = 0.21864852
#
# Stress axis : x y z
#
# Youngs Moduli (GPa) = 9.36286 71.55778 20.08906
#
# Poissons Ratio (x) = 1.21814 -1.02738
# Poissons Ratio (y) = 0.15939 0.20235
# Poissons Ratio (z) = -0.47883 0.72079
#
# Static dielectric constant tensor:
#      x y z
#    x 1.841340 0.000000 -0.001900 
#    y 0.000000 1.842110 0.000000 
#    z -0.001900 0.000000 1.837890 
# 
# From -- ./inp_files/52514.got.cif
#   From: 2010.05.17/outbox.cif.g08.bks.cpg/sg14_27_cif.got.tgz:52514.got - 2010.06.03 17:49:19.
