data_PCOD9243114
_publ_section_title
;
Structure prediction by ZEFSAII (Michael W. Deem and Ramdas Pophale) SiO2 
 PCOD9243114
Probable space group: P 21/C
;
_chemical_formula_sum "Si O2"
_cell_formula_units_Z 30
_cell_length_a 7.748769
_cell_length_b 15.137324
_cell_length_c 19.288663
_cell_angle_alpha 90.000000
_cell_angle_beta 153.412320
_cell_angle_gamma 90.000000
_cell_volume 1012.609091
_symmetry_space_group_name_H-M "P 21/C"
_symmetry_group_IT_number 14
_symmetry_cell_setting 'monoclinic'
loop_
_space_group_symop_operation_xyz
x,y,z
-x,1/2+y,1/2-z
-x,-y,-z
x,1/2-y,1/2+z
loop_
_atom_site_type_symbol
_atom_site_label
_atom_site_fract_x
_atom_site_fract_y
_atom_site_fract_z
Si Si1 0.324983 0.384374 0.334062
Si Si2 0.578729 0.869317 0.705463
Si Si3 0.715782 0.996200 0.301021
Si Si4 0.500000 0.500000 0.500000
Si Si5 0.476286 0.597524 0.902847
Si Si6 0.208388 0.193192 0.354004
Si Si7 0.793700 0.774467 0.403767
Si Si8 0.612686 0.631915 0.422782
O O1 0.664242 0.435053 0.494848
O O2 0.299435 0.285873 0.351225
O O3 0.315541 0.402046 0.248613
O O4 0.954728 0.438311 0.234935
O O5 0.806251 0.873951 0.715465
O O6 0.700520 0.794832 0.807085
O O7 0.464660 0.966267 0.693346
O O8 0.175520 0.831100 0.530123
O O9 0.156293 0.032578 0.455509
O O10 0.456117 0.054237 0.155629
O O11 0.630093 0.588537 0.502706
O O12 0.531799 0.651974 0.851232
O O13 0.524415 0.665111 0.986286
O O14 0.778951 0.188451 0.228596
O O15 0.918089 0.703298 0.509002
#
# Coordination Sequence:
#
# PCOD9243114 Si02
#       8
#     4   4   4   2   4   4   4   4
#     4  11  21  35  64  90 127 160 217 267 321 379
#     4  10  23  38  61  89 134 168 214 264 337 391
#     4   8  19  39  56  84 122 165 202 262 319 388
#     4  10  22  34  60  98 124 158 206 276 318 378
#     4  10  20  36  64  89 120 162 223 266 313 382
#     4  11  23  38  65  95 125 169 218 274 321 388
#     4  10  20  37  60  88 121 170 213 269 319 390
#     4   9  18  37  59  88 122 158 214 264 320 373
#
# _framework density 29.626439000000001
#
# number of rings (size 3 to 8) (size 9 to 14) (size 15 to 20)
#    0.000    2.133    1.333    2.000    3.733    0.000 
#    0.000    2.000    2.933    4.800    0.000    0.000 
#    0.000    0.000    0.000    0.000    0.000    0.000 
#
# Total GULP energy -167344.287823 kJ/mol
# GULP energy per Si atom -5578.142927 kJ/mol
# Density = 2.955901 g / cm^3
# Si number density = 29.626439 Si / 1000 Ang^3
#
#
#
# Elastic Constant Matrix: (Units=GPa)
#
#
# Indices 1 2 3 4 5 6 
#
# 1 85.4609 12.6977 2.4891 0.0000 -26.1267 0.0000
# 2 12.6977 116.5010 -86.9520 0.0000 -55.1559 0.0000
# 3 2.4891 -86.9520 -180.1762 0.0000 -111.4859 0.0000
# 4 0.0000 0.0000 0.0000 23.6939 0.0000 -27.3510
# 5 -26.1267 -55.1559 -111.4859 0.0000 39.0689 0.0000
# 6 0.0000 0.0000 0.0000 -27.3510 0.0000 55.6527
#
#
#
# Elastic Compliance Matrix: (Units=1/GPa)
#
#
# Indices 1 2 3 4 5 6 
#
# 1 0.012882 -0.000907 -0.001419 0.000000 0.003287 0.000000
# 2 -0.000907 0.006375 -0.002995 0.000000 -0.000152 0.000000
# 3 -0.001419 -0.002995 -0.000333 0.000000 -0.006127 0.000000
# 4 0.000000 0.000000 0.000000 0.097542 0.000000 0.047938
# 5 0.003287 -0.000152 -0.006127 0.000000 0.010095 0.000000
# 6 0.000000 0.000000 0.000000 0.047938 0.000000 0.041528
#
#
# Mechanical properties :
#
#
# Convention : Reuss Voigt Hill
#
# Bulk Modulus (GPa) = 120.71005 -13.52720 53.59143
# Shear Modulus (GPa) = 27.54979 29.91984 28.73481
#
# Velocity S-wave (km/s) = 3.05274 3.18135 3.11771
# Velocity P-wave (km/s) = 7.29782 2.98643 5.57570
#
# Compressibility (1/GPa) = 0.00828431
#
# Stress axis : x y z
#
# Youngs Moduli (GPa) = 77.62659 156.86112 -3001.94582
#
# Poissons Ratio (x) = 0.14220 -4.25828
# Poissons Ratio (y) = 0.07037 -8.99047
# Poissons Ratio (z) = 0.11011 0.46978
#
# Static dielectric constant tensor:
#      x y z
#    x 2.315010 0.000000 0.213370 
#    y 0.000000 2.333090 0.000000 
#    z 0.213370 0.000000 8.652830 
# 
# From -- ./inp_files/66021.got.cif
#   From: 2010.05.17/outbox.cif.g08.bks.cpg/sg14_34_cif.got.tgz:66021.got - 2010.06.03 17:49:19.
