data_PCOD9243454
_publ_section_title
;
Structure prediction by ZEFSAII (Michael W. Deem and Ramdas Pophale) SiO2 
 PCOD9243454
Probable space group: P 21/C
;
_chemical_formula_sum "Si O2"
_cell_formula_units_Z 30
_cell_length_a 26.518057
_cell_length_b 8.141911
_cell_length_c 20.765616
_cell_angle_alpha 90.000000
_cell_angle_beta 161.081615
_cell_angle_gamma 90.000000
_cell_volume 1453.630356
_symmetry_space_group_name_H-M "P 21/C"
_symmetry_group_IT_number 14
_symmetry_cell_setting 'monoclinic'
loop_
_space_group_symop_operation_xyz
x,y,z
-x,1/2+y,1/2-z
-x,-y,-z
x,1/2-y,1/2+z
loop_
_atom_site_type_symbol
_atom_site_label
_atom_site_fract_x
_atom_site_fract_y
_atom_site_fract_z
Si Si1 0.370725 0.656752 0.622350
Si Si2 0.335073 0.496903 0.715640
Si Si3 0.354661 0.064402 0.907007
Si Si4 0.062724 0.012128 0.725915
Si Si5 0.891947 0.738899 0.111990
Si Si6 0.615429 0.985202 0.329288
Si Si7 0.000000 0.500000 0.000000
Si Si8 0.554442 0.264036 0.052332
O O1 0.378164 0.598937 0.704751
O O2 0.244341 0.534881 0.438860
O O3 0.531130 0.629977 0.779203
O O4 0.325913 0.847481 0.566797
O O5 0.182616 0.391685 0.516708
O O6 0.328286 0.620523 0.767058
O O7 0.472455 0.369473 0.897975
O O8 0.179079 0.079331 0.718984
O O9 0.366146 0.896048 0.879883
O O10 0.418042 0.207239 0.936661
O O11 0.485205 0.039973 0.120027
O O12 0.001506 0.864788 0.697947
O O13 0.988950 0.009273 0.566514
O O14 0.040971 0.178374 0.741737
O O15 0.753070 0.615349 0.962936
#
# Coordination Sequence:
#
# PCOD9243454 Si02
#       8
#     4   4   4   4   4   4   2   4
#     4  11  23  40  66  92 132 169 230 278 335 385
#     4  10  20  37  65  98 126 167 217 283 315 403
#     4  11  23  41  65  95 131 177 214 281 331 410
#     4  11  25  45  67 101 136 183 216 286 338 417
#     4  11  24  43  70  96 134 174 235 269 341 408
#     4  12  23  42  67  98 121 176 229 281 325 400
#     4  12  26  40  64  96 140 168 220 272 356 390
#     4  10  21  38  65  97 128 167 225 265 339 390
#
# _framework density 20.637982999999998
#
# number of rings (size 3 to 8) (size 9 to 14) (size 15 to 20)
#    0.000    1.067    4.000    3.200    1.867    2.133 
#    0.000    0.000    0.000    5.600    0.000    0.000 
#    0.000    0.000    0.000    0.000    0.000    0.000 
#
# Total GULP energy -167097.858003 kJ/mol
# GULP energy per Si atom -5569.928600 kJ/mol
# Density = 2.059101 g / cm^3
# Si number density = 20.637983 Si / 1000 Ang^3
#
#
#
# Elastic Constant Matrix: (Units=GPa)
#
#
# Indices 1 2 3 4 5 6 
#
# 1 62.4478 19.6778 24.3445 0.0000 -7.2738 0.0000
# 2 19.6778 83.0001 6.9410 0.0000 -1.1202 0.0000
# 3 24.3445 6.9410 50.7371 0.0000 -16.0627 0.0000
# 4 0.0000 0.0000 0.0000 19.9507 0.0000 -5.9607
# 5 -7.2738 -1.1202 -16.0627 0.0000 46.0990 0.0000
# 6 0.0000 0.0000 0.0000 -5.9607 0.0000 19.0633
#
#
#
# Elastic Compliance Matrix: (Units=1/GPa)
#
#
# Indices 1 2 3 4 5 6 
#
# 1 0.021049 -0.004192 -0.009562 0.000000 -0.000112 0.000000
# 2 -0.004192 0.013027 0.000135 0.000000 -0.000298 0.000000
# 3 -0.009562 0.000135 0.026753 0.000000 0.007816 0.000000
# 4 0.000000 0.000000 0.000000 0.055289 0.000000 0.017288
# 5 -0.000112 -0.000298 0.007816 0.000000 0.024391 0.000000
# 6 0.000000 0.000000 0.000000 0.017288 0.000000 0.057862
#
#
# Mechanical properties :
#
#
# Convention : Reuss Voigt Hill
#
# Bulk Modulus (GPa) = 29.76945 33.12352 31.44648
# Shear Modulus (GPa) = 21.11439 26.70405 23.90922
#
# Velocity S-wave (km/s) = 3.20204 3.60102 3.40738
# Velocity P-wave (km/s) = 5.30346 5.77706 5.54532
#
# Compressibility (1/GPa) = 0.03359149
#
# Stress axis : x y z
#
# Youngs Moduli (GPa) = 47.50868 76.76503 37.37842
#
# Poissons Ratio (x) = 0.32181 0.35740
# Poissons Ratio (y) = 0.19917 -0.00505
# Poissons Ratio (z) = 0.45426 -0.01037
#
# Static dielectric constant tensor:
#      x y z
#    x 1.649000 0.000000 -0.173110 
#    y 0.000000 1.737600 0.000000 
#    z -0.173110 0.000000 1.491010 
# 
# From -- ./inp_files/70469.got.cif
#   From: 2010.05.17/outbox.cif.g08.bks.cpg/sg14_36_cif.got.tgz:70469.got - 2010.06.03 17:49:19.
