data_PCOD9243802
_publ_section_title
;
Structure prediction by ZEFSAII (Michael W. Deem and Ramdas Pophale) SiO2 
 PCOD9243802
Probable space group: P 21/C
;
_chemical_formula_sum "Si O2"
_cell_formula_units_Z 20
_cell_length_a 12.112662
_cell_length_b 6.865433
_cell_length_c 17.859111
_cell_angle_alpha 90.000000
_cell_angle_beta 36.288730
_cell_angle_gamma 90.000000
_cell_volume 878.986949
_symmetry_space_group_name_H-M "P 21/C"
_symmetry_group_IT_number 14
_symmetry_cell_setting 'monoclinic'
loop_
_space_group_symop_operation_xyz
x,y,z
-x,1/2+y,1/2-z
-x,-y,-z
x,1/2-y,1/2+z
loop_
_atom_site_type_symbol
_atom_site_label
_atom_site_fract_x
_atom_site_fract_y
_atom_site_fract_z
Si Si1 0.176511 0.069146 0.503977
Si Si2 0.612665 0.627216 0.518452
Si Si3 0.815495 0.232297 0.369310
Si Si4 0.773932 0.865013 0.308345
Si Si5 0.754094 0.538922 0.206254
O O1 0.255045 0.271259 0.492371
O O2 0.254179 0.034886 0.378618
O O3 0.235143 0.902114 0.531094
O O4 0.952286 0.055099 0.621210
O O5 0.707445 0.433603 0.433908
O O6 0.419501 0.570224 0.662078
O O7 0.612454 0.778742 0.449657
O O8 0.786300 0.094940 0.313286
O O9 0.033279 0.285779 0.260386
O O10 0.756708 0.760232 0.237996
#
# Coordination Sequence:
#
# PCOD9243802 Si02
#       5
#     4   4   4   4   4
#     4   9  23  44  61  94 136 166 210 272 318 385
#     4  11  22  39  69  93 128 173 214 264 326 379
#     4  10  20  38  66  91 128 176 208 259 329 370
#     4  10  20  39  62  96 128 166 216 265 313 380
#     4  10  22  42  67  96 133 167 221 264 316 392
#
# _framework density 22.753464000000001
#
# number of rings (size 3 to 8) (size 9 to 14) (size 15 to 20)
#    0.000    2.000    2.000    0.600    2.800    0.800 
#    0.000   19.000    0.000    0.000    0.000    0.000 
#    0.000    0.000    0.000    0.000    0.000    0.000 
#
# Total GULP energy -111938.100660 kJ/mol
# GULP energy per Si atom -5596.905033 kJ/mol
# Density = 2.270168 g / cm^3
# Si number density = 22.753464 Si / 1000 Ang^3
#
#
#
# Elastic Constant Matrix: (Units=GPa)
#
#
# Indices 1 2 3 4 5 6 
#
# 1 63.8174 35.8196 17.1905 0.0000 15.2572 0.0000
# 2 35.8196 140.4351 39.8713 0.0000 2.7359 0.0000
# 3 17.1905 39.8713 127.9523 0.0000 5.4188 0.0000
# 4 0.0000 0.0000 0.0000 23.5232 0.0000 -2.9780
# 5 15.2572 2.7359 5.4188 0.0000 30.7340 0.0000
# 6 0.0000 0.0000 0.0000 -2.9780 0.0000 36.4073
#
#
#
# Elastic Compliance Matrix: (Units=1/GPa)
#
#
# Indices 1 2 3 4 5 6 
#
# 1 0.021021 -0.004922 -0.000874 0.000000 -0.009843 0.000000
# 2 -0.004922 0.008966 -0.002219 0.000000 0.002036 0.000000
# 3 -0.000874 -0.002219 0.008662 0.000000 -0.000896 0.000000
# 4 0.000000 0.000000 0.000000 0.042956 0.000000 0.003514
# 5 -0.009843 0.002036 -0.000896 0.000000 0.037400 0.000000
# 6 0.000000 0.000000 0.000000 0.003514 0.000000 0.027754
#
#
# Mechanical properties :
#
#
# Convention : Reuss Voigt Hill
#
# Bulk Modulus (GPa) = 44.20762 57.55199 50.87981
# Shear Modulus (GPa) = 29.35489 34.08780 31.72135
#
# Velocity S-wave (km/s) = 3.59573 3.87478 3.73786
# Velocity P-wave (km/s) = 6.05889 6.73551 6.40614
#
# Compressibility (1/GPa) = 0.02262053
#
# Stress axis : x y z
#
# Youngs Moduli (GPa) = 47.57189 111.52708 115.44407
#
# Poissons Ratio (x) = 0.54892 0.10085
# Poissons Ratio (y) = 0.23414 0.25617
# Poissons Ratio (z) = 0.04156 0.24748
#
# Static dielectric constant tensor:
#      x y z
#    x 1.888720 0.000000 -0.038870 
#    y 0.000000 1.840680 0.000000 
#    z -0.038870 0.000000 1.843070 
# 
# From -- ./inp_files/67785.got.cif
#   From: 2010.05.17/outbox.cif.g08.bks.cpg/sg14_34_cif.got.tgz:67785.got - 2010.06.03 17:49:19.
