data_PCOD9243470
_publ_section_title
;
Structure prediction by ZEFSAII (Michael W. Deem and Ramdas Pophale) SiO2 
 PCOD9243470
Probable space group: P 21/C
;
_chemical_formula_sum "Si O2"
_cell_formula_units_Z 32
_cell_length_a 10.923287
_cell_length_b 19.633388
_cell_length_c 9.247048
_cell_angle_alpha 90.000000
_cell_angle_beta 123.877667
_cell_angle_gamma 90.000000
_cell_volume 1646.455248
_symmetry_space_group_name_H-M "P 21/C"
_symmetry_group_IT_number 14
_symmetry_cell_setting 'monoclinic'
loop_
_space_group_symop_operation_xyz
x,y,z
-x,1/2+y,1/2-z
-x,-y,-z
x,1/2-y,1/2+z
loop_
_atom_site_type_symbol
_atom_site_label
_atom_site_fract_x
_atom_site_fract_y
_atom_site_fract_z
Si Si1 0.620932 0.349512 0.175650
Si Si2 0.907528 0.929207 0.442919
Si Si3 0.172958 0.831983 0.645450
Si Si4 0.581757 0.441048 0.747157
Si Si5 0.827642 0.024156 0.876503
Si Si6 0.707679 0.263091 0.497520
Si Si7 0.344371 0.449458 0.985007
Si Si8 0.294418 0.462074 0.424276
O O1 0.763688 0.401429 0.282473
O O2 0.610792 0.306997 0.320274
O O3 0.637587 0.296253 0.053440
O O4 0.471813 0.393284 0.059815
O O5 0.782554 0.930246 0.482802
O O6 0.833876 0.920614 0.237215
O O7 0.021280 0.870478 0.547859
O O8 0.000000 0.000000 0.500000
O O9 0.300404 0.881938 0.670683
O O10 0.218963 0.811120 0.835810
O O11 0.174762 0.770213 0.534382
O O12 0.580008 0.483535 0.893419
O O13 0.421749 0.419242 0.586154
O O14 0.638149 0.493814 0.662024
O O15 0.743304 0.971515 0.715330
O O16 0.766916 0.013813 0.997833
O O17 0.000000 0.000000 0.000000
#
# Coordination Sequence:
#
# PCOD9243470 Si02
#       8
#     4   4   4   4   4   4   4   4
#     4  11  24  46  66  90 135 164 236 247 322 393
#     4  11  22  38  65  98 127 162 204 264 333 387
#     4  11  22  43  67  87 130 161 229 244 313 392
#     4  10  20  37  67  90 126 159 199 261 319 381
#     4  12  25  36  67 104 134 154 199 285 343 374
#     4  10  26  42  68  86 119 194 213 260 296 382
#     4  11  23  39  65 103 124 165 198 279 335 360
#     4  10  21  34  56 104 120 158 189 246 350 357
#
# _framework density 19.435694000000002
#
# number of rings (size 3 to 8) (size 9 to 14) (size 15 to 20)
#    0.000    1.250    3.750    2.625    8.750    0.000 
#    0.000    1.250    0.000    0.000    0.000    0.000 
#    0.000    0.000    0.000    0.000    0.000    0.000 
#
# Total GULP energy -178501.197958 kJ/mol
# GULP energy per Si atom -5578.162436 kJ/mol
# Density = 1.939146 g / cm^3
# Si number density = 19.435694 Si / 1000 Ang^3
#
#
#
# Elastic Constant Matrix: (Units=GPa)
#
#
# Indices 1 2 3 4 5 6 
#
# 1 72.0694 36.1323 62.6926 0.0000 13.6857 0.0000
# 2 36.1323 79.1646 56.4021 0.0000 8.4546 0.0000
# 3 62.6926 56.4021 153.9928 0.0000 1.8107 0.0000
# 4 0.0000 0.0000 0.0000 21.1580 0.0000 -3.1988
# 5 13.6857 8.4546 1.8107 0.0000 41.0991 0.0000
# 6 0.0000 0.0000 0.0000 -3.1988 0.0000 25.0627
#
#
#
# Elastic Compliance Matrix: (Units=1/GPa)
#
#
# Indices 1 2 3 4 5 6 
#
# 1 0.024721 -0.004644 -0.008282 0.000000 -0.006912 0.000000
# 2 -0.004644 0.018408 -0.004827 0.000000 -0.002027 0.000000
# 3 -0.008282 -0.004827 0.011595 0.000000 0.003240 0.000000
# 4 0.000000 0.000000 0.000000 0.048193 0.000000 0.006151
# 5 -0.006912 -0.002027 0.003240 0.000000 0.026907 0.000000
# 6 0.000000 0.000000 0.000000 0.006151 0.000000 0.040685
#
#
# Mechanical properties :
#
#
# Convention : Reuss Voigt Hill
#
# Bulk Modulus (GPa) = 52.03838 68.40897 60.22368
# Shear Modulus (GPa) = 23.53803 27.46395 25.50099
#
# Velocity S-wave (km/s) = 3.48382 3.76316 3.62618
# Velocity P-wave (km/s) = 6.55862 7.35906 6.97034
#
# Compressibility (1/GPa) = 0.01921659
#
# Stress axis : x y z
#
# Youngs Moduli (GPa) = 40.45183 54.32541 86.24053
#
# Poissons Ratio (x) = 0.25231 0.71423
# Poissons Ratio (y) = 0.18787 0.41632
# Poissons Ratio (z) = 0.33502 0.26225
#
# Static dielectric constant tensor:
#      x y z
#    x 1.704650 0.000000 0.012380 
#    y 0.000000 1.714700 0.000000 
#    z 0.012380 0.000000 1.716780 
# 
# From -- ./inp_files/14336.got.cif
#   From: 2010.05.17/outbox.cif.g08.bks.cpg/sg14_8_cif.got.tgz:14336.got - 2010.06.03 17:49:19.
