data_PCOD9243409
_publ_section_title
;
Structure prediction by ZEFSAII (Michael W. Deem and Ramdas Pophale) SiO2 
 PCOD9243409
Probable space group: P 21/C
;
_chemical_formula_sum "Si O2"
_cell_formula_units_Z 32
_cell_length_a 8.677106
_cell_length_b 18.662866
_cell_length_c 13.196032
_cell_angle_alpha 90.000000
_cell_angle_beta 32.140425
_cell_angle_gamma 90.000000
_cell_volume 1136.855001
_symmetry_space_group_name_H-M "P 21/C"
_symmetry_group_IT_number 14
_symmetry_cell_setting 'monoclinic'
loop_
_space_group_symop_operation_xyz
x,y,z
-x,1/2+y,1/2-z
-x,-y,-z
x,1/2-y,1/2+z
loop_
_atom_site_type_symbol
_atom_site_label
_atom_site_fract_x
_atom_site_fract_y
_atom_site_fract_z
Si Si1 0.189153 0.689259 0.918836
Si Si2 0.314731 0.467642 0.302186
Si Si3 0.779650 0.936316 0.587332
Si Si4 0.226258 0.056874 0.069915
Si Si5 0.348257 0.602892 0.509246
Si Si6 0.768763 0.807514 0.163553
Si Si7 0.228890 0.662311 0.144352
Si Si8 0.169450 0.286896 0.161904
O O1 0.207176 0.663386 0.029812
O O2 0.993200 0.633522 0.963647
O O3 0.065757 0.769047 0.974307
O O4 0.529427 0.698779 0.710970
O O5 0.572660 0.519433 0.123410
O O6 0.402415 0.446020 0.368026
O O7 0.243355 0.390529 0.294483
O O8 0.000000 0.500000 0.500000
O O9 0.527182 0.906826 0.805080
O O10 0.000000 0.000000 0.500000
O O11 0.909819 0.089201 0.239040
O O12 0.209506 0.974828 0.113595
O O13 0.399328 0.106999 0.049224
O O14 0.102130 0.661357 0.660015
O O15 0.698514 0.759957 0.302482
O O16 0.998778 0.724164 0.299057
O O17 0.534666 0.673666 0.032173
#
# Coordination Sequence:
#
# PCOD9243409 Si02
#       8
#     4   4   4   4   4   4   4   4
#     4  10  21  35  61  89 122 158 213 255 314 379
#     4  11  24  41  63  90 130 165 216 262 321 375
#     4  11  21  39  64  92 124 167 207 265 312 382
#     4  10  21  39  62  87 126 164 201 264 307 377
#     4  10  21  38  62  92 121 162 210 252 318 369
#     4  10  21  37  58  92 119 162 206 260 309 375
#     4  10  20  37  63  94 126 158 211 257 317 370
#     4  10  21  37  66  95 123 161 205 263 304 381
#
# _framework density 28.147829000000002
#
# number of rings (size 3 to 8) (size 9 to 14) (size 15 to 20)
#    0.000    1.750    2.500    2.250    7.000    0.500 
#    0.000    6.250    0.000    0.000    0.000    0.000 
#    0.000    0.000    0.000    0.000    0.000    0.000 
#
# Total GULP energy -178434.368001 kJ/mol
# GULP energy per Si atom -5576.074000 kJ/mol
# Density = 2.808376 g / cm^3
# Si number density = 28.147829 Si / 1000 Ang^3
#
#
#
# Elastic Constant Matrix: (Units=GPa)
#
#
# Indices 1 2 3 4 5 6 
#
# 1 49.2032 25.3757 6.2563 0.0000 -7.8729 0.0000
# 2 25.3757 121.2669 74.1874 0.0000 -33.5060 0.0000
# 3 6.2563 74.1874 172.1359 0.0000 -49.8207 0.0000
# 4 0.0000 0.0000 0.0000 66.3668 0.0000 -17.9131
# 5 -7.8729 -33.5060 -49.8207 0.0000 57.6777 0.0000
# 6 0.0000 0.0000 0.0000 -17.9131 0.0000 33.1088
#
#
#
# Elastic Compliance Matrix: (Units=1/GPa)
#
#
# Indices 1 2 3 4 5 6 
#
# 1 0.023257 -0.005681 0.002089 0.000000 0.001679 0.000000
# 2 -0.005681 0.013023 -0.004588 0.000000 0.002827 0.000000
# 3 0.002089 -0.004588 0.009363 0.000000 0.005707 0.000000
# 4 0.000000 0.000000 0.000000 0.017644 0.000000 0.009546
# 5 0.001679 0.002827 0.005707 0.000000 0.024139 0.000000
# 6 0.000000 0.000000 0.000000 0.009546 0.000000 0.035368
#
#
# Mechanical properties :
#
#
# Convention : Reuss Voigt Hill
#
# Bulk Modulus (GPa) = 34.15013 61.58277 47.86645
# Shear Modulus (GPa) = 33.57652 47.21643 40.39647
#
# Velocity S-wave (km/s) = 3.45753 4.10011 3.79245
# Velocity P-wave (km/s) = 5.30077 6.65885 6.01824
#
# Compressibility (1/GPa) = 0.02928247
#
# Stress axis : x y z
#
# Youngs Moduli (GPa) = 42.99861 76.78844 106.80863
#
# Poissons Ratio (x) = 0.43620 -0.22311
# Poissons Ratio (y) = 0.24426 0.49003
# Poissons Ratio (z) = -0.08982 0.35230
#
# Static dielectric constant tensor:
#      x y z
#    x 2.371960 0.000000 0.024600 
#    y 0.000000 2.367920 0.000000 
#    z 0.024600 0.000000 2.339700 
# 
# From -- ./inp_files/67566.got.cif
#   From: 2010.05.17/outbox.cif.g08.bks.cpg/sg14_34_cif.got.tgz:67566.got - 2010.06.03 17:49:19.
