data_PCOD9243374
_publ_section_title
;
Structure prediction by ZEFSAII (Michael W. Deem and Ramdas Pophale) SiO2 
 PCOD9243374
Probable space group: P 21/C
;
_chemical_formula_sum "Si O2"
_cell_formula_units_Z 28
_cell_length_a 14.389632
_cell_length_b 7.452209
_cell_length_c 14.064515
_cell_angle_alpha 90.000000
_cell_angle_beta 135.635534
_cell_angle_gamma 90.000000
_cell_volume 1054.565062
_symmetry_space_group_name_H-M "P 21/C"
_symmetry_group_IT_number 14
_symmetry_cell_setting 'monoclinic'
loop_
_space_group_symop_operation_xyz
x,y,z
-x,1/2+y,1/2-z
-x,-y,-z
x,1/2-y,1/2+z
loop_
_atom_site_type_symbol
_atom_site_label
_atom_site_fract_x
_atom_site_fract_y
_atom_site_fract_z
Si Si1 0.444889 0.886523 0.871461
Si Si2 0.070892 0.173137 0.858318
Si Si3 0.279727 0.753077 0.601882
Si Si4 0.242121 0.348521 0.642232
Si Si5 0.990501 0.788757 0.883046
Si Si6 0.626472 0.871094 0.578277
Si Si7 0.229297 0.780999 0.348315
O O1 0.386582 0.892918 0.722325
O O2 0.312820 0.805967 0.825855
O O3 0.573483 0.757128 0.958230
O O4 0.500000 0.000000 0.000000
O O5 0.926426 0.259191 0.772449
O O6 0.087157 0.184606 0.757065
O O7 0.046834 0.971184 0.877169
O O8 0.195628 0.241530 0.010127
O O9 0.291523 0.551774 0.655556
O O10 0.289011 0.732612 0.494805
O O11 0.126804 0.813105 0.509024
O O12 0.102010 0.336838 0.597038
O O13 0.342375 0.277227 0.796675
O O14 0.500000 0.000000 0.500000
O O15 0.746551 0.004633 0.642779
#
# Coordination Sequence:
#
# PCOD9243374 Si02
#       7
#     4   4   4   4   4   4   4
#     4  11  23  42  58  89 124 162 211 259 313 371
#     4  10  20  37  62  94 121 160 213 251 322 389
#     4  10  20  37  67  89 119 166 210 251 315 379
#     4  11  19  40  68  87 122 176 201 248 330 377
#     4  10  20  37  64  93 123 164 206 265 315 383
#     4  10  20  39  63  82 121 163 212 254 304 372
#     4  10  20  39  64  90 119 159 209 262 304 373
#
# _framework density 26.551231000000001
#
# number of rings (size 3 to 8) (size 9 to 14) (size 15 to 20)
#    0.000    1.714    4.286    2.571    0.000    1.143 
#   12.857    0.714    0.000    0.000    0.000    0.000 
#    0.000    0.000    0.000    0.000    0.000    0.000 
#
# Total GULP energy -156248.580141 kJ/mol
# GULP energy per Si atom -5580.306434 kJ/mol
# Density = 2.649080 g / cm^3
# Si number density = 26.551231 Si / 1000 Ang^3
#
#
#
# Elastic Constant Matrix: (Units=GPa)
#
#
# Indices 1 2 3 4 5 6 
#
# 1 76.2061 0.4635 7.3668 0.0000 -7.0657 0.0000
# 2 0.4635 24.8859 16.4543 0.0000 -1.2846 0.0000
# 3 7.3668 16.4543 229.6242 0.0000 -8.4647 0.0000
# 4 0.0000 0.0000 0.0000 41.9463 0.0000 -8.1934
# 5 -7.0657 -1.2846 -8.4647 0.0000 35.2416 0.0000
# 6 0.0000 0.0000 0.0000 -8.1934 0.0000 20.5214
#
#
#
# Elastic Compliance Matrix: (Units=1/GPa)
#
#
# Indices 1 2 3 4 5 6 
#
# 1 0.013396 0.000111 -0.000342 0.000000 0.002608 0.000000
# 2 0.000111 0.042206 -0.002997 0.000000 0.000841 0.000000
# 3 -0.000342 -0.002997 0.004615 0.000000 0.000931 0.000000
# 4 0.000000 0.000000 0.000000 0.025857 0.000000 0.010324
# 5 0.002608 0.000841 0.000931 0.000000 0.029153 0.000000
# 6 0.000000 0.000000 0.000000 0.010324 0.000000 0.052852
#
#
# Mechanical properties :
#
#
# Convention : Reuss Voigt Hill
#
# Bulk Modulus (GPa) = 18.60031 42.14282 30.37156
# Shear Modulus (GPa) = 25.98017 39.97062 32.97539
#
# Velocity S-wave (km/s) = 3.13148 3.88418 3.52796
# Velocity P-wave (km/s) = 4.48280 6.00187 5.29708
#
# Compressibility (1/GPa) = 0.05376255
#
# Stress axis : x y z
#
# Youngs Moduli (GPa) = 74.64659 23.69312 216.68635
#
# Poissons Ratio (x) = -0.00263 0.07402
# Poissons Ratio (y) = -0.00828 0.64940
# Poissons Ratio (z) = 0.02550 0.07101
#
# Static dielectric constant tensor:
#      x y z
#    x 2.032530 0.000000 0.024790 
#    y 0.000000 2.307200 0.000000 
#    z 0.024790 0.000000 2.225700 
# 
# From -- ./inp_files/48604.got.cif
#   From: 2010.05.17/outbox.cif.g08.bks.cpg/sg14_25_cif.got.tgz:48604.got - 2010.06.03 17:49:19.
