data_PCOD9243048
_publ_section_title
;
Structure prediction by ZEFSAII (Michael W. Deem and Ramdas Pophale) SiO2 
 PCOD9243048
Probable space group: P 21/C
;
_chemical_formula_sum "Si O2"
_cell_formula_units_Z 30
_cell_length_a 4.911488
_cell_length_b 15.049041
_cell_length_c 19.188873
_cell_angle_alpha 90.000000
_cell_angle_beta 68.222405
_cell_angle_gamma 90.000000
_cell_volume 1317.087255
_symmetry_space_group_name_H-M "P 21/C"
_symmetry_group_IT_number 14
_symmetry_cell_setting 'monoclinic'
loop_
_space_group_symop_operation_xyz
x,y,z
-x,1/2+y,1/2-z
-x,-y,-z
x,1/2-y,1/2+z
loop_
_atom_site_type_symbol
_atom_site_label
_atom_site_fract_x
_atom_site_fract_y
_atom_site_fract_z
Si Si1 0.873593 0.810887 0.347537
Si Si2 0.440451 0.557658 0.419447
Si Si3 0.656072 0.107123 0.327202
Si Si4 0.125371 0.503374 0.832279
Si Si5 0.000000 0.000000 0.500000
Si Si6 0.565004 0.299472 0.695879
Si Si7 0.313185 0.319553 0.985826
Si Si8 0.806286 0.885585 0.012962
O O1 0.693204 0.766128 0.302819
O O2 0.649611 0.823684 0.433819
O O3 0.125052 0.745683 0.352444
O O4 0.049377 0.899943 0.310531
O O5 0.464326 0.610281 0.345613
O O6 0.378352 0.452641 0.420335
O O7 0.707077 0.582477 0.444854
O O8 0.150462 0.595155 0.486111
O O9 0.986597 0.072345 0.297236
O O10 0.587114 0.178328 0.274823
O O11 0.564995 0.145140 0.410610
O O12 0.449600 0.021943 0.327419
O O13 0.944613 0.500425 0.921603
O O14 0.941849 0.890717 0.506245
O O15 0.254002 0.217727 0.972281
#
# Coordination Sequence:
#
# PCOD9243048 Si02
#       8
#     4   4   4   4   2   4   4   4
#     4  11  23  39  71  89 126 164 228 249 328 388
#     4  10  20  37  60  88 120 160 212 259 315 373
#     4  11  25  40  65  88 142 159 217 264 347 373
#     4  10  22  43  59  95 122 169 202 274 310 407
#     4   8  20  34  66  88 124 156 212 248 338 358
#     4  12  22  42  63  94 126 176 206 274 320 399
#     4  10  20  40  62  98 123 170 207 281 309 391
#     4  10  20  36  61  88 121 157 213 266 307 375
#
# _framework density 22.777533999999999
#
# number of rings (size 3 to 8) (size 9 to 14) (size 15 to 20)
#    0.000    1.600    2.667    1.600    0.000   10.133 
#    4.800    0.000    0.000    0.000    0.000    0.000 
#    0.000    0.000    0.000    0.000    0.000    0.000 
#
# Total GULP energy -167029.649445 kJ/mol
# GULP energy per Si atom -5567.654982 kJ/mol
# Density = 2.272569 g / cm^3
# Si number density = 22.777534 Si / 1000 Ang^3
#
#
#
# Elastic Constant Matrix: (Units=GPa)
#
#
# Indices 1 2 3 4 5 6 
#
# 1 66.9225 23.9033 7.9699 0.0000 6.8756 0.0000
# 2 23.9033 96.9906 -5.2992 0.0000 -15.2466 0.0000
# 3 7.9699 -5.2992 41.8483 0.0000 -0.9559 0.0000
# 4 0.0000 0.0000 0.0000 20.1815 0.0000 20.3944
# 5 6.8756 -15.2466 -0.9559 0.0000 20.8667 0.0000
# 6 0.0000 0.0000 0.0000 20.3944 0.0000 9.2561
#
#
#
# Elastic Compliance Matrix: (Units=1/GPa)
#
#
# Indices 1 2 3 4 5 6 
#
# 1 0.019104 -0.006770 -0.004757 0.000000 -0.011459 0.000000
# 2 -0.006770 0.014165 0.003374 0.000000 0.012735 0.000000
# 3 -0.004757 0.003374 0.025348 0.000000 0.005194 0.000000
# 4 0.000000 0.000000 0.000000 -0.040397 0.000000 0.089008
# 5 -0.011459 0.012735 0.005194 0.000000 0.061242 0.000000
# 6 0.000000 0.000000 0.000000 0.089008 0.000000 -0.088079
#
#
# Mechanical properties :
#
#
# Convention : Reuss Voigt Hill
#
# Bulk Modulus (GPa) = 23.63462 28.76773 26.20117
# Shear Modulus (GPa) = 229.42809 22.00669 125.71739
#
# Velocity S-wave (km/s) = 10.04710 3.11168 7.43730
# Velocity P-wave (km/s) = 12.04123 5.05642 9.23468
#
# Compressibility (1/GPa) = 0.04231081
#
# Stress axis : x y z
#
# Youngs Moduli (GPa) = 52.34381 70.59732 39.45126
#
# Poissons Ratio (x) = 0.47791 0.18768
# Poissons Ratio (y) = 0.35434 -0.13310
# Poissons Ratio (z) = 0.24902 -0.23818
#
# Static dielectric constant tensor:
#      x y z
#    x 1.841360 0.000000 -0.041870 
#    y 0.000000 1.871010 0.000000 
#    z -0.041870 0.000000 1.854640 
# 
# From -- ./inp_files/63679.got.cif
#   From: 2010.05.17/outbox.cif.g08.bks.cpg/sg14_32_cif.got.tgz:63679.got - 2010.06.03 17:49:19.
