data_PCOD9243839
_publ_section_title
;
Structure prediction by ZEFSAII (Michael W. Deem and Ramdas Pophale) SiO2 
 PCOD9243839
Probable space group: P 21/C
;
_chemical_formula_sum "Si O2"
_cell_formula_units_Z 28
_cell_length_a 9.010684
_cell_length_b 7.932831
_cell_length_c 22.124601
_cell_angle_alpha 90.000000
_cell_angle_beta 132.143249
_cell_angle_gamma 90.000000
_cell_volume 1172.613093
_symmetry_space_group_name_H-M "P 21/C"
_symmetry_group_IT_number 14
_symmetry_cell_setting 'monoclinic'
loop_
_space_group_symop_operation_xyz
x,y,z
-x,1/2+y,1/2-z
-x,-y,-z
x,1/2-y,1/2+z
loop_
_atom_site_type_symbol
_atom_site_label
_atom_site_fract_x
_atom_site_fract_y
_atom_site_fract_z
Si Si1 0.969836 0.349177 0.334632
Si Si2 0.769076 0.976656 0.450338
Si Si3 0.653412 0.155389 0.534589
Si Si4 0.572584 0.957212 0.178055
Si Si5 0.045065 0.496608 0.791556
Si Si6 0.657855 0.625592 0.487489
Si Si7 0.397248 0.834348 0.701449
O O1 0.145688 0.429131 0.422330
O O2 0.887431 0.468217 0.258685
O O3 0.799131 0.272284 0.331356
O O4 0.070197 0.189776 0.326354
O O5 0.719954 0.126339 0.484368
O O6 0.660278 0.009873 0.357339
O O7 0.719748 0.797506 0.467583
O O8 0.000000 0.000000 0.500000
O O9 0.835189 0.121422 0.630992
O O10 0.523843 0.314350 0.519234
O O11 0.500000 0.000000 0.500000
O O12 0.538740 0.780681 0.200525
O O13 0.805788 0.978824 0.226549
O O14 0.430215 0.993942 0.083507
O O15 0.516633 0.095542 0.213227
#
# Coordination Sequence:
#
# PCOD9243839 Si02
#       7
#     4   4   4   4   4   4   4
#     4  11  24  44  67  95 137 171 230 277 336 401
#     4  11  20  41  71  95 134 176 226 274 333 403
#     4  10  20  38  69  92 125 176 227 265 329 397
#     4  11  26  43  67  99 141 174 226 279 342 401
#     4  11  23  44  66  96 131 177 222 281 330 400
#     4  11  23  45  67 102 133 177 227 284 327 407
#     4  11  24  45  65 101 134 182 218 279 341 405
#
# _framework density 23.878294
#
# number of rings (size 3 to 8) (size 9 to 14) (size 15 to 20)
#    0.000    1.143    4.286    3.429    2.000    3.429 
#    2.571    0.000    0.000    0.000    0.000    0.000 
#    0.000    0.000    0.000    0.000    0.000    0.000 
#
# Total GULP energy -156800.597446 kJ/mol
# GULP energy per Si atom -5600.021337 kJ/mol
# Density = 2.382395 g / cm^3
# Si number density = 23.878294 Si / 1000 Ang^3
#
#
#
# Elastic Constant Matrix: (Units=GPa)
#
#
# Indices 1 2 3 4 5 6 
#
# 1 81.3359 24.5890 20.2432 0.0000 -26.8917 0.0000
# 2 24.5890 53.4950 13.1729 0.0000 1.7093 0.0000
# 3 20.2432 13.1729 135.8585 0.0000 -18.2567 0.0000
# 4 0.0000 0.0000 0.0000 43.6873 0.0000 -14.7612
# 5 -26.8917 1.7093 -18.2567 0.0000 28.1889 0.0000
# 6 0.0000 0.0000 0.0000 -14.7612 0.0000 33.9188
#
#
#
# Elastic Compliance Matrix: (Units=1/GPa)
#
#
# Indices 1 2 3 4 5 6 
#
# 1 0.023441 -0.011730 0.000816 0.000000 0.023602 0.000000
# 2 -0.011730 0.025194 -0.002633 0.000000 -0.014423 0.000000
# 3 0.000816 -0.002633 0.008347 0.000000 0.006344 0.000000
# 4 0.000000 0.000000 0.000000 0.026836 0.000000 0.011679
# 5 0.023602 -0.014423 0.006344 0.000000 0.062975 0.000000
# 6 0.000000 0.000000 0.000000 0.011679 0.000000 0.034565
#
#
# Mechanical properties :
#
#
# Convention : Reuss Voigt Hill
#
# Bulk Modulus (GPa) = 33.45773 42.96661 38.21217
# Shear Modulus (GPa) = 22.89223 35.33793 29.11508
#
# Velocity S-wave (km/s) = 3.09965 3.85114 3.49565
# Velocity P-wave (km/s) = 5.18196 6.14883 5.68598
#
# Compressibility (1/GPa) = 0.02988846
#
# Stress axis : x y z
#
# Youngs Moduli (GPa) = 42.65982 39.69147 119.80580
#
# Poissons Ratio (x) = 0.46558 -0.09779
# Poissons Ratio (y) = 0.50040 0.31548
# Poissons Ratio (z) = -0.03482 0.10452
#
# Static dielectric constant tensor:
#      x y z
#    x 1.814760 0.000000 0.047150 
#    y 0.000000 1.938340 0.000000 
#    z 0.047150 0.000000 1.807850 
# 
# From -- ./inp_files/65040.got.cif
#   From: 2010.05.17/outbox.cif.g08.bks.cpg/sg14_33_cif.got.tgz:65040.got - 2010.06.03 17:49:19.
