data_PCOD9243998
_publ_section_title
;
Structure prediction by ZEFSAII (Michael W. Deem and Ramdas Pophale) SiO2 
 PCOD9243998
Probable space group: P 21/C
;
_chemical_formula_sum "Si O2"
_cell_formula_units_Z 12
_cell_length_a 5.318491
_cell_length_b 4.544836
_cell_length_c 16.540557
_cell_angle_alpha 90.000000
_cell_angle_beta 88.495751
_cell_angle_gamma 90.000000
_cell_volume 399.675092
_symmetry_space_group_name_H-M "P 21/C"
_symmetry_group_IT_number 14
_symmetry_cell_setting 'monoclinic'
loop_
_space_group_symop_operation_xyz
x,y,z
-x,1/2+y,1/2-z
-x,-y,-z
x,1/2-y,1/2+z
loop_
_atom_site_type_symbol
_atom_site_label
_atom_site_fract_x
_atom_site_fract_y
_atom_site_fract_z
Si Si1 0.602682 0.593689 0.367824
Si Si2 0.248475 0.689751 0.988723
Si Si3 0.826583 0.382185 0.776798
O O1 0.320704 0.674872 0.400086
O O2 0.747452 0.891772 0.347256
O O3 0.047151 0.365241 0.281670
O O4 0.736915 0.437457 0.442520
O O5 0.500000 0.500000 0.000000
O O6 0.000000 0.500000 0.000000
O O7 0.398043 0.634587 0.708140
#
# Coordination Sequence:
#
# PCOD9243998 Si02
#       3
#     4   4   4
#     4  10  20  39  64 105 138 184 232 296 354 430
#     4  11  24  42  69 107 141 182 226 290 364 426
#     4   9  18  36  66  98 134 189 238 294 348 417
#
# _framework density 30.024384000000001
#
# number of rings (size 3 to 8) (size 9 to 14) (size 15 to 20)
#    0.000    2.000    3.333    0.000    0.000    5.333 
#    0.000    0.000    0.000   12.000    0.000    0.000 
#    0.000    0.000    0.000    0.000    0.000    0.000 
#
# Total GULP energy -66948.030580 kJ/mol
# GULP energy per Si atom -5579.002548 kJ/mol
# Density = 2.995605 g / cm^3
# Si number density = 30.024384 Si / 1000 Ang^3
#
#
#
# Elastic Constant Matrix: (Units=GPa)
#
#
# Indices 1 2 3 4 5 6 
#
# 1 212.5362 98.3651 79.5916 0.0000 -48.4988 0.0000
# 2 98.3651 297.1796 85.2046 0.0000 -30.7494 0.0000
# 3 79.5916 85.2046 100.1455 0.0000 -50.3491 0.0000
# 4 0.0000 0.0000 0.0000 115.1082 0.0000 -34.2792
# 5 -48.4988 -30.7494 -50.3491 0.0000 68.1939 0.0000
# 6 0.0000 0.0000 0.0000 -34.2792 0.0000 53.0776
#
#
#
# Elastic Compliance Matrix: (Units=1/GPa)
#
#
# Indices 1 2 3 4 5 6 
#
# 1 0.007009 -0.001047 -0.003835 0.000000 0.001682 0.000000
# 2 -0.001047 0.004675 -0.003913 0.000000 -0.001525 0.000000
# 3 -0.003835 -0.003913 0.022430 0.000000 0.012069 0.000000
# 4 0.000000 0.000000 0.000000 0.010756 0.000000 0.006947
# 5 0.001682 -0.001525 0.012069 0.000000 0.024083 0.000000
# 6 0.000000 0.000000 0.000000 0.006947 0.000000 0.023327
#
#
# Mechanical properties :
#
#
# Convention : Reuss Voigt Hill
#
# Bulk Modulus (GPa) = 60.50911 126.24267 93.37589
# Shear Modulus (GPa) = 43.33576 70.38929 56.86252
#
# Velocity S-wave (km/s) = 3.80327 4.84716 4.35659
# Velocity P-wave (km/s) = 6.28359 8.57115 7.51492
#
# Compressibility (1/GPa) = 0.01652644
#
# Stress axis : x y z
#
# Youngs Moduli (GPa) = 142.66850 213.88366 44.58292
#
# Poissons Ratio (x) = 0.22384 0.17096
# Poissons Ratio (y) = 0.14931 0.17445
# Poissons Ratio (z) = 0.54710 0.83690
#
# Static dielectric constant tensor:
#      x y z
#    x 2.461060 0.000000 0.022100 
#    y 0.000000 2.270270 0.000000 
#    z 0.022100 0.000000 2.632960 
# 
# From -- ./inp_files/61.got.cif
#   From: 2010.05.17/outbox.cif.g08.bks.cpg/sg14_1_cif.got.tgz:61.got - 2010.06.03 17:49:19.
