data_PCOD9243195
_publ_section_title
;
Structure prediction by ZEFSAII (Michael W. Deem and Ramdas Pophale) SiO2 
 PCOD9243195
Probable space group: P 21/C
;
_chemical_formula_sum "Si O2"
_cell_formula_units_Z 32
_cell_length_a 12.043850
_cell_length_b 15.182757
_cell_length_c 11.939299
_cell_angle_alpha 90.000000
_cell_angle_beta 33.141588
_cell_angle_gamma 90.000000
_cell_volume 1193.580527
_symmetry_space_group_name_H-M "P 21/C"
_symmetry_group_IT_number 14
_symmetry_cell_setting 'monoclinic'
loop_
_space_group_symop_operation_xyz
x,y,z
-x,1/2+y,1/2-z
-x,-y,-z
x,1/2-y,1/2+z
loop_
_atom_site_type_symbol
_atom_site_label
_atom_site_fract_x
_atom_site_fract_y
_atom_site_fract_z
Si Si1 0.538630 0.899745 0.099230
Si Si2 0.371262 0.791676 0.422354
Si Si3 0.531616 0.353361 0.822311
Si Si4 0.130006 0.750980 0.818535
Si Si5 0.760530 0.660590 0.738239
Si Si6 0.950447 0.064084 0.697060
Si Si7 0.197137 0.014063 0.955560
Si Si8 0.704000 0.569267 0.252009
O O1 0.367323 0.851454 0.315085
O O2 0.466159 0.998818 0.138374
O O3 0.725508 0.908513 0.026032
O O4 0.606159 0.861976 0.922228
O O5 0.449267 0.696898 0.312318
O O6 0.162319 0.792484 0.667039
O O7 0.547454 0.828451 0.353124
O O8 0.703482 0.301124 0.748431
O O9 0.615796 0.452175 0.741741
O O10 0.318641 0.343038 0.067383
O O11 0.163594 0.649165 0.757739
O O12 0.921026 0.766634 0.061172
O O13 0.863721 0.570179 0.603076
O O14 0.861780 0.981278 0.702504
O O15 0.926947 0.045443 0.849178
O O16 0.176294 0.084585 0.462919
#
# Coordination Sequence:
#
# PCOD9243195 Si02
#       8
#     4   4   4   4   4   4   4   4
#     4   9  19  36  59  86 117 158 202 253 308 360
#     4  10  22  41  62  89 123 162 202 257 310 360
#     4  11  23  43  65  89 127 167 204 259 309 366
#     4  11  24  41  61  92 126 161 206 257 309 373
#     4  10  25  42  65  91 125 164 214 255 304 378
#     4  10  20  37  57  89 123 154 206 258 310 369
#     4  10  21  42  60  87 124 163 205 255 307 366
#     4   9  19  34  59  87 118 157 199 257 307 365
#
# _framework density 26.810088
#
# number of rings (size 3 to 8) (size 9 to 14) (size 15 to 20)
#    0.000    2.000    1.250    1.125    3.500    2.500 
#    4.500    0.000    0.000    0.000    0.000    0.000 
#    0.000    0.000    0.000    0.000    0.000    0.000 
#
# Total GULP energy -178678.065768 kJ/mol
# GULP energy per Si atom -5583.689555 kJ/mol
# Density = 2.674907 g / cm^3
# Si number density = 26.810088 Si / 1000 Ang^3
#
#
#
# Elastic Constant Matrix: (Units=GPa)
#
#
# Indices 1 2 3 4 5 6 
#
# 1 54.7150 2.9785 37.0881 0.0000 26.7942 0.0000
# 2 2.9785 54.6590 14.3601 0.0000 15.6435 0.0000
# 3 37.0881 14.3601 244.5221 0.0000 29.3340 0.0000
# 4 0.0000 0.0000 0.0000 44.6961 0.0000 2.1420
# 5 26.7942 15.6435 29.3340 0.0000 40.6584 0.0000
# 6 0.0000 0.0000 0.0000 2.1420 0.0000 36.3367
#
#
#
# Elastic Compliance Matrix: (Units=1/GPa)
#
#
# Indices 1 2 3 4 5 6 
#
# 1 0.029015 0.004523 -0.002369 0.000000 -0.019152 0.000000
# 2 0.004523 0.021282 -0.000652 0.000000 -0.010698 0.000000
# 3 -0.002369 -0.000652 0.004674 0.000000 -0.001560 0.000000
# 4 0.000000 0.000000 0.000000 0.022437 0.000000 -0.001323
# 5 -0.019152 -0.010698 -0.001560 0.000000 0.042458 0.000000
# 6 0.000000 0.000000 0.000000 -0.001323 0.000000 0.027598
#
#
# Mechanical properties :
#
#
# Convention : Reuss Voigt Hill
#
# Bulk Modulus (GPa) = 17.24913 51.41659 34.33286
# Shear Modulus (GPa) = 30.52748 44.30285 37.41517
#
# Velocity S-wave (km/s) = 3.37806 4.06947 3.73978
# Velocity P-wave (km/s) = 4.65433 6.42654 5.61085
#
# Compressibility (1/GPa) = 0.05797394
#
# Stress axis : x y z
#
# Youngs Moduli (GPa) = 34.46502 46.98804 213.93055
#
# Poissons Ratio (x) = -0.21251 0.50678
# Poissons Ratio (y) = -0.15587 0.13957
# Poissons Ratio (z) = 0.08164 0.03066
#
# Static dielectric constant tensor:
#      x y z
#    x 2.130950 0.000000 -0.004060 
#    y 0.000000 2.172080 0.000000 
#    z -0.004060 0.000000 2.172990 
# 
# From -- ./inp_files/33039.got.cif
#   From: 2010.05.17/outbox.cif.g08.bks.cpg/sg14_17_cif.got.tgz:33039.got - 2010.06.03 17:49:19.
