data_PCOD9243744
_publ_section_title
;
Structure prediction by ZEFSAII (Michael W. Deem and Ramdas Pophale) SiO2 
 PCOD9243744
Probable space group: P 21/C
;
_chemical_formula_sum "Si O2"
_cell_formula_units_Z 26
_cell_length_a 11.516021
_cell_length_b 13.430603
_cell_length_c 9.321240
_cell_angle_alpha 90.000000
_cell_angle_beta 138.592892
_cell_angle_gamma 90.000000
_cell_volume 953.540338
_symmetry_space_group_name_H-M "P 21/C"
_symmetry_group_IT_number 14
_symmetry_cell_setting 'monoclinic'
loop_
_space_group_symop_operation_xyz
x,y,z
-x,1/2+y,1/2-z
-x,-y,-z
x,1/2-y,1/2+z
loop_
_atom_site_type_symbol
_atom_site_label
_atom_site_fract_x
_atom_site_fract_y
_atom_site_fract_z
Si Si1 0.245344 0.950540 0.013643
Si Si2 0.215498 0.926448 0.449129
Si Si3 0.568607 0.649916 0.419400
Si Si4 0.721158 0.721532 0.831120
Si Si5 0.500000 0.000000 0.500000
Si Si6 0.079423 0.863747 0.593065
Si Si7 0.995976 0.149643 0.009929
O O1 0.215974 0.882778 0.846754
O O2 0.306879 0.056578 0.006165
O O3 0.385348 0.936022 0.271489
O O4 0.062557 0.934582 0.932753
O O5 0.329257 0.998025 0.452554
O O6 0.097623 0.943138 0.481939
O O7 0.092507 0.867308 0.225976
O O8 0.380237 0.869871 0.677755
O O9 0.647623 0.744665 0.412138
O O10 0.581544 0.671117 0.598493
O O11 0.889479 0.651502 0.990029
O O12 0.800897 0.823169 0.832143
O O13 0.088207 0.755660 0.521075
#
# Coordination Sequence:
#
# PCOD9243744 Si02
#       7
#     4   4   4   4   2   4   4
#     4  10  20  40  64  92 128 163 213 256 333 357
#     4  10  20  38  64  92 121 165 209 255 329 365
#     4  11  24  39  59  93 131 161 202 285 313 372
#     4  10  23  42  59  92 131 165 221 256 317 371
#     4   8  20  36  54  92 130 152 198 274 304 384
#     4  10  21  38  70  91 118 174 214 258 289 416
#     4   9  20  40  67  90 121 175 210 256 306 409
#
# _framework density 27.266805999999999
#
# number of rings (size 3 to 8) (size 9 to 14) (size 15 to 20)
#    0.923    1.231    0.000    2.769    2.154    3.692 
#    2.769    6.154    0.000    0.000    0.000    0.000 
#    0.000    0.000    0.000    0.000    0.000    0.000 
#
# Total GULP energy -144749.088440 kJ/mol
# GULP energy per Si atom -5567.272632 kJ/mol
# Density = 2.720475 g / cm^3
# Si number density = 27.266806 Si / 1000 Ang^3
#
#
#
# Elastic Constant Matrix: (Units=GPa)
#
#
# Indices 1 2 3 4 5 6 
#
# 1 78.5873 -5.7931 10.9387 0.0000 -0.9596 0.0000
# 2 -5.7931 51.7273 11.9101 0.0000 8.2041 0.0000
# 3 10.9387 11.9101 132.8060 0.0000 -5.3261 0.0000
# 4 0.0000 0.0000 0.0000 48.3147 0.0000 0.6929
# 5 -0.9596 8.2041 -5.3261 0.0000 38.0929 0.0000
# 6 0.0000 0.0000 0.0000 0.6929 0.0000 21.6895
#
#
#
# Elastic Compliance Matrix: (Units=1/GPa)
#
#
# Indices 1 2 3 4 5 6 
#
# 1 0.013026 0.001781 -0.001242 0.000000 -0.000229 0.000000
# 2 0.001781 0.020790 -0.002201 0.000000 -0.004741 0.000000
# 3 -0.001242 -0.002201 0.007891 0.000000 0.001546 0.000000
# 4 0.000000 0.000000 0.000000 0.020707 0.000000 -0.000662
# 5 -0.000229 -0.004741 0.001546 0.000000 0.027483 0.000000
# 6 0.000000 0.000000 0.000000 -0.000662 0.000000 0.046126
#
#
# Mechanical properties :
#
#
# Convention : Reuss Voigt Hill
#
# Bulk Modulus (GPa) = 26.05265 33.02577 29.53921
# Shear Modulus (GPa) = 32.86381 38.02375 35.44378
#
# Velocity S-wave (km/s) = 3.47546 3.73836 3.60931
# Velocity P-wave (km/s) = 5.06760 5.54727 5.31285
#
# Compressibility (1/GPa) = 0.03838381
#
# Stress axis : x y z
#
# Youngs Moduli (GPa) = 76.76927 48.09923 126.71877
#
# Poissons Ratio (x) = -0.08567 0.15736
# Poissons Ratio (y) = -0.13673 0.27895
# Poissons Ratio (z) = 0.09533 0.10588
#
# Static dielectric constant tensor:
#      x y z
#    x 2.140590 0.000000 0.066130 
#    y 0.000000 2.292470 0.000000 
#    z 0.066130 0.000000 2.021050 
# 
# From -- ./inp_files/16455.got.cif
#   From: 2010.05.17/outbox.cif.g08.bks.cpg/sg14_9_cif.got.tgz:16455.got - 2010.06.03 17:49:19.
