data_PCOD9243089
_publ_section_title
;
Structure prediction by ZEFSAII (Michael W. Deem and Ramdas Pophale) SiO2 
 PCOD9243089
Probable space group: P 21/C
;
_chemical_formula_sum "Si O2"
_cell_formula_units_Z 32
_cell_length_a 13.540781
_cell_length_b 18.458668
_cell_length_c 11.452428
_cell_angle_alpha 90.000000
_cell_angle_beta 148.357674
_cell_angle_gamma 90.000000
_cell_volume 1501.696995
_symmetry_space_group_name_H-M "P 21/C"
_symmetry_group_IT_number 14
_symmetry_cell_setting 'monoclinic'
loop_
_space_group_symop_operation_xyz
x,y,z
-x,1/2+y,1/2-z
-x,-y,-z
x,1/2-y,1/2+z
loop_
_atom_site_type_symbol
_atom_site_label
_atom_site_fract_x
_atom_site_fract_y
_atom_site_fract_z
Si Si1 0.709282 0.442607 0.629583
Si Si2 0.277779 0.085244 0.728977
Si Si3 0.028937 0.604871 0.453227
Si Si4 0.773343 0.001642 0.564830
Si Si5 0.656017 0.018511 0.817273
Si Si6 0.071039 0.116364 0.889096
Si Si7 0.954556 0.309690 0.922810
Si Si8 0.978127 0.256127 0.693225
O O1 0.769422 0.524119 0.722545
O O2 0.504926 0.416248 0.467803
O O3 0.696020 0.439790 0.477928
O O4 0.858111 0.387478 0.827074
O O5 0.231988 0.045576 0.559346
O O6 0.174406 0.162845 0.636495
O O7 0.242638 0.574136 0.669478
O O8 0.970951 0.635425 0.519008
O O9 0.906448 0.535874 0.293770
O O10 0.972618 0.663335 0.298444
O O11 0.563870 0.999282 0.406513
O O12 0.879174 0.077806 0.648528
O O13 0.765774 0.942903 0.939748
O O14 0.114822 0.188645 0.860844
O O15 0.894573 0.270775 0.740040
O O16 0.895543 0.270653 0.984101
#
# Coordination Sequence:
#
# PCOD9243089 Si02
#       8
#     4   4   4   4   4   4   4   4
#     4  10  20  36  62  92 118 151 201 256 308 361
#     4  10  20  36  62  92 118 151 201 256 308 361
#     4  11  22  40  59  87 125 161 204 250 303 368
#     4  10  20  38  64  91 119 155 202 258 310 356
#     4  10  20  38  64  91 119 155 202 258 310 356
#     4  11  23  39  61  90 124 159 205 252 299 366
#     4  12  22  42  63  86 125 166 200 246 304 363
#     4  12  24  41  65  87 125 172 202 244 306 362
#
# _framework density 21.309225000000001
#
# number of rings (size 3 to 8) (size 9 to 14) (size 15 to 20)
#    0.000    1.250    3.750    4.125    0.000    2.000 
#    0.000    5.000    0.000    0.000    0.000    0.000 
#    0.000    0.000    0.000    0.000    0.000    0.000 
#
# Total GULP energy -178142.273218 kJ/mol
# GULP energy per Si atom -5566.946038 kJ/mol
# Density = 2.126072 g / cm^3
# Si number density = 21.309225 Si / 1000 Ang^3
#
#
#
# Elastic Constant Matrix: (Units=GPa)
#
#
# Indices 1 2 3 4 5 6 
#
# 1 78.2605 16.4630 27.5058 0.0000 -21.7945 0.0000
# 2 16.4630 68.3170 5.6913 0.0000 -1.4422 0.0000
# 3 27.5058 5.6913 56.7718 0.0000 -3.8589 0.0000
# 4 0.0000 0.0000 0.0000 18.6743 0.0000 -21.0484
# 5 -21.7945 -1.4422 -3.8589 0.0000 32.4039 0.0000
# 6 0.0000 0.0000 0.0000 -21.0484 0.0000 24.2997
#
#
#
# Elastic Compliance Matrix: (Units=1/GPa)
#
#
# Indices 1 2 3 4 5 6 
#
# 1 0.019973 -0.003850 -0.008458 0.000000 0.012255 0.000000
# 2 -0.003850 0.015511 0.000183 0.000000 -0.001877 0.000000
# 3 -0.008458 0.000183 0.021482 0.000000 -0.003122 0.000000
# 4 0.000000 0.000000 0.000000 2.261951 0.000000 1.959310
# 5 0.012255 -0.001877 -0.003122 0.000000 0.038648 0.000000
# 6 0.000000 0.000000 0.000000 1.959310 0.000000 1.738315
#
#
# Mechanical properties :
#
#
# Convention : Reuss Voigt Hill
#
# Bulk Modulus (GPa) = 30.56682 33.62996 32.09839
# Shear Modulus (GPa) = 1.21035 25.32153 13.26594
#
# Velocity S-wave (km/s) = 0.75447 3.45090 2.49779
# Velocity P-wave (km/s) = 3.89031 5.62978 4.83885
#
# Compressibility (1/GPa) = 0.03271521
#
# Stress axis : x y z
#
# Youngs Moduli (GPa) = 50.06677 64.47239 46.55122
#
# Poissons Ratio (x) = 0.24821 0.39373
# Poissons Ratio (y) = 0.19275 -0.00851
# Poissons Ratio (z) = 0.42347 -0.01178
#
# Static dielectric constant tensor:
#      x y z
#    x 1.873890 0.000000 -0.007720 
#    y 0.000000 -1.753790 0.000000 
#    z -0.007720 0.000000 1.768850 
# 
# From -- ./inp_files/33075.got.cif
#   From: 2010.05.17/outbox.cif.g08.bks.cpg/sg14_17_cif.got.tgz:33075.got - 2010.06.03 17:49:19.
