data_PCOD9243183
_publ_section_title
;
Structure prediction by ZEFSAII (Michael W. Deem and Ramdas Pophale) SiO2 
 PCOD9243183
Probable space group: P 21/C
;
_chemical_formula_sum "Si O2"
_cell_formula_units_Z 32
_cell_length_a 22.017120
_cell_length_b 10.235626
_cell_length_c 11.180807
_cell_angle_alpha 90.000000
_cell_angle_beta 29.618734
_cell_angle_gamma 90.000000
_cell_volume 1245.299403
_symmetry_space_group_name_H-M "P 21/C"
_symmetry_group_IT_number 14
_symmetry_cell_setting 'monoclinic'
loop_
_space_group_symop_operation_xyz
x,y,z
-x,1/2+y,1/2-z
-x,-y,-z
x,1/2-y,1/2+z
loop_
_atom_site_type_symbol
_atom_site_label
_atom_site_fract_x
_atom_site_fract_y
_atom_site_fract_z
Si Si1 0.401843 0.941389 0.521090
Si Si2 0.115452 0.671262 0.235484
Si Si3 0.173300 0.116564 0.172306
Si Si4 0.884898 0.600869 0.783497
Si Si5 0.625714 0.547030 0.474801
Si Si6 0.529162 0.709378 0.015113
Si Si7 0.037043 0.597991 0.762930
Si Si8 0.293865 0.782970 0.101128
O O1 0.489771 0.971873 0.259295
O O2 0.469123 0.835332 0.492726
O O3 0.289047 0.857908 0.670642
O O4 0.386118 0.082330 0.605216
O O5 0.187872 0.534460 0.110298
O O6 0.094325 0.756121 0.154066
O O7 0.175746 0.779429 0.219326
O O8 0.983824 0.627018 0.509917
O O9 0.182568 0.260682 0.100146
O O10 0.064408 0.107621 0.457606
O O11 0.133294 0.012385 0.139527
O O12 0.293127 0.091734 0.049145
O O13 0.961434 0.573394 0.772709
O O14 0.604450 0.657964 0.411531
O O15 0.685705 0.405960 0.347267
O O16 0.412651 0.712107 0.307448
#
# Coordination Sequence:
#
# PCOD9243183 Si02
#       8
#     4   4   4   4   4   4   4   4
#     4   9  20  38  58  82 114 147 190 231 282 337
#     4  10  21  38  56  85 113 148 195 235 286 343
#     4  10  21  36  58  83 113 151 187 238 287 339
#     4  10  22  37  57  83 114 150 190 241 284 342
#     4  10  20  37  58  81 117 149 182 235 285 333
#     4   9  20  38  58  83 112 149 188 233 281 340
#     4  10  20  39  57  79 117 147 190 238 289 339
#     4  10  20  37  57  82 115 150 183 236 283 334
#
# _framework density 25.696631
#
# number of rings (size 3 to 8) (size 9 to 14) (size 15 to 20)
#    0.000    2.250    1.250    0.750    1.750    2.500 
#    4.500    0.000    0.000    0.000    0.000    0.000 
#    0.000    0.000    0.000    0.000    0.000    0.000 
#
# Total GULP energy -178648.290609 kJ/mol
# GULP energy per Si atom -5582.759082 kJ/mol
# Density = 2.563814 g / cm^3
# Si number density = 25.696631 Si / 1000 Ang^3
#
#
#
# Elastic Constant Matrix: (Units=GPa)
#
#
# Indices 1 2 3 4 5 6 
#
# 1 47.0099 31.3381 -10.6538 0.0000 2.8315 0.0000
# 2 31.3381 158.0354 -3.1462 0.0000 -3.9138 0.0000
# 3 -10.6538 -3.1462 78.0789 0.0000 10.6672 0.0000
# 4 0.0000 0.0000 0.0000 22.1323 0.0000 -8.4516
# 5 2.8315 -3.9138 10.6672 0.0000 25.2326 0.0000
# 6 0.0000 0.0000 0.0000 -8.4516 0.0000 50.5288
#
#
#
# Elastic Compliance Matrix: (Units=1/GPa)
#
#
# Indices 1 2 3 4 5 6 
#
# 1 0.025998 -0.005209 0.004082 0.000000 -0.005451 0.000000
# 2 -0.005209 0.007397 -0.000689 0.000000 0.002023 0.000000
# 3 0.004082 -0.000689 0.014236 0.000000 -0.006583 0.000000
# 4 0.000000 0.000000 0.000000 0.048266 0.000000 0.008073
# 5 -0.005451 0.002023 -0.006583 0.000000 0.043340 0.000000
# 6 0.000000 0.000000 0.000000 0.008073 0.000000 0.021141
#
#
# Mechanical properties :
#
#
# Convention : Reuss Voigt Hill
#
# Bulk Modulus (GPa) = 22.72754 35.35560 29.04157
# Shear Modulus (GPa) = 27.98352 37.28447 32.63399
#
# Velocity S-wave (km/s) = 3.30357 3.81326 3.56753
# Velocity P-wave (km/s) = 4.83893 5.75992 5.31939
#
# Compressibility (1/GPa) = 0.04399949
#
# Stress axis : x y z
#
# Youngs Moduli (GPa) = 38.46432 135.18924 70.24321
#
# Poissons Ratio (x) = 0.70422 -0.28675
# Poissons Ratio (y) = 0.20036 0.04841
# Poissons Ratio (z) = -0.15702 0.09316
#
# Static dielectric constant tensor:
#      x y z
#    x 1.978150 0.000000 0.007840 
#    y 0.000000 2.114670 0.000000 
#    z 0.007840 0.000000 2.020460 
# 
# From -- ./inp_files/46496.got.cif
#   From: 2010.05.17/outbox.cif.g08.bks.cpg/sg14_24_cif.got.tgz:46496.got - 2010.06.03 17:49:19.
