data_PCOD9243096
_publ_section_title
;
Structure prediction by ZEFSAII (Michael W. Deem and Ramdas Pophale) SiO2 
 PCOD9243096
Probable space group: P 21/C
;
_chemical_formula_sum "Si O2"
_cell_formula_units_Z 32
_cell_length_a 11.877692
_cell_length_b 9.003811
_cell_length_c 27.640967
_cell_angle_alpha 90.000000
_cell_angle_beta 31.469951
_cell_angle_gamma 90.000000
_cell_volume 1543.209408
_symmetry_space_group_name_H-M "P 21/C"
_symmetry_group_IT_number 14
_symmetry_cell_setting 'monoclinic'
loop_
_space_group_symop_operation_xyz
x,y,z
-x,1/2+y,1/2-z
-x,-y,-z
x,1/2-y,1/2+z
loop_
_atom_site_type_symbol
_atom_site_label
_atom_site_fract_x
_atom_site_fract_y
_atom_site_fract_z
Si Si1 0.806114 0.979819 0.992876
Si Si2 0.403698 0.195562 0.385183
Si Si3 0.872996 0.633864 0.361010
Si Si4 0.704075 0.521634 0.805206
Si Si5 0.370769 0.138517 0.143871
Si Si6 0.833514 0.106274 0.712260
Si Si7 0.267524 0.418070 0.318053
Si Si8 0.695170 0.574617 0.179467
O O1 0.748111 0.824942 0.039646
O O2 0.612924 0.095767 0.070059
O O3 0.819318 0.946760 0.930724
O O4 0.036367 0.042254 0.924332
O O5 0.623995 0.283349 0.287952
O O6 0.291500 0.102648 0.383116
O O7 0.496568 0.081361 0.391025
O O8 0.678377 0.621601 0.394951
O O9 0.074846 0.554658 0.259891
O O10 0.966871 0.795464 0.342086
O O11 0.680356 0.690206 0.828492
O O12 0.722054 0.523699 0.740330
O O13 0.225634 0.025969 0.228959
O O14 0.854844 0.030610 0.651408
O O15 0.461409 0.500357 0.273921
O O16 0.299030 0.242268 0.303684
#
# Coordination Sequence:
#
# PCOD9243096 Si02
#       8
#     4   4   4   4   4   4   4   4
#     4  10  23  40  57  89 127 159 190 245 309 364
#     4   9  20  38  57  86 122 158 185 244 305 356
#     4  10  21  39  61  85 120 162 202 245 300 350
#     4   9  19  37  59  88 115 150 206 248 280 351
#     4  11  20  38  63  89 117 156 203 256 297 344
#     4  10  20  36  63  88 116 155 207 245 290 358
#     4  10  21  37  63  85 118 151 198 239 295 358
#     4  11  19  37  62  86 112 157 195 244 290 354
#
# _framework density 20.736004999999999
#
# number of rings (size 3 to 8) (size 9 to 14) (size 15 to 20)
#    0.000    2.000    2.500    1.875    0.000    0.500 
#    2.250    1.250    0.000    0.000    0.000    0.000 
#    0.000    0.000    0.000    0.000    0.000    0.000 
#
# Total GULP energy -178466.810489 kJ/mol
# GULP energy per Si atom -5577.087828 kJ/mol
# Density = 2.068881 g / cm^3
# Si number density = 20.736005 Si / 1000 Ang^3
#
#
#
# Elastic Constant Matrix: (Units=GPa)
#
#
# Indices 1 2 3 4 5 6 
#
# 1 49.0894 3.7638 4.9680 0.0000 1.7844 0.0000
# 2 3.7638 117.6152 11.2538 0.0000 -7.6638 0.0000
# 3 4.9680 11.2538 26.6033 0.0000 -11.3718 0.0000
# 4 0.0000 0.0000 0.0000 12.9053 0.0000 0.6870
# 5 1.7844 -7.6638 -11.3718 0.0000 19.7553 0.0000
# 6 0.0000 0.0000 0.0000 0.6870 0.0000 20.4363
#
#
#
# Elastic Compliance Matrix: (Units=1/GPa)
#
#
# Indices 1 2 3 4 5 6 
#
# 1 0.021238 -0.000456 -0.006193 0.000000 -0.005660 0.000000
# 2 -0.000456 0.008914 -0.002905 0.000000 0.001827 0.000000
# 3 -0.006193 -0.002905 0.052699 0.000000 0.029768 0.000000
# 4 0.000000 0.000000 0.000000 0.077627 0.000000 -0.002609
# 5 -0.005660 0.001827 0.029768 0.000000 0.068975 0.000000
# 6 0.000000 0.000000 0.000000 -0.002609 0.000000 0.049020
#
#
# Mechanical properties :
#
#
# Convention : Reuss Voigt Hill
#
# Bulk Modulus (GPa) = 15.68753 25.91991 20.80372
# Shear Modulus (GPa) = 15.68246 22.17419 18.92833
#
# Velocity S-wave (km/s) = 2.75306 3.27365 3.02458
# Velocity P-wave (km/s) = 4.20566 5.17843 4.71719
#
# Compressibility (1/GPa) = 0.06374489
#
# Stress axis : x y z
#
# Youngs Moduli (GPa) = 47.08450 112.18463 18.97572
#
# Poissons Ratio (x) = 0.05115 0.11751
# Poissons Ratio (y) = 0.02147 0.05512
# Poissons Ratio (z) = 0.29158 0.32585
#
# Static dielectric constant tensor:
#      x y z
#    x 1.777550 0.000000 -0.007210 
#    y 0.000000 1.725550 0.000000 
#    z -0.007210 0.000000 1.762340 
# 
# From -- ./inp_files/43453.got.cif
#   From: 2010.05.17/outbox.cif.g08.bks.cpg/sg14_22_cif.got.tgz:43453.got - 2010.06.03 17:49:19.
