data_PCOD9243478
_publ_section_title
;
Structure prediction by ZEFSAII (Michael W. Deem and Ramdas Pophale) SiO2 
 PCOD9243478
Probable space group: P 21/C
;
_chemical_formula_sum "Si O2"
_cell_formula_units_Z 32
_cell_length_a 12.903865
_cell_length_b 7.478583
_cell_length_c 17.763602
_cell_angle_alpha 90.000000
_cell_angle_beta 131.646020
_cell_angle_gamma 90.000000
_cell_volume 1280.986528
_symmetry_space_group_name_H-M "P 21/C"
_symmetry_group_IT_number 14
_symmetry_cell_setting 'monoclinic'
loop_
_space_group_symop_operation_xyz
x,y,z
-x,1/2+y,1/2-z
-x,-y,-z
x,1/2-y,1/2+z
loop_
_atom_site_type_symbol
_atom_site_label
_atom_site_fract_x
_atom_site_fract_y
_atom_site_fract_z
Si Si1 0.336747 0.494934 0.008416
Si Si2 0.958551 0.687433 0.148740
Si Si3 0.529242 0.526717 0.381203
Si Si4 0.032298 0.294883 0.174988
Si Si5 0.771870 0.502380 0.299449
Si Si6 0.151446 0.514084 0.490935
Si Si7 0.477794 0.847893 0.702482
Si Si8 0.620515 0.277216 0.109553
O O1 0.350736 0.550047 0.102236
O O2 0.473412 0.379237 0.054302
O O3 0.197611 0.391400 0.923965
O O4 0.343692 0.667318 0.957632
O O5 0.043716 0.508032 0.168406
O O6 0.990563 0.759665 0.247444
O O7 0.949831 0.855374 0.087743
O O8 0.695745 0.537029 0.467426
O O9 0.507124 0.337636 0.332265
O O10 0.475485 0.663062 0.290329
O O11 0.424847 0.574011 0.397877
O O12 0.160395 0.175026 0.207844
O O13 0.905947 0.199568 0.069718
O O14 0.839385 0.471980 0.414328
O O15 0.617191 0.551168 0.249543
O O16 0.743861 0.349569 0.223020
#
# Coordination Sequence:
#
# PCOD9243478 Si02
#       8
#     4   4   4   4   4   4   4   4
#     4  10  20  39  62  92 122 169 204 255 333 373
#     4  12  24  42  69  92 128 171 223 270 315 388
#     4  11  21  40  62  99 130 163 211 261 327 387
#     4  12  25  46  65  92 130 176 222 271 319 378
#     4  10  23  44  63  95 132 167 212 268 326 381
#     4  11  24  43  69  95 126 175 218 269 320 384
#     4  10  22  37  64  96 130 164 206 264 322 395
#     4  10  20  37  68  89 129 164 199 263 325 389
#
# _framework density 24.980746
#
# number of rings (size 3 to 8) (size 9 to 14) (size 15 to 20)
#    0.000    1.250    3.750    3.375    1.750    1.000 
#    4.500    0.000    0.000    0.000    0.000    0.000 
#    0.000    0.000    0.000    0.000    0.000    0.000 
#
# Total GULP energy -179029.580751 kJ/mol
# GULP energy per Si atom -5594.674398 kJ/mol
# Density = 2.492389 g / cm^3
# Si number density = 24.980746 Si / 1000 Ang^3
#
#
#
# Elastic Constant Matrix: (Units=GPa)
#
#
# Indices 1 2 3 4 5 6 
#
# 1 55.1223 -5.3745 22.9045 0.0000 -6.7847 0.0000
# 2 -5.3745 102.5521 38.7086 0.0000 -12.5394 0.0000
# 3 22.9045 38.7086 133.5764 0.0000 -5.6371 0.0000
# 4 0.0000 0.0000 0.0000 36.2276 0.0000 -5.2852
# 5 -6.7847 -12.5394 -5.6371 0.0000 29.1129 0.0000
# 6 0.0000 0.0000 0.0000 -5.2852 0.0000 40.3157
#
#
#
# Elastic Compliance Matrix: (Units=1/GPa)
#
#
# Indices 1 2 3 4 5 6 
#
# 1 0.020961 0.003415 -0.004351 0.000000 0.005513 0.000000
# 2 0.003415 0.012022 -0.003849 0.000000 0.005229 0.000000
# 3 -0.004351 -0.003849 0.009311 0.000000 -0.000869 0.000000
# 4 0.000000 0.000000 0.000000 0.028141 0.000000 0.003689
# 5 0.005513 0.005229 -0.000869 0.000000 0.037718 0.000000
# 6 0.000000 0.000000 0.000000 0.003689 0.000000 0.025288
#
#
# Mechanical properties :
#
#
# Convention : Reuss Voigt Hill
#
# Bulk Modulus (GPa) = 30.55816 44.85867 37.70842
# Shear Modulus (GPa) = 32.48449 36.79871 34.64160
#
# Velocity S-wave (km/s) = 3.60999 3.84224 3.72792
# Velocity P-wave (km/s) = 5.44383 6.13841 5.80152
#
# Compressibility (1/GPa) = 0.03272448
#
# Stress axis : x y z
#
# Youngs Moduli (GPa) = 47.70748 83.17949 107.39854
#
# Poissons Ratio (x) = -0.28406 0.46731
# Poissons Ratio (y) = -0.16292 0.41335
# Poissons Ratio (z) = 0.20758 0.32014
#
# Static dielectric constant tensor:
#      x y z
#    x 1.979820 0.000000 0.020800 
#    y 0.000000 2.047760 0.000000 
#    z 0.020800 0.000000 2.001740 
# 
# From -- ./inp_files/58907.got.cif
#   From: 2010.05.17/outbox.cif.g08.bks.cpg/sg14_30_cif.got.tgz:58907.got - 2010.06.03 17:49:19.
