data_PCOD9243073
_publ_section_title
;
Structure prediction by ZEFSAII (Michael W. Deem and Ramdas Pophale) SiO2 
 PCOD9243073
Probable space group: P 21/C
;
_chemical_formula_sum "Si O2"
_cell_formula_units_Z 20
_cell_length_a 11.478735
_cell_length_b 5.430600
_cell_length_c 28.498602
_cell_angle_alpha 90.000000
_cell_angle_beta 151.825002
_cell_angle_gamma 90.000000
_cell_volume 838.803528
_symmetry_space_group_name_H-M "P 21/C"
_symmetry_group_IT_number 14
_symmetry_cell_setting 'monoclinic'
loop_
_space_group_symop_operation_xyz
x,y,z
-x,1/2+y,1/2-z
-x,-y,-z
x,1/2-y,1/2+z
loop_
_atom_site_type_symbol
_atom_site_label
_atom_site_fract_x
_atom_site_fract_y
_atom_site_fract_z
Si Si1 0.146834 0.696856 0.584305
Si Si2 0.052403 0.568479 0.296000
Si Si3 0.274608 0.904136 0.541379
Si Si4 0.548739 0.811562 0.475637
Si Si5 0.992069 0.987664 0.876215
O O1 0.344729 0.796684 0.617279
O O2 0.000000 0.500000 0.500000
O O3 0.208409 0.576543 0.656478
O O4 0.951942 0.910460 0.527902
O O5 0.347096 0.599931 0.407139
O O6 0.927039 0.613570 0.302257
O O7 0.012079 0.300043 0.259962
O O8 0.164417 0.699080 0.467072
O O9 0.476058 0.050022 0.583247
O O10 0.826851 0.712973 0.573559
O O11 0.500000 0.000000 0.500000
#
# Coordination Sequence:
#
# PCOD9243073 Si02
#       5
#     4   4   4   4   4
#     4   8  16  31  54  95 112 145 197 273 304 349
#     4  12  27  40  57  93 133 169 203 252 323 383
#     4   9  17  31  60  90 115 146 207 263 305 352
#     4  11  21  37  62  90 122 162 210 260 309 372
#     4  10  20  36  62  87 119 158 209 256 305 371
#
# _framework density 23.843487
#
# number of rings (size 3 to 8) (size 9 to 14) (size 15 to 20)
#    0.000    2.000    2.000    1.800    5.600    0.000 
#    0.000    0.000    0.000    0.000   31.200    0.000 
#    0.000    0.000    0.000    0.000    0.000    0.000 
#
# Total GULP energy -111630.853134 kJ/mol
# GULP energy per Si atom -5581.542657 kJ/mol
# Density = 2.378922 g / cm^3
# Si number density = 23.843487 Si / 1000 Ang^3
#
#
#
# Elastic Constant Matrix: (Units=GPa)
#
#
# Indices 1 2 3 4 5 6 
#
# 1 202.7344 36.9519 34.1092 0.0000 -51.4405 0.0000
# 2 36.9519 79.2693 12.1886 0.0000 -14.9324 0.0000
# 3 34.1092 12.1886 52.1078 0.0000 -19.6953 0.0000
# 4 0.0000 0.0000 0.0000 33.0080 0.0000 -7.0182
# 5 -51.4405 -14.9324 -19.6953 0.0000 36.4540 0.0000
# 6 0.0000 0.0000 0.0000 -7.0182 0.0000 63.4138
#
#
#
# Elastic Compliance Matrix: (Units=1/GPa)
#
#
# Indices 1 2 3 4 5 6 
#
# 1 0.007937 -0.001664 -0.001044 0.000000 0.009955 0.000000
# 2 -0.001664 0.014096 -0.001147 0.000000 0.002806 0.000000
# 3 -0.001044 -0.001147 0.024389 0.000000 0.011234 0.000000
# 4 0.000000 0.000000 0.000000 0.031026 0.000000 0.003434
# 5 0.009955 0.002806 0.011234 0.000000 0.048698 0.000000
# 6 0.000000 0.000000 0.000000 0.003434 0.000000 0.016149
#
#
# Mechanical properties :
#
#
# Convention : Reuss Voigt Hill
#
# Bulk Modulus (GPa) = 25.83228 55.62344 40.72786
# Shear Modulus (GPa) = 30.69183 43.29927 36.99555
#
# Velocity S-wave (km/s) = 3.59168 4.26605 3.94331
# Velocity P-wave (km/s) = 5.29696 6.90252 6.15234
#
# Compressibility (1/GPa) = 0.03871126
#
# Stress axis : x y z
#
# Youngs Moduli (GPa) = 125.98583 70.94216 41.00264
#
# Poissons Ratio (x) = 0.11807 0.04280
# Poissons Ratio (y) = 0.20968 0.04704
# Poissons Ratio (z) = 0.13150 0.08139
#
# Static dielectric constant tensor:
#      x y z
#    x 1.967800 0.000000 -0.062440 
#    y 0.000000 1.961120 0.000000 
#    z -0.062440 0.000000 1.946120 
# 
# From -- ./inp_files/42476.got.cif
#   From: 2010.05.17/outbox.cif.g08.bks.cpg/sg14_22_cif.got.tgz:42476.got - 2010.06.03 17:49:19.
