data_PCOD9243103
_publ_section_title
;
Structure prediction by ZEFSAII (Michael W. Deem and Ramdas Pophale) SiO2 
 PCOD9243103
Probable space group: P 21/C
;
_chemical_formula_sum "Si O2"
_cell_formula_units_Z 24
_cell_length_a 14.598508
_cell_length_b 13.016594
_cell_length_c 7.501680
_cell_angle_alpha 90.000000
_cell_angle_beta 54.090152
_cell_angle_gamma 90.000000
_cell_volume 1154.563079
_symmetry_space_group_name_H-M "P 21/C"
_symmetry_group_IT_number 14
_symmetry_cell_setting 'monoclinic'
loop_
_space_group_symop_operation_xyz
x,y,z
-x,1/2+y,1/2-z
-x,-y,-z
x,1/2-y,1/2+z
loop_
_atom_site_type_symbol
_atom_site_label
_atom_site_fract_x
_atom_site_fract_y
_atom_site_fract_z
Si Si1 0.608842 0.072954 0.103834
Si Si2 0.092326 0.367301 0.049213
Si Si3 0.606003 0.640926 0.014235
Si Si4 0.436665 0.366392 0.546079
Si Si5 0.844724 0.868389 0.114324
Si Si6 0.861080 0.028229 0.798750
O O1 0.576852 0.959420 0.072144
O O2 0.741193 0.079868 0.979420
O O3 0.522146 0.100779 0.361727
O O4 0.562294 0.140868 0.989231
O O5 0.112387 0.384651 0.234945
O O6 0.959786 0.389015 0.160636
O O7 0.130707 0.250714 0.962222
O O8 0.151500 0.453450 0.858078
O O9 0.632181 0.615110 0.191327
O O10 0.599895 0.763117 0.005007
O O11 0.709410 0.609246 0.773401
O O12 0.894790 0.948147 0.916376
#
# Coordination Sequence:
#
# PCOD9243103 Si02
#       6
#     4   4   4   4   4   4
#     4   9  21  40  59  91 131 160 195 263 320 364
#     4  11  25  42  65  95 121 171 211 267 301 368
#     4  10  20  36  63  93 116 165 202 251 310 373
#     4   9  20  37  58  92 130 157 203 251 315 372
#     4  12  22  41  70  94 122 163 223 254 309 378
#     4  11  24  44  65  90 133 165 212 259 320 367
#
# _framework density 20.787085000000001
#
# number of rings (size 3 to 8) (size 9 to 14) (size 15 to 20)
#    1.000    0.667    1.667    3.500    2.333    0.667 
#    3.000    0.000    0.000    0.000    0.000    0.000 
#    0.000    0.000    0.000    0.000    0.000    0.000 
#
# Total GULP energy -133821.044643 kJ/mol
# GULP energy per Si atom -5575.876860 kJ/mol
# Density = 2.073977 g / cm^3
# Si number density = 20.787085 Si / 1000 Ang^3
#
#
#
# Elastic Constant Matrix: (Units=GPa)
#
#
# Indices 1 2 3 4 5 6 
#
# 1 74.8875 -0.1597 27.8163 0.0000 -2.6934 0.0000
# 2 -0.1597 26.2288 31.6173 0.0000 -7.0269 0.0000
# 3 27.8163 31.6173 84.7270 0.0000 -18.1309 0.0000
# 4 0.0000 0.0000 0.0000 28.1148 0.0000 0.8158
# 5 -2.6934 -7.0269 -18.1309 0.0000 49.8128 0.0000
# 6 0.0000 0.0000 0.0000 0.8158 0.0000 19.3259
#
#
#
# Elastic Compliance Matrix: (Units=1/GPa)
#
#
# Indices 1 2 3 4 5 6 
#
# 1 0.017285 0.012604 -0.010626 0.000000 -0.001155 0.000000
# 2 0.012604 0.078497 -0.033526 0.000000 -0.000448 0.000000
# 3 -0.010626 -0.033526 0.028919 0.000000 0.005222 0.000000
# 4 0.000000 0.000000 0.000000 0.035612 0.000000 -0.001503
# 5 -0.001155 -0.000448 0.005222 0.000000 0.021850 0.000000
# 6 0.000000 0.000000 0.000000 -0.001503 0.000000 0.051808
#
#
# Mechanical properties :
#
#
# Convention : Reuss Voigt Hill
#
# Bulk Modulus (GPa) = 16.23203 33.82122 25.02662
# Shear Modulus (GPa) = 15.74296 27.88866 21.81581
#
# Velocity S-wave (km/s) = 2.75497 3.66681 3.24310
# Velocity P-wave (km/s) = 4.23621 5.85089 5.10776
#
# Compressibility (1/GPa) = 0.06160661
#
# Stress axis : x y z
#
# Youngs Moduli (GPa) = 57.85205 12.73937 34.57878
#
# Poissons Ratio (x) = -0.16057 0.36742
# Poissons Ratio (y) = -0.72919 1.15930
# Poissons Ratio (z) = 0.61471 0.42710
#
# Static dielectric constant tensor:
#      x y z
#    x 1.788720 0.000000 -0.039620 
#    y 0.000000 1.711660 0.000000 
#    z -0.039620 0.000000 1.793110 
# 
# From -- ./inp_files/17734.got.cif
#   From: 2010.05.17/outbox.cif.g08.bks.cpg/sg14_9_cif.got.tgz:17734.got - 2010.06.03 17:49:19.
