data_PCOD9243977
_publ_section_title
;
Structure prediction by ZEFSAII (Michael W. Deem and Ramdas Pophale) SiO2 
 PCOD9243977
Probable space group: P 21/C
;
_chemical_formula_sum "Si O2"
_cell_formula_units_Z 28
_cell_length_a 14.944025
_cell_length_b 7.429088
_cell_length_c 14.499725
_cell_angle_alpha 90.000000
_cell_angle_beta 135.719961
_cell_angle_gamma 90.000000
_cell_volume 1123.884006
_symmetry_space_group_name_H-M "P 21/C"
_symmetry_group_IT_number 14
_symmetry_cell_setting 'monoclinic'
loop_
_space_group_symop_operation_xyz
x,y,z
-x,1/2+y,1/2-z
-x,-y,-z
x,1/2-y,1/2+z
loop_
_atom_site_type_symbol
_atom_site_label
_atom_site_fract_x
_atom_site_fract_y
_atom_site_fract_z
Si Si1 0.700441 0.363117 0.682737
Si Si2 0.573042 0.272967 0.358447
Si Si3 0.172555 0.572750 0.396322
Si Si4 0.437788 0.261214 0.452652
Si Si5 0.650974 0.876451 0.434246
Si Si6 0.032831 0.180076 0.659748
Si Si7 0.154927 0.097901 0.568716
O O1 0.797706 0.307400 0.674455
O O2 0.580049 0.233975 0.600971
O O3 0.628153 0.542826 0.590838
O O4 0.770081 0.434103 0.824057
O O5 0.685411 0.422186 0.452351
O O6 0.474157 0.250708 0.371802
O O7 0.481892 0.303150 0.205323
O O8 0.649008 0.088001 0.412821
O O9 0.065955 0.667785 0.380635
O O10 0.116453 0.392064 0.307641
O O11 0.348340 0.148299 0.455246
O O12 0.760522 0.806008 0.446193
O O13 0.112771 0.221263 0.624787
O O14 0.957133 0.001914 0.568987
#
# Coordination Sequence:
#
# PCOD9243977 Si02
#       7
#     4   4   4   4   4   4   4
#     4   9  19  39  62  93 130 169 208 264 330 390
#     4  11  24  42  63 102 133 167 217 270 330 403
#     4  10  22  41  64  92 125 169 220 272 315 379
#     4  10  21  36  62  98 137 165 209 257 335 401
#     4  12  23  39  68  98 133 174 207 273 340 388
#     4  10  22  42  66  87 124 174 224 269 319 379
#     4  10  20  39  63  90 123 172 216 260 318 395
#
# _framework density 24.913603999999999
#
# number of rings (size 3 to 8) (size 9 to 14) (size 15 to 20)
#    0.000    1.714    2.857    1.286    4.000    2.286 
#    0.000    0.000    0.000   12.000    0.000    0.000 
#    0.000    0.000    0.000    0.000    0.000    0.000 
#
# Total GULP energy -156122.605518 kJ/mol
# GULP energy per Si atom -5575.807340 kJ/mol
# Density = 2.485690 g / cm^3
# Si number density = 24.913604 Si / 1000 Ang^3
#
#
#
# Elastic Constant Matrix: (Units=GPa)
#
#
# Indices 1 2 3 4 5 6 
#
# 1 165.3045 23.7025 5.1237 0.0000 -29.3562 0.0000
# 2 23.7025 27.5329 11.9745 0.0000 -7.2167 0.0000
# 3 5.1237 11.9745 67.5815 0.0000 -4.6257 0.0000
# 4 0.0000 0.0000 0.0000 21.8059 0.0000 -12.8986
# 5 -29.3562 -7.2167 -4.6257 0.0000 36.1417 0.0000
# 6 0.0000 0.0000 0.0000 -12.8986 0.0000 13.1445
#
#
#
# Elastic Compliance Matrix: (Units=1/GPa)
#
#
# Indices 1 2 3 4 5 6 
#
# 1 0.007773 -0.005642 0.000772 0.000000 0.005286 0.000000
# 2 -0.005642 0.045300 -0.007358 0.000000 0.003521 0.000000
# 3 0.000772 -0.007358 0.016126 0.000000 0.001222 0.000000
# 4 0.000000 0.000000 0.000000 0.109306 0.000000 0.107262
# 5 0.005286 0.003521 0.001222 0.000000 0.032822 0.000000
# 6 0.000000 0.000000 0.000000 0.107262 0.000000 0.181333
#
#
# Mechanical properties :
#
#
# Convention : Reuss Voigt Hill
#
# Bulk Modulus (GPa) = 22.34950 38.00226 30.17588
# Shear Modulus (GPa) = 11.57326 28.85964 20.21645
#
# Velocity S-wave (km/s) = 2.15765 3.40720 2.85171
# Velocity P-wave (km/s) = 3.89840 5.54666 4.79390
#
# Compressibility (1/GPa) = 0.04474374
#
# Stress axis : x y z
#
# Youngs Moduli (GPa) = 128.64605 22.07492 62.01270
#
# Poissons Ratio (x) = 0.12455 -0.04789
# Poissons Ratio (y) = 0.72584 0.45628
# Poissons Ratio (z) = -0.09934 0.16242
#
# Static dielectric constant tensor:
#      x y z
#    x 2.102200 0.000000 0.070820 
#    y 0.000000 2.015330 0.000000 
#    z 0.070820 0.000000 2.014180 
# 
# From -- ./inp_files/46552.got.cif
#   From: 2010.05.17/outbox.cif.g08.bks.cpg/sg14_24_cif.got.tgz:46552.got - 2010.06.03 17:49:19.
