data_PCOD9243455
_publ_section_title
;
Structure prediction by ZEFSAII (Michael W. Deem and Ramdas Pophale) SiO2 
 PCOD9243455
Probable space group: P 21/C
;
_chemical_formula_sum "Si O2"
_cell_formula_units_Z 32
_cell_length_a 10.369764
_cell_length_b 10.893209
_cell_length_c 13.261321
_cell_angle_alpha 90.000000
_cell_angle_beta 103.603456
_cell_angle_gamma 90.000000
_cell_volume 1455.975267
_symmetry_space_group_name_H-M "P 21/C"
_symmetry_group_IT_number 14
_symmetry_cell_setting 'monoclinic'
loop_
_space_group_symop_operation_xyz
x,y,z
-x,1/2+y,1/2-z
-x,-y,-z
x,1/2-y,1/2+z
loop_
_atom_site_type_symbol
_atom_site_label
_atom_site_fract_x
_atom_site_fract_y
_atom_site_fract_z
Si Si1 0.220265 0.545483 0.574250
Si Si2 0.374396 0.296558 0.236170
Si Si3 0.878996 0.262507 0.071055
Si Si4 0.752793 0.003891 0.600744
Si Si5 0.982258 0.543653 0.299976
Si Si6 0.149705 0.170342 0.538726
Si Si7 0.449055 0.471699 0.771174
Si Si8 0.204016 0.129101 0.887515
O O1 0.182986 0.681103 0.529894
O O2 0.092839 0.491238 0.609717
O O3 0.339441 0.527261 0.673728
O O4 0.251564 0.471276 0.477757
O O5 0.247041 0.274230 0.141197
O O6 0.437053 0.426706 0.215548
O O7 0.464694 0.173336 0.247169
O O8 0.317559 0.316667 0.337997
O O9 0.770758 0.350647 0.098707
O O10 0.941706 0.169468 0.164113
O O11 0.002337 0.343183 0.053746
O O12 0.871049 0.954427 0.694711
O O13 0.780046 0.947400 0.496700
O O14 0.616433 0.971544 0.630001
O O15 0.091900 0.439016 0.301236
O O16 0.142271 0.266112 0.445499
#
# Coordination Sequence:
#
# PCOD9243455 Si02
#       8
#     4   4   4   4   4   4   4   4
#     4  10  20  41  68  94 127 168 219 263 322 398
#     4  12  27  45  68  94 129 176 233 275 320 386
#     4  11  21  37  64 102 134 162 214 262 323 400
#     4  11  25  38  64  98 134 171 208 272 341 377
#     4  10  20  37  65  98 131 171 206 261 322 410
#     4  12  22  42  65  97 136 167 209 260 340 394
#     4  11  26  47  65  93 128 177 227 275 321 385
#     4  11  20  40  69  92 123 172 211 261 328 389
#
# _framework density 21.978396
#
# number of rings (size 3 to 8) (size 9 to 14) (size 15 to 20)
#    0.000    1.000    5.000    2.625    1.750    4.000 
#    2.250    1.250    0.000    0.000    0.000    0.000 
#    0.000    0.000    0.000    0.000    0.000    0.000 
#
# Total GULP energy -178845.859158 kJ/mol
# GULP energy per Si atom -5588.933099 kJ/mol
# Density = 2.192837 g / cm^3
# Si number density = 21.978396 Si / 1000 Ang^3
#
#
#
# Elastic Constant Matrix: (Units=GPa)
#
#
# Indices 1 2 3 4 5 6 
#
# 1 32.8910 10.6832 10.6419 0.0000 -6.7572 0.0000
# 2 10.6832 69.2313 39.0615 0.0000 -16.9461 0.0000
# 3 10.6419 39.0615 53.6995 0.0000 0.4376 0.0000
# 4 0.0000 0.0000 0.0000 26.2626 0.0000 -6.1183
# 5 -6.7572 -16.9461 0.4376 0.0000 19.2730 0.0000
# 6 0.0000 0.0000 0.0000 -6.1183 0.0000 36.2274
#
#
#
# Elastic Compliance Matrix: (Units=1/GPa)
#
#
# Indices 1 2 3 4 5 6 
#
# 1 0.035778 0.004502 -0.010501 0.000000 0.016741 0.000000
# 2 0.004502 0.040015 -0.030304 0.000000 0.037450 0.000000
# 3 -0.010501 -0.030304 0.043002 0.000000 -0.031304 0.000000
# 4 0.000000 0.000000 0.000000 0.039636 0.000000 0.006694
# 5 0.016741 0.037450 -0.031304 0.000000 0.091394 0.000000
# 6 0.000000 0.000000 0.000000 0.006694 0.000000 0.028734
#
#
# Mechanical properties :
#
#
# Convention : Reuss Voigt Hill
#
# Bulk Modulus (GPa) = 21.65117 30.73278 26.19197
# Shear Modulus (GPa) = 13.64020 22.71494 18.17757
#
# Velocity S-wave (km/s) = 2.49392 3.21832 2.87899
# Velocity P-wave (km/s) = 4.26209 5.27481 4.79526
#
# Compressibility (1/GPa) = 0.04618689
#
# Stress axis : x y z
#
# Youngs Moduli (GPa) = 27.94998 24.99083 23.25469
#
# Poissons Ratio (x) = -0.11250 0.24421
# Poissons Ratio (y) = -0.12582 0.70472
# Poissons Ratio (z) = 0.29351 0.75733
#
# Static dielectric constant tensor:
#      x y z
#    x 1.788320 0.000000 0.010440 
#    y 0.000000 1.845220 0.000000 
#    z 0.010440 0.000000 1.797730 
# 
# From -- ./inp_files/29107.got.cif
#   From: 2010.05.17/outbox.cif.g08.bks.cpg/sg14_15_cif.got.tgz:29107.got - 2010.06.03 17:49:19.
