data_PCOD9243505
_publ_section_title
;
Structure prediction by ZEFSAII (Michael W. Deem and Ramdas Pophale) SiO2 
 PCOD9243505
Probable space group: P 21/C
;
_chemical_formula_sum "Si O2"
_cell_formula_units_Z 32
_cell_length_a 12.018633
_cell_length_b 9.521151
_cell_length_c 31.771220
_cell_angle_alpha 90.000000
_cell_angle_beta 154.477575
_cell_angle_gamma 90.000000
_cell_volume 1566.458728
_symmetry_space_group_name_H-M "P 21/C"
_symmetry_group_IT_number 14
_symmetry_cell_setting 'monoclinic'
loop_
_space_group_symop_operation_xyz
x,y,z
-x,1/2+y,1/2-z
-x,-y,-z
x,1/2-y,1/2+z
loop_
_atom_site_type_symbol
_atom_site_label
_atom_site_fract_x
_atom_site_fract_y
_atom_site_fract_z
Si Si1 0.472322 0.684899 0.370497
Si Si2 0.111014 0.944428 0.892590
Si Si3 0.742109 0.749227 0.215201
Si Si4 0.196074 0.560105 0.124506
Si Si5 0.323226 0.053295 0.880175
Si Si6 0.608070 0.993846 0.401705
Si Si7 0.929392 0.381205 0.406619
Si Si8 0.514119 0.982279 0.196211
O O1 0.330281 0.598684 0.358993
O O2 0.460127 0.850976 0.362713
O O3 0.403468 0.617345 0.302281
O O4 0.774723 0.647171 0.480316
O O5 0.963182 0.813981 0.820858
O O6 0.192090 0.039610 0.880517
O O7 0.376536 0.906432 0.007830
O O8 0.938157 0.035390 0.865577
O O9 0.811607 0.838840 0.197673
O O10 0.562277 0.620992 0.139996
O O11 0.570797 0.853604 0.184888
O O12 0.340051 0.521546 0.130243
O O13 0.204697 0.727575 0.137211
O O14 0.322906 0.476628 0.205779
O O15 0.896342 0.518109 0.018359
O O16 0.779715 0.477911 0.388761
#
# Coordination Sequence:
#
# PCOD9243505 Si02
#       8
#     4   4   4   4   4   4   4   4
#     4   9  21  38  62  83 120 159 196 254 301 358
#     4  10  22  41  69  84 122 167 204 249 311 349
#     4  11  23  38  63  93 117 157 201 254 303 360
#     4  10  22  35  54  83 129 153 196 245 299 367
#     4   9  22  45  63  91 119 157 214 255 291 369
#     4  10  21  38  56  86 120 160 192 249 305 353
#     4  10  20  38  58  88 118 162 201 241 302 368
#     4  11  22  35  56  91 121 154 198 242 301 377
#
# _framework density 20.428245
#
# number of rings (size 3 to 8) (size 9 to 14) (size 15 to 20)
#    0.000    2.000    1.250    1.125    5.250    1.000 
#    2.250    0.000    0.000    3.750    0.000    0.000 
#    0.000    0.000    0.000    0.000    0.000    0.000 
#
# Total GULP energy -178647.522788 kJ/mol
# GULP energy per Si atom -5582.735087 kJ/mol
# Density = 2.038175 g / cm^3
# Si number density = 20.428245 Si / 1000 Ang^3
#
#
#
# Elastic Constant Matrix: (Units=GPa)
#
#
# Indices 1 2 3 4 5 6 
#
# 1 62.7299 14.7036 13.1107 0.0000 -16.6200 0.0000
# 2 14.7036 79.4976 21.7123 0.0000 -11.5887 0.0000
# 3 13.1107 21.7123 54.9960 0.0000 -16.5411 0.0000
# 4 0.0000 0.0000 0.0000 33.4831 0.0000 -6.1326
# 5 -16.6200 -11.5887 -16.5411 0.0000 26.0057 0.0000
# 6 0.0000 0.0000 0.0000 -6.1326 0.0000 21.3080
#
#
#
# Elastic Compliance Matrix: (Units=1/GPa)
#
#
# Indices 1 2 3 4 5 6 
#
# 1 0.019470 -0.001809 -0.000528 0.000000 0.011301 0.000000
# 2 -0.001809 0.014514 -0.004577 0.000000 0.002400 0.000000
# 3 -0.000528 -0.004577 0.023991 0.000000 0.012882 0.000000
# 4 0.000000 0.000000 0.000000 0.031528 0.000000 0.009074
# 5 0.011301 0.002400 0.012882 0.000000 0.054939 0.000000
# 6 0.000000 0.000000 0.000000 0.009074 0.000000 0.049542
#
#
# Mechanical properties :
#
#
# Convention : Reuss Voigt Hill
#
# Bulk Modulus (GPa) = 22.65245 32.91965 27.78605
# Shear Modulus (GPa) = 22.46924 26.00584 24.23754
#
# Velocity S-wave (km/s) = 3.32009 3.57183 3.44826
# Velocity P-wave (km/s) = 5.08037 5.75851 5.43003
#
# Compressibility (1/GPa) = 0.04414534
#
# Stress axis : x y z
#
# Youngs Moduli (GPa) = 51.36113 68.90131 41.68315
#
# Poissons Ratio (x) = 0.12468 0.02202
# Poissons Ratio (y) = 0.09294 0.19077
# Poissons Ratio (z) = 0.02713 0.31534
#
# Static dielectric constant tensor:
#      x y z
#    x 1.718920 0.000000 0.020190 
#    y 0.000000 1.739650 0.000000 
#    z 0.020190 0.000000 1.753730 
# 
# From -- ./inp_files/43755.got.cif
#   From: 2010.05.17/outbox.cif.g08.bks.cpg/sg14_22_cif.got.tgz:43755.got - 2010.06.03 17:49:19.
