data_PCOD9243124
_publ_section_title
;
Structure prediction by ZEFSAII (Michael W. Deem and Ramdas Pophale) SiO2 
 PCOD9243124
Probable space group: P 21/C
;
_chemical_formula_sum "Si O2"
_cell_formula_units_Z 28
_cell_length_a 7.787520
_cell_length_b 10.539153
_cell_length_c 23.599149
_cell_angle_alpha 90.000000
_cell_angle_beta 36.716835
_cell_angle_gamma 90.000000
_cell_volume 1157.980473
_symmetry_space_group_name_H-M "P 21/C"
_symmetry_group_IT_number 14
_symmetry_cell_setting 'monoclinic'
loop_
_space_group_symop_operation_xyz
x,y,z
-x,1/2+y,1/2-z
-x,-y,-z
x,1/2-y,1/2+z
loop_
_atom_site_type_symbol
_atom_site_label
_atom_site_fract_x
_atom_site_fract_y
_atom_site_fract_z
Si Si1 0.877946 0.570150 0.410019
Si Si2 0.028477 0.506711 0.075385
Si Si3 0.242964 0.816488 0.433122
Si Si4 0.431012 0.657212 0.222449
Si Si5 0.184742 0.910738 0.254691
Si Si6 0.182515 0.409461 0.251878
Si Si7 0.459943 0.572983 0.418183
O O1 0.672367 0.618311 0.413273
O O2 0.697003 0.548853 0.513572
O O3 0.984391 0.430813 0.359000
O O4 0.177247 0.643218 0.336728
O O5 0.738613 0.595461 0.152370
O O6 0.023718 0.450302 0.139187
O O7 0.265434 0.595470 0.983920
O O8 0.994464 0.387290 0.041447
O O9 0.531314 0.829856 0.319491
O O10 0.231495 0.675790 0.458923
O O11 0.413359 0.802980 0.210898
O O12 0.291674 0.556045 0.214224
O O13 0.998154 0.859068 0.252110
O O14 0.348882 0.030241 0.185056
#
# Coordination Sequence:
#
# PCOD9243124 Si02
#       7
#     4   4   4   4   4   4   4
#     4   8  18  39  58  92 121 150 197 250 304 346
#     4  10  24  40  58  88 124 165 199 243 307 356
#     4  10  21  42  62  84 127 161 202 250 299 362
#     4   9  20  42  57  83 129 152 194 255 291 359
#     4  11  22  38  64  95 113 159 210 241 306 360
#     4   8  19  39  64  86 118 159 194 253 307 340
#     4  10  20  36  64  95 114 156 205 248 302 356
#
# _framework density 24.180029000000001
#
# number of rings (size 3 to 8) (size 9 to 14) (size 15 to 20)
#    0.857    1.714    0.000    0.857    2.000    2.857 
#   12.857    1.429    0.000    0.000    0.000    0.000 
#    0.000    0.000    0.000    0.000    0.000    0.000 
#
# Total GULP energy -156080.958667 kJ/mol
# GULP energy per Si atom -5574.319952 kJ/mol
# Density = 2.412499 g / cm^3
# Si number density = 24.180029 Si / 1000 Ang^3
#
#
#
# Elastic Constant Matrix: (Units=GPa)
#
#
# Indices 1 2 3 4 5 6 
#
# 1 53.0155 16.6742 9.9148 0.0000 2.0506 0.0000
# 2 16.6742 58.2117 -4.6742 0.0000 9.5899 0.0000
# 3 9.9148 -4.6742 70.2324 0.0000 13.3713 0.0000
# 4 0.0000 0.0000 0.0000 23.1473 0.0000 0.3458
# 5 2.0506 9.5899 13.3713 0.0000 39.1047 0.0000
# 6 0.0000 0.0000 0.0000 0.3458 0.0000 15.0724
#
#
#
# Elastic Compliance Matrix: (Units=1/GPa)
#
#
# Indices 1 2 3 4 5 6 
#
# 1 0.021659 -0.006820 -0.003865 0.000000 0.001859 0.000000
# 2 -0.006820 0.020364 0.003424 0.000000 -0.005807 0.000000
# 3 -0.003865 0.003424 0.016187 0.000000 -0.006172 0.000000
# 4 0.000000 0.000000 0.000000 0.043216 0.000000 -0.000992
# 5 0.001859 -0.005807 -0.006172 0.000000 0.029009 0.000000
# 6 0.000000 0.000000 0.000000 -0.000992 0.000000 0.066369
#
#
# Mechanical properties :
#
#
# Convention : Reuss Voigt Hill
#
# Bulk Modulus (GPa) = 22.89098 25.03211 23.96154
# Shear Modulus (GPa) = 22.13464 26.10120 24.11792
#
# Velocity S-wave (km/s) = 3.02886 3.28907 3.16164
# Velocity P-wave (km/s) = 4.66041 4.97984 4.82277
#
# Compressibility (1/GPa) = 0.04368533
#
# Stress axis : x y z
#
# Youngs Moduli (GPa) = 46.17122 49.10657 61.77796
#
# Poissons Ratio (x) = 0.33493 0.23879
# Poissons Ratio (y) = 0.31491 -0.21151
# Poissons Ratio (z) = 0.17847 -0.16813
#
# Static dielectric constant tensor:
#      x y z
#    x 1.962420 0.000000 -0.004000 
#    y 0.000000 1.900970 0.000000 
#    z -0.004000 0.000000 1.960010 
# 
# From -- ./inp_files/76555.got.cif
#   From: 2010.05.17/outbox.cif.g08.bks.cpg/sg14_39_cif.got.tgz:76555.got - 2010.06.03 17:49:19.
