data_PCOD9243581
_publ_section_title
;
Structure prediction by ZEFSAII (Michael W. Deem and Ramdas Pophale) SiO2 
 PCOD9243581
Probable space group: P 21/C
;
_chemical_formula_sum "Si O2"
_cell_formula_units_Z 28
_cell_length_a 12.572146
_cell_length_b 10.809800
_cell_length_c 14.882584
_cell_angle_alpha 90.000000
_cell_angle_beta 140.192716
_cell_angle_gamma 90.000000
_cell_volume 1294.869746
_symmetry_space_group_name_H-M "P 21/C"
_symmetry_group_IT_number 14
_symmetry_cell_setting 'monoclinic'
loop_
_space_group_symop_operation_xyz
x,y,z
-x,1/2+y,1/2-z
-x,-y,-z
x,1/2-y,1/2+z
loop_
_atom_site_type_symbol
_atom_site_label
_atom_site_fract_x
_atom_site_fract_y
_atom_site_fract_z
Si Si1 0.833475 0.153710 0.899270
Si Si2 0.185269 0.443894 0.010748
Si Si3 0.952984 0.631060 0.896127
Si Si4 0.983282 0.479617 0.334695
Si Si5 0.290380 0.330077 0.848812
Si Si6 0.550328 0.963188 0.719073
Si Si7 0.713361 0.683208 0.489088
O O1 0.892751 0.124069 0.836879
O O2 0.650842 0.093774 0.788781
O O3 0.889891 0.291191 0.961526
O O4 0.936340 0.070023 0.037330
O O5 0.358294 0.506350 0.098962
O O6 0.154249 0.436831 0.097820
O O7 0.033126 0.530115 0.882952
O O8 0.190027 0.300809 0.988454
O O9 0.831394 0.730232 0.774403
O O10 0.143764 0.416326 0.393742
O O11 0.834683 0.562158 0.195997
O O12 0.398589 0.393267 0.840389
O O13 0.375307 0.249560 0.983180
O O14 0.605554 0.879529 0.840318
#
# Coordination Sequence:
#
# PCOD9243581 Si02
#       7
#     4   4   4   4   4   4   4
#     4   8  14  32  60  80 109 155 200 243 298 360
#     4  11  23  36  63  88 127 160 204 254 312 357
#     4  10  20  38  60  93 118 161 207 255 302 365
#     4   8  15  32  55  87 112 152 199 245 294 352
#     4  10  21  38  66  88 125 157 208 252 301 376
#     4  10  22  40  62  90 125 165 201 250 313 360
#     4  11  21  38  62  90 124 160 203 250 307 365
#
# _framework density 21.623797
#
# number of rings (size 3 to 8) (size 9 to 14) (size 15 to 20)
#    0.000    2.286    2.857    1.714    4.000    0.571 
#    0.000    0.714    6.286    0.000    0.000    0.000 
#    0.000    0.000    0.000    0.000    0.000    0.000 
#
# Total GULP energy -155970.801744 kJ/mol
# GULP energy per Si atom -5570.385777 kJ/mol
# Density = 2.157458 g / cm^3
# Si number density = 21.623797 Si / 1000 Ang^3
#
#
#
# Elastic Constant Matrix: (Units=GPa)
#
#
# Indices 1 2 3 4 5 6 
#
# 1 100.1714 39.2093 38.3455 0.0000 6.1576 0.0000
# 2 39.2093 111.1249 31.2360 0.0000 0.4143 0.0000
# 3 38.3455 31.2360 63.4127 0.0000 -3.8236 0.0000
# 4 0.0000 0.0000 0.0000 28.0965 0.0000 -4.4113
# 5 6.1576 0.4143 -3.8236 0.0000 20.4620 0.0000
# 6 0.0000 0.0000 0.0000 -4.4113 0.0000 36.1844
#
#
#
# Elastic Compliance Matrix: (Units=1/GPa)
#
#
# Indices 1 2 3 4 5 6 
#
# 1 0.014386 -0.002917 -0.007605 0.000000 -0.005691 0.000000
# 2 -0.002917 0.011065 -0.003689 0.000000 -0.000036 0.000000
# 3 -0.007605 -0.003689 0.022583 0.000000 0.006583 0.000000
# 4 0.000000 0.000000 0.000000 0.036286 0.000000 0.004424
# 5 -0.005691 -0.000036 0.006583 0.000000 0.051815 0.000000
# 6 0.000000 0.000000 0.000000 0.004424 0.000000 0.028175
#
#
# Mechanical properties :
#
#
# Convention : Reuss Voigt Hill
#
# Bulk Modulus (GPa) = 50.99075 54.69894 52.84485
# Shear Modulus (GPa) = 25.09169 28.00980 26.55075
#
# Velocity S-wave (km/s) = 3.41012 3.60296 3.50787
# Velocity P-wave (km/s) = 6.25598 6.53139 6.39517
#
# Compressibility (1/GPa) = 0.01961140
#
# Stress axis : x y z
#
# Youngs Moduli (GPa) = 69.51292 90.37439 44.28176
#
# Poissons Ratio (x) = 0.26361 0.33678
# Poissons Ratio (y) = 0.20276 0.16335
# Poissons Ratio (z) = 0.52868 0.33337
#
# Static dielectric constant tensor:
#      x y z
#    x 1.822090 0.000000 -0.078160 
#    y 0.000000 1.805770 0.000000 
#    z -0.078160 0.000000 1.872120 
# 
# From -- ./inp_files/44444.got.cif
#   From: 2010.05.17/outbox.cif.g08.bks.cpg/sg14_23_cif.got.tgz:44444.got - 2010.06.03 17:49:19.
