data_PCOD9243996
_publ_section_title
;
Structure prediction by ZEFSAII (Michael W. Deem and Ramdas Pophale) SiO2 
 PCOD9243996
Probable space group: P 21/C
;
_chemical_formula_sum "Si O2"
_cell_formula_units_Z 28
_cell_length_a 11.150946
_cell_length_b 7.358059
_cell_length_c 14.721331
_cell_angle_alpha 90.000000
_cell_angle_beta 118.947886
_cell_angle_gamma 90.000000
_cell_volume 1056.963626
_symmetry_space_group_name_H-M "P 21/C"
_symmetry_group_IT_number 14
_symmetry_cell_setting 'monoclinic'
loop_
_space_group_symop_operation_xyz
x,y,z
-x,1/2+y,1/2-z
-x,-y,-z
x,1/2-y,1/2+z
loop_
_atom_site_type_symbol
_atom_site_label
_atom_site_fract_x
_atom_site_fract_y
_atom_site_fract_z
Si Si1 0.060182 0.300758 0.600883
Si Si2 0.221283 0.719128 0.406708
Si Si3 0.338142 0.580570 0.201904
Si Si4 0.568943 0.403881 0.378733
Si Si5 0.106941 0.804671 0.190117
Si Si6 0.725078 0.777571 0.456381
Si Si7 0.178443 0.194933 0.827963
O O1 0.076076 0.518128 0.619284
O O2 0.120655 0.232362 0.528276
O O3 0.166788 0.230650 0.717463
O O4 0.905532 0.242358 0.570550
O O5 0.366215 0.699045 0.510714
O O6 0.208226 0.846041 0.313571
O O7 0.187490 0.516885 0.357172
O O8 0.416708 0.485503 0.315036
O O9 0.412968 0.764819 0.197388
O O10 0.185785 0.650012 0.165211
O O11 0.342428 0.443910 0.119394
O O12 0.661698 0.584047 0.404535
O O13 0.970821 0.741554 0.191118
O O14 0.719392 0.788142 0.563049
#
# Coordination Sequence:
#
# PCOD9243996 Si02
#       7
#     4   4   4   4   4   4   4
#     4  10  20  39  63  97 136 158 204 264 315 383
#     4   9  21  39  62  90 131 164 202 259 321 372
#     4  12  24  41  64  88 123 168 219 260 310 369
#     4  11  24  42  62  89 124 167 219 261 305 369
#     4  10  21  37  63  94 125 167 206 256 320 378
#     4  11  23  40  67  93 125 169 209 260 322 374
#     4   9  21  38  61  95 132 163 203 260 320 378
#
# _framework density 26.490976
#
# number of rings (size 3 to 8) (size 9 to 14) (size 15 to 20)
#    0.000    1.714    2.857    0.857    4.000    4.000 
#    0.000    0.000    0.000    4.286    0.000    0.000 
#    0.000    0.000    0.000    0.000    0.000    0.000 
#
# Total GULP energy -156704.314417 kJ/mol
# GULP energy per Si atom -5596.582658 kJ/mol
# Density = 2.643068 g / cm^3
# Si number density = 26.490976 Si / 1000 Ang^3
#
#
#
# Elastic Constant Matrix: (Units=GPa)
#
#
# Indices 1 2 3 4 5 6 
#
# 1 48.2666 10.9812 8.4208 0.0000 8.8510 0.0000
# 2 10.9812 87.3344 33.5157 0.0000 1.8786 0.0000
# 3 8.4208 33.5157 147.6556 0.0000 2.6995 0.0000
# 4 0.0000 0.0000 0.0000 30.9881 0.0000 -5.5161
# 5 8.8510 1.8786 2.6995 0.0000 34.2650 0.0000
# 6 0.0000 0.0000 0.0000 -5.5161 0.0000 28.8897
#
#
#
# Elastic Compliance Matrix: (Units=1/GPa)
#
#
# Indices 1 2 3 4 5 6 
#
# 1 0.022414 -0.002461 -0.000617 0.000000 -0.005606 0.000000
# 2 -0.002461 0.012820 -0.002772 0.000000 0.000151 0.000000
# 3 -0.000617 -0.002772 0.007442 0.000000 -0.000275 0.000000
# 4 0.000000 0.000000 0.000000 0.033406 0.000000 0.006378
# 5 -0.005606 0.000151 -0.000275 0.000000 0.030646 0.000000
# 6 0.000000 0.000000 0.000000 0.006378 0.000000 0.035832
#
#
# Mechanical properties :
#
#
# Convention : Reuss Voigt Hill
#
# Bulk Modulus (GPa) = 32.28375 43.23245 37.75810
# Shear Modulus (GPa) = 30.37920 34.18448 32.28184
#
# Velocity S-wave (km/s) = 3.39008 3.59614 3.49463
# Velocity P-wave (km/s) = 5.24754 5.79638 5.52878
#
# Compressibility (1/GPa) = 0.03097534
#
# Stress axis : x y z
#
# Youngs Moduli (GPa) = 44.61523 78.00077 134.37147
#
# Poissons Ratio (x) = 0.19195 0.08293
# Poissons Ratio (y) = 0.10979 0.37254
# Poissons Ratio (z) = 0.02754 0.21625
#
# Static dielectric constant tensor:
#      x y z
#    x 2.075860 0.000000 0.020840 
#    y 0.000000 2.068170 0.000000 
#    z 0.020840 0.000000 2.159250 
# 
# From -- ./inp_files/43830.got.cif
#   From: 2010.05.17/outbox.cif.g08.bks.cpg/sg14_22_cif.got.tgz:43830.got - 2010.06.03 17:49:19.
