data_PCOD9243237
_publ_section_title
;
Structure prediction by ZEFSAII (Michael W. Deem and Ramdas Pophale) SiO2 
 PCOD9243237
Probable space group: P 21/C
;
_chemical_formula_sum "Si O2"
_cell_formula_units_Z 32
_cell_length_a 14.067841
_cell_length_b 9.071580
_cell_length_c 21.495737
_cell_angle_alpha 90.000000
_cell_angle_beta 140.792057
_cell_angle_gamma 90.000000
_cell_volume 1734.098451
_symmetry_space_group_name_H-M "P 21/C"
_symmetry_group_IT_number 14
_symmetry_cell_setting 'monoclinic'
loop_
_space_group_symop_operation_xyz
x,y,z
-x,1/2+y,1/2-z
-x,-y,-z
x,1/2-y,1/2+z
loop_
_atom_site_type_symbol
_atom_site_label
_atom_site_fract_x
_atom_site_fract_y
_atom_site_fract_z
Si Si1 0.028261 0.322453 0.089396
Si Si2 0.447510 0.720845 0.339770
Si Si3 0.468298 0.932921 0.053170
Si Si4 0.780671 0.314872 0.061907
Si Si5 0.350000 0.940561 0.389981
Si Si6 0.666716 0.814776 0.721044
Si Si7 0.179670 0.890408 0.624118
Si Si8 0.402097 0.993628 0.634423
O O1 0.182202 0.233824 0.168960
O O2 0.074096 0.495084 0.106994
O O3 0.936193 0.290434 0.105491
O O4 0.921501 0.297243 0.975369
O O5 0.530380 0.568985 0.397789
O O6 0.404626 0.794504 0.383253
O O7 0.290315 0.697183 0.224763
O O8 0.545080 0.841701 0.352881
O O9 0.594861 0.820701 0.145031
O O10 0.317285 0.833936 0.979148
O O11 0.500000 0.000000 0.000000
O O12 0.778146 0.398338 0.126206
O O13 0.690179 0.424919 0.969979
O O14 0.500000 0.000000 0.500000
O O15 0.304222 0.057462 0.314774
O O16 0.546557 0.885044 0.708251
O O17 0.295829 0.981999 0.639741
#
# Coordination Sequence:
#
# PCOD9243237 Si02
#       8
#     4   4   4   4   4   4   4   4
#     4  10  22  41  57  82 124 162 193 238 310 360
#     4  11  20  34  65  94 110 147 211 248 294 341
#     4  11  19  33  62  90 116 142 200 253 276 348
#     4  10  20  38  61  83 123 163 185 238 316 354
#     4  11  18  38  61  86 120 153 191 251 298 351
#     4  10  20  37  59  83 115 158 195 237 302 354
#     4  10  22  38  61  84 119 158 202 251 292 356
#     4   9  21  36  63  87 112 156 199 249 294 348
#
# _framework density 18.453392999999998
#
# number of rings (size 3 to 8) (size 9 to 14) (size 15 to 20)
#    0.000    1.750    6.250    0.000    1.750    1.000 
#    4.500    2.500   16.500    0.000    0.000    0.000 
#    0.000    0.000    0.000    0.000    0.000    0.000 
#
# Total GULP energy -178407.724702 kJ/mol
# GULP energy per Si atom -5575.241397 kJ/mol
# Density = 1.841139 g / cm^3
# Si number density = 18.453393 Si / 1000 Ang^3
#
#
#
# Elastic Constant Matrix: (Units=GPa)
#
#
# Indices 1 2 3 4 5 6 
#
# 1 91.5250 23.4642 21.7935 0.0000 6.6458 0.0000
# 2 23.4642 92.0214 26.0542 0.0000 1.0901 0.0000
# 3 21.7935 26.0542 62.1362 0.0000 7.3426 0.0000
# 4 0.0000 0.0000 0.0000 23.5255 0.0000 -0.9429
# 5 6.6458 1.0901 7.3426 0.0000 19.7561 0.0000
# 6 0.0000 0.0000 0.0000 -0.9429 0.0000 24.7756
#
#
#
# Elastic Compliance Matrix: (Units=1/GPa)
#
#
# Indices 1 2 3 4 5 6 
#
# 1 0.012451 -0.002271 -0.003069 0.000000 -0.002922 0.000000
# 2 -0.002271 0.012777 -0.004778 0.000000 0.001835 0.000000
# 3 -0.003069 -0.004778 0.019894 0.000000 -0.006098 0.000000
# 4 0.000000 0.000000 0.000000 0.042572 0.000000 0.001620
# 5 -0.002922 0.001835 -0.006098 0.000000 0.053765 0.000000
# 6 0.000000 0.000000 0.000000 0.001620 0.000000 0.040424
#
#
# Mechanical properties :
#
#
# Convention : Reuss Voigt Hill
#
# Bulk Modulus (GPa) = 40.18363 43.14517 41.66440
# Shear Modulus (GPa) = 23.76242 25.23616 24.49929
#
# Velocity S-wave (km/s) = 3.59235 3.70207 3.64762
# Velocity P-wave (km/s) = 6.24737 6.45795 6.35353
#
# Compressibility (1/GPa) = 0.02488575
#
# Stress axis : x y z
#
# Youngs Moduli (GPa) = 80.31262 78.26457 50.26591
#
# Poissons Ratio (x) = 0.17776 0.15429
# Poissons Ratio (y) = 0.18241 0.24016
# Poissons Ratio (z) = 0.24652 0.37393
#
# Static dielectric constant tensor:
#      x y z
#    x 1.656550 0.000000 -0.015980 
#    y 0.000000 1.638920 0.000000 
#    z -0.015980 0.000000 1.651240 
# 
# From -- ./inp_files/68216.got.cif
#   From: 2010.05.17/outbox.cif.g08.bks.cpg/sg14_35_cif.got.tgz:68216.got - 2010.06.03 17:49:19.
