data_PCOD9243018
_publ_section_title
;
Structure prediction by ZEFSAII (Michael W. Deem and Ramdas Pophale) SiO2 
 PCOD9243018
Probable space group: P 21/C
;
_chemical_formula_sum "Si O2"
_cell_formula_units_Z 26
_cell_length_a 21.770520
_cell_length_b 9.324319
_cell_length_c 9.903195
_cell_angle_alpha 90.000000
_cell_angle_beta 152.544178
_cell_angle_gamma 90.000000
_cell_volume 926.878873
_symmetry_space_group_name_H-M "P 21/C"
_symmetry_group_IT_number 14
_symmetry_cell_setting 'monoclinic'
loop_
_space_group_symop_operation_xyz
x,y,z
-x,1/2+y,1/2-z
-x,-y,-z
x,1/2-y,1/2+z
loop_
_atom_site_type_symbol
_atom_site_label
_atom_site_fract_x
_atom_site_fract_y
_atom_site_fract_z
Si Si1 0.453163 0.002686 0.195154
Si Si2 0.500000 0.500000 0.500000
Si Si3 0.750204 0.722358 0.915414
Si Si4 0.083202 0.848773 0.819914
Si Si5 0.804901 0.994336 0.196964
Si Si6 0.473571 0.764900 0.461949
Si Si7 0.887475 0.888837 0.940037
O O1 0.460293 0.883993 0.324700
O O2 0.506587 0.151360 0.361403
O O3 0.292606 0.002680 0.865765
O O4 0.538706 0.960199 0.236375
O O5 0.379725 0.630447 0.277177
O O6 0.800212 0.784108 0.870289
O O7 0.847977 0.634879 0.205807
O O8 0.735830 0.873122 0.968806
O O9 0.598488 0.662455 0.639637
O O10 0.033647 0.686792 0.746800
O O11 0.175787 0.874140 0.869119
O O12 0.947398 0.932506 0.512904
O O13 0.126911 0.949993 0.030373
#
# Coordination Sequence:
#
# PCOD9243018 Si02
#       7
#     4   2   4   4   4   4   4
#     4  10  22  42  65  87 125 171 208 253 315 370
#     4  12  24  36  64  96 120 158 212 268 298 372
#     4   9  20  35  62  85 113 159 204 241 299 371
#     4   9  18  35  59  85 118 151 198 246 302 363
#     4   8  17  38  59  80 116 167 194 232 310 378
#     4  10  23  42  61  89 129 164 206 258 312 373
#     4  10  20  36  60  88 114 153 199 248 301 365
#
# _framework density 28.051130000000001
#
# number of rings (size 3 to 8) (size 9 to 14) (size 15 to 20)
#    0.000    2.462    0.000    1.846    8.615    0.615 
#    2.769    1.538    0.000    0.000    0.000    0.000 
#    0.000    0.000    0.000    0.000    0.000    0.000 
#
# Total GULP energy -144884.083053 kJ/mol
# GULP energy per Si atom -5572.464733 kJ/mol
# Density = 2.798728 g / cm^3
# Si number density = 28.051130 Si / 1000 Ang^3
#
#
#
# Elastic Constant Matrix: (Units=GPa)
#
#
# Indices 1 2 3 4 5 6 
#
# 1 145.1051 11.4142 -10.7544 0.0000 -12.4587 0.0000
# 2 11.4142 134.4787 5.8870 0.0000 -4.4214 0.0000
# 3 -10.7544 5.8870 49.7009 0.0000 0.0481 0.0000
# 4 0.0000 0.0000 0.0000 42.4185 0.0000 -2.2131
# 5 -12.4587 -4.4214 0.0481 0.0000 32.3527 0.0000
# 6 0.0000 0.0000 0.0000 -2.2131 0.0000 23.0370
#
#
#
# Elastic Compliance Matrix: (Units=1/GPa)
#
#
# Indices 1 2 3 4 5 6 
#
# 1 0.007295 -0.000602 0.001647 0.000000 0.002725 0.000000
# 2 -0.000602 0.007559 -0.001026 0.000000 0.000803 0.000000
# 3 0.001647 -0.001026 0.020598 0.000000 0.000463 0.000000
# 4 0.000000 0.000000 0.000000 0.023693 0.000000 0.002276
# 5 0.002725 0.000803 0.000463 0.000000 0.032067 0.000000
# 6 0.000000 0.000000 0.000000 0.002276 0.000000 0.043627
#
#
# Mechanical properties :
#
#
# Convention : Reuss Voigt Hill
#
# Bulk Modulus (GPa) = 28.17729 38.04204 33.10967
# Shear Modulus (GPa) = 34.09924 41.07749 37.58836
#
# Velocity S-wave (km/s) = 3.49034 3.83087 3.66456
# Velocity P-wave (km/s) = 5.12934 5.75835 5.45292
#
# Compressibility (1/GPa) = 0.03548957
#
# Stress axis : x y z
#
# Youngs Moduli (GPa) = 137.08227 132.30111 48.54868
#
# Poissons Ratio (x) = 0.07961 -0.07997
# Poissons Ratio (y) = 0.08248 0.04982
# Poissons Ratio (z) = -0.22579 0.13578
#
# Static dielectric constant tensor:
#      x y z
#    x 2.267610 0.000000 0.096530 
#    y 0.000000 2.470060 0.000000 
#    z 0.096530 0.000000 2.366890 
# 
# From -- ./inp_files/18905.got.cif
#   From: 2010.05.17/outbox.cif.g08.bks.cpg/sg14_10_cif.got.tgz:18905.got - 2010.06.03 17:49:19.
