data_PCOD9243166
_publ_section_title
;
Structure prediction by ZEFSAII (Michael W. Deem and Ramdas Pophale) SiO2 
 PCOD9243166
Probable space group: P 21/C
;
_chemical_formula_sum "Si O2"
_cell_formula_units_Z 28
_cell_length_a 7.257168
_cell_length_b 16.334771
_cell_length_c 15.266977
_cell_angle_alpha 90.000000
_cell_angle_beta 125.327038
_cell_angle_gamma 90.000000
_cell_volume 1476.561290
_symmetry_space_group_name_H-M "P 21/C"
_symmetry_group_IT_number 14
_symmetry_cell_setting 'monoclinic'
loop_
_space_group_symop_operation_xyz
x,y,z
-x,1/2+y,1/2-z
-x,-y,-z
x,1/2-y,1/2+z
loop_
_atom_site_type_symbol
_atom_site_label
_atom_site_fract_x
_atom_site_fract_y
_atom_site_fract_z
Si Si1 0.751239 0.528772 0.455416
Si Si2 0.279550 0.227477 0.311070
Si Si3 0.457245 0.630409 0.251579
Si Si4 0.562314 0.892670 0.072472
Si Si5 0.519456 0.369708 0.029736
Si Si6 0.766455 0.205394 0.146894
Si Si7 0.736953 0.486869 0.947627
O O1 0.667715 0.598510 0.366529
O O2 0.565450 0.456412 0.400665
O O3 0.722906 0.561368 0.547023
O O4 0.000000 0.500000 0.500000
O O5 0.463588 0.202571 0.290001
O O6 0.303317 0.321986 0.342107
O O7 0.342053 0.173124 0.413827
O O8 0.032573 0.208810 0.207134
O O9 0.278629 0.663349 0.272115
O O10 0.369755 0.557721 0.165957
O O11 0.365921 0.848396 0.961413
O O12 0.656572 0.295688 0.111701
O O13 0.388688 0.428963 0.060643
O O14 0.684483 0.425925 0.015180
O O15 0.000000 0.500000 0.000000
#
# Coordination Sequence:
#
# PCOD9243166 Si02
#       7
#     4   4   4   4   4   4   4
#     4  10  20  37  56  78 108 140 173 220 264 307
#     4  10  20  37  55  77 109 141 173 220 264 307
#     4  10  22  34  54  82 104 138 186 214 254 322
#     4   9  21  36  54  80 107 138 179 213 262 322
#     4   9  21  36  54  80 107 138 179 213 262 322
#     4  10  20  37  55  77 109 141 173 220 264 307
#     4  10  20  37  56  78 108 140 173 220 264 307
#
# _framework density 18.962979000000001
#
# number of rings (size 3 to 8) (size 9 to 14) (size 15 to 20)
#    0.000    2.286    0.000    1.714    0.000    5.714 
#    0.000   11.429    0.000    0.000    0.000    0.000 
#    0.000    0.000    0.000    0.000    0.000    0.000 
#
# Total GULP energy -156272.162690 kJ/mol
# GULP energy per Si atom -5581.148668 kJ/mol
# Density = 1.891982 g / cm^3
# Si number density = 18.962979 Si / 1000 Ang^3
#
#
#
# Elastic Constant Matrix: (Units=GPa)
#
#
# Indices 1 2 3 4 5 6 
#
# 1 73.9698 12.5229 12.3427 0.0000 7.9341 0.0000
# 2 12.5229 70.9758 -10.9540 0.0000 -7.3959 0.0000
# 3 12.3427 -10.9540 18.9322 0.0000 -4.2941 0.0000
# 4 0.0000 0.0000 0.0000 16.8313 0.0000 -0.5065
# 5 7.9341 -7.3959 -4.2941 0.0000 24.3144 0.0000
# 6 0.0000 0.0000 0.0000 -0.5065 0.0000 15.3090
#
#
#
# Elastic Compliance Matrix: (Units=1/GPa)
#
#
# Indices 1 2 3 4 5 6 
#
# 1 0.019496 -0.007807 -0.020010 0.000000 -0.012270 0.000000
# 2 -0.007807 0.019667 0.019171 0.000000 0.011915 0.000000
# 3 -0.020010 0.019171 0.083089 0.000000 0.027035 0.000000
# 4 0.000000 0.000000 0.000000 0.059472 0.000000 0.001968
# 5 -0.012270 0.011915 0.027035 0.000000 0.053531 0.000000
# 6 0.000000 0.000000 0.000000 0.001968 0.000000 0.065386
#
#
# Mechanical properties :
#
#
# Convention : Reuss Voigt Hill
#
# Bulk Modulus (GPa) = 9.52731 21.30012 15.41372
# Shear Modulus (GPa) = 14.16755 21.28867 17.72811
#
# Velocity S-wave (km/s) = 2.73631 3.35422 3.06090
# Velocity P-wave (km/s) = 3.87534 5.12425 4.54292
#
# Compressibility (1/GPa) = 0.10496147
#
# Stress axis : x y z
#
# Youngs Moduli (GPa) = 51.29358 50.84646 12.03525
#
# Poissons Ratio (x) = 0.39694 0.24082
# Poissons Ratio (y) = 0.40043 -0.23073
# Poissons Ratio (z) = 1.02637 -0.97478
#
# Static dielectric constant tensor:
#      x y z
#    x 1.619560 0.000000 -0.012570 
#    y 0.000000 1.664070 0.000000 
#    z -0.012570 0.000000 1.647630 
# 
# From -- ./inp_files/37634.got.cif
#   From: 2010.05.17/outbox.cif.g08.bks.cpg/sg14_19_cif.got.tgz:37634.got - 2010.06.03 17:49:19.
