data_PCOD9243449
_publ_section_title
;
Structure prediction by ZEFSAII (Michael W. Deem and Ramdas Pophale) SiO2 
 PCOD9243449
Probable space group: P 21/C
;
_chemical_formula_sum "Si O2"
_cell_formula_units_Z 28
_cell_length_a 18.947164
_cell_length_b 18.104164
_cell_length_c 9.552864
_cell_angle_alpha 90.000000
_cell_angle_beta 152.824951
_cell_angle_gamma 90.000000
_cell_volume 1496.571053
_symmetry_space_group_name_H-M "P 21/C"
_symmetry_group_IT_number 14
_symmetry_cell_setting 'monoclinic'
loop_
_space_group_symop_operation_xyz
x,y,z
-x,1/2+y,1/2-z
-x,-y,-z
x,1/2-y,1/2+z
loop_
_atom_site_type_symbol
_atom_site_label
_atom_site_fract_x
_atom_site_fract_y
_atom_site_fract_z
Si Si1 0.702609 0.610776 0.800139
Si Si2 0.987821 0.097504 0.319199
Si Si3 0.860171 0.939313 0.139860
Si Si4 0.483061 0.753387 0.834413
Si Si5 0.341616 0.661510 0.840690
Si Si6 0.348900 0.387407 0.969926
Si Si7 0.565591 0.974908 0.809632
O O1 0.600488 0.683598 0.592929
O O2 0.622146 0.547036 0.564818
O O3 0.705199 0.595263 0.968890
O O4 0.872159 0.619909 0.033919
O O5 0.041385 0.107872 0.575096
O O6 0.956896 0.009226 0.256337
O O7 0.830796 0.137589 0.001006
O O8 0.787767 0.895172 0.883828
O O9 0.715784 0.971426 0.975700
O O10 0.410313 0.710336 0.836342
O O11 0.358858 0.792190 0.514161
O O12 0.577346 0.693193 0.911380
O O13 0.447862 0.588728 0.050302
O O14 0.478860 0.447597 0.157915
#
# Coordination Sequence:
#
# PCOD9243449 Si02
#       7
#     4   4   4   4   4   4   4
#     4  10  24  40  59  91 133 161 196 257 318 366
#     4  10  22  41  60  90 130 156 198 258 314 364
#     4  10  20  37  65  95 118 161 204 255 311 360
#     4  11  23  40  64  88 118 168 211 250 302 375
#     4  11  21  43  62  90 124 158 212 258 306 365
#     4  12  20  38  68  92 115 166 215 250 301 365
#     4  10  20  38  68  93 119 159 210 265 292 361
#
# _framework density 18.709437000000001
#
# number of rings (size 3 to 8) (size 9 to 14) (size 15 to 20)
#    0.000    1.429    4.286    1.714    0.000    0.571 
#    5.143    0.000    0.000    0.000    0.000    0.000 
#    0.000    0.000    0.000    0.000    0.000    0.000 
#
# Total GULP energy -156438.565760 kJ/mol
# GULP energy per Si atom -5587.091634 kJ/mol
# Density = 1.866685 g / cm^3
# Si number density = 18.709437 Si / 1000 Ang^3
#
#
#
# Elastic Constant Matrix: (Units=GPa)
#
#
# Indices 1 2 3 4 5 6 
#
# 1 80.4720 4.8935 49.6134 0.0000 -17.1249 0.0000
# 2 4.8935 40.5688 27.2139 0.0000 -9.1906 0.0000
# 3 49.6134 27.2139 148.8944 0.0000 -9.3222 0.0000
# 4 0.0000 0.0000 0.0000 29.4063 0.0000 1.4040
# 5 -17.1249 -9.1906 -9.3222 0.0000 30.0771 0.0000
# 6 0.0000 0.0000 0.0000 1.4040 0.0000 21.4592
#
#
#
# Elastic Compliance Matrix: (Units=1/GPa)
#
#
# Indices 1 2 3 4 5 6 
#
# 1 0.018017 0.004135 -0.006157 0.000000 0.009614 0.000000
# 2 0.004135 0.030628 -0.006366 0.000000 0.009740 0.000000
# 3 -0.006157 -0.006366 0.009780 0.000000 -0.002420 0.000000
# 4 0.000000 0.000000 0.000000 0.034113 0.000000 -0.002232
# 5 0.009614 0.009740 -0.002420 0.000000 0.040948 0.000000
# 6 0.000000 0.000000 0.000000 -0.002232 0.000000 0.046746
#
#
# Mechanical properties :
#
#
# Convention : Reuss Voigt Hill
#
# Bulk Modulus (GPa) = 24.01068 48.15299 36.08183
# Shear Modulus (GPa) = 23.70895 28.73615 26.22255
#
# Velocity S-wave (km/s) = 3.56366 3.92333 3.74781
# Velocity P-wave (km/s) = 5.45841 6.80562 6.16890
#
# Compressibility (1/GPa) = 0.04164813
#
# Stress axis : x y z
#
# Youngs Moduli (GPa) = 55.50217 32.65032 102.25029
#
# Poissons Ratio (x) = -0.13501 0.62960
# Poissons Ratio (y) = -0.22950 0.65092
# Poissons Ratio (z) = 0.34175 0.20785
#
# Static dielectric constant tensor:
#      x y z
#    x 1.637260 0.000000 -0.023080 
#    y 0.000000 1.628110 0.000000 
#    z -0.023080 0.000000 1.652580 
# 
# From -- ./inp_files/9363.got.cif
#   From: 2010.05.17/outbox.cif.g08.bks.cpg/sg14_5_cif.got.tgz:9363.got - 2010.06.03 17:49:19.
