data_PCOD9243926
_publ_section_title
;
Structure prediction by ZEFSAII (Michael W. Deem and Ramdas Pophale) SiO2 
 PCOD9243926
Probable space group: P 21/C
;
_chemical_formula_sum "Si O2"
_cell_formula_units_Z 32
_cell_length_a 17.146710
_cell_length_b 12.107235
_cell_length_c 14.144190
_cell_angle_alpha 90.000000
_cell_angle_beta 32.827339
_cell_angle_gamma 90.000000
_cell_volume 1591.807908
_symmetry_space_group_name_H-M "P 21/C"
_symmetry_group_IT_number 14
_symmetry_cell_setting 'monoclinic'
loop_
_space_group_symop_operation_xyz
x,y,z
-x,1/2+y,1/2-z
-x,-y,-z
x,1/2-y,1/2+z
loop_
_atom_site_type_symbol
_atom_site_label
_atom_site_fract_x
_atom_site_fract_y
_atom_site_fract_z
Si Si1 0.079409 0.972964 0.820899
Si Si2 0.242905 0.300051 0.683208
Si Si3 0.991155 0.773049 0.428105
Si Si4 0.495946 0.790056 0.938643
Si Si5 0.757491 0.060056 0.847305
Si Si6 0.740965 0.759871 0.050074
Si Si7 0.646482 0.435333 0.867416
Si Si8 0.800483 0.478910 0.516891
O O1 0.245867 0.997929 0.670085
O O2 0.068549 0.840534 0.820779
O O3 0.000000 0.000000 0.000000
O O4 0.974105 0.025357 0.850753
O O5 0.388757 0.284003 0.593956
O O6 0.220554 0.431908 0.697544
O O7 0.253287 0.252628 0.567859
O O8 0.107804 0.253138 0.878973
O O9 0.874381 0.799246 0.465826
O O10 0.108086 0.867306 0.324004
O O11 0.593841 0.783540 0.745233
O O12 0.390644 0.894376 0.044875
O O13 0.395310 0.683168 0.049462
O O14 0.752447 0.071229 0.966587
O O15 0.757426 0.890628 0.060360
O O16 0.727542 0.426632 0.683838
O O17 0.500000 0.500000 0.000000
#
# Coordination Sequence:
#
# PCOD9243926 Si02
#       8
#     4   4   4   4   4   4   4   4
#     4   9  19  36  59  87 118 147 194 253 300 341
#     4  10  23  40  62  82 124 166 196 240 305 357
#     4  10  20  39  62  86 114 159 204 243 293 356
#     4  11  22  38  61  89 122 157 198 241 299 362
#     4  11  22  40  59  88 127 156 203 246 289 362
#     4   9  20  39  57  85 117 153 195 248 293 354
#     4  11  20  36  60  90 120 152 199 250 305 352
#     4   9  20  37  58  84 120 154 190 250 302 343
#
# _framework density 20.102927000000001
#
# number of rings (size 3 to 8) (size 9 to 14) (size 15 to 20)
#    0.000    2.000    2.500    0.750    3.500    2.000 
#    0.000    0.000    2.750    0.000    0.000    0.000 
#    0.000    0.000    0.000    0.000    0.000    0.000 
#
# Total GULP energy -178674.572057 kJ/mol
# GULP energy per Si atom -5583.580377 kJ/mol
# Density = 2.005717 g / cm^3
# Si number density = 20.102927 Si / 1000 Ang^3
#
#
#
# Elastic Constant Matrix: (Units=GPa)
#
#
# Indices 1 2 3 4 5 6 
#
# 1 79.6391 -3.3070 54.6653 0.0000 -4.2722 0.0000
# 2 -3.3070 31.5345 12.5875 0.0000 -5.5976 0.0000
# 3 54.6653 12.5875 98.2731 0.0000 -15.4751 0.0000
# 4 0.0000 0.0000 0.0000 25.6896 0.0000 -3.0133
# 5 -4.2722 -5.5976 -15.4751 0.0000 36.5312 0.0000
# 6 0.0000 0.0000 0.0000 -3.0133 0.0000 26.4904
#
#
#
# Elastic Compliance Matrix: (Units=1/GPa)
#
#
# Indices 1 2 3 4 5 6 
#
# 1 0.022029 0.007345 -0.013513 0.000000 -0.002023 0.000000
# 2 0.007345 0.036303 -0.008276 0.000000 0.002915 0.000000
# 3 -0.013513 -0.008276 0.019612 0.000000 0.005460 0.000000
# 4 0.000000 0.000000 0.000000 0.039453 0.000000 0.004488
# 5 -0.002023 0.002915 0.005460 0.000000 0.029897 0.000000
# 6 0.000000 0.000000 0.000000 0.004488 0.000000 0.038260
#
#
# Mechanical properties :
#
#
# Convention : Reuss Voigt Hill
#
# Bulk Modulus (GPa) = 20.38543 37.48203 28.93373
# Shear Modulus (GPa) = 21.66441 27.44230 24.55336
#
# Velocity S-wave (km/s) = 3.28636 3.69872 3.49862
# Velocity P-wave (km/s) = 4.95608 6.07670 5.54477
#
# Compressibility (1/GPa) = 0.04905465
#
# Stress axis : x y z
#
# Youngs Moduli (GPa) = 45.39563 27.54615 50.98869
#
# Poissons Ratio (x) = -0.20233 0.68900
# Poissons Ratio (y) = -0.33343 0.42201
# Poissons Ratio (z) = 0.61343 0.22799
#
# Static dielectric constant tensor:
#      x y z
#    x 1.723670 0.000000 -0.018260 
#    y 0.000000 1.738220 0.000000 
#    z -0.018260 0.000000 1.692380 
# 
# From -- ./inp_files/40068.got.cif
#   From: 2010.05.17/outbox.cif.g08.bks.cpg/sg14_21_cif.got.tgz:40068.got - 2010.06.03 17:49:19.
