data_PCOD9243547
_publ_section_title
;
Structure prediction by ZEFSAII (Michael W. Deem and Ramdas Pophale) SiO2 
 PCOD9243547
Probable space group: P 21/C
;
_chemical_formula_sum "Si O2"
_cell_formula_units_Z 28
_cell_length_a 15.605874
_cell_length_b 17.183629
_cell_length_c 9.221001
_cell_angle_alpha 90.000000
_cell_angle_beta 152.276053
_cell_angle_gamma 90.000000
_cell_volume 1150.355350
_symmetry_space_group_name_H-M "P 21/C"
_symmetry_group_IT_number 14
_symmetry_cell_setting 'monoclinic'
loop_
_space_group_symop_operation_xyz
x,y,z
-x,1/2+y,1/2-z
-x,-y,-z
x,1/2-y,1/2+z
loop_
_atom_site_type_symbol
_atom_site_label
_atom_site_fract_x
_atom_site_fract_y
_atom_site_fract_z
Si Si1 0.085707 0.841791 0.730538
Si Si2 0.297537 0.100262 0.283947
Si Si3 0.014108 0.302889 0.219007
Si Si4 0.336832 0.962139 0.562968
Si Si5 0.272478 0.434401 0.218685
Si Si6 0.616166 0.351882 0.089263
Si Si7 0.628479 0.708561 0.841916
O O1 0.118666 0.827675 0.610308
O O2 0.047874 0.760459 0.757240
O O3 0.910512 0.899784 0.482818
O O4 0.253357 0.870416 0.079822
O O5 0.434778 0.097947 0.354719
O O6 0.370827 0.171003 0.497423
O O7 0.295350 0.024508 0.376726
O O8 0.099289 0.124704 0.930229
O O9 0.187414 0.260762 0.397588
O O10 0.291167 0.879930 0.421322
O O11 0.237356 0.994145 0.556658
O O12 0.554612 0.960000 0.926104
O O13 0.350446 0.362760 0.237741
O O14 0.538686 0.265225 0.949485
#
# Coordination Sequence:
#
# PCOD9243547 Si02
#       7
#     4   4   4   4   4   4   4
#     4  11  23  37  59  91 123 158 192 254 304 353
#     4  10  20  39  60  85 116 161 206 243 288 361
#     4  10  20  38  60  85 118 157 203 240 297 357
#     4  10  21  39  62  87 114 161 206 247 289 363
#     4   9  20  40  64  84 119 158 207 238 301 360
#     4  11  24  33  60  90 125 148 197 253 305 344
#     4   9  19  36  62  87 111 157 203 244 286 350
#
# _framework density 24.340305000000001
#
# number of rings (size 3 to 8) (size 9 to 14) (size 15 to 20)
#    0.000    2.000    1.429    2.143    6.000    0.571 
#    0.000    2.857    3.143    0.000    0.000    0.000 
#    0.000    0.000    0.000    0.000    0.000    0.000 
#
# Total GULP energy -156589.934475 kJ/mol
# GULP energy per Si atom -5592.497660 kJ/mol
# Density = 2.428491 g / cm^3
# Si number density = 24.340305 Si / 1000 Ang^3
#
#
#
# Elastic Constant Matrix: (Units=GPa)
#
#
# Indices 1 2 3 4 5 6 
#
# 1 43.0378 15.5218 5.4968 0.0000 -12.0971 0.0000
# 2 15.5218 34.3254 2.8106 0.0000 8.0522 0.0000
# 3 5.4968 2.8106 45.5317 0.0000 -13.5434 0.0000
# 4 0.0000 0.0000 0.0000 37.7824 0.0000 -13.5923
# 5 -12.0971 8.0522 -13.5434 0.0000 27.2697 0.0000
# 6 0.0000 0.0000 0.0000 -13.5923 0.0000 27.4299
#
#
#
# Elastic Compliance Matrix: (Units=1/GPa)
#
#
# Indices 1 2 3 4 5 6 
#
# 1 0.038914 -0.024274 0.004772 0.000000 0.026800 0.000000
# 2 -0.024274 0.047660 -0.008683 0.000000 -0.029154 0.000000
# 3 0.004772 -0.008683 0.027356 0.000000 0.018267 0.000000
# 4 0.000000 0.000000 0.000000 0.032209 0.000000 0.015961
# 5 0.026800 -0.029154 0.018267 0.000000 0.066240 0.000000
# 6 0.000000 0.000000 0.000000 0.015961 0.000000 0.044365
#
#
# Mechanical properties :
#
#
# Convention : Reuss Voigt Hill
#
# Bulk Modulus (GPa) = 17.37345 18.95038 18.16191
# Shear Modulus (GPa) = 15.04659 25.10079 20.07369
#
# Velocity S-wave (km/s) = 2.48901 3.21478 2.87489
# Velocity P-wave (km/s) = 3.92600 4.64567 4.30091
#
# Compressibility (1/GPa) = 0.05755910
#
# Stress axis : x y z
#
# Youngs Moduli (GPa) = 25.69801 20.98211 36.55472
#
# Poissons Ratio (x) = 0.50932 -0.17445
# Poissons Ratio (y) = 0.62380 0.31741
# Poissons Ratio (z) = -0.12264 0.18219
#
# Static dielectric constant tensor:
#      x y z
#    x 1.912110 0.000000 0.006920 
#    y 0.000000 1.949820 0.000000 
#    z 0.006920 0.000000 1.924520 
# 
# From -- ./inp_files/18178.got.cif
#   From: 2010.05.17/outbox.cif.g08.bks.cpg/sg14_10_cif.got.tgz:18178.got - 2010.06.03 17:49:19.
