data_PCOD9243371
_publ_section_title
;
Structure prediction by ZEFSAII (Michael W. Deem and Ramdas Pophale) SiO2 
 PCOD9243371
Probable space group: P 21/C
;
_chemical_formula_sum "Si O2"
_cell_formula_units_Z 32
_cell_length_a 10.541527
_cell_length_b 13.346907
_cell_length_c 9.547220
_cell_angle_alpha 90.000000
_cell_angle_beta 58.410793
_cell_angle_gamma 90.000000
_cell_volume 1144.225943
_symmetry_space_group_name_H-M "P 21/C"
_symmetry_group_IT_number 14
_symmetry_cell_setting 'monoclinic'
loop_
_space_group_symop_operation_xyz
x,y,z
-x,1/2+y,1/2-z
-x,-y,-z
x,1/2-y,1/2+z
loop_
_atom_site_type_symbol
_atom_site_label
_atom_site_fract_x
_atom_site_fract_y
_atom_site_fract_z
Si Si1 0.008376 0.785950 0.286894
Si Si2 0.620749 0.170309 0.271466
Si Si3 0.729295 0.378484 0.198543
Si Si4 0.845965 0.804174 0.636282
Si Si5 0.551481 0.980914 0.155381
Si Si6 0.118162 0.430760 0.631280
Si Si7 0.193658 0.979745 0.637072
Si Si8 0.602441 0.843908 0.371534
O O1 0.160593 0.840036 0.240549
O O2 0.892817 0.839415 0.457866
O O3 0.969614 0.763649 0.148829
O O4 0.960057 0.673280 0.371323
O O5 0.685584 0.268558 0.164781
O O6 0.735942 0.105675 0.299273
O O7 0.497746 0.206644 0.453632
O O8 0.547192 0.095335 0.203500
O O9 0.590582 0.440183 0.348617
O O10 0.803287 0.436410 0.023563
O O11 0.834728 0.902328 0.738514
O O12 0.699244 0.737699 0.734465
O O13 0.513882 0.913871 0.315731
O O14 0.726092 0.956162 0.030103
O O15 0.975940 0.502691 0.714419
O O16 0.296780 0.073878 0.609588
#
# Coordination Sequence:
#
# PCOD9243371 Si02
#       8
#     4   4   4   4   4   4   4   4
#     4  10  21  37  64  92 126 170 218 253 326 390
#     4  11  22  36  63  96 119 167 218 260 328 380
#     4  12  21  40  64  86 128 166 203 268 316 384
#     4  10  20  37  62  91 126 169 210 268 311 385
#     4  11  22  38  64  95 124 160 215 275 314 377
#     4  10  21  38  59  96 125 160 214 264 314 373
#     4  11  21  38  62  90 125 163 210 275 316 379
#     4  11  20  38  62  94 126 159 221 268 321 378
#
# _framework density 27.966508000000001
#
# number of rings (size 3 to 8) (size 9 to 14) (size 15 to 20)
#    0.750    0.500    6.250    1.500    0.000    3.000 
#    0.000    0.625    0.000    0.750    0.000    0.000 
#    0.000    0.000    0.000    0.000    0.000    0.000 
#
# Total GULP energy -178976.184674 kJ/mol
# GULP energy per Si atom -5593.005771 kJ/mol
# Density = 2.790285 g / cm^3
# Si number density = 27.966508 Si / 1000 Ang^3
#
#
#
# Elastic Constant Matrix: (Units=GPa)
#
#
# Indices 1 2 3 4 5 6 
#
# 1 115.7872 64.9493 34.9116 0.0000 -15.1247 0.0000
# 2 64.9493 63.9545 19.0957 0.0000 -12.1815 0.0000
# 3 34.9116 19.0957 109.8261 0.0000 -21.5305 0.0000
# 4 0.0000 0.0000 0.0000 40.7773 0.0000 -0.0633
# 5 -15.1247 -12.1815 -21.5305 0.0000 51.3233 0.0000
# 6 0.0000 0.0000 0.0000 -0.0633 0.0000 66.6561
#
#
#
# Elastic Compliance Matrix: (Units=1/GPa)
#
#
# Indices 1 2 3 4 5 6 
#
# 1 0.021046 -0.020431 -0.003130 0.000000 0.000040 0.000000
# 2 -0.020431 0.036749 0.000692 0.000000 0.002991 0.000000
# 3 -0.003130 0.000692 0.010712 0.000000 0.003736 0.000000
# 4 0.000000 0.000000 0.000000 0.024524 0.000000 0.000023
# 5 0.000040 0.002991 0.003736 0.000000 0.021773 0.000000
# 6 0.000000 0.000000 0.000000 0.000023 0.000000 0.015002
#
#
# Mechanical properties :
#
#
# Convention : Reuss Voigt Hill
#
# Bulk Modulus (GPa) = 43.92190 58.60902 51.26546
# Shear Modulus (GPa) = 27.30225 43.12541 35.21383
#
# Velocity S-wave (km/s) = 3.12789 3.93114 3.55229
# Velocity P-wave (km/s) = 5.36509 6.45039 5.93261
#
# Compressibility (1/GPa) = 0.02276768
#
# Stress axis : x y z
#
# Youngs Moduli (GPa) = 47.51446 27.21189 93.35019
#
# Poissons Ratio (x) = 0.55598 0.29218
# Poissons Ratio (y) = 0.97079 -0.06456
# Poissons Ratio (z) = 0.14872 -0.01882
#
# Static dielectric constant tensor:
#      x y z
#    x 2.291530 0.000000 -0.018760 
#    y 0.000000 2.242760 0.000000 
#    z -0.018760 0.000000 2.216010 
# 
# From -- ./inp_files/32769.got.cif
#   From: 2010.05.17/outbox.cif.g08.bks.cpg/sg14_17_cif.got.tgz:32769.got - 2010.06.03 17:49:19.
