data_PCOD9243915
_publ_section_title
;
Structure prediction by ZEFSAII (Michael W. Deem and Ramdas Pophale) SiO2 
 PCOD9243915
Probable space group: P 21/C
;
_chemical_formula_sum "Si O2"
_cell_formula_units_Z 32
_cell_length_a 7.971501
_cell_length_b 24.914963
_cell_length_c 12.789027
_cell_angle_alpha 90.000000
_cell_angle_beta 141.398008
_cell_angle_gamma 90.000000
_cell_volume 1584.738293
_symmetry_space_group_name_H-M "P 21/C"
_symmetry_group_IT_number 14
_symmetry_cell_setting 'monoclinic'
loop_
_space_group_symop_operation_xyz
x,y,z
-x,1/2+y,1/2-z
-x,-y,-z
x,1/2-y,1/2+z
loop_
_atom_site_type_symbol
_atom_site_label
_atom_site_fract_x
_atom_site_fract_y
_atom_site_fract_z
Si Si1 0.528696 0.624628 0.156337
Si Si2 0.024397 0.189390 0.043604
Si Si3 0.009671 0.311187 0.094221
Si Si4 0.476955 0.377928 0.256792
Si Si5 0.200122 0.356019 0.409808
Si Si6 0.428352 0.560662 0.500873
Si Si7 0.677888 0.429616 0.151858
Si Si8 0.880626 0.967125 0.843656
O O1 0.757327 0.669780 0.265523
O O2 0.678543 0.577175 0.292341
O O3 0.461123 0.594621 0.016552
O O4 0.252975 0.652669 0.053687
O O5 0.953353 0.250207 0.036228
O O6 0.164989 0.178876 0.998356
O O7 0.756874 0.153042 0.915150
O O8 0.248186 0.333864 0.139855
O O9 0.120718 0.320861 0.267702
O O10 0.413972 0.420386 0.317823
O O11 0.507977 0.410351 0.167123
O O12 0.475928 0.390641 0.529085
O O13 0.969493 0.401439 0.301403
O O14 0.500000 0.500000 0.500000
O O15 0.120810 0.558511 0.391847
O O16 0.731157 0.491899 0.194125
O O17 0.000000 0.000000 0.000000
#
# Coordination Sequence:
#
# PCOD9243915 Si02
#       8
#     4   4   4   4   4   4   4   4
#     4  11  24  40  62  98 130 161 217 276 320 382
#     4  11  21  42  68  90 123 174 219 263 330 392
#     4  10  23  42  63  93 128 162 215 280 321 367
#     4  10  21  41  63  90 124 173 216 259 319 398
#     4   9  21  39  65  92 126 167 215 266 312 400
#     4  11  20  35  65  96 122 165 226 254 307 397
#     4  10  20  39  61  90 133 169 202 267 330 374
#     4  12  21  40  67  92 131 183 214 255 335 402
#
# _framework density 20.192609000000001
#
# number of rings (size 3 to 8) (size 9 to 14) (size 15 to 20)
#    0.000    1.500    3.750    1.875    0.000    1.000 
#    2.250    8.125    0.000    0.000    0.000    0.000 
#    0.000    0.000    0.000    0.000    0.000    0.000 
#
# Total GULP energy -178399.101419 kJ/mol
# GULP energy per Si atom -5574.971919 kJ/mol
# Density = 2.014665 g / cm^3
# Si number density = 20.192609 Si / 1000 Ang^3
#
#
#
# Elastic Constant Matrix: (Units=GPa)
#
#
# Indices 1 2 3 4 5 6 
#
# 1 85.1849 55.5350 26.7165 0.0000 7.9122 0.0000
# 2 55.5350 118.9740 40.3154 0.0000 -0.6880 0.0000
# 3 26.7165 40.3154 85.6857 0.0000 11.4343 0.0000
# 4 0.0000 0.0000 0.0000 28.2770 0.0000 4.8001
# 5 7.9122 -0.6880 11.4343 0.0000 17.5882 0.0000
# 6 0.0000 0.0000 0.0000 4.8001 0.0000 29.7906
#
#
#
# Elastic Compliance Matrix: (Units=1/GPa)
#
#
# Indices 1 2 3 4 5 6 
#
# 1 0.018078 -0.008253 -0.000685 0.000000 -0.008010 0.000000
# 2 -0.008253 0.014002 -0.005018 0.000000 0.007523 0.000000
# 3 -0.000685 -0.005018 0.015582 0.000000 -0.010018 0.000000
# 4 0.000000 0.000000 0.000000 0.036359 0.000000 -0.005859
# 5 -0.008010 0.007523 -0.010018 0.000000 0.067267 0.000000
# 6 0.000000 0.000000 0.000000 -0.005859 0.000000 0.034512
#
#
# Mechanical properties :
#
#
# Convention : Reuss Voigt Hill
#
# Bulk Modulus (GPa) = 50.63358 59.44203 55.03781
# Shear Modulus (GPa) = 22.69680 26.28300 24.48990
#
# Velocity S-wave (km/s) = 3.35627 3.61170 3.48633
# Velocity P-wave (km/s) = 6.33634 6.84792 6.59709
#
# Compressibility (1/GPa) = 0.01974974
#
# Stress axis : x y z
#
# Youngs Moduli (GPa) = 55.31489 71.42062 64.17598
#
# Poissons Ratio (x) = 0.58943 0.04395
# Poissons Ratio (y) = 0.45651 0.32206
# Poissons Ratio (z) = 0.03788 0.35842
#
# Static dielectric constant tensor:
#      x y z
#    x 1.748310 0.000000 -0.010500 
#    y 0.000000 1.694880 0.000000 
#    z -0.010500 0.000000 1.759420 
# 
# From -- ./inp_files/42190.got.cif
#   From: 2010.05.17/outbox.cif.g08.bks.cpg/sg14_22_cif.got.tgz:42190.got - 2010.06.03 17:49:19.
