data_PCOD9243127
_publ_section_title
;
Structure prediction by ZEFSAII (Michael W. Deem and Ramdas Pophale) SiO2 
 PCOD9243127
Probable space group: P 21/C
;
_chemical_formula_sum "Si O2"
_cell_formula_units_Z 32
_cell_length_a 15.198051
_cell_length_b 12.565072
_cell_length_c 15.147791
_cell_angle_alpha 90.000000
_cell_angle_beta 150.229813
_cell_angle_gamma 90.000000
_cell_volume 1436.286236
_symmetry_space_group_name_H-M "P 21/C"
_symmetry_group_IT_number 14
_symmetry_cell_setting 'monoclinic'
loop_
_space_group_symop_operation_xyz
x,y,z
-x,1/2+y,1/2-z
-x,-y,-z
x,1/2-y,1/2+z
loop_
_atom_site_type_symbol
_atom_site_label
_atom_site_fract_x
_atom_site_fract_y
_atom_site_fract_z
Si Si1 0.347896 0.008994 0.441532
Si Si2 0.428635 0.581884 0.567858
Si Si3 0.679734 0.744639 0.560819
Si Si4 0.361247 0.017064 0.185113
Si Si5 0.953228 0.678128 0.941599
Si Si6 0.291611 0.242118 0.621363
Si Si7 0.867046 0.403179 0.376549
Si Si8 0.330509 0.607360 0.290600
O O1 0.295389 0.132265 0.389252
O O2 0.500000 0.000000 0.500000
O O3 0.430320 0.986795 0.609012
O O4 0.211588 0.919935 0.289886
O O5 0.329542 0.515263 0.557153
O O6 0.523805 0.683249 0.694938
O O7 0.318049 0.613712 0.385977
O O8 0.576851 0.500931 0.659716
O O9 0.732110 0.747740 0.503887
O O10 0.477546 0.698803 0.393240
O O11 0.806362 0.676317 0.736005
O O12 0.296665 0.134285 0.155371
O O13 0.276390 0.927987 0.173079
O O14 0.043147 0.793940 0.024221
O O15 0.128845 0.608202 0.080772
O O16 0.851950 0.676459 0.947401
O O17 0.000000 0.500000 0.500000
#
# Coordination Sequence:
#
# PCOD9243127 Si02
#       8
#     4   4   4   4   4   4   4   4
#     4  10  20  36  64  97 126 173 217 274 341 402
#     4  11  25  47  71  99 136 191 236 279 348 418
#     4  12  23  46  70 100 140 181 231 289 345 410
#     4  11  22  41  69  98 134 177 234 282 337 416
#     4  12  26  46  69 105 141 179 232 289 352 411
#     4  12  25  44  69 102 143 180 231 294 343 411
#     4  11  21  38  64  97 137 174 213 287 351 397
#     4  11  26  48  72  95 141 191 230 281 350 424
#
# _framework density 22.279682000000001
#
# number of rings (size 3 to 8) (size 9 to 14) (size 15 to 20)
#    0.000    0.750    6.250    2.250    1.750    1.500 
#    2.250    1.250    0.000    0.000    0.000    0.000 
#    0.000    0.000    0.000    0.000    0.000    0.000 
#
# Total GULP energy -178622.510254 kJ/mol
# GULP energy per Si atom -5581.953445 kJ/mol
# Density = 2.222897 g / cm^3
# Si number density = 22.279682 Si / 1000 Ang^3
#
#
#
# Elastic Constant Matrix: (Units=GPa)
#
#
# Indices 1 2 3 4 5 6 
#
# 1 86.2008 0.6938 38.0055 0.0000 -24.0221 0.0000
# 2 0.6938 59.0316 -6.4616 0.0000 2.9625 0.0000
# 3 38.0055 -6.4616 81.4493 0.0000 -5.0663 0.0000
# 4 0.0000 0.0000 0.0000 32.0510 0.0000 9.3878
# 5 -24.0221 2.9625 -5.0663 0.0000 30.5829 0.0000
# 6 0.0000 0.0000 0.0000 9.3878 0.0000 28.2950
#
#
#
# Elastic Compliance Matrix: (Units=1/GPa)
#
#
# Indices 1 2 3 4 5 6 
#
# 1 0.019068 -0.001812 -0.008183 0.000000 0.013798 0.000000
# 2 -0.001812 0.017324 0.002048 0.000000 -0.002762 0.000000
# 3 -0.008183 0.002048 0.016011 0.000000 -0.003974 0.000000
# 4 0.000000 0.000000 0.000000 0.034559 0.000000 -0.011466
# 5 0.013798 -0.002762 -0.003974 0.000000 0.043145 0.000000
# 6 0.000000 0.000000 0.000000 -0.011466 0.000000 0.039146
#
#
# Mechanical properties :
#
#
# Convention : Reuss Voigt Hill
#
# Bulk Modulus (GPa) = 27.39019 32.35079 29.87049
# Shear Modulus (GPa) = 25.33983 31.14873 28.24428
#
# Velocity S-wave (km/s) = 3.37612 3.74314 3.56436
# Velocity P-wave (km/s) = 5.24577 5.76484 5.51142
#
# Compressibility (1/GPa) = 0.03650942
#
# Stress axis : x y z
#
# Youngs Moduli (GPa) = 52.44283 57.72276 62.45599
#
# Poissons Ratio (x) = 0.10461 0.51109
# Poissons Ratio (y) = 0.09504 -0.12792
# Poissons Ratio (z) = 0.42915 -0.11823
#
# Static dielectric constant tensor:
#      x y z
#    x 1.872590 0.000000 0.033470 
#    y 0.000000 1.898920 0.000000 
#    z 0.033470 0.000000 1.993660 
# 
# From -- ./inp_files/47429.got.cif
#   From: 2010.05.17/outbox.cif.g08.bks.cpg/sg14_24_cif.got.tgz:47429.got - 2010.06.03 17:49:19.
