data_PCOD9243119
_publ_section_title
;
Structure prediction by ZEFSAII (Michael W. Deem and Ramdas Pophale) SiO2 
 PCOD9243119
Probable space group: P 21/C
;
_chemical_formula_sum "Si O2"
_cell_formula_units_Z 28
_cell_length_a 13.295042
_cell_length_b 10.098474
_cell_length_c 17.457179
_cell_angle_alpha 90.000000
_cell_angle_beta 141.086183
_cell_angle_gamma 90.000000
_cell_volume 1472.256188
_symmetry_space_group_name_H-M "P 21/C"
_symmetry_group_IT_number 14
_symmetry_cell_setting 'monoclinic'
loop_
_space_group_symop_operation_xyz
x,y,z
-x,1/2+y,1/2-z
-x,-y,-z
x,1/2-y,1/2+z
loop_
_atom_site_type_symbol
_atom_site_label
_atom_site_fract_x
_atom_site_fract_y
_atom_site_fract_z
Si Si1 0.053576 0.634453 0.904666
Si Si2 0.651861 0.365259 0.818267
Si Si3 0.885550 0.360418 0.814786
Si Si4 0.054656 0.577721 0.458179
Si Si5 0.571412 0.385519 0.338468
Si Si6 0.343593 0.541675 0.452131
Si Si7 0.060840 0.370700 0.336674
O O1 0.999017 0.771137 0.912919
O O2 0.024842 0.644935 0.796429
O O3 0.962133 0.503337 0.877661
O O4 0.235264 0.618474 0.040550
O O5 0.769868 0.327482 0.817616
O O6 0.554923 0.497729 0.744694
O O7 0.532736 0.245260 0.767826
O O8 0.775029 0.383757 0.675102
O O9 0.018001 0.253501 0.866057
O O10 0.247852 0.576971 0.578949
O O11 0.000000 0.500000 0.500000
O O12 0.004154 0.497623 0.352176
O O13 0.598260 0.365800 0.444631
O O14 0.500000 0.500000 0.500000
O O15 0.244493 0.413936 0.425906
#
# Coordination Sequence:
#
# PCOD9243119 Si02
#       7
#     4   4   4   4   4   4   4
#     4  10  21  37  57  88 118 158 194 252 303 362
#     4  11  22  37  57  83 127 152 202 251 303 364
#     4  11  21  37  64  90 115 154 210 256 302 362
#     4  10  21  40  62  85 123 158 207 251 307 369
#     4  10  22  38  58  86 115 166 194 248 306 361
#     4  10  20  40  63  87 122 166 202 244 314 373
#     4  10  20  36  64  91 117 156 202 254 301 367
#
# _framework density 19.018429999999999
#
# number of rings (size 3 to 8) (size 9 to 14) (size 15 to 20)
#    0.000    1.714    1.429    5.571    0.000    3.429 
#    0.000    0.000    0.000    2.571    0.000    0.000 
#    0.000    0.000    0.000    0.000    0.000    0.000 
#
# Total GULP energy -156042.987301 kJ/mol
# GULP energy per Si atom -5572.963832 kJ/mol
# Density = 1.897514 g / cm^3
# Si number density = 19.018430 Si / 1000 Ang^3
#
#
#
# Elastic Constant Matrix: (Units=GPa)
#
#
# Indices 1 2 3 4 5 6 
#
# 1 105.6512 47.9535 14.7833 0.0000 -7.9666 0.0000
# 2 47.9535 114.3560 39.8534 0.0000 -10.0423 0.0000
# 3 14.7833 39.8534 56.6745 0.0000 -16.3823 0.0000
# 4 0.0000 0.0000 0.0000 19.7599 0.0000 -5.7136
# 5 -7.9666 -10.0423 -16.3823 0.0000 20.1992 0.0000
# 6 0.0000 0.0000 0.0000 -5.7136 0.0000 30.9306
#
#
#
# Elastic Compliance Matrix: (Units=1/GPa)
#
#
# Indices 1 2 3 4 5 6 
#
# 1 0.011871 -0.005222 0.001539 0.000000 0.003334 0.000000
# 2 -0.005222 0.013899 -0.009156 0.000000 -0.002575 0.000000
# 3 0.001539 -0.009156 0.029444 0.000000 0.019935 0.000000
# 4 0.000000 0.000000 0.000000 0.053463 0.000000 0.009876
# 5 0.003334 -0.002575 0.019935 0.000000 0.065710 0.000000
# 6 0.000000 0.000000 0.000000 0.009876 0.000000 0.034155
#
#
# Mechanical properties :
#
#
# Convention : Reuss Voigt Hill
#
# Bulk Modulus (GPa) = 33.85570 53.54022 43.69796
# Shear Modulus (GPa) = 20.48632 25.78405 23.13518
#
# Velocity S-wave (km/s) = 3.28561 3.68603 3.49156
# Velocity P-wave (km/s) = 5.67748 6.80652 6.26747
#
# Compressibility (1/GPa) = 0.02953712
#
# Stress axis : x y z
#
# Youngs Moduli (GPa) = 84.23778 71.94765 33.96246
#
# Poissons Ratio (x) = 0.37568 -0.05227
# Poissons Ratio (y) = 0.43985 0.31097
# Poissons Ratio (z) = -0.12965 0.65876
#
# Static dielectric constant tensor:
#      x y z
#    x 1.695900 0.000000 -0.017270 
#    y 0.000000 1.700550 0.000000 
#    z -0.017270 0.000000 1.670300 
# 
# From -- ./inp_files/59090.got.cif
#   From: 2010.05.17/outbox.cif.g08.bks.cpg/sg14_30_cif.got.tgz:59090.got - 2010.06.03 17:49:19.
