data_PCOD9243027
_publ_section_title
;
Structure prediction by ZEFSAII (Michael W. Deem and Ramdas Pophale) SiO2 
 PCOD9243027
Probable space group: P 21/C
;
_chemical_formula_sum "Si O2"
_cell_formula_units_Z 20
_cell_length_a 11.790981
_cell_length_b 8.718232
_cell_length_c 9.087586
_cell_angle_alpha 90.000000
_cell_angle_beta 90.485044
_cell_angle_gamma 90.000000
_cell_volume 934.138631
_symmetry_space_group_name_H-M "P 21/C"
_symmetry_group_IT_number 14
_symmetry_cell_setting 'monoclinic'
loop_
_space_group_symop_operation_xyz
x,y,z
-x,1/2+y,1/2-z
-x,-y,-z
x,1/2-y,1/2+z
loop_
_atom_site_type_symbol
_atom_site_label
_atom_site_fract_x
_atom_site_fract_y
_atom_site_fract_z
Si Si1 0.857981 0.848719 0.008247
Si Si2 0.396777 0.072359 0.583853
Si Si3 0.979756 0.491129 0.251192
Si Si4 0.392345 0.094039 0.934598
Si Si5 0.159011 0.979339 0.512268
O O1 0.741361 0.944163 0.036188
O O2 0.948866 0.891817 0.133261
O O3 0.845214 0.665232 0.008562
O O4 0.907061 0.895101 0.850684
O O5 0.406923 0.094589 0.758771
O O6 0.391505 0.239678 0.510298
O O7 0.289514 0.960817 0.552315
O O8 0.500000 0.000000 0.500000
O O9 0.074307 0.561233 0.142997
O O10 0.891710 0.410026 0.137957
O O11 0.500000 0.000000 0.000000
#
# Coordination Sequence:
#
# PCOD9243027 Si02
#       5
#     4   4   4   4   4
#     4  10  21  38  63  88 123 163 208 248 323 372
#     4  11  24  43  69  95 128 170 218 266 322 384
#     4  10  20  36  60  90 118 158 204 256 292 388
#     4  11  24  43  69  95 128 170 218 266 322 384
#     4  10  21  38  63  88 123 163 208 248 323 372
#
# _framework density 21.410098999999999
#
# number of rings (size 3 to 8) (size 9 to 14) (size 15 to 20)
#    0.000    1.600    2.000    2.400   11.200    0.000 
#    0.000   12.000    0.000    0.000    0.000    0.000 
#    0.000    0.000    0.000    0.000    0.000    0.000 
#
# Total GULP energy -111567.650453 kJ/mol
# GULP energy per Si atom -5578.382523 kJ/mol
# Density = 2.136137 g / cm^3
# Si number density = 21.410099 Si / 1000 Ang^3
#
#
#
# Elastic Constant Matrix: (Units=GPa)
#
#
# Indices 1 2 3 4 5 6 
#
# 1 156.2870 29.2494 86.9761 0.0000 -3.7163 0.0000
# 2 29.2494 18.2344 13.4415 0.0000 -4.0713 0.0000
# 3 86.9761 13.4415 197.9102 0.0000 -8.4100 0.0000
# 4 0.0000 0.0000 0.0000 30.2943 0.0000 1.6604
# 5 -3.7163 -4.0713 -8.4100 0.0000 29.8146 0.0000
# 6 0.0000 0.0000 0.0000 1.6604 0.0000 24.7919
#
#
#
# Elastic Compliance Matrix: (Units=1/GPa)
#
#
# Indices 1 2 3 4 5 6 
#
# 1 0.011650 -0.016083 -0.004108 0.000000 -0.001903 0.000000
# 2 -0.016083 0.081357 0.001953 0.000000 0.009656 0.000000
# 3 -0.004108 0.001953 0.006797 0.000000 0.001672 0.000000
# 4 0.000000 0.000000 0.000000 0.033131 0.000000 -0.002219
# 5 -0.001903 0.009656 0.001672 0.000000 0.035094 0.000000
# 6 0.000000 0.000000 0.000000 -0.002219 0.000000 0.040484
#
#
# Mechanical properties :
#
#
# Convention : Reuss Voigt Hill
#
# Bulk Modulus (GPa) = 15.79133 70.19615 42.99374
# Shear Modulus (GPa) = 18.79009 33.16446 25.97728
#
# Velocity S-wave (km/s) = 2.96569 3.94002 3.48705
# Velocity P-wave (km/s) = 4.37250 7.31819 6.02805
#
# Compressibility (1/GPa) = 0.06332589
#
# Stress axis : x y z
#
# Youngs Moduli (GPa) = 85.84037 12.29153 147.13183
#
# Poissons Ratio (x) = 0.19769 0.60444
# Poissons Ratio (y) = 1.38060 -0.28735
# Poissons Ratio (z) = 0.35265 -0.02401
#
# Static dielectric constant tensor:
#      x y z
#    x 1.833450 0.000000 0.056740 
#    y 0.000000 1.798850 0.000000 
#    z 0.056740 0.000000 1.747790 
# 
# From -- ./inp_files/11760.got.cif
#   From: 2010.05.17/outbox.cif.g08.bks.cpg/sg14_6_cif.got.tgz:11760.got - 2010.06.03 17:49:19.
