data_PCOD9243561
_publ_section_title
;
Structure prediction by ZEFSAII (Michael W. Deem and Ramdas Pophale) SiO2 
 PCOD9243561
Probable space group: P 21/C
;
_chemical_formula_sum "Si O2"
_cell_formula_units_Z 20
_cell_length_a 11.334361
_cell_length_b 7.784638
_cell_length_c 15.597870
_cell_angle_alpha 90.000000
_cell_angle_beta 142.598712
_cell_angle_gamma 90.000000
_cell_volume 835.932173
_symmetry_space_group_name_H-M "P 21/C"
_symmetry_group_IT_number 14
_symmetry_cell_setting 'monoclinic'
loop_
_space_group_symop_operation_xyz
x,y,z
-x,1/2+y,1/2-z
-x,-y,-z
x,1/2-y,1/2+z
loop_
_atom_site_type_symbol
_atom_site_label
_atom_site_fract_x
_atom_site_fract_y
_atom_site_fract_z
Si Si1 0.896522 0.107748 0.014872
Si Si2 0.587409 0.132968 0.313326
Si Si3 0.950186 0.713575 0.647269
Si Si4 0.295983 0.981554 0.429267
Si Si5 0.193493 0.317476 0.112691
O O1 0.056301 0.262186 0.112234
O O2 0.870580 0.978980 0.078979
O O3 0.700627 0.188964 0.866770
O O4 0.000000 0.000000 0.000000
O O5 0.650158 0.073107 0.443792
O O6 0.362261 0.180313 0.186599
O O7 0.684466 0.992305 0.307450
O O8 0.943097 0.813977 0.551336
O O9 0.158778 0.662826 0.806476
O O10 0.817764 0.836525 0.629044
O O11 0.500000 0.000000 0.500000
#
# Coordination Sequence:
#
# PCOD9243561 Si02
#       5
#     4   4   4   4   4
#     4  10  20  38  60  87 122 158 201 259 312 366
#     4  11  22  38  62  93 124 160 211 255 313 384
#     4  10  22  40  63  91 125 166 213 259 313 382
#     4  11  24  43  64  91 129 171 211 262 318 376
#     4  10  21  37  62  92 122 161 204 261 317 370
#
# _framework density 23.925384999999999
#
# number of rings (size 3 to 8) (size 9 to 14) (size 15 to 20)
#    0.000    1.600    0.000    5.400    0.000    4.800 
#    0.000    8.000    0.000    0.000    0.000    0.000 
#    0.000    0.000    0.000    0.000    0.000    0.000 
#
# Total GULP energy -111618.936601 kJ/mol
# GULP energy per Si atom -5580.946830 kJ/mol
# Density = 2.387093 g / cm^3
# Si number density = 23.925385 Si / 1000 Ang^3
#
#
#
# Elastic Constant Matrix: (Units=GPa)
#
#
# Indices 1 2 3 4 5 6 
#
# 1 80.5766 38.7381 47.3510 0.0000 31.2976 0.0000
# 2 38.7381 123.9574 30.6126 0.0000 26.6246 0.0000
# 3 47.3510 30.6126 134.4089 0.0000 29.5448 0.0000
# 4 0.0000 0.0000 0.0000 43.8398 0.0000 13.5204
# 5 31.2976 26.6246 29.5448 0.0000 45.6130 0.0000
# 6 0.0000 0.0000 0.0000 13.5204 0.0000 26.8925
#
#
#
# Elastic Compliance Matrix: (Units=1/GPa)
#
#
# Indices 1 2 3 4 5 6 
#
# 1 0.020028 -0.003248 -0.004328 0.000000 -0.009043 0.000000
# 2 -0.003248 0.009884 -0.000383 0.000000 -0.003293 0.000000
# 3 -0.004328 -0.000383 0.009736 0.000000 -0.003113 0.000000
# 4 0.000000 0.000000 0.000000 0.026996 0.000000 -0.013573
# 5 -0.009043 -0.003293 -0.003113 0.000000 0.032067 0.000000
# 6 0.000000 0.000000 0.000000 -0.013573 0.000000 0.044009
#
#
# Mechanical properties :
#
#
# Convention : Reuss Voigt Hill
#
# Bulk Modulus (GPa) = 42.14068 63.59403 52.86736
# Shear Modulus (GPa) = 30.02130 38.08514 34.05322
#
# Velocity S-wave (km/s) = 3.54614 3.99410 3.77677
# Velocity P-wave (km/s) = 5.86672 6.92158 6.41587
#
# Compressibility (1/GPa) = 0.02373004
#
# Stress axis : x y z
#
# Youngs Moduli (GPa) = 49.93042 101.17234 102.70829
#
# Poissons Ratio (x) = 0.32858 0.44454
# Poissons Ratio (y) = 0.16216 0.03936
# Poissons Ratio (z) = 0.21611 0.03877
#
# Static dielectric constant tensor:
#      x y z
#    x 1.952840 0.000000 -0.008230 
#    y 0.000000 2.196970 0.000000 
#    z -0.008230 0.000000 1.947440 
# 
# From -- ./inp_files/57309.got.cif
#   From: 2010.05.17/outbox.cif.g08.bks.cpg/sg14_29_cif.got.tgz:57309.got - 2010.06.03 17:49:19.
