data_PCOD9243218
_publ_section_title
;
Structure prediction by ZEFSAII (Michael W. Deem and Ramdas Pophale) SiO2 
 PCOD9243218
Probable space group: P 21/C
;
_chemical_formula_sum "Si O2"
_cell_formula_units_Z 32
_cell_length_a 8.556589
_cell_length_b 10.838439
_cell_length_c 21.722229
_cell_angle_alpha 90.000000
_cell_angle_beta 48.785394
_cell_angle_gamma 90.000000
_cell_volume 1515.417312
_symmetry_space_group_name_H-M "P 21/C"
_symmetry_group_IT_number 14
_symmetry_cell_setting 'monoclinic'
loop_
_space_group_symop_operation_xyz
x,y,z
-x,1/2+y,1/2-z
-x,-y,-z
x,1/2-y,1/2+z
loop_
_atom_site_type_symbol
_atom_site_label
_atom_site_fract_x
_atom_site_fract_y
_atom_site_fract_z
Si Si1 0.528660 0.483303 0.752721
Si Si2 0.291583 0.083338 0.128839
Si Si3 0.013092 0.444090 0.199688
Si Si4 0.915165 0.302776 0.659242
Si Si5 0.662724 0.524564 0.577576
Si Si6 0.313434 0.188077 0.706781
Si Si7 0.912313 0.852849 0.638131
Si Si8 0.026349 0.700934 0.494522
O O1 0.727749 0.398505 0.718840
O O2 0.561644 0.510165 0.671727
O O3 0.534724 0.610491 0.789261
O O4 0.314697 0.410602 0.817060
O O5 0.484634 0.991169 0.073005
O O6 0.382799 0.198451 0.145562
O O7 0.139609 0.132622 0.114921
O O8 0.133775 0.013896 0.214879
O O9 0.216444 0.406648 0.183647
O O10 0.910165 0.317060 0.203324
O O11 0.042006 0.538619 0.136450
O O12 0.904182 0.260739 0.591379
O O13 0.792927 0.649200 0.546990
O O14 0.829745 0.415113 0.524435
O O15 0.139101 0.245112 0.798458
O O16 0.020662 0.799501 0.549937
#
# Coordination Sequence:
#
# PCOD9243218 Si02
#       8
#     4   4   4   4   4   4   4   4
#     4  11  20  34  62  89 116 155 206 259 294 351
#     4  10  20  39  62  89 117 163 206 252 305 349
#     4  10  21  37  60  87 122 155 201 251 299 355
#     4  10  23  38  58  90 125 160 199 252 304 365
#     4  10  20  37  61  85 121 160 203 255 299 359
#     4  10  20  37  58  90 120 147 205 262 295 351
#     4  11  23  37  63  91 121 163 200 250 310 364
#     4  10  23  39  57  92 127 160 199 249 313 369
#
# _framework density 21.116294
#
# number of rings (size 3 to 8) (size 9 to 14) (size 15 to 20)
#    0.000    1.750    5.000    0.000    3.500    1.000 
#    0.000    1.250    0.000    3.000    0.000    0.000 
#    0.000    0.000    0.000    0.000    0.000    0.000 
#
# Total GULP energy -178662.503569 kJ/mol
# GULP energy per Si atom -5583.203237 kJ/mol
# Density = 2.106823 g / cm^3
# Si number density = 21.116294 Si / 1000 Ang^3
#
#
#
# Elastic Constant Matrix: (Units=GPa)
#
#
# Indices 1 2 3 4 5 6 
#
# 1 78.9161 26.6794 1.0964 0.0000 3.1647 0.0000
# 2 26.6794 45.2922 -6.1187 0.0000 -4.8683 0.0000
# 3 1.0964 -6.1187 8.7679 0.0000 -5.8206 0.0000
# 4 0.0000 0.0000 0.0000 15.2469 0.0000 4.6182
# 5 3.1647 -4.8683 -5.8206 0.0000 19.0181 0.0000
# 6 0.0000 0.0000 0.0000 4.6182 0.0000 39.6011
#
#
#
# Elastic Compliance Matrix: (Units=1/GPa)
#
#
# Indices 1 2 3 4 5 6 
#
# 1 0.018851 -0.015677 -0.022645 0.000000 -0.014080 0.000000
# 2 -0.015677 0.041002 0.049287 0.000000 0.028189 0.000000
# 3 -0.022645 0.049287 0.203504 0.000000 0.078669 0.000000
# 4 0.000000 0.000000 0.000000 0.067989 0.000000 -0.007929
# 5 -0.014080 0.028189 0.078669 0.000000 0.086218 0.000000
# 6 0.000000 0.000000 0.000000 -0.007929 0.000000 0.026176
#
#
# Mechanical properties :
#
#
# Convention : Reuss Voigt Hill
#
# Bulk Modulus (GPa) = 3.50523 19.58781 11.54652
# Shear Modulus (GPa) = 9.67297 22.19451 15.93374
#
# Velocity S-wave (km/s) = 2.14260 3.24552 2.74993
# Velocity P-wave (km/s) = 2.79008 4.83124 3.94496
#
# Compressibility (1/GPa) = 0.28528809
#
# Stress axis : x y z
#
# Youngs Moduli (GPa) = 53.04808 24.38932 4.91390
#
# Poissons Ratio (x) = 0.38234 0.11127
# Poissons Ratio (y) = 0.83162 -0.24219
# Poissons Ratio (z) = 1.20126 -1.20208
#
# Static dielectric constant tensor:
#      x y z
#    x 1.805950 0.000000 -0.018340 
#    y 0.000000 1.777610 0.000000 
#    z -0.018340 0.000000 1.749920 
# 
# From -- ./inp_files/55412.got.cif
#   From: 2010.05.17/outbox.cif.g08.bks.cpg/sg14_28_cif.got.tgz:55412.got - 2010.06.03 17:49:19.
