data_PCOD9243476
_publ_section_title
;
Structure prediction by ZEFSAII (Michael W. Deem and Ramdas Pophale) SiO2 
 PCOD9243476
Probable space group: P 21/C
;
_chemical_formula_sum "Si O2"
_cell_formula_units_Z 24
_cell_length_a 18.311026
_cell_length_b 11.348544
_cell_length_c 17.850710
_cell_angle_alpha 90.000000
_cell_angle_beta 15.456050
_cell_angle_gamma 90.000000
_cell_volume 988.562437
_symmetry_space_group_name_H-M "P 21/C"
_symmetry_group_IT_number 14
_symmetry_cell_setting 'monoclinic'
loop_
_space_group_symop_operation_xyz
x,y,z
-x,1/2+y,1/2-z
-x,-y,-z
x,1/2-y,1/2+z
loop_
_atom_site_type_symbol
_atom_site_label
_atom_site_fract_x
_atom_site_fract_y
_atom_site_fract_z
Si Si1 0.240904 0.844125 0.238321
Si Si2 0.366819 0.201800 0.894370
Si Si3 0.892269 0.082662 0.308579
Si Si4 0.253031 0.912210 0.755118
Si Si5 0.758673 0.914733 0.825517
Si Si6 0.596600 0.427212 0.732105
O O1 0.239731 0.706137 0.218817
O O2 0.995797 0.870591 0.536919
O O3 0.233631 0.942323 0.180144
O O4 0.498478 0.874404 0.035163
O O5 0.660882 0.135922 0.593374
O O6 0.447888 0.335930 0.825566
O O7 0.240365 0.146568 0.095158
O O8 0.124040 0.186784 0.072535
O O9 0.653348 0.015962 0.496909
O O10 0.136166 0.984001 0.071594
O O11 0.288119 0.868904 0.806415
O O12 0.500000 0.000000 0.500000
O O13 0.000000 0.000000 0.000000
#
# Coordination Sequence:
#
# PCOD9243476 Si02
#       6
#     4   4   4   4   4   4
#     4  10  21  38  60 100 131 167 213 275 320 378
#     4  11  21  41  70  94 127 179 224 272 345 403
#     4  10  24  39  62 100 122 168 230 274 324 392
#     4  12  25  41  66  99 137 182 223 255 338 420
#     4  10  20  37  67  96 128 160 225 274 321 381
#     4  11  23  44  66  92 136 175 220 278 333 402
#
# _framework density 24.277677000000001
#
# number of rings (size 3 to 8) (size 9 to 14) (size 15 to 20)
#    0.000    1.333    1.667    4.000    2.333    0.000 
#    0.000   16.667    0.000    0.000    0.000    0.000 
#    0.000    0.000    0.000    0.000    0.000    0.000 
#
# Total GULP energy -133607.978605 kJ/mol
# GULP energy per Si atom -5566.999109 kJ/mol
# Density = 2.422242 g / cm^3
# Si number density = 24.277677 Si / 1000 Ang^3
#
#
#
# Elastic Constant Matrix: (Units=GPa)
#
#
# Indices 1 2 3 4 5 6 
#
# 1 30.6915 11.2219 20.7614 0.0000 -17.5224 0.0000
# 2 11.2219 146.5502 45.6804 0.0000 1.5530 0.0000
# 3 20.7614 45.6804 228.9542 0.0000 -21.9873 0.0000
# 4 0.0000 0.0000 0.0000 31.9018 0.0000 -1.9593
# 5 -17.5224 1.5530 -21.9873 0.0000 29.0767 0.0000
# 6 0.0000 0.0000 0.0000 -1.9593 0.0000 27.1126
#
#
#
# Elastic Compliance Matrix: (Units=1/GPa)
#
#
# Indices 1 2 3 4 5 6 
#
# 1 0.052476 -0.004048 -0.000963 0.000000 0.031111 0.000000
# 2 -0.004048 0.007658 -0.001547 0.000000 -0.004018 0.000000
# 3 -0.000963 -0.001547 0.005085 0.000000 0.003347 0.000000
# 4 0.000000 0.000000 0.000000 0.031486 0.000000 0.002275
# 5 0.031111 -0.004018 0.003347 0.000000 0.055886 0.000000
# 6 0.000000 0.000000 0.000000 0.002275 0.000000 0.037048
#
#
# Mechanical properties :
#
#
# Convention : Reuss Voigt Hill
#
# Bulk Modulus (GPa) = 19.19241 62.39149 40.79195
# Shear Modulus (GPa) = 22.71465 39.52038 31.11752
#
# Velocity S-wave (km/s) = 3.06211 4.03904 3.58401
# Velocity P-wave (km/s) = 4.51935 6.89251 5.82800
#
# Compressibility (1/GPa) = 0.05210393
#
# Stress axis : x y z
#
# Youngs Moduli (GPa) = 19.05635 130.57785 196.65295
#
# Poissons Ratio (x) = 0.52855 0.18941
# Poissons Ratio (y) = 0.07714 0.30418
# Poissons Ratio (z) = 0.01835 0.20197
#
# Static dielectric constant tensor:
#      x y z
#    x 2.172090 0.000000 0.038610 
#    y 0.000000 2.052120 0.000000 
#    z 0.038610 0.000000 1.840950 
# 
# From -- ./inp_files/74946.got.cif
#   From: 2010.05.17/outbox.cif.g08.bks.cpg/sg14_38_cif.got.tgz:74946.got - 2010.06.03 17:49:19.
