data_PCOD9243162
_publ_section_title
;
Structure prediction by ZEFSAII (Michael W. Deem and Ramdas Pophale) SiO2 
 PCOD9243162
Probable space group: P 21/C
;
_chemical_formula_sum "Si O2"
_cell_formula_units_Z 24
_cell_length_a 13.528714
_cell_length_b 11.654371
_cell_length_c 11.821743
_cell_angle_alpha 90.000000
_cell_angle_beta 35.666737
_cell_angle_gamma 90.000000
_cell_volume 1086.794198
_symmetry_space_group_name_H-M "P 21/C"
_symmetry_group_IT_number 14
_symmetry_cell_setting 'monoclinic'
loop_
_space_group_symop_operation_xyz
x,y,z
-x,1/2+y,1/2-z
-x,-y,-z
x,1/2-y,1/2+z
loop_
_atom_site_type_symbol
_atom_site_label
_atom_site_fract_x
_atom_site_fract_y
_atom_site_fract_z
Si Si1 0.436561 0.065258 0.297093
Si Si2 0.075937 0.149172 0.006387
Si Si3 0.737028 0.926145 0.775715
Si Si4 0.920687 0.143794 0.679184
Si Si5 0.915770 0.577229 0.748396
Si Si6 0.614102 0.678977 0.620367
O O1 0.397259 0.067220 0.199871
O O2 0.257849 0.048120 0.527380
O O3 0.488157 0.198576 0.280284
O O4 0.536196 0.945772 0.227828
O O5 0.902957 0.223599 0.167773
O O6 0.127382 0.137061 0.829087
O O7 0.227977 0.198551 0.941219
O O8 0.026812 0.030664 0.108637
O O9 0.915181 0.888525 0.551378
O O10 0.777630 0.053003 0.785632
O O11 0.681327 0.846367 0.931215
O O12 0.970586 0.140168 0.764162
#
# Coordination Sequence:
#
# PCOD9243162 Si02
#       6
#     4   4   4   4   4   4
#     4  11  26  43  65  93 130 172 212 260 313 382
#     4  11  22  39  67  93 129 164 209 268 317 374
#     4  10  21  41  64  94 122 165 214 259 314 377
#     4  10  20  36  70  92 120 163 209 267 314 376
#     4  10  22  41  60  97 123 162 215 260 323 369
#     4  12  24  44  64  92 131 173 211 258 316 376
#
# _framework density 22.083300000000001
#
# number of rings (size 3 to 8) (size 9 to 14) (size 15 to 20)
#    0.000    1.333    5.000    1.500    0.000    2.000 
#    6.000    0.000    0.000    0.000    0.000    0.000 
#    0.000    0.000    0.000    0.000    0.000    0.000 
#
# Total GULP energy -133806.713000 kJ/mol
# GULP energy per Si atom -5575.279708 kJ/mol
# Density = 2.203304 g / cm^3
# Si number density = 22.083300 Si / 1000 Ang^3
#
#
#
# Elastic Constant Matrix: (Units=GPa)
#
#
# Indices 1 2 3 4 5 6 
#
# 1 73.9910 34.7026 39.8106 0.0000 25.2546 0.0000
# 2 34.7026 101.2825 35.7274 0.0000 -11.8247 0.0000
# 3 39.8106 35.7274 84.9051 0.0000 22.4677 0.0000
# 4 0.0000 0.0000 0.0000 -18.3322 0.0000 -47.6597
# 5 25.2546 -11.8247 22.4677 0.0000 29.2848 0.0000
# 6 0.0000 0.0000 0.0000 -47.6597 0.0000 -5.0272
#
#
#
# Elastic Compliance Matrix: (Units=1/GPa)
#
#
# Indices 1 2 3 4 5 6 
#
# 1 0.031930 -0.014984 0.000278 0.000000 -0.033799 0.000000
# 2 -0.014984 0.021991 -0.010034 0.000000 0.029500 0.000000
# 3 0.000278 -0.010034 0.021337 0.000000 -0.020662 0.000000
# 4 0.000000 0.000000 0.000000 0.002307 0.000000 -0.021869
# 5 -0.033799 0.029500 -0.020662 0.000000 0.091059 0.000000
# 6 0.000000 0.000000 0.000000 -0.021869 0.000000 0.008412
#
#
# Mechanical properties :
#
#
# Convention : Reuss Voigt Hill
#
# Bulk Modulus (GPa) = 38.79398 53.40663 46.10030
# Shear Modulus (GPa) = 21.26673 11.18096 16.22384
#
# Velocity S-wave (km/s) = 3.10663 2.25257 2.71341
# Velocity P-wave (km/s) = 5.52027 5.56795 5.54417
#
# Compressibility (1/GPa) = 0.02577720
#
# Stress axis : x y z
#
# Youngs Moduli (GPa) = 31.31885 45.47291 46.86603
#
# Poissons Ratio (x) = 0.68137 -0.01302
# Poissons Ratio (y) = 0.46929 0.47026
# Poissons Ratio (z) = -0.00870 0.45629
#
# Static dielectric constant tensor:
#      x y z
#    x 1.774300 0.000000 0.001700 
#    y 0.000000 1.941410 0.000000 
#    z 0.001700 0.000000 1.815190 
# 
# From -- ./inp_files/32139.got.cif
#   From: 2010.05.17/outbox.cif.g08.bks.cpg/sg14_17_cif.got.tgz:32139.got - 2010.06.03 17:49:19.
