data_PCOD9243775
_publ_section_title
;
Structure prediction by ZEFSAII (Michael W. Deem and Ramdas Pophale) SiO2 
 PCOD9243775
Probable space group: P 21/C
;
_chemical_formula_sum "Si O2"
_cell_formula_units_Z 32
_cell_length_a 9.400969
_cell_length_b 14.269723
_cell_length_c 24.078311
_cell_angle_alpha 90.000000
_cell_angle_beta 149.457325
_cell_angle_gamma 90.000000
_cell_volume 1641.465408
_symmetry_space_group_name_H-M "P 21/C"
_symmetry_group_IT_number 14
_symmetry_cell_setting 'monoclinic'
loop_
_space_group_symop_operation_xyz
x,y,z
-x,1/2+y,1/2-z
-x,-y,-z
x,1/2-y,1/2+z
loop_
_atom_site_type_symbol
_atom_site_label
_atom_site_fract_x
_atom_site_fract_y
_atom_site_fract_z
Si Si1 0.370656 0.855755 0.210292
Si Si2 0.161126 0.287941 0.841351
Si Si3 0.148112 0.660799 0.147905
Si Si4 0.631199 0.064294 0.496151
Si Si5 0.162190 0.401952 0.399055
Si Si6 0.251560 0.435422 0.064032
Si Si7 0.228173 0.572748 0.346812
Si Si8 0.264564 0.027778 0.739401
O O1 0.357529 0.743515 0.203517
O O2 0.567748 0.892984 0.326150
O O3 0.062672 0.883153 0.128401
O O4 0.489247 0.901264 0.194065
O O5 0.157586 0.176472 0.848380
O O6 0.016773 0.318742 0.850672
O O7 0.964429 0.336933 0.729436
O O8 0.461902 0.338519 0.937398
O O9 0.297446 0.562340 0.209934
O O10 0.904936 0.647526 0.021229
O O11 0.500000 0.000000 0.500000
O O12 0.591074 0.002500 0.426917
O O13 0.961356 0.071199 0.621001
O O14 0.110174 0.501902 0.353181
O O15 0.466882 0.398437 0.529206
O O16 0.000000 0.500000 0.000000
O O17 0.255952 0.513224 0.298712
#
# Coordination Sequence:
#
# PCOD9243775 Si02
#       8
#     4   4   4   4   4   4   4   4
#     4  11  22  38  61  88 121 161 202 245 303 368
#     4  10  20  38  65  90 117 158 210 251 297 359
#     4   9  20  36  57  88 115 156 203 241 295 358
#     4  11  18  36  65  93 116 157 205 255 303 340
#     4  10  24  39  62  91 119 164 208 237 313 374
#     4  11  20  38  63  87 121 156 203 257 291 354
#     4  10  21  43  59  85 129 157 197 264 298 360
#     4  10  21  39  58  89 126 157 199 252 301 361
#
# _framework density 19.494776000000002
#
# number of rings (size 3 to 8) (size 9 to 14) (size 15 to 20)
#    0.000    1.750    6.250    0.750    0.000    7.500 
#    2.250    2.500    0.000    0.000    0.000    0.000 
#    0.000    0.000    0.000    0.000    0.000    0.000 
#
# Total GULP energy -178454.992870 kJ/mol
# GULP energy per Si atom -5576.718527 kJ/mol
# Density = 1.945040 g / cm^3
# Si number density = 19.494776 Si / 1000 Ang^3
#
#
#
# Elastic Constant Matrix: (Units=GPa)
#
#
# Indices 1 2 3 4 5 6 
#
# 1 32.7774 0.8855 -2.3507 0.0000 14.8605 0.0000
# 2 0.8855 52.1344 25.2124 0.0000 22.3512 0.0000
# 3 -2.3507 25.2124 68.7409 0.0000 4.9645 0.0000
# 4 0.0000 0.0000 0.0000 24.5521 0.0000 7.2699
# 5 14.8605 22.3512 4.9645 0.0000 29.2094 0.0000
# 6 0.0000 0.0000 0.0000 7.2699 0.0000 21.5015
#
#
#
# Elastic Compliance Matrix: (Units=1/GPa)
#
#
# Indices 1 2 3 4 5 6 
#
# 1 0.045382 0.014360 -0.001270 0.000000 -0.033861 0.000000
# 2 0.014360 0.039908 -0.011555 0.000000 -0.035879 0.000000
# 3 -0.001270 -0.011555 0.018281 0.000000 0.006381 0.000000
# 4 0.000000 0.000000 0.000000 0.045261 0.000000 -0.015303
# 5 -0.033861 -0.035879 0.006381 0.000000 0.077833 0.000000
# 6 0.000000 0.000000 0.000000 -0.015303 0.000000 0.051683
#
#
# Mechanical properties :
#
#
# Convention : Reuss Voigt Hill
#
# Bulk Modulus (GPa) = 9.37721 22.34969 15.86345
# Shear Modulus (GPa) = 16.08634 23.71297 19.89965
#
# Velocity S-wave (km/s) = 2.87568 3.49144 3.19841
# Velocity P-wave (km/s) = 3.98078 5.26715 4.66848
#
# Compressibility (1/GPa) = 0.10664158
#
# Stress axis : x y z
#
# Youngs Moduli (GPa) = 22.03541 25.05792 54.70119
#
# Poissons Ratio (x) = -0.35983 0.06945
# Poissons Ratio (y) = -0.31643 0.63206
# Poissons Ratio (z) = 0.02798 0.28954
#
# Static dielectric constant tensor:
#      x y z
#    x 1.682660 0.000000 -0.013620 
#    y 0.000000 1.712980 0.000000 
#    z -0.013620 0.000000 1.680190 
# 
# From -- ./inp_files/72455.got.cif
#   From: 2010.05.17/outbox.cif.g08.bks.cpg/sg14_37_cif.got.tgz:72455.got - 2010.06.03 17:49:19.
