data_PCOD9243762
_publ_section_title
;
Structure prediction by ZEFSAII (Michael W. Deem and Ramdas Pophale) SiO2 
 PCOD9243762
Probable space group: P 21/C
;
_chemical_formula_sum "Si O2"
_cell_formula_units_Z 22
_cell_length_a 7.137348
_cell_length_b 20.325052
_cell_length_c 7.059601
_cell_angle_alpha 90.000000
_cell_angle_beta 124.706634
_cell_angle_gamma 90.000000
_cell_volume 841.902470
_symmetry_space_group_name_H-M "P 21/C"
_symmetry_group_IT_number 14
_symmetry_cell_setting 'monoclinic'
loop_
_space_group_symop_operation_xyz
x,y,z
-x,1/2+y,1/2-z
-x,-y,-z
x,1/2-y,1/2+z
loop_
_atom_site_type_symbol
_atom_site_label
_atom_site_fract_x
_atom_site_fract_y
_atom_site_fract_z
Si Si1 0.015863 0.620975 0.225351
Si Si2 0.767803 0.924610 0.237435
Si Si3 0.424940 0.809723 0.103016
Si Si4 0.000000 0.500000 0.500000
Si Si5 0.568247 0.971365 0.763904
Si Si6 0.515962 0.836056 0.563465
O O1 0.775996 0.653441 0.144096
O O2 0.210180 0.675511 0.347795
O O3 0.077290 0.566350 0.414691
O O4 0.974496 0.587847 0.996633
O O5 0.629674 0.856316 0.147886
O O6 0.598558 0.978371 0.232949
O O7 0.795299 0.951443 0.037783
O O8 0.373765 0.831919 0.288294
O O9 0.492012 0.733770 0.148915
O O10 0.258485 0.503063 0.782514
O O11 0.471023 0.900973 0.658665
#
# Coordination Sequence:
#
# PCOD9243762 Si02
#       6
#     4   4   4   2   4   4
#     4  10  23  39  67  94 127 174 216 273 325 400
#     4  10  22  40  67  95 138 167 220 269 328 392
#     4  11  22  43  63  94 128 176 217 272 329 402
#     4  10  20  38  64  98 126 164 218 260 336 380
#     4  10  21  42  65 102 132 174 214 278 327 392
#     4  10  24  40  65  91 133 169 219 272 332 388
#
# _framework density 26.131292999999999
#
# number of rings (size 3 to 8) (size 9 to 14) (size 15 to 20)
#    0.000    1.818    1.818    1.091    2.545    5.818 
#    0.000    3.636    0.000    0.000    0.000    0.000 
#    0.000    0.000    0.000    0.000    0.000    0.000 
#
# Total GULP energy -122884.874106 kJ/mol
# GULP energy per Si atom -5585.676096 kJ/mol
# Density = 2.607182 g / cm^3
# Si number density = 26.131293 Si / 1000 Ang^3
#
#
#
# Elastic Constant Matrix: (Units=GPa)
#
#
# Indices 1 2 3 4 5 6 
#
# 1 82.8981 44.5235 29.7066 0.0000 10.1610 0.0000
# 2 44.5235 216.4765 71.6479 0.0000 3.9774 0.0000
# 3 29.7066 71.6479 112.8190 0.0000 -4.5308 0.0000
# 4 0.0000 0.0000 0.0000 44.4240 0.0000 0.1495
# 5 10.1610 3.9774 -4.5308 0.0000 40.0961 0.0000
# 6 0.0000 0.0000 0.0000 0.1495 0.0000 41.9084
#
#
#
# Elastic Compliance Matrix: (Units=1/GPa)
#
#
# Indices 1 2 3 4 5 6 
#
# 1 0.014591 -0.002037 -0.002701 0.000000 -0.003801 0.000000
# 2 -0.002037 0.006174 -0.003404 0.000000 -0.000481 0.000000
# 3 -0.002701 -0.003404 0.011831 0.000000 0.002359 0.000000
# 4 0.000000 0.000000 0.000000 0.022511 0.000000 -0.000080
# 5 -0.003801 -0.000481 0.002359 0.000000 0.026218 0.000000
# 6 0.000000 0.000000 0.000000 -0.000080 0.000000 0.023862
#
#
# Mechanical properties :
#
#
# Convention : Reuss Voigt Hill
#
# Bulk Modulus (GPa) = 61.30281 78.21663 69.75972
# Shear Modulus (GPa) = 39.39899 43.04005 41.21952
#
# Velocity S-wave (km/s) = 3.88716 4.06281 3.97596
# Velocity P-wave (km/s) = 6.60736 7.21150 6.91603
#
# Compressibility (1/GPa) = 0.01631247
#
# Stress axis : x y z
#
# Youngs Moduli (GPa) = 68.53602 161.97477 84.52215
#
# Poissons Ratio (x) = 0.32998 0.22828
# Poissons Ratio (y) = 0.13962 0.28769
# Poissons Ratio (z) = 0.18510 0.55131
#
# Static dielectric constant tensor:
#      x y z
#    x 2.200290 0.000000 0.008340 
#    y 0.000000 2.039960 0.000000 
#    z 0.008340 0.000000 2.404010 
# 
# From -- ./inp_files/5941.got.cif
#   From: 2010.05.17/outbox.cif.g08.bks.cpg/sg14_3_cif.got.tgz:5941.got - 2010.06.03 17:49:19.
