data_PCOD9243831
_publ_section_title
;
Structure prediction by ZEFSAII (Michael W. Deem and Ramdas Pophale) SiO2 
 PCOD9243831
Probable space group: P 21/C
;
_chemical_formula_sum "Si O2"
_cell_formula_units_Z 30
_cell_length_a 16.766952
_cell_length_b 7.451749
_cell_length_c 14.620339
_cell_angle_alpha 90.000000
_cell_angle_beta 141.532582
_cell_angle_gamma 90.000000
_cell_volume 1136.341027
_symmetry_space_group_name_H-M "P 21/C"
_symmetry_group_IT_number 14
_symmetry_cell_setting 'monoclinic'
loop_
_space_group_symop_operation_xyz
x,y,z
-x,1/2+y,1/2-z
-x,-y,-z
x,1/2-y,1/2+z
loop_
_atom_site_type_symbol
_atom_site_label
_atom_site_fract_x
_atom_site_fract_y
_atom_site_fract_z
Si Si1 0.700020 0.621870 0.043264
Si Si2 0.909378 0.331342 0.171218
Si Si3 0.327973 0.858160 0.115053
Si Si4 0.355614 0.887113 0.342207
Si Si5 0.500000 0.500000 0.500000
Si Si6 0.426217 0.456776 0.247201
Si Si7 0.889736 0.643319 0.808889
Si Si8 0.070094 0.746767 0.612246
O O1 0.819504 0.499666 0.116940
O O2 0.618079 0.512492 0.045550
O O3 0.758429 0.790315 0.147889
O O4 0.626130 0.661866 0.883236
O O5 0.975864 0.282397 0.325920
O O6 0.008297 0.371966 0.181306
O O7 0.815111 0.171683 0.051182
O O8 0.355833 0.952766 0.236804
O O9 0.373511 0.652807 0.174312
O O10 0.419679 0.941812 0.121277
O O11 0.432442 0.700732 0.422838
O O12 0.202093 0.854792 0.215252
O O13 0.404867 0.417405 0.333165
O O14 0.883743 0.453653 0.853119
O O15 0.956365 0.781447 0.938909
#
# Coordination Sequence:
#
# PCOD9243831 Si02
#       8
#     4   4   4   4   2   4   4   4
#     4  10  23  39  62  95 132 163 219 280 325 392
#     4  10  20  40  63  89 122 171 209 265 325 389
#     4  10  21  40  63  86 123 160 206 261 320 392
#     4  10  21  41  63  91 125 167 212 266 334 396
#     4  10  20  38  68  90 120 178 214 262 336 404
#     4  10  21  38  63  91 123 162 208 263 326 389
#     4  11  22  40  63  93 128 171 215 273 319 393
#     4  10  22  39  64  90 127 168 220 259 331 397
#
# _framework density 26.400524999999998
#
# number of rings (size 3 to 8) (size 9 to 14) (size 15 to 20)
#    0.000    1.867    1.333    3.200    0.000    5.867 
#    2.400    2.667    0.000    0.000    0.000    0.000 
#    0.000    0.000    0.000    0.000    0.000    0.000 
#
# Total GULP energy -167420.823805 kJ/mol
# GULP energy per Si atom -5580.694127 kJ/mol
# Density = 2.634044 g / cm^3
# Si number density = 26.400525 Si / 1000 Ang^3
#
#
#
# Elastic Constant Matrix: (Units=GPa)
#
#
# Indices 1 2 3 4 5 6 
#
# 1 77.2986 0.8072 21.2110 0.0000 -10.0618 0.0000
# 2 0.8072 54.0945 31.6311 0.0000 4.4962 0.0000
# 3 21.2110 31.6311 152.0068 0.0000 -32.5106 0.0000
# 4 0.0000 0.0000 0.0000 46.1201 0.0000 9.2342
# 5 -10.0618 4.4962 -32.5106 0.0000 30.1417 0.0000
# 6 0.0000 0.0000 0.0000 9.2342 0.0000 18.1838
#
#
#
# Elastic Compliance Matrix: (Units=1/GPa)
#
#
# Indices 1 2 3 4 5 6 
#
# 1 0.013698 0.000301 -0.001307 0.000000 0.003118 0.000000
# 2 0.000301 0.023792 -0.007449 0.000000 -0.011483 0.000000
# 3 -0.001307 -0.007449 0.010991 0.000000 0.012529 0.000000
# 4 0.000000 0.000000 0.000000 0.024137 0.000000 -0.012257
# 5 0.003118 -0.011483 0.012529 0.000000 0.049444 0.000000
# 6 0.000000 0.000000 0.000000 -0.012257 0.000000 0.061219
#
#
# Mechanical properties :
#
#
# Convention : Reuss Voigt Hill
#
# Bulk Modulus (GPa) = 31.67507 43.41094 37.54300
# Shear Modulus (GPa) = 23.72886 34.20581 28.96733
#
# Velocity S-wave (km/s) = 3.00126 3.60342 3.31603
# Velocity P-wave (km/s) = 4.90245 5.81307 5.37707
#
# Compressibility (1/GPa) = 0.03157057
#
# Stress axis : x y z
#
# Youngs Moduli (GPa) = 73.00202 42.03165 90.98562
#
# Poissons Ratio (x) = -0.01264 0.11894
# Poissons Ratio (y) = -0.02196 0.67772
# Poissons Ratio (z) = 0.09543 0.31308
#
# Static dielectric constant tensor:
#      x y z
#    x 2.069220 0.000000 0.027730 
#    y 0.000000 2.275000 0.000000 
#    z 0.027730 0.000000 2.001840 
# 
# From -- ./inp_files/48622.got.cif
#   From: 2010.05.17/outbox.cif.g08.bks.cpg/sg14_25_cif.got.tgz:48622.got - 2010.06.03 17:49:19.
