data_PCOD9243857
_publ_section_title
;
Structure prediction by ZEFSAII (Michael W. Deem and Ramdas Pophale) SiO2 
 PCOD9243857
Probable space group: P 21/C
;
_chemical_formula_sum "Si O2"
_cell_formula_units_Z 20
_cell_length_a 13.376596
_cell_length_b 5.006059
_cell_length_c 12.820748
_cell_angle_alpha 90.000000
_cell_angle_beta 108.967660
_cell_angle_gamma 90.000000
_cell_volume 811.912696
_symmetry_space_group_name_H-M "P 21/C"
_symmetry_group_IT_number 14
_symmetry_cell_setting 'monoclinic'
loop_
_space_group_symop_operation_xyz
x,y,z
-x,1/2+y,1/2-z
-x,-y,-z
x,1/2-y,1/2+z
loop_
_atom_site_type_symbol
_atom_site_label
_atom_site_fract_x
_atom_site_fract_y
_atom_site_fract_z
Si Si1 0.989600 0.796474 0.400227
Si Si2 0.145821 0.485737 0.794970
Si Si3 0.499285 0.936627 0.619855
Si Si4 0.196164 0.980877 0.931454
Si Si5 0.380683 0.058365 0.147710
O O1 0.883178 0.649801 0.325052
O O2 0.080671 0.573392 0.440783
O O3 0.000000 0.000000 0.500000
O O4 0.031879 0.968181 0.314617
O O5 0.202558 0.765491 0.839225
O O6 0.205445 0.268818 0.884428
O O7 0.604636 0.989489 0.723948
O O8 0.409033 0.133818 0.635522
O O9 0.500000 0.000000 0.500000
O O10 0.471168 0.628149 0.627657
O O11 0.278568 0.960114 0.052449
#
# Coordination Sequence:
#
# PCOD9243857 Si02
#       5
#     4   4   4   4   4
#     4  10  21  39  62  83 123 166 205 250 310 358
#     4  10  20  39  56  84 124 155 207 249 301 359
#     4  10  21  40  64  91 120 166 196 243 318 378
#     4  10  20  39  58  86 124 156 202 257 297 354
#     4  10  21  39  64  87 130 155 198 260 300 361
#
# _framework density 24.633189999999999
#
# number of rings (size 3 to 8) (size 9 to 14) (size 15 to 20)
#    1.200    0.800    2.000    1.800    0.000    0.800 
#    3.600    2.000    0.000    0.000    0.000    0.000 
#    0.000    0.000    0.000    0.000    0.000    0.000 
#
# Total GULP energy -111610.115597 kJ/mol
# GULP energy per Si atom -5580.505780 kJ/mol
# Density = 2.457712 g / cm^3
# Si number density = 24.633190 Si / 1000 Ang^3
#
#
#
# Elastic Constant Matrix: (Units=GPa)
#
#
# Indices 1 2 3 4 5 6 
#
# 1 19.4698 -5.7137 31.2375 0.0000 12.8118 0.0000
# 2 -5.7137 103.2144 11.1648 0.0000 6.2026 0.0000
# 3 31.2375 11.1648 200.2798 0.0000 34.6402 0.0000
# 4 0.0000 0.0000 0.0000 43.9695 0.0000 0.4379
# 5 12.8118 6.2026 34.6402 0.0000 50.4245 0.0000
# 6 0.0000 0.0000 0.0000 0.4379 0.0000 20.7677
#
#
#
# Elastic Compliance Matrix: (Units=1/GPa)
#
#
# Indices 1 2 3 4 5 6 
#
# 1 0.078681 0.006289 -0.010249 0.000000 -0.013724 0.000000
# 2 0.006289 0.010289 -0.001202 0.000000 -0.002038 0.000000
# 3 -0.010249 -0.001202 0.007016 0.000000 -0.002068 0.000000
# 4 0.000000 0.000000 0.000000 0.022748 0.000000 -0.000480
# 5 -0.013724 -0.002038 -0.002068 0.000000 0.024990 0.000000
# 6 0.000000 0.000000 0.000000 -0.000480 0.000000 0.048162
#
#
# Mechanical properties :
#
#
# Convention : Reuss Voigt Hill
#
# Bulk Modulus (GPa) = 11.67364 44.03790 27.85577
# Shear Modulus (GPa) = 21.66716 42.11738 31.89227
#
# Velocity S-wave (km/s) = 2.96901 4.13944 3.60208
# Velocity P-wave (km/s) = 4.06234 6.38458 5.35096
#
# Compressibility (1/GPa) = 0.08566305
#
# Stress axis : x y z
#
# Youngs Moduli (GPa) = 12.70953 97.18931 142.52721
#
# Poissons Ratio (x) = -0.61122 1.46072
# Poissons Ratio (y) = -0.07993 0.17132
# Poissons Ratio (z) = 0.13026 0.11682
#
# Static dielectric constant tensor:
#      x y z
#    x 2.049550 0.000000 -0.041500 
#    y 0.000000 1.914390 0.000000 
#    z -0.041500 0.000000 1.977520 
# 
# From -- ./inp_files/33280.got.cif
#   From: 2010.05.17/outbox.cif.g08.bks.cpg/sg14_17_cif.got.tgz:33280.got - 2010.06.03 17:49:19.
