data_PCOD9243968
_publ_section_title
;
Structure prediction by ZEFSAII (Michael W. Deem and Ramdas Pophale) SiO2 
 PCOD9243968
Probable space group: P 21/C
;
_chemical_formula_sum "Si O2"
_cell_formula_units_Z 28
_cell_length_a 7.432887
_cell_length_b 22.644888
_cell_length_c 9.875667
_cell_angle_alpha 90.000000
_cell_angle_beta 44.545458
_cell_angle_gamma 90.000000
_cell_volume 1166.020806
_symmetry_space_group_name_H-M "P 21/C"
_symmetry_group_IT_number 14
_symmetry_cell_setting 'monoclinic'
loop_
_space_group_symop_operation_xyz
x,y,z
-x,1/2+y,1/2-z
-x,-y,-z
x,1/2-y,1/2+z
loop_
_atom_site_type_symbol
_atom_site_label
_atom_site_fract_x
_atom_site_fract_y
_atom_site_fract_z
Si Si1 0.996560 0.861905 0.908938
Si Si2 0.776602 0.731984 0.064194
Si Si3 0.393919 0.515537 0.382880
Si Si4 0.455316 0.139284 0.498649
Si Si5 0.690239 0.188107 0.645990
Si Si6 0.841085 0.954769 0.224140
Si Si7 0.521179 0.601071 0.520545
O O1 0.294184 0.866115 0.725666
O O2 0.914910 0.794307 0.966668
O O3 0.914760 0.901793 0.079929
O O4 0.817761 0.884634 0.884083
O O5 0.715566 0.693518 0.963592
O O6 0.003783 0.699021 0.025828
O O7 0.491509 0.752874 0.266313
O O8 0.347422 0.498952 0.252325
O O9 0.485389 0.579093 0.386367
O O10 0.543963 0.459348 0.362326
O O11 0.106389 0.512320 0.601157
O O12 0.575547 0.150025 0.583765
O O13 0.284235 0.080759 0.588408
O O14 0.628270 0.154187 0.822407
#
# Coordination Sequence:
#
# PCOD9243968 Si02
#       7
#     4   4   4   4   4   4   4
#     4  10  22  40  55  92 123 151 211 252 287 384
#     4  11  23  41  60  92 123 166 207 249 310 368
#     4   9  17  36  68  85 116 171 193 260 314 357
#     4  12  23  40  64  85 129 162 201 262 305 364
#     4  11  23  41  62  92 124 164 207 253 309 380
#     4  10  20  39  63  89 121 159 210 248 316 363
#     4   9  18  39  62  88 126 153 211 253 305 369
#
# _framework density 24.013293999999998
#
# number of rings (size 3 to 8) (size 9 to 14) (size 15 to 20)
#    0.000    1.714    5.714    0.857    2.000    0.000 
#    7.714    7.143    0.000    0.000    0.000    0.000 
#    0.000    0.000    0.000    0.000    0.000    0.000 
#
# Total GULP energy -156141.199263 kJ/mol
# GULP energy per Si atom -5576.471402 kJ/mol
# Density = 2.395864 g / cm^3
# Si number density = 24.013294 Si / 1000 Ang^3
#
#
#
# Elastic Constant Matrix: (Units=GPa)
#
#
# Indices 1 2 3 4 5 6 
#
# 1 79.4982 18.4201 3.7517 0.0000 -13.5595 0.0000
# 2 18.4201 88.3029 31.6676 0.0000 -2.6416 0.0000
# 3 3.7517 31.6676 64.2362 0.0000 -13.2594 0.0000
# 4 0.0000 0.0000 0.0000 31.9200 0.0000 -1.0661
# 5 -13.5595 -2.6416 -13.2594 0.0000 16.5332 0.0000
# 6 0.0000 0.0000 0.0000 -1.0661 0.0000 48.2469
#
#
#
# Elastic Compliance Matrix: (Units=1/GPa)
#
#
# Indices 1 2 3 4 5 6 
#
# 1 0.016196 -0.004565 0.004669 0.000000 0.016298 0.000000
# 2 -0.004565 0.015255 -0.009016 0.000000 -0.008538 0.000000
# 3 0.004669 -0.009016 0.024247 0.000000 0.021834 0.000000
# 4 0.000000 0.000000 0.000000 0.031351 0.000000 0.000693
# 5 0.016298 -0.008538 0.021834 0.000000 0.089997 0.000000
# 6 0.000000 0.000000 0.000000 0.000693 0.000000 0.020742
#
#
# Mechanical properties :
#
#
# Convention : Reuss Voigt Hill
#
# Bulk Modulus (GPa) = 26.40434 37.74621 32.07528
# Shear Modulus (GPa) = 21.90694 31.21990 26.56342
#
# Velocity S-wave (km/s) = 3.02368 3.60961 3.32956
# Velocity P-wave (km/s) = 4.81765 5.75547 5.30732
#
# Compressibility (1/GPa) = 0.03787256
#
# Stress axis : x y z
#
# Youngs Moduli (GPa) = 61.74280 65.55215 41.24281
#
# Poissons Ratio (x) = 0.29927 -0.19256
# Poissons Ratio (y) = 0.28188 0.37185
# Poissons Ratio (z) = -0.28827 0.59103
#
# Static dielectric constant tensor:
#      x y z
#    x 1.990580 0.000000 0.033930 
#    y 0.000000 1.979630 0.000000 
#    z 0.033930 0.000000 1.938380 
# 
# From -- ./inp_files/26736.got.cif
#   From: 2010.05.17/outbox.cif.g08.bks.cpg/sg14_14_cif.got.tgz:26736.got - 2010.06.03 17:49:19.
