data_PCOD9243373
_publ_section_title
;
Structure prediction by ZEFSAII (Michael W. Deem and Ramdas Pophale) SiO2 
 PCOD9243373
Probable space group: P 21/C
;
_chemical_formula_sum "Si O2"
_cell_formula_units_Z 32
_cell_length_a 11.757360
_cell_length_b 9.038316
_cell_length_c 21.417777
_cell_angle_alpha 90.000000
_cell_angle_beta 137.580833
_cell_angle_gamma 90.000000
_cell_volume 1535.272530
_symmetry_space_group_name_H-M "P 21/C"
_symmetry_group_IT_number 14
_symmetry_cell_setting 'monoclinic'
loop_
_space_group_symop_operation_xyz
x,y,z
-x,1/2+y,1/2-z
-x,-y,-z
x,1/2-y,1/2+z
loop_
_atom_site_type_symbol
_atom_site_label
_atom_site_fract_x
_atom_site_fract_y
_atom_site_fract_z
Si Si1 0.137606 0.497228 0.961713
Si Si2 0.947502 0.270558 0.169211
Si Si3 0.234813 0.164546 0.979131
Si Si4 0.782468 0.979573 0.156709
Si Si5 0.224955 0.647778 0.599597
Si Si6 0.051714 0.424443 0.602783
Si Si7 0.761651 0.459204 0.857250
Si Si8 0.504942 0.990114 0.151320
O O1 0.164952 0.624264 0.921261
O O2 0.181206 0.334193 0.954462
O O3 0.938603 0.505556 0.898304
O O4 0.231331 0.513464 0.065974
O O5 0.059515 0.379576 0.256592
O O6 0.065236 0.174713 0.169322
O O7 0.844942 0.145863 0.165671
O O8 0.287634 0.097304 0.934042
O O9 0.388153 0.132646 0.088825
O O10 0.074538 0.061607 0.932927
O O11 0.642180 0.978187 0.153110
O O12 0.211382 0.498413 0.634796
O O13 0.252214 0.783110 0.655496
O O14 0.363280 0.635639 0.601588
O O15 0.047511 0.665474 0.491226
O O16 0.606042 0.522214 0.756709
#
# Coordination Sequence:
#
# PCOD9243373 Si02
#       8
#     4   4   4   4   4   4   4   4
#     4  11  22  41  67  97 124 170 222 265 325 376
#     4  11  22  40  69  94 123 166 226 273 307 387
#     4  10  22  42  66  90 127 176 217 269 312 384
#     4  11  24  43  67  94 127 174 220 268 319 384
#     4  10  20  37  62  92 133 167 202 263 325 397
#     4   9  19  38  64  95 121 169 217 254 319 385
#     4  11  23  38  64  96 136 163 212 275 319 395
#     4  11  25  39  63  94 136 168 211 263 342 383
#
# _framework density 20.843205000000001
#
# number of rings (size 3 to 8) (size 9 to 14) (size 15 to 20)
#    0.000    1.500    3.750    1.125    1.750    1.000 
#    0.000    0.625    2.750    0.000    0.000    0.000 
#    0.000    0.000    0.000    0.000    0.000    0.000 
#
# Total GULP energy -178601.720374 kJ/mol
# GULP energy per Si atom -5581.303762 kJ/mol
# Density = 2.079576 g / cm^3
# Si number density = 20.843205 Si / 1000 Ang^3
#
#
#
# Elastic Constant Matrix: (Units=GPa)
#
#
# Indices 1 2 3 4 5 6 
#
# 1 82.8397 32.4997 17.4214 0.0000 1.3870 0.0000
# 2 32.4997 107.8160 29.6551 0.0000 1.7940 0.0000
# 3 17.4214 29.6551 84.4219 0.0000 -7.1002 0.0000
# 4 0.0000 0.0000 0.0000 25.0972 0.0000 -15.1801
# 5 1.3870 1.7940 -7.1002 0.0000 19.8600 0.0000
# 6 0.0000 0.0000 0.0000 -15.1801 0.0000 26.5683
#
#
#
# Elastic Compliance Matrix: (Units=1/GPa)
#
#
# Indices 1 2 3 4 5 6 
#
# 1 0.013899 -0.003710 -0.001668 0.000000 -0.001232 0.000000
# 2 -0.003710 0.011359 -0.003391 0.000000 -0.001979 0.000000
# 3 -0.001668 -0.003391 0.013832 0.000000 0.005368 0.000000
# 4 0.000000 0.000000 0.000000 0.060887 0.000000 0.034789
# 5 -0.001232 -0.001979 0.005368 0.000000 0.052537 0.000000
# 6 0.000000 0.000000 0.000000 0.034789 0.000000 0.057516
#
#
# Mechanical properties :
#
#
# Convention : Reuss Voigt Hill
#
# Bulk Modulus (GPa) = 46.40222 48.24779 47.32501
# Shear Modulus (GPa) = 21.29905 27.33850 24.31877
#
# Velocity S-wave (km/s) = 3.20014 3.62557 3.41948
# Velocity P-wave (km/s) = 5.99711 6.38158 6.19233
#
# Compressibility (1/GPa) = 0.02155069
#
# Stress axis : x y z
#
# Youngs Moduli (GPa) = 71.94984 88.03540 72.29501
#
# Poissons Ratio (x) = 0.32662 0.12062
# Poissons Ratio (y) = 0.26694 0.24515
# Poissons Ratio (z) = 0.12005 0.29853
#
# Static dielectric constant tensor:
#      x y z
#    x 1.760540 0.000000 -0.033320 
#    y 0.000000 1.774930 0.000000 
#    z -0.033320 0.000000 1.748760 
# 
# From -- ./inp_files/73127.got.cif
#   From: 2010.05.17/outbox.cif.g08.bks.cpg/sg14_37_cif.got.tgz:73127.got - 2010.06.03 17:49:19.
