data_PCOD9243055
_publ_section_title
;
Structure prediction by ZEFSAII (Michael W. Deem and Ramdas Pophale) SiO2 
 PCOD9243055
Probable space group: P 21/C
;
_chemical_formula_sum "Si O2"
_cell_formula_units_Z 24
_cell_length_a 10.563480
_cell_length_b 21.580664
_cell_length_c 4.903511
_cell_angle_alpha 90.000000
_cell_angle_beta 52.916241
_cell_angle_gamma 90.000000
_cell_volume 891.760931
_symmetry_space_group_name_H-M "P 21/C"
_symmetry_group_IT_number 14
_symmetry_cell_setting 'monoclinic'
loop_
_space_group_symop_operation_xyz
x,y,z
-x,1/2+y,1/2-z
-x,-y,-z
x,1/2-y,1/2+z
loop_
_atom_site_type_symbol
_atom_site_label
_atom_site_fract_x
_atom_site_fract_y
_atom_site_fract_z
Si Si1 0.859581 0.963852 0.333854
Si Si2 0.311204 0.578560 0.843983
Si Si3 0.873489 0.378845 0.394565
Si Si4 0.568541 0.570596 0.861766
Si Si5 0.060065 0.217913 0.982707
Si Si6 0.566972 0.793223 0.579325
O O1 0.745576 0.935793 0.249921
O O2 0.960474 0.914630 0.374643
O O3 0.755242 0.010736 0.651731
O O4 0.000000 0.000000 0.000000
O O5 0.238250 0.585424 0.241573
O O6 0.499833 0.581582 0.643810
O O7 0.227645 0.625146 0.747483
O O8 0.927684 0.321308 0.504226
O O9 0.500000 0.500000 0.000000
O O10 0.516007 0.637281 0.065216
O O11 0.044340 0.281395 0.827065
O O12 0.240779 0.201340 0.676769
O O13 0.520941 0.759942 0.919685
#
# Coordination Sequence:
#
# PCOD9243055 Si02
#       6
#     4   4   4   4   4   4
#     4   9  19  39  64  93 124 168 217 273 325 387
#     4  10  23  37  61  92 130 162 207 265 333 389
#     4  11  20  40  59  88 123 162 212 263 328 388
#     4  10  21  44  68 102 139 183 231 288 347 415
#     4  10  20  36  61  91 120 164 221 276 327 391
#     4  10  22  42  66  97 131 177 230 281 342 412
#
# _framework density 26.913042000000001
#
# number of rings (size 3 to 8) (size 9 to 14) (size 15 to 20)
#    0.000    2.000    1.667    1.500    0.000    1.333 
#    0.000   29.167    0.000    0.000    0.000    0.000 
#    0.000    0.000    0.000    0.000    0.000    0.000 
#
# Total GULP energy -133875.434486 kJ/mol
# GULP energy per Si atom -5578.143104 kJ/mol
# Density = 2.685179 g / cm^3
# Si number density = 26.913042 Si / 1000 Ang^3
#
#
#
# Elastic Constant Matrix: (Units=GPa)
#
#
# Indices 1 2 3 4 5 6 
#
# 1 216.8903 65.4421 26.5678 0.0000 0.1655 0.0000
# 2 65.4421 102.8093 6.3668 0.0000 1.1512 0.0000
# 3 26.5678 6.3668 67.6066 0.0000 15.8301 0.0000
# 4 0.0000 0.0000 0.0000 10.0657 0.0000 5.5569
# 5 0.1655 1.1512 15.8301 0.0000 35.3344 0.0000
# 6 0.0000 0.0000 0.0000 5.5569 0.0000 67.3804
#
#
#
# Elastic Compliance Matrix: (Units=1/GPa)
#
#
# Indices 1 2 3 4 5 6 
#
# 1 0.006002 -0.003692 -0.002271 0.000000 0.001109 0.000000
# 2 -0.003692 0.012056 0.000451 0.000000 -0.000577 0.000000
# 3 -0.002271 0.000451 0.017475 0.000000 -0.007833 0.000000
# 4 0.000000 0.000000 0.000000 0.104086 0.000000 -0.008584
# 5 0.001109 -0.000577 -0.007833 0.000000 0.031824 0.000000
# 6 0.000000 0.000000 0.000000 -0.008584 0.000000 0.015549
#
#
# Mechanical properties :
#
#
# Convention : Reuss Voigt Hill
#
# Bulk Modulus (GPa) = 40.80171 64.89551 52.84861
# Shear Modulus (GPa) = 24.24994 41.81808 33.03401
#
# Velocity S-wave (km/s) = 3.00500 3.94613 3.50728
# Velocity P-wave (km/s) = 5.21858 6.70283 6.00673
#
# Compressibility (1/GPa) = 0.02450877
#
# Stress axis : x y z
#
# Youngs Moduli (GPa) = 166.61105 82.94911 57.22307
#
# Poissons Ratio (x) = 0.30627 0.12994
# Poissons Ratio (y) = 0.61518 -0.02580
# Poissons Ratio (z) = 0.37832 -0.03740
#
# Static dielectric constant tensor:
#      x y z
#    x 2.086750 0.000000 -0.054050 
#    y 0.000000 2.346430 0.000000 
#    z -0.054050 0.000000 2.205710 
# 
# From -- ./inp_files/2821.got.cif
#   From: 2010.05.17/outbox.cif.g08.bks.cpg/sg14_2_cif.got.tgz:2821.got - 2010.06.03 17:49:19.
