data_PCOD9243060
_publ_section_title
;
Structure prediction by ZEFSAII (Michael W. Deem and Ramdas Pophale) SiO2 
 PCOD9243060
Probable space group: P 21/C
;
_chemical_formula_sum "Si O2"
_cell_formula_units_Z 24
_cell_length_a 9.160763
_cell_length_b 8.080497
_cell_length_c 13.879199
_cell_angle_alpha 90.000000
_cell_angle_beta 100.968782
_cell_angle_gamma 90.000000
_cell_volume 1008.617802
_symmetry_space_group_name_H-M "P 21/C"
_symmetry_group_IT_number 14
_symmetry_cell_setting 'monoclinic'
loop_
_space_group_symop_operation_xyz
x,y,z
-x,1/2+y,1/2-z
-x,-y,-z
x,1/2-y,1/2+z
loop_
_atom_site_type_symbol
_atom_site_label
_atom_site_fract_x
_atom_site_fract_y
_atom_site_fract_z
Si Si1 0.929246 0.534684 0.112300
Si Si2 0.763049 0.118651 0.449885
Si Si3 0.381074 0.740612 0.732740
Si Si4 0.929210 0.201616 0.210162
Si Si5 0.840172 0.020410 0.026658
Si Si6 0.565225 0.937555 0.904640
O O1 0.975007 0.347711 0.145556
O O2 0.070429 0.604292 0.072743
O O3 0.933887 0.644150 0.208046
O O4 0.774892 0.514396 0.036598
O O5 0.641278 0.114506 0.351336
O O6 0.762630 0.303685 0.492014
O O7 0.210992 0.723170 0.749319
O O8 0.477873 0.794028 0.836765
O O9 0.431107 0.582582 0.676667
O O10 0.867764 0.041497 0.143977
O O11 0.731716 0.892403 0.960546
O O12 0.000000 0.000000 0.000000
O O13 0.500000 0.000000 0.000000
#
# Coordination Sequence:
#
# PCOD9243060 Si02
#       6
#     4   4   4   4   4   4
#     4   9  18  33  56  88 121 170 202 262 317 385
#     4   8  18  38  58  82 132 166 204 261 328 384
#     4  10  22  43  66  92 129 183 220 274 333 405
#     4  10  20  36  61  93 134 169 217 262 341 390
#     4  10  21  38  65  97 128 168 216 276 332 390
#     4  11  23  47  70  93 136 179 224 278 337 399
#
# _framework density 23.794938999999999
#
# number of rings (size 3 to 8) (size 9 to 14) (size 15 to 20)
#    0.000    2.333    1.667    0.000    7.000    0.000 
#   15.000    2.500    0.000    0.000    0.000    0.000 
#    0.000    0.000    0.000    0.000    0.000    0.000 
#
# Total GULP energy -133649.156646 kJ/mol
# GULP energy per Si atom -5568.714860 kJ/mol
# Density = 2.374078 g / cm^3
# Si number density = 23.794939 Si / 1000 Ang^3
#
#
#
# Elastic Constant Matrix: (Units=GPa)
#
#
# Indices 1 2 3 4 5 6 
#
# 1 61.7215 8.4001 11.6762 0.0000 -0.9289 0.0000
# 2 8.4001 68.5932 31.9253 0.0000 2.8777 0.0000
# 3 11.6762 31.9253 101.3988 0.0000 -8.3478 0.0000
# 4 0.0000 0.0000 0.0000 43.8422 0.0000 -4.1734
# 5 -0.9289 2.8777 -8.3478 0.0000 17.0549 0.0000
# 6 0.0000 0.0000 0.0000 -4.1734 0.0000 23.9450
#
#
#
# Elastic Compliance Matrix: (Units=1/GPa)
#
#
# Indices 1 2 3 4 5 6 
#
# 1 0.016671 -0.001386 -0.001448 0.000000 0.000433 0.000000
# 2 -0.001386 0.017755 -0.005922 0.000000 -0.005970 0.000000
# 3 -0.001448 -0.005922 0.012472 0.000000 0.007025 0.000000
# 4 0.000000 0.000000 0.000000 0.023194 0.000000 0.004043
# 5 0.000433 -0.005970 0.007025 0.000000 0.063103 0.000000
# 6 0.000000 0.000000 0.000000 0.004043 0.000000 0.042467
#
#
# Mechanical properties :
#
#
# Convention : Reuss Voigt Hill
#
# Bulk Modulus (GPa) = 34.02947 37.30185 35.66566
# Shear Modulus (GPa) = 24.63435 28.94923 26.79179
#
# Velocity S-wave (km/s) = 3.22106 3.49178 3.35915
# Velocity P-wave (km/s) = 5.30715 5.65395 5.48329
#
# Compressibility (1/GPa) = 0.02938629
#
# Stress axis : x y z
#
# Youngs Moduli (GPa) = 59.98509 56.32148 80.18187
#
# Poissons Ratio (x) = 0.07806 0.11607
# Poissons Ratio (y) = 0.08314 0.47485
# Poissons Ratio (z) = 0.08684 0.33354
#
# Static dielectric constant tensor:
#      x y z
#    x 1.911680 0.000000 0.015880 
#    y 0.000000 1.964780 0.000000 
#    z 0.015880 0.000000 2.150150 
# 
# From -- ./inp_files/39042.got.cif
#   From: 2010.05.17/outbox.cif.g08.bks.cpg/sg14_20_cif.got.tgz:39042.got - 2010.06.03 17:49:19.
