data_PCOD9243833
_publ_section_title
;
Structure prediction by ZEFSAII (Michael W. Deem and Ramdas Pophale) SiO2 
 PCOD9243833
Probable space group: P 21/C
;
_chemical_formula_sum "Si O2"
_cell_formula_units_Z 28
_cell_length_a 17.843193
_cell_length_b 10.761666
_cell_length_c 9.711960
_cell_angle_alpha 90.000000
_cell_angle_beta 148.094921
_cell_angle_gamma 90.000000
_cell_volume 985.632752
_symmetry_space_group_name_H-M "P 21/C"
_symmetry_group_IT_number 14
_symmetry_cell_setting 'monoclinic'
loop_
_space_group_symop_operation_xyz
x,y,z
-x,1/2+y,1/2-z
-x,-y,-z
x,1/2-y,1/2+z
loop_
_atom_site_type_symbol
_atom_site_label
_atom_site_fract_x
_atom_site_fract_y
_atom_site_fract_z
Si Si1 0.339680 0.607656 0.555030
Si Si2 0.682023 0.129572 0.475919
Si Si3 0.098931 0.109362 0.336183
Si Si4 0.616720 0.881498 0.079679
Si Si5 0.110809 0.046577 0.814874
Si Si6 0.641200 0.892459 0.604431
Si Si7 0.986981 0.244796 0.911059
O O1 0.351436 0.739713 0.497200
O O2 0.356776 0.493207 0.481690
O O3 0.186471 0.583899 0.382763
O O4 0.471518 0.602410 0.865048
O O5 0.677881 0.011069 0.567711
O O6 0.553026 0.119010 0.165102
O O7 0.834638 0.172563 0.660832
O O8 0.267202 0.098665 0.621090
O O9 0.065307 0.140226 0.127623
O O10 0.042577 0.222815 0.345521
O O11 0.008168 0.997873 0.262925
O O12 0.654801 0.748589 0.070170
O O13 0.046515 0.134004 0.596065
O O14 0.252770 0.103763 0.102789
#
# Coordination Sequence:
#
# PCOD9243833 Si02
#       7
#     4   4   4   4   4   4   4
#     4  10  20  38  68  95 132 185 233 282 336 418
#     4  10  21  40  64  99 138 179 225 283 349 412
#     4  12  24  42  67 100 137 180 231 288 344 409
#     4  10  21  40  64  99 138 179 225 283 349 412
#     4  12  21  38  69  96 134 177 249 278 342 410
#     4  10  21  37  62 102 139 175 225 290 351 405
#     4  12  24  42  67 100 137 180 231 288 344 409
#
# _framework density 28.408145999999999
#
# number of rings (size 3 to 8) (size 9 to 14) (size 15 to 20)
#    0.000    1.143    5.714    1.714    0.000    0.000 
#    0.000    4.286    0.000    1.714    0.000   18.000 
#    0.000    0.000    0.000    0.000    0.000    0.000 
#
# Total GULP energy -156556.375874 kJ/mol
# GULP energy per Si atom -5591.299138 kJ/mol
# Density = 2.834349 g / cm^3
# Si number density = 28.408146 Si / 1000 Ang^3
#
#
#
# Elastic Constant Matrix: (Units=GPa)
#
#
# Indices 1 2 3 4 5 6 
#
# 1 93.5839 49.1535 60.1825 0.0000 2.3016 0.0000
# 2 49.1535 131.2293 26.8205 0.0000 18.8820 0.0000
# 3 60.1825 26.8205 273.6379 0.0000 31.0166 0.0000
# 4 0.0000 0.0000 0.0000 9.8659 0.0000 18.4762
# 5 2.3016 18.8820 31.0166 0.0000 39.0667 0.0000
# 6 0.0000 0.0000 0.0000 18.4762 0.0000 51.0212
#
#
#
# Elastic Compliance Matrix: (Units=1/GPa)
#
#
# Indices 1 2 3 4 5 6 
#
# 1 0.015895 -0.005920 -0.003444 0.000000 0.004659 0.000000
# 2 -0.005920 0.010433 0.000892 0.000000 -0.005402 0.000000
# 3 -0.003444 0.000892 0.004781 0.000000 -0.004024 0.000000
# 4 0.000000 0.000000 0.000000 0.314944 0.000000 -0.114050
# 5 0.004659 -0.005402 -0.004024 0.000000 0.031128 0.000000
# 6 0.000000 0.000000 0.000000 -0.114050 0.000000 0.060900
#
#
# Mechanical properties :
#
#
# Convention : Reuss Voigt Hill
#
# Bulk Modulus (GPa) = 70.60165 85.64044 78.12105
# Shear Modulus (GPa) = 10.87556 44.14374 27.50965
#
# Velocity S-wave (km/s) = 1.95873 3.94624 3.11524
# Velocity P-wave (km/s) = 5.47924 7.13973 6.36387
#
# Compressibility (1/GPa) = 0.01416397
#
# Stress axis : x y z
#
# Youngs Moduli (GPa) = 62.91226 95.85242 209.18226
#
# Poissons Ratio (x) = 0.56747 0.72037
# Poissons Ratio (y) = 0.37246 -0.18655
# Poissons Ratio (z) = 0.21665 -0.08548
#
# Static dielectric constant tensor:
#      x y z
#    x 2.196680 0.000000 0.118430 
#    y 0.000000 2.513880 0.000000 
#    z 0.118430 0.000000 2.253440 
# 
# From -- ./inp_files/52007.got.cif
#   From: 2010.05.17/outbox.cif.g08.bks.cpg/sg14_27_cif.got.tgz:52007.got - 2010.06.03 17:49:19.
