data_PCOD9243711
_publ_section_title
;
Structure prediction by ZEFSAII (Michael W. Deem and Ramdas Pophale) SiO2 
 PCOD9243711
Probable space group: P 21/C
;
_chemical_formula_sum "Si O2"
_cell_formula_units_Z 28
_cell_length_a 15.089214
_cell_length_b 8.600322
_cell_length_c 9.424971
_cell_angle_alpha 90.000000
_cell_angle_beta 71.640457
_cell_angle_gamma 90.000000
_cell_volume 1160.840927
_symmetry_space_group_name_H-M "P 21/C"
_symmetry_group_IT_number 14
_symmetry_cell_setting 'monoclinic'
loop_
_space_group_symop_operation_xyz
x,y,z
-x,1/2+y,1/2-z
-x,-y,-z
x,1/2-y,1/2+z
loop_
_atom_site_type_symbol
_atom_site_label
_atom_site_fract_x
_atom_site_fract_y
_atom_site_fract_z
Si Si1 0.353074 0.444403 0.560035
Si Si2 0.529780 0.319056 0.334085
Si Si3 0.212365 0.689900 0.487498
Si Si4 0.944364 0.889095 0.418359
Si Si5 0.411753 0.587984 0.988784
Si Si6 0.091750 0.633347 0.292449
Si Si7 0.744420 0.539372 0.115746
O O1 0.420335 0.334265 0.431192
O O2 0.427265 0.520326 0.632654
O O3 0.294603 0.573774 0.499505
O O4 0.282325 0.387792 0.718478
O O5 0.601763 0.199384 0.371753
O O6 0.547553 0.308092 0.159566
O O7 0.149369 0.601391 0.405532
O O8 0.153799 0.761821 0.649851
O O9 0.238584 0.850648 0.389698
O O10 0.938730 0.979252 0.272841
O O11 0.837891 0.876915 0.520687
O O12 0.000000 0.000000 0.500000
O O13 0.001352 0.732664 0.376923
O O14 0.333341 0.473749 0.969636
O O15 0.500000 0.500000 0.000000
#
# Coordination Sequence:
#
# PCOD9243711 Si02
#       7
#     4   4   4   4   4   4   4
#     4  10  20  38  63  96 124 166 223 277 322 384
#     4  10  24  37  65  93 131 168 220 275 328 381
#     4  11  19  38  67  98 120 171 229 266 325 406
#     4  11  22  43  66  99 136 170 222 280 338 397
#     4  11  25  42  65  93 133 177 219 265 330 400
#     4  11  23  39  70  98 130 174 221 277 340 399
#     4  10  21  38  67  92 131 172 223 270 330 396
#
# _framework density 24.120443999999999
#
# number of rings (size 3 to 8) (size 9 to 14) (size 15 to 20)
#    0.000    1.429    5.714    0.000    6.000    2.857 
#    0.000    2.857    0.000    0.000    0.000    0.000 
#    0.000    0.000    0.000    0.000    0.000    0.000 
#
# Total GULP energy -156198.194958 kJ/mol
# GULP energy per Si atom -5578.506963 kJ/mol
# Density = 2.406555 g / cm^3
# Si number density = 24.120444 Si / 1000 Ang^3
#
#
#
# Elastic Constant Matrix: (Units=GPa)
#
#
# Indices 1 2 3 4 5 6 
#
# 1 151.4715 27.8360 58.5282 0.0000 4.8725 0.0000
# 2 27.8360 21.6634 5.2586 0.0000 -2.4148 0.0000
# 3 58.5282 5.2586 105.1807 0.0000 3.1428 0.0000
# 4 0.0000 0.0000 0.0000 22.3686 0.0000 -4.4932
# 5 4.8725 -2.4148 3.1428 0.0000 52.3333 0.0000
# 6 0.0000 0.0000 0.0000 -4.4932 0.0000 26.5512
#
#
#
# Elastic Compliance Matrix: (Units=1/GPa)
#
#
# Indices 1 2 3 4 5 6 
#
# 1 0.011212 -0.013210 -0.005539 0.000000 -0.001321 0.000000
# 2 -0.013210 0.062569 0.004107 0.000000 0.003870 0.000000
# 3 -0.005539 0.004107 0.012386 0.000000 -0.000039 0.000000
# 4 0.000000 0.000000 0.000000 0.046279 0.000000 0.007832
# 5 -0.001321 0.003870 -0.000039 0.000000 0.019412 0.000000
# 6 0.000000 0.000000 0.000000 0.007832 0.000000 0.038988
#
#
# Mechanical properties :
#
#
# Convention : Reuss Voigt Hill
#
# Bulk Modulus (GPa) = 17.58019 51.28459 34.43239
# Shear Modulus (GPa) = 20.91258 32.69682 26.80470
#
# Velocity S-wave (km/s) = 2.94769 3.68579 3.33721
# Velocity P-wave (km/s) = 4.34621 6.27865 5.39958
#
# Compressibility (1/GPa) = 0.05688221
#
# Stress axis : x y z
#
# Youngs Moduli (GPa) = 89.18828 15.98247 80.73903
#
# Poissons Ratio (x) = 0.21112 0.44723
# Poissons Ratio (y) = 1.17814 -0.33157
# Poissons Ratio (z) = 0.49403 -0.06563
#
# Static dielectric constant tensor:
#      x y z
#    x 1.966810 0.000000 -0.093330 
#    y 0.000000 1.822830 0.000000 
#    z -0.093330 0.000000 2.015110 
# 
# From -- ./inp_files/15501.got.cif
#   From: 2010.05.17/outbox.cif.g08.bks.cpg/sg14_8_cif.got.tgz:15501.got - 2010.06.03 17:49:19.
