data_PCOD9243474
_publ_section_title
;
Structure prediction by ZEFSAII (Michael W. Deem and Ramdas Pophale) SiO2 
 PCOD9243474
Probable space group: P 21/C
;
_chemical_formula_sum "Si O2"
_cell_formula_units_Z 24
_cell_length_a 10.722215
_cell_length_b 6.950428
_cell_length_c 18.814500
_cell_angle_alpha 90.000000
_cell_angle_beta 40.714021
_cell_angle_gamma 90.000000
_cell_volume 914.587806
_symmetry_space_group_name_H-M "P 21/C"
_symmetry_group_IT_number 14
_symmetry_cell_setting 'monoclinic'
loop_
_space_group_symop_operation_xyz
x,y,z
-x,1/2+y,1/2-z
-x,-y,-z
x,1/2-y,1/2+z
loop_
_atom_site_type_symbol
_atom_site_label
_atom_site_fract_x
_atom_site_fract_y
_atom_site_fract_z
Si Si1 0.615431 0.008470 0.278322
Si Si2 0.243834 0.154547 0.362440
Si Si3 0.950058 0.323884 0.888222
Si Si4 0.968432 0.893304 0.925829
Si Si5 0.366868 0.708357 0.076272
Si Si6 0.219725 0.142874 0.141094
O O1 0.413708 0.045253 0.327690
O O2 0.620281 0.089647 0.356422
O O3 0.802899 0.114602 0.164274
O O4 0.657540 0.786730 0.241017
O O5 0.069576 0.054127 0.394398
O O6 0.153367 0.292078 0.461297
O O7 0.090599 0.288012 0.761255
O O8 0.757605 0.389278 0.932773
O O9 0.914546 0.121025 0.942890
O O10 0.903003 0.822683 0.876780
O O11 0.265995 0.916080 0.132366
O O12 0.575795 0.759908 0.957521
#
# Coordination Sequence:
#
# PCOD9243474 Si02
#       6
#     4   4   4   4   4   4
#     4  11  22  41  65  93 126 174 204 265 306 380
#     4  11  25  41  68  91 132 166 214 253 323 373
#     4  10  21  37  64  93 119 164 213 254 304 383
#     4  10  21  43  65  90 126 174 202 258 322 380
#     4  10  21  37  65  90 127 165 211 256 315 369
#     4  10  20  37  67  95 120 167 215 252 316 379
#
# _framework density 26.241329
#
# number of rings (size 3 to 8) (size 9 to 14) (size 15 to 20)
#    0.000    1.667    3.333    2.000    2.333    1.333 
#    0.000    4.167   25.667    0.000    0.000    0.000 
#    0.000    0.000    0.000    0.000    0.000    0.000 
#
# Total GULP energy -134431.556382 kJ/mol
# GULP energy per Si atom -5601.314849 kJ/mol
# Density = 2.618160 g / cm^3
# Si number density = 26.241329 Si / 1000 Ang^3
#
#
#
# Elastic Constant Matrix: (Units=GPa)
#
#
# Indices 1 2 3 4 5 6 
#
# 1 248.4403 31.2688 42.9796 0.0000 -4.4829 0.0000
# 2 31.2688 87.1351 28.9812 0.0000 3.3691 0.0000
# 3 42.9796 28.9812 95.1346 0.0000 -1.5442 0.0000
# 4 0.0000 0.0000 0.0000 32.9334 0.0000 -1.9221
# 5 -4.4829 3.3691 -1.5442 0.0000 54.5543 0.0000
# 6 0.0000 0.0000 0.0000 -1.9221 0.0000 37.1191
#
#
#
# Elastic Compliance Matrix: (Units=1/GPa)
#
#
# Indices 1 2 3 4 5 6 
#
# 1 0.004456 -0.001053 -0.001686 0.000000 0.000384 0.000000
# 2 -0.001053 0.013063 -0.003520 0.000000 -0.000993 0.000000
# 3 -0.001686 -0.003520 0.012352 0.000000 0.000428 0.000000
# 4 0.000000 0.000000 0.000000 0.030456 0.000000 0.001577
# 5 0.000384 -0.000993 0.000428 0.000000 0.018435 0.000000
# 6 0.000000 0.000000 0.000000 0.001577 0.000000 0.027022
#
#
# Mechanical properties :
#
#
# Convention : Reuss Voigt Hill
#
# Bulk Modulus (GPa) = 57.62457 70.79656 64.21057
# Shear Modulus (GPa) = 40.29369 46.75339 43.52354
#
# Velocity S-wave (km/s) = 3.92280 4.22556 4.07699
# Velocity P-wave (km/s) = 6.52112 7.13055 6.83263
#
# Compressibility (1/GPa) = 0.01735371
#
# Stress axis : x y z
#
# Youngs Moduli (GPa) = 224.40187 76.54933 80.95569
#
# Poissons Ratio (x) = 0.08062 0.13651
# Poissons Ratio (y) = 0.23633 0.28496
# Poissons Ratio (z) = 0.37839 0.26945
#
# Static dielectric constant tensor:
#      x y z
#    x 2.105190 0.000000 -0.009210 
#    y 0.000000 2.097920 0.000000 
#    z -0.009210 0.000000 1.984260 
# 
# From -- ./inp_files/66769.got.cif
#   From: 2010.05.17/outbox.cif.g08.bks.cpg/sg14_34_cif.got.tgz:66769.got - 2010.06.03 17:49:19.
