data_PCOD9243792
_publ_section_title
;
Structure prediction by ZEFSAII (Michael W. Deem and Ramdas Pophale) SiO2 
 PCOD9243792
Probable space group: P 21/C
;
_chemical_formula_sum "Si O2"
_cell_formula_units_Z 24
_cell_length_a 7.720718
_cell_length_b 14.626693
_cell_length_c 14.442062
_cell_angle_alpha 90.000000
_cell_angle_beta 144.113316
_cell_angle_gamma 90.000000
_cell_volume 956.020183
_symmetry_space_group_name_H-M "P 21/C"
_symmetry_group_IT_number 14
_symmetry_cell_setting 'monoclinic'
loop_
_space_group_symop_operation_xyz
x,y,z
-x,1/2+y,1/2-z
-x,-y,-z
x,1/2-y,1/2+z
loop_
_atom_site_type_symbol
_atom_site_label
_atom_site_fract_x
_atom_site_fract_y
_atom_site_fract_z
Si Si1 0.731977 0.104774 0.546340
Si Si2 0.945146 0.566531 0.226513
Si Si3 0.224516 0.123339 0.060303
Si Si4 0.920167 0.266451 0.292821
Si Si5 0.437929 0.757328 0.673416
Si Si6 0.664277 0.436229 0.421152
O O1 0.397942 0.067192 0.390236
O O2 0.769303 0.167139 0.653696
O O3 0.760139 0.176195 0.474991
O O4 0.945455 0.018140 0.654347
O O5 0.002841 0.667312 0.212364
O O6 0.167528 0.552157 0.408225
O O7 0.275849 0.186567 0.171397
O O8 0.900397 0.082576 0.940536
O O9 0.205617 0.180844 0.958214
O O10 0.447266 0.038303 0.149644
O O11 0.718070 0.253004 0.295184
O O12 0.506897 0.660219 0.655412
#
# Coordination Sequence:
#
# PCOD9243792 Si02
#       6
#     4   4   4   4   4   4
#     4  11  23  40  66  92 121 166 215 244 300 377
#     4  11  22  40  65  90 124 166 208 248 302 376
#     4  10  21  39  61  91 122 159 211 250 300 372
#     4  11  23  40  61  94 127 160 203 263 308 352
#     4  11  23  39  64  94 123 160 209 258 308 359
#     4  10  20  38  66  86 121 166 202 251 308 361
#
# _framework density 25.104071999999999
#
# number of rings (size 3 to 8) (size 9 to 14) (size 15 to 20)
#    0.000    1.333    5.000    1.000    0.000    2.000 
#    0.000    4.167    0.000    0.000    0.000    0.000 
#    0.000    0.000    0.000    0.000    0.000    0.000 
#
# Total GULP energy -134127.355475 kJ/mol
# GULP energy per Si atom -5588.639811 kJ/mol
# Density = 2.504693 g / cm^3
# Si number density = 25.104072 Si / 1000 Ang^3
#
#
#
# Elastic Constant Matrix: (Units=GPa)
#
#
# Indices 1 2 3 4 5 6 
#
# 1 30.9884 -4.4484 4.4688 0.0000 -1.1433 0.0000
# 2 -4.4484 172.9605 44.2649 0.0000 -6.8347 0.0000
# 3 4.4688 44.2649 98.1531 0.0000 -29.9545 0.0000
# 4 0.0000 0.0000 0.0000 50.4915 0.0000 -11.5945
# 5 -1.1433 -6.8347 -29.9545 0.0000 27.0863 0.0000
# 6 0.0000 0.0000 0.0000 -11.5945 0.0000 37.0766
#
#
#
# Elastic Compliance Matrix: (Units=1/GPa)
#
#
# Indices 1 2 3 4 5 6 
#
# 1 0.032789 0.001426 -0.002421 0.000000 -0.000933 0.000000
# 2 0.001426 0.006706 -0.003856 0.000000 -0.002512 0.000000
# 3 -0.002421 -0.003856 0.017674 0.000000 0.018471 0.000000
# 4 0.000000 0.000000 0.000000 0.021338 0.000000 0.006673
# 5 -0.000933 -0.002512 0.018471 0.000000 0.056672 0.000000
# 6 0.000000 0.000000 0.000000 0.006673 0.000000 0.029058
#
#
# Mechanical properties :
#
#
# Convention : Reuss Voigt Hill
#
# Bulk Modulus (GPa) = 21.06657 43.40806 32.23732
# Shear Modulus (GPa) = 26.34895 40.11865 33.23380
#
# Velocity S-wave (km/s) = 3.24325 4.00195 3.64241
# Velocity P-wave (km/s) = 4.73654 6.21956 5.52801
#
# Compressibility (1/GPa) = 0.04746857
#
# Stress axis : x y z
#
# Youngs Moduli (GPa) = 30.49757 149.12383 56.58010
#
# Poissons Ratio (x) = -0.21265 0.13697
# Poissons Ratio (y) = -0.04349 0.21815
# Poissons Ratio (z) = 0.07383 0.57496
#
# Static dielectric constant tensor:
#      x y z
#    x 2.058840 0.000000 0.121060 
#    y 0.000000 2.204090 0.000000 
#    z 0.121060 0.000000 2.080110 
# 
# From -- ./inp_files/41340.got.cif
#   From: 2010.05.17/outbox.cif.g08.bks.cpg/sg14_21_cif.got.tgz:41340.got - 2010.06.03 17:49:19.
