data_PCOD9243755
_publ_section_title
;
Structure prediction by ZEFSAII (Michael W. Deem and Ramdas Pophale) SiO2 
 PCOD9243755
Probable space group: P 21/C
;
_chemical_formula_sum "Si O2"
_cell_formula_units_Z 32
_cell_length_a 27.879055
_cell_length_b 8.604901
_cell_length_c 19.369100
_cell_angle_alpha 90.000000
_cell_angle_beta 159.106960
_cell_angle_gamma 90.000000
_cell_volume 1657.084142
_symmetry_space_group_name_H-M "P 21/C"
_symmetry_group_IT_number 14
_symmetry_cell_setting 'monoclinic'
loop_
_space_group_symop_operation_xyz
x,y,z
-x,1/2+y,1/2-z
-x,-y,-z
x,1/2-y,1/2+z
loop_
_atom_site_type_symbol
_atom_site_label
_atom_site_fract_x
_atom_site_fract_y
_atom_site_fract_z
Si Si1 0.253905 0.640042 0.309290
Si Si2 0.220746 0.807972 0.063521
Si Si3 0.001335 0.149057 0.050169
Si Si4 0.121942 0.322918 0.093224
Si Si5 0.460435 0.669890 0.474542
Si Si6 0.074252 0.238925 0.786334
Si Si7 0.742011 0.834169 0.845580
Si Si8 0.168615 0.589586 0.347684
O O1 0.190286 0.489942 0.186512
O O2 0.396279 0.667199 0.464891
O O3 0.250748 0.603383 0.386759
O O4 0.148375 0.778043 0.150730
O O5 0.341740 0.725526 0.264726
O O6 0.224407 0.986923 0.094363
O O7 0.236111 0.820414 0.001805
O O8 0.077634 0.728411 0.888642
O O9 0.095509 0.269894 0.135556
O O10 0.059048 0.134307 0.204795
O O11 0.000000 0.000000 0.000000
O O12 0.209072 0.207542 0.165040
O O13 0.974995 0.334332 0.862537
O O14 0.500000 0.500000 0.500000
O O15 0.587273 0.785090 0.643658
O O16 0.129415 0.082326 0.823296
O O17 0.172623 0.265377 0.983209
#
# Coordination Sequence:
#
# PCOD9243755 Si02
#       8
#     4   4   4   4   4   4   4   4
#     4  11  21  41  64  87 130 170 217 250 318 398
#     4  11  23  41  64  94 133 160 217 273 323 381
#     4  11  21  35  61  97 127 163 203 269 325 368
#     4  11  18  37  63  93 124 160 210 255 321 382
#     4  12  25  44  65  88 128 180 217 259 321 399
#     4  11  20  39  66  96 129 158 211 274 319 377
#     4  11  25  39  65  98 128 167 215 269 327 384
#     4  10  20  38  64  95 123 166 207 266 317 374
#
# _framework density 19.311029000000001
#
# number of rings (size 3 to 8) (size 9 to 14) (size 15 to 20)
#    0.000    1.000    6.250    1.875    0.000    0.000 
#    4.500    3.750    0.000    0.000    0.000    0.000 
#    0.000    0.000    0.000    0.000    0.000    0.000 
#
# Total GULP energy -178671.147327 kJ/mol
# GULP energy per Si atom -5583.473354 kJ/mol
# Density = 1.926708 g / cm^3
# Si number density = 19.311029 Si / 1000 Ang^3
#
#
#
# Elastic Constant Matrix: (Units=GPa)
#
#
# Indices 1 2 3 4 5 6 
#
# 1 126.0437 -0.3909 38.1704 0.0000 5.1228 0.0000
# 2 -0.3909 27.1528 -6.9204 0.0000 -2.8167 0.0000
# 3 38.1704 -6.9204 82.6780 0.0000 -1.2314 0.0000
# 4 0.0000 0.0000 0.0000 16.5473 0.0000 -5.8208
# 5 5.1228 -2.8167 -1.2314 0.0000 38.6741 0.0000
# 6 0.0000 0.0000 0.0000 -5.8208 0.0000 28.5932
#
#
#
# Elastic Compliance Matrix: (Units=1/GPa)
#
#
# Indices 1 2 3 4 5 6 
#
# 1 0.009330 -0.001145 -0.004425 0.000000 -0.001460 0.000000
# 2 -0.001145 0.038087 0.003762 0.000000 0.003045 0.000000
# 3 -0.004425 0.003762 0.014472 0.000000 0.001321 0.000000
# 4 0.000000 0.000000 0.000000 0.065094 0.000000 0.013251
# 5 -0.001460 0.003045 0.001321 0.000000 0.026314 0.000000
# 6 0.000000 0.000000 0.000000 0.013251 0.000000 0.037671
#
#
# Mechanical properties :
#
#
# Convention : Reuss Voigt Hill
#
# Bulk Modulus (GPa) = 17.16051 33.06586 25.11318
# Shear Modulus (GPa) = 23.36359 30.43062 26.89710
#
# Velocity S-wave (km/s) = 3.48207 3.97396 3.73612
# Velocity P-wave (km/s) = 5.00721 6.18194 5.62532
#
# Compressibility (1/GPa) = 0.05827334
#
# Stress axis : x y z
#
# Youngs Moduli (GPa) = 107.18662 26.25577 69.09663
#
# Poissons Ratio (x) = 0.03006 0.30574
# Poissons Ratio (y) = 0.12272 -0.25994
# Poissons Ratio (z) = 0.47428 -0.09877
#
# Static dielectric constant tensor:
#      x y z
#    x 1.712170 0.000000 -0.006510 
#    y 0.000000 1.726320 0.000000 
#    z -0.006510 0.000000 1.639820 
# 
# From -- ./inp_files/70722.got.cif
#   From: 2010.05.17/outbox.cif.g08.bks.cpg/sg14_36_cif.got.tgz:70722.got - 2010.06.03 17:49:19.
