data_PCOD9243358
_publ_section_title
;
Structure prediction by ZEFSAII (Michael W. Deem and Ramdas Pophale) SiO2 
 PCOD9243358
Probable space group: P 21/C
;
_chemical_formula_sum "Si O2"
_cell_formula_units_Z 24
_cell_length_a 14.989527
_cell_length_b 13.555864
_cell_length_c 8.547424
_cell_angle_alpha 90.000000
_cell_angle_beta 44.640778
_cell_angle_gamma 90.000000
_cell_volume 1220.380848
_symmetry_space_group_name_H-M "P 21/C"
_symmetry_group_IT_number 14
_symmetry_cell_setting 'monoclinic'
loop_
_space_group_symop_operation_xyz
x,y,z
-x,1/2+y,1/2-z
-x,-y,-z
x,1/2-y,1/2+z
loop_
_atom_site_type_symbol
_atom_site_label
_atom_site_fract_x
_atom_site_fract_y
_atom_site_fract_z
Si Si1 0.977929 0.493248 0.339545
Si Si2 0.662295 0.772234 0.013450
Si Si3 0.218565 0.847268 0.838541
Si Si4 0.155071 0.331934 0.969135
Si Si5 0.068543 0.807039 0.724232
Si Si6 0.487980 0.379057 0.025035
O O1 0.991141 0.601066 0.253439
O O2 0.000000 0.500000 0.500000
O O3 0.841533 0.441647 0.497734
O O4 0.085302 0.426999 0.125332
O O5 0.769358 0.720838 0.985375
O O6 0.573453 0.838659 0.236312
O O7 0.738802 0.840464 0.795893
O O8 0.590008 0.682621 0.011202
O O9 0.170590 0.847761 0.720331
O O10 0.367455 0.842785 0.665506
O O11 0.146058 0.755380 0.004127
O O12 0.038967 0.260985 0.062554
O O13 0.500000 0.500000 0.000000
#
# Coordination Sequence:
#
# PCOD9243358 Si02
#       6
#     4   4   4   4   4   4
#     4   9  19  33  61  88 116 158 193 252 327 373
#     4  10  23  42  63  90 131 165 219 267 307 396
#     4  10  21  38  58  88 121 155 209 253 314 380
#     4  10  20  39  62  95 120 163 210 264 328 382
#     4  10  20  37  62  87 122 154 196 272 320 372
#     4  11  25  43  66  93 128 182 216 261 321 379
#
# _framework density 19.665991000000002
#
# number of rings (size 3 to 8) (size 9 to 14) (size 15 to 20)
#    0.000    2.000    0.000    4.000    9.333    0.000 
#    6.000    4.167    0.000    0.000    0.000    0.000 
#    0.000    0.000    0.000    0.000    0.000    0.000 
#
# Total GULP energy -133797.476928 kJ/mol
# GULP energy per Si atom -5574.894872 kJ/mol
# Density = 1.962123 g / cm^3
# Si number density = 19.665991 Si / 1000 Ang^3
#
#
#
# Elastic Constant Matrix: (Units=GPa)
#
#
# Indices 1 2 3 4 5 6 
#
# 1 68.6262 -0.1754 28.5431 0.0000 -15.8242 0.0000
# 2 -0.1754 101.4316 54.0565 0.0000 -0.9966 0.0000
# 3 28.5431 54.0565 149.7446 0.0000 -6.1932 0.0000
# 4 0.0000 0.0000 0.0000 5.8196 0.0000 4.3652
# 5 -15.8242 -0.9966 -6.1932 0.0000 26.2469 0.0000
# 6 0.0000 0.0000 0.0000 4.3652 0.0000 19.7431
#
#
#
# Elastic Compliance Matrix: (Units=1/GPa)
#
#
# Indices 1 2 3 4 5 6 
#
# 1 0.018599 0.002222 -0.003918 0.000000 0.010373 0.000000
# 2 0.002222 0.012482 -0.004902 0.000000 0.000657 0.000000
# 3 -0.003918 -0.004902 0.009179 0.000000 -0.000383 0.000000
# 4 0.000000 0.000000 0.000000 0.205997 0.000000 -0.045546
# 5 0.010373 0.000657 -0.000383 0.000000 0.044288 0.000000
# 6 0.000000 0.000000 0.000000 -0.045546 0.000000 0.060721
#
#
# Mechanical properties :
#
#
# Convention : Reuss Voigt Hill
#
# Bulk Modulus (GPa) = 36.95098 53.85009 45.40054
# Shear Modulus (GPa) = 13.38749 26.18714 19.78732
#
# Velocity S-wave (km/s) = 2.61194 3.65306 3.17546
# Velocity P-wave (km/s) = 5.28454 6.72569 6.04819
#
# Compressibility (1/GPa) = 0.02706288
#
# Stress axis : x y z
#
# Youngs Moduli (GPa) = 53.76634 80.11706 108.94712
#
# Poissons Ratio (x) = -0.17805 0.42690
# Poissons Ratio (y) = -0.11949 0.53408
# Poissons Ratio (z) = 0.21068 0.39275
#
# Static dielectric constant tensor:
#      x y z
#    x 1.692250 0.000000 0.033250 
#    y 0.000000 1.748650 0.000000 
#    z 0.033250 0.000000 1.759670 
# 
# From -- ./inp_files/16129.got.cif
#   From: 2010.05.17/outbox.cif.g08.bks.cpg/sg14_9_cif.got.tgz:16129.got - 2010.06.03 17:49:19.
