data_PCOD9243704
_publ_section_title
;
Structure prediction by ZEFSAII (Michael W. Deem and Ramdas Pophale) SiO2 
 PCOD9243704
Probable space group: P 21/C
;
_chemical_formula_sum "Si O2"
_cell_formula_units_Z 24
_cell_length_a 19.673618
_cell_length_b 7.725994
_cell_length_c 23.011359
_cell_angle_alpha 90.000000
_cell_angle_beta 18.740446
_cell_angle_gamma 90.000000
_cell_volume 1123.742149
_symmetry_space_group_name_H-M "P 21/C"
_symmetry_group_IT_number 14
_symmetry_cell_setting 'monoclinic'
loop_
_space_group_symop_operation_xyz
x,y,z
-x,1/2+y,1/2-z
-x,-y,-z
x,1/2-y,1/2+z
loop_
_atom_site_type_symbol
_atom_site_label
_atom_site_fract_x
_atom_site_fract_y
_atom_site_fract_z
Si Si1 0.805519 0.944798 0.330390
Si Si2 0.961790 0.709531 0.584199
Si Si3 0.927500 0.755898 0.344525
Si Si4 0.448361 0.290381 0.270754
Si Si5 0.649618 0.517267 0.765262
Si Si6 0.178312 0.964669 0.482924
O O1 0.887719 0.805093 0.310582
O O2 0.899536 0.903536 0.191471
O O3 0.552020 0.950526 0.536416
O O4 0.885003 0.128463 0.290884
O O5 0.168708 0.626545 0.387200
O O6 0.026876 0.896973 0.555247
O O7 0.765057 0.682158 0.700786
O O8 0.714982 0.673173 0.544482
O O9 0.947677 0.934298 0.364787
O O10 0.358385 0.106868 0.320889
O O11 0.685151 0.304227 0.102812
O O12 0.572418 0.929475 0.263630
#
# Coordination Sequence:
#
# PCOD9243704 Si02
#       6
#     4   4   4   4   4   4
#     4  12  22  41  61  97 125 167 213 263 312 376
#     4  11  23  41  66  91 131 167 213 255 312 390
#     4  10  23  35  65  89 126 161 208 269 314 360
#     4  10  20  39  60  92 122 155 215 256 311 374
#     4  11  23  42  64  92 128 173 206 256 321 372
#     4  10  20  38  63  93 120 166 209 264 316 362
#
# _framework density 21.357213000000002
#
# number of rings (size 3 to 8) (size 9 to 14) (size 15 to 20)
#    1.000    0.333    3.333    3.500    0.000    0.667 
#    0.000    2.500    0.000    0.000    0.000    0.000 
#    0.000    0.000    0.000    0.000    0.000    0.000 
#
# Total GULP energy -133956.634203 kJ/mol
# GULP energy per Si atom -5581.526425 kJ/mol
# Density = 2.130860 g / cm^3
# Si number density = 21.357213 Si / 1000 Ang^3
#
#
#
# Elastic Constant Matrix: (Units=GPa)
#
#
# Indices 1 2 3 4 5 6 
#
# 1 51.6443 -6.2009 9.8953 0.0000 -0.0932 0.0000
# 2 -6.2009 51.4100 17.8627 0.0000 -0.5668 0.0000
# 3 9.8953 17.8627 116.9888 0.0000 -4.5971 0.0000
# 4 0.0000 0.0000 0.0000 21.7130 0.0000 -0.9730
# 5 -0.0932 -0.5668 -4.5971 0.0000 14.6182 0.0000
# 6 0.0000 0.0000 0.0000 -0.9730 0.0000 30.0970
#
#
#
# Elastic Compliance Matrix: (Units=1/GPa)
#
#
# Indices 1 2 3 4 5 6 
#
# 1 0.020170 0.003196 -0.002211 0.000000 -0.000443 0.000000
# 2 0.003196 0.021048 -0.003494 0.000000 -0.000262 0.000000
# 3 -0.002211 -0.003494 0.009378 0.000000 0.002800 0.000000
# 4 0.000000 0.000000 0.000000 0.046122 0.000000 0.001491
# 5 -0.000443 -0.000262 0.002800 0.000000 0.069275 0.000000
# 6 0.000000 0.000000 0.000000 0.001491 0.000000 0.033274
#
#
# Mechanical properties :
#
#
# Convention : Reuss Voigt Hill
#
# Bulk Modulus (GPa) = 21.94071 29.23972 25.59022
# Shear Modulus (GPa) = 22.78114 26.51805 24.64959
#
# Velocity S-wave (km/s) = 3.26954 3.52752 3.40098
# Velocity P-wave (km/s) = 4.95466 5.50561 5.23738
#
# Compressibility (1/GPa) = 0.04557738
#
# Stress axis : x y z
#
# Youngs Moduli (GPa) = 49.57878 47.50983 106.62734
#
# Poissons Ratio (x) = -0.15186 0.23581
# Poissons Ratio (y) = -0.15847 0.37261
# Poissons Ratio (z) = 0.10964 0.16602
#
# Static dielectric constant tensor:
#      x y z
#    x 1.757970 0.000000 0.016520 
#    y 0.000000 1.819520 0.000000 
#    z 0.016520 0.000000 1.768950 
# 
# From -- ./inp_files/74572.got.cif
#   From: 2010.05.17/outbox.cif.g08.bks.cpg/sg14_38_cif.got.tgz:74572.got - 2010.06.03 17:49:19.
