data_PCOD9243514
_publ_section_title
;
Structure prediction by ZEFSAII (Michael W. Deem and Ramdas Pophale) SiO2 
 PCOD9243514
Probable space group: P 21/C
;
_chemical_formula_sum "Si O2"
_cell_formula_units_Z 28
_cell_length_a 23.074194
_cell_length_b 7.319296
_cell_length_c 14.397510
_cell_angle_alpha 90.000000
_cell_angle_beta 26.391675
_cell_angle_gamma 90.000000
_cell_volume 1080.836290
_symmetry_space_group_name_H-M "P 21/C"
_symmetry_group_IT_number 14
_symmetry_cell_setting 'monoclinic'
loop_
_space_group_symop_operation_xyz
x,y,z
-x,1/2+y,1/2-z
-x,-y,-z
x,1/2-y,1/2+z
loop_
_atom_site_type_symbol
_atom_site_label
_atom_site_fract_x
_atom_site_fract_y
_atom_site_fract_z
Si Si1 0.217041 0.715373 0.160892
Si Si2 0.843029 0.432503 0.946375
Si Si3 0.073689 0.637895 0.537899
Si Si4 0.845063 0.600546 0.295649
Si Si5 0.645429 0.788525 0.449683
Si Si6 0.478810 0.595630 0.358173
Si Si7 0.323339 0.285133 0.295515
O O1 0.226445 0.611779 0.050809
O O2 0.151519 0.590408 0.333309
O O3 0.125298 0.892322 0.272207
O O4 0.347465 0.804906 0.013285
O O5 0.839397 0.260173 0.018708
O O6 0.993839 0.479747 0.704277
O O7 0.772965 0.612297 0.085920
O O8 0.961922 0.777841 0.664290
O O9 0.773884 0.702472 0.312932
O O10 0.742274 0.596282 0.529069
O O11 0.555802 0.608714 0.562933
O O12 0.572989 0.904314 0.632756
O O13 0.658208 0.877427 0.330331
O O14 0.547831 0.703720 0.342012
#
# Coordination Sequence:
#
# PCOD9243514 Si02
#       7
#     4   4   4   4   4   4   4
#     4  11  22  39  60  88 123 159 200 256 308 362
#     4  11  23  40  63  93 121 158 211 251 305 379
#     4  11  23  40  61  88 123 162 199 254 309 363
#     4   9  21  38  59  87 117 158 208 245 301 372
#     4  10  20  38  59  83 120 160 200 256 307 355
#     4  10  21  37  60  89 118 156 209 251 302 372
#     4  10  21  40  61  86 121 163 202 255 308 357
#
# _framework density 25.905864000000001
#
# number of rings (size 3 to 8) (size 9 to 14) (size 15 to 20)
#    0.000    1.714    0.000    4.714    0.000    3.429 
#    0.000   19.286    0.000    0.000    0.000    0.000 
#    0.000    0.000    0.000    0.000    0.000    0.000 
#
# Total GULP energy -157090.995382 kJ/mol
# GULP energy per Si atom -5610.392692 kJ/mol
# Density = 2.584690 g / cm^3
# Si number density = 25.905864 Si / 1000 Ang^3
#
#
#
# Elastic Constant Matrix: (Units=GPa)
#
#
# Indices 1 2 3 4 5 6 
#
# 1 131.6401 7.9800 43.2246 0.0000 25.7321 0.0000
# 2 7.9800 75.6383 5.9214 0.0000 8.0635 0.0000
# 3 43.2246 5.9214 57.6308 0.0000 30.0929 0.0000
# 4 0.0000 0.0000 0.0000 22.6135 0.0000 -0.3263
# 5 25.7321 8.0635 30.0929 0.0000 40.9094 0.0000
# 6 0.0000 0.0000 0.0000 -0.3263 0.0000 39.5634
#
#
#
# Elastic Compliance Matrix: (Units=1/GPa)
#
#
# Indices 1 2 3 4 5 6 
#
# 1 0.010131 -0.000399 -0.006935 0.000000 -0.001193 0.000000
# 2 -0.000399 0.013520 0.000277 0.000000 -0.002618 0.000000
# 3 -0.006935 0.000277 0.032920 0.000000 -0.019909 0.000000
# 4 0.000000 0.000000 0.000000 0.044227 0.000000 0.000365
# 5 -0.001193 -0.002618 -0.019909 0.000000 0.040355 0.000000
# 6 0.000000 0.000000 0.000000 0.000365 0.000000 0.025279
#
#
# Mechanical properties :
#
#
# Convention : Reuss Voigt Hill
#
# Bulk Modulus (GPa) = 23.55263 42.12901 32.84082
# Shear Modulus (GPa) = 25.68077 34.46948 30.07513
#
# Velocity S-wave (km/s) = 3.15193 3.65165 3.41095
# Velocity P-wave (km/s) = 4.72838 5.83756 5.31200
#
# Compressibility (1/GPa) = 0.04245810
#
# Stress axis : x y z
#
# Youngs Moduli (GPa) = 98.70905 73.96295 30.37636
#
# Poissons Ratio (x) = 0.02950 0.21065
# Poissons Ratio (y) = 0.03937 -0.00841
# Poissons Ratio (z) = 0.68452 -0.02048
#
# Static dielectric constant tensor:
#      x y z
#    x 1.956930 0.000000 -0.045570 
#    y 0.000000 1.990770 0.000000 
#    z -0.045570 0.000000 2.082520 
# 
# From -- ./inp_files/34937.got.cif
#   From: 2010.05.17/outbox.cif.g08.bks.cpg/sg14_18_cif.got.tgz:34937.got - 2010.06.03 17:49:19.
