data_PCOD9243924
_publ_section_title
;
Structure prediction by ZEFSAII (Michael W. Deem and Ramdas Pophale) SiO2 
 PCOD9243924
Probable space group: P 21/C
;
_chemical_formula_sum "Si O2"
_cell_formula_units_Z 28
_cell_length_a 8.154379
_cell_length_b 33.273719
_cell_length_c 5.578185
_cell_angle_alpha 90.000000
_cell_angle_beta 60.011876
_cell_angle_gamma 90.000000
_cell_volume 1310.894503
_symmetry_space_group_name_H-M "P 21/C"
_symmetry_group_IT_number 14
_symmetry_cell_setting 'monoclinic'
loop_
_space_group_symop_operation_xyz
x,y,z
-x,1/2+y,1/2-z
-x,-y,-z
x,1/2-y,1/2+z
loop_
_atom_site_type_symbol
_atom_site_label
_atom_site_fract_x
_atom_site_fract_y
_atom_site_fract_z
Si Si1 0.585409 0.580198 0.322725
Si Si2 0.839260 0.444724 0.265614
Si Si3 0.153157 0.397927 0.256445
Si Si4 0.902839 0.968456 0.824582
Si Si5 0.288613 0.160301 0.999935
Si Si6 0.405651 0.726328 0.803487
Si Si7 0.043404 0.273784 0.892572
O O1 0.373169 0.567785 0.530229
O O2 0.727990 0.543434 0.274605
O O3 0.635928 0.619129 0.443175
O O4 0.644682 0.594594 0.015289
O O5 0.879381 0.484665 0.396351
O O6 0.978978 0.406830 0.206193
O O7 0.901388 0.460526 0.958708
O O8 0.123330 0.434448 0.460557
O O9 0.154772 0.355064 0.382252
O O10 0.462306 0.187411 0.788647
O O11 0.167082 0.186237 0.274744
O O12 0.444973 0.749322 0.521764
O O13 0.181131 0.717446 0.957097
O O14 0.084694 0.248380 0.615916
#
# Coordination Sequence:
#
# PCOD9243924 Si02
#       7
#     4   4   4   4   4   4   4
#     4  10  23  37  57  92 121 161 205 254 320 376
#     4  10  20  39  62  84 121 162 210 260 309 377
#     4  10  23  37  56  92 121 161 207 249 320 375
#     4   9  20  39  60  85 119 162 210 262 309 371
#     4  11  24  39  62  86 129 159 196 258 317 378
#     4  10  23  42  66  97 122 163 217 258 314 381
#     4  10  23  43  69  97 124 168 216 262 315 382
#
# _framework density 21.359462000000001
#
# number of rings (size 3 to 8) (size 9 to 14) (size 15 to 20)
#    0.000    2.000    0.000    1.714    4.000    7.429 
#    2.571    0.000    0.000    0.000    0.000    0.000 
#    0.000    0.000    0.000    0.000    0.000    0.000 
#
# Total GULP energy -156229.165026 kJ/mol
# GULP energy per Si atom -5579.613037 kJ/mol
# Density = 2.131085 g / cm^3
# Si number density = 21.359462 Si / 1000 Ang^3
#
#
#
# Elastic Constant Matrix: (Units=GPa)
#
#
# Indices 1 2 3 4 5 6 
#
# 1 38.6541 22.7689 35.5228 0.0000 -17.9018 0.0000
# 2 22.7689 81.9028 34.6887 0.0000 -17.2197 0.0000
# 3 35.5228 34.6887 113.4260 0.0000 -19.2278 0.0000
# 4 0.0000 0.0000 0.0000 21.6355 0.0000 -2.5605
# 5 -17.9018 -17.2197 -19.2278 0.0000 34.0528 0.0000
# 6 0.0000 0.0000 0.0000 -2.5605 0.0000 27.9410
#
#
#
# Elastic Compliance Matrix: (Units=1/GPa)
#
#
# Indices 1 2 3 4 5 6 
#
# 1 0.045247 -0.005077 -0.009976 0.000000 0.015587 0.000000
# 2 -0.005077 0.015469 -0.002507 0.000000 0.003738 0.000000
# 3 -0.009976 -0.002507 0.012832 0.000000 0.000733 0.000000
# 4 0.000000 0.000000 0.000000 0.046727 0.000000 0.004282
# 5 0.015587 0.003738 0.000733 0.000000 0.039864 0.000000
# 6 0.000000 0.000000 0.000000 0.004282 0.000000 0.036182
#
#
# Mechanical properties :
#
#
# Convention : Reuss Voigt Hill
#
# Bulk Modulus (GPa) = 26.02249 46.66038 36.34144
# Shear Modulus (GPa) = 20.47092 26.12603 23.29848
#
# Velocity S-wave (km/s) = 3.09916 3.50116 3.30628
# Velocity P-wave (km/s) = 5.00160 6.18360 5.62374
#
# Compressibility (1/GPa) = 0.03842830
#
# Stress axis : x y z
#
# Youngs Moduli (GPa) = 22.10093 64.64714 77.93277
#
# Poissons Ratio (x) = 0.32818 0.77743
# Poissons Ratio (y) = 0.11220 0.19540
# Poissons Ratio (z) = 0.22047 0.16209
#
# Static dielectric constant tensor:
#      x y z
#    x 1.861010 0.000000 0.116760 
#    y 0.000000 1.757300 0.000000 
#    z 0.116760 0.000000 1.844440 
# 
# From -- ./inp_files/2069.got.cif
#   From: 2010.05.17/outbox.cif.g08.bks.cpg/sg14_2_cif.got.tgz:2069.got - 2010.06.03 17:49:19.
