data_PCOD9243343
_publ_section_title
;
Structure prediction by ZEFSAII (Michael W. Deem and Ramdas Pophale) SiO2 
 PCOD9243343
Probable space group: P 21/C
;
_chemical_formula_sum "Si O2"
_cell_formula_units_Z 28
_cell_length_a 8.732504
_cell_length_b 9.226385
_cell_length_c 20.741019
_cell_angle_alpha 90.000000
_cell_angle_beta 139.890153
_cell_angle_gamma 90.000000
_cell_volume 1076.609749
_symmetry_space_group_name_H-M "P 21/C"
_symmetry_group_IT_number 14
_symmetry_cell_setting 'monoclinic'
loop_
_space_group_symop_operation_xyz
x,y,z
-x,1/2+y,1/2-z
-x,-y,-z
x,1/2-y,1/2+z
loop_
_atom_site_type_symbol
_atom_site_label
_atom_site_fract_x
_atom_site_fract_y
_atom_site_fract_z
Si Si1 0.916432 0.413696 0.858724
Si Si2 0.683104 0.599377 0.925412
Si Si3 0.437654 0.570113 0.720682
Si Si4 0.028502 0.827108 0.307158
Si Si5 0.492955 0.689622 0.475229
Si Si6 0.014847 0.410996 0.348212
Si Si7 0.501881 0.773765 0.627616
O O1 0.637809 0.452133 0.766509
O O2 0.967035 0.263277 0.840347
O O3 0.050095 0.551204 0.869670
O O4 0.038472 0.393722 0.967779
O O5 0.586425 0.654103 0.825385
O O6 0.583815 0.436846 0.894099
O O7 0.574183 0.687880 0.950002
O O8 0.188134 0.521494 0.671862
O O9 0.377656 0.666637 0.638972
O O10 0.215274 0.695820 0.368605
O O11 0.029999 0.921363 0.242224
O O12 0.775036 0.753483 0.232992
O O13 0.491264 0.733214 0.549327
O O14 0.708413 0.572089 0.540846
#
# Coordination Sequence:
#
# PCOD9243343 Si02
#       7
#     4   4   4   4   4   4   4
#     4  10  22  38  63  95 120 158 216 259 296 365
#     4  11  20  37  68  93 114 159 214 264 292 362
#     4  11  22  37  55  93 129 157 191 259 317 360
#     4  10  20  37  61  95 124 157 203 263 308 356
#     4  10  20  38  62  91 118 154 211 254 300 359
#     4  10  22  36  61  93 126 160 199 264 312 357
#     4  10  22  36  61  93 125 157 199 261 313 352
#
# _framework density 26.007566000000001
#
# number of rings (size 3 to 8) (size 9 to 14) (size 15 to 20)
#    0.000    1.714    2.857    1.714    4.000    1.143 
#    0.000    0.000    0.000   15.429    0.000    0.000 
#    0.000    0.000    0.000    0.000    0.000    0.000 
#
# Total GULP energy -156512.778189 kJ/mol
# GULP energy per Si atom -5589.742078 kJ/mol
# Density = 2.594837 g / cm^3
# Si number density = 26.007566 Si / 1000 Ang^3
#
#
#
# Elastic Constant Matrix: (Units=GPa)
#
#
# Indices 1 2 3 4 5 6 
#
# 1 114.8494 2.9119 14.0263 0.0000 0.9393 0.0000
# 2 2.9119 66.9400 10.4060 0.0000 -7.6855 0.0000
# 3 14.0263 10.4060 63.0378 0.0000 11.2611 0.0000
# 4 0.0000 0.0000 0.0000 38.3918 0.0000 3.2087
# 5 0.9393 -7.6855 11.2611 0.0000 69.4035 0.0000
# 6 0.0000 0.0000 0.0000 3.2087 0.0000 4.4015
#
#
#
# Elastic Compliance Matrix: (Units=1/GPa)
#
#
# Indices 1 2 3 4 5 6 
#
# 1 0.008953 -0.000053 -0.002019 0.000000 0.000201 0.000000
# 2 -0.000053 0.015657 -0.002969 0.000000 0.002216 0.000000
# 3 -0.002019 -0.002969 0.017360 0.000000 -0.003118 0.000000
# 4 0.000000 0.000000 0.000000 0.027737 0.000000 -0.020220
# 5 0.000201 0.002216 -0.003118 0.000000 0.015157 0.000000
# 6 0.000000 0.000000 0.000000 -0.020220 0.000000 0.241936
#
#
# Mechanical properties :
#
#
# Convention : Reuss Voigt Hill
#
# Bulk Modulus (GPa) = 31.35885 33.27950 32.31917
# Shear Modulus (GPa) = 14.38802 36.93823 25.66312
#
# Velocity S-wave (km/s) = 2.35462 3.77276 3.14468
# Velocity P-wave (km/s) = 4.41317 5.63934 5.06351
#
# Compressibility (1/GPa) = 0.03188892
#
# Stress axis : x y z
#
# Youngs Moduli (GPa) = 111.68984 63.86920 57.60394
#
# Poissons Ratio (x) = 0.00335 0.11632
# Poissons Ratio (y) = 0.00587 0.17102
# Poissons Ratio (z) = 0.22554 0.18962
#
# Static dielectric constant tensor:
#      x y z
#    x 2.145100 0.000000 0.044460 
#    y 0.000000 2.057260 0.000000 
#    z 0.044460 0.000000 2.044360 
# 
# From -- ./inp_files/65650.got.cif
#   From: 2010.05.17/outbox.cif.g08.bks.cpg/sg14_33_cif.got.tgz:65650.got - 2010.06.03 17:49:19.
