data_PCOD9243057
_publ_section_title
;
Structure prediction by ZEFSAII (Michael W. Deem and Ramdas Pophale) SiO2 
 PCOD9243057
Probable space group: P 21/C
;
_chemical_formula_sum "Si O2"
_cell_formula_units_Z 32
_cell_length_a 14.015076
_cell_length_b 18.340492
_cell_length_c 8.828639
_cell_angle_alpha 90.000000
_cell_angle_beta 138.749116
_cell_angle_gamma 90.000000
_cell_volume 1496.308326
_symmetry_space_group_name_H-M "P 21/C"
_symmetry_group_IT_number 14
_symmetry_cell_setting 'monoclinic'
loop_
_space_group_symop_operation_xyz
x,y,z
-x,1/2+y,1/2-z
-x,-y,-z
x,1/2-y,1/2+z
loop_
_atom_site_type_symbol
_atom_site_label
_atom_site_fract_x
_atom_site_fract_y
_atom_site_fract_z
Si Si1 0.979223 0.695532 0.786043
Si Si2 0.958944 0.921662 0.744968
Si Si3 0.255359 0.190208 0.408501
Si Si4 0.452615 0.641769 0.127891
Si Si5 0.236926 0.094539 0.092109
Si Si6 0.572626 0.279331 0.227818
Si Si7 0.818684 0.042800 0.757939
Si Si8 0.870249 0.182462 0.236923
O O1 0.839886 0.737924 0.688540
O O2 0.908665 0.617135 0.668279
O O3 0.041198 0.748850 0.730005
O O4 0.108673 0.690387 0.060214
O O5 0.821298 0.868854 0.577674
O O6 0.057317 0.894348 0.726004
O O7 0.894082 0.999694 0.710471
O O8 0.062957 0.906625 0.016347
O O9 0.241564 0.157881 0.224454
O O10 0.424257 0.198274 0.635247
O O11 0.610195 0.603443 0.311158
O O12 0.428755 0.692790 0.244786
O O13 0.436200 0.691689 0.955026
O O14 0.322748 0.584706 0.960357
O O15 0.223251 0.018388 0.165366
O O16 0.711669 0.312396 0.477175
#
# Coordination Sequence:
#
# PCOD9243057 Si02
#       8
#     4   4   4   4   4   4   4   4
#     4  11  20  36  58  89 124 155 204 251 305 352
#     4   9  20  37  59  87 115 160 200 247 298 353
#     4   9  19  36  57  87 121 153 200 246 305 353
#     4  11  22  38  62  93 123 156 202 257 307 362
#     4  10  20  36  61  92 117 164 199 248 299 365
#     4  11  22  36  59  92 122 153 198 255 309 353
#     4  10  20  38  63  87 124 160 211 239 299 380
#     4  11  22  35  59  92 123 156 202 258 302 356
#
# _framework density 21.385966
#
# number of rings (size 3 to 8) (size 9 to 14) (size 15 to 20)
#    0.000    1.750    3.750    1.125    1.750    1.000 
#    0.000    0.625    2.750    0.750    0.000    0.000 
#    0.000    0.000    0.000    0.000    0.000    0.000 
#
# Total GULP energy -178536.879129 kJ/mol
# GULP energy per Si atom -5579.277473 kJ/mol
# Density = 2.133729 g / cm^3
# Si number density = 21.385966 Si / 1000 Ang^3
#
#
#
# Elastic Constant Matrix: (Units=GPa)
#
#
# Indices 1 2 3 4 5 6 
#
# 1 56.1091 25.1464 19.2951 0.0000 19.8467 0.0000
# 2 25.1464 65.4910 11.8264 0.0000 0.5816 0.0000
# 3 19.2951 11.8264 76.5598 0.0000 14.3100 0.0000
# 4 0.0000 0.0000 0.0000 36.0773 0.0000 3.1007
# 5 19.8467 0.5816 14.3100 0.0000 25.9401 0.0000
# 6 0.0000 0.0000 0.0000 3.1007 0.0000 34.0638
#
#
#
# Elastic Compliance Matrix: (Units=1/GPa)
#
#
# Indices 1 2 3 4 5 6 
#
# 1 0.031883 -0.011691 -0.001917 0.000000 -0.023074 0.000000
# 2 -0.011691 0.020022 -0.001934 0.000000 0.009563 0.000000
# 3 -0.001917 -0.001934 0.015120 0.000000 -0.006832 0.000000
# 4 0.000000 0.000000 0.000000 0.027937 0.000000 -0.002543
# 5 -0.023074 0.009563 -0.006832 0.000000 0.059759 0.000000
# 6 0.000000 0.000000 0.000000 -0.002543 0.000000 0.029588
#
#
# Mechanical properties :
#
#
# Convention : Reuss Voigt Hill
#
# Bulk Modulus (GPa) = 27.82194 34.52176 31.17185
# Shear Modulus (GPa) = 21.99034 28.67572 25.33303
#
# Velocity S-wave (km/s) = 3.21013 3.66576 3.44548
# Velocity P-wave (km/s) = 5.17471 5.83903 5.51688
#
# Compressibility (1/GPa) = 0.03594286
#
# Stress axis : x y z
#
# Youngs Moduli (GPa) = 31.36503 49.94383 66.13611
#
# Poissons Ratio (x) = 0.58389 0.12675
# Poissons Ratio (y) = 0.36669 0.12790
# Poissons Ratio (z) = 0.06011 0.09659
#
# Static dielectric constant tensor:
#      x y z
#    x 1.818990 0.000000 -0.007800 
#    y 0.000000 1.809280 0.000000 
#    z -0.007800 0.000000 1.789570 
# 
# From -- ./inp_files/16866.got.cif
#   From: 2010.05.17/outbox.cif.g08.bks.cpg/sg14_9_cif.got.tgz:16866.got - 2010.06.03 17:49:19.
