data_PCOD9243606
_publ_section_title
;
Structure prediction by ZEFSAII (Michael W. Deem and Ramdas Pophale) SiO2 
 PCOD9243606
Probable space group: P 21/C
;
_chemical_formula_sum "Si O2"
_cell_formula_units_Z 32
_cell_length_a 7.838721
_cell_length_b 19.315943
_cell_length_c 13.491207
_cell_angle_alpha 90.000000
_cell_angle_beta 135.558796
_cell_angle_gamma 90.000000
_cell_volume 1430.275665
_symmetry_space_group_name_H-M "P 21/C"
_symmetry_group_IT_number 14
_symmetry_cell_setting 'monoclinic'
loop_
_space_group_symop_operation_xyz
x,y,z
-x,1/2+y,1/2-z
-x,-y,-z
x,1/2-y,1/2+z
loop_
_atom_site_type_symbol
_atom_site_label
_atom_site_fract_x
_atom_site_fract_y
_atom_site_fract_z
Si Si1 0.534385 0.140705 0.041564
Si Si2 0.114094 0.952383 0.353812
Si Si3 0.820577 0.772543 0.955940
Si Si4 0.918695 0.592985 0.387690
Si Si5 0.757534 0.520968 0.522885
Si Si6 0.991059 0.719602 0.211120
Si Si7 0.662881 0.907009 0.576809
Si Si8 0.800608 0.667833 0.780436
O O1 0.372730 0.187466 0.053040
O O2 0.802950 0.167363 0.169789
O O3 0.491409 0.060173 0.053133
O O4 0.423079 0.154376 0.886923
O O5 0.377989 0.918772 0.441939
O O6 0.950147 0.954415 0.186374
O O7 0.956667 0.902495 0.359754
O O8 0.181645 0.031566 0.411898
O O9 0.736150 0.707320 0.854959
O O10 0.919197 0.827792 0.918265
O O11 0.032484 0.750911 0.119889
O O12 0.176143 0.558956 0.465560
O O13 0.825256 0.553825 0.445641
O O14 0.729499 0.581416 0.220169
O O15 0.752415 0.671039 0.096304
O O16 0.960865 0.780048 0.278346
#
# Coordination Sequence:
#
# PCOD9243606 Si02
#       8
#     4   4   4   4   4   4   4   4
#     4   9  21  38  56  84 117 155 187 245 299 344
#     4   9  20  37  63  86 119 154 198 243 292 352
#     4  10  21  37  56  87 116 154 196 237 295 350
#     4   9  16  33  57  85 111 143 198 237 283 350
#     4   8  16  34  59  84 113 145 196 242 289 344
#     4  11  23  37  59  85 124 152 198 243 294 355
#     4  10  20  38  61  88 114 161 198 238 295 356
#     4  10  21  38  59  87 116 155 197 244 292 354
#
# _framework density 22.37331
#
# number of rings (size 3 to 8) (size 9 to 14) (size 15 to 20)
#    0.000    2.500    1.250    0.750    3.500    3.000 
#    0.000    6.250    0.000    0.000    0.000    0.000 
#    0.000    0.000    0.000    0.000    0.000    0.000 
#
# Total GULP energy -178526.494083 kJ/mol
# GULP energy per Si atom -5578.952940 kJ/mol
# Density = 2.232239 g / cm^3
# Si number density = 22.373310 Si / 1000 Ang^3
#
#
#
# Elastic Constant Matrix: (Units=GPa)
#
#
# Indices 1 2 3 4 5 6 
#
# 1 37.7802 -8.0620 17.3649 0.0000 -2.4942 0.0000
# 2 -8.0620 70.0412 4.6490 0.0000 2.3608 0.0000
# 3 17.3649 4.6490 49.1667 0.0000 5.1753 0.0000
# 4 0.0000 0.0000 0.0000 37.4637 0.0000 -0.1445
# 5 -2.4942 2.3608 5.1753 0.0000 28.7183 0.0000
# 6 0.0000 0.0000 0.0000 -0.1445 0.0000 36.1294
#
#
#
# Elastic Compliance Matrix: (Units=1/GPa)
#
#
# Indices 1 2 3 4 5 6 
#
# 1 0.033661 0.004562 -0.012832 0.000000 0.004861 0.000000
# 2 0.004562 0.015012 -0.003000 0.000000 -0.000297 0.000000
# 3 -0.012832 -0.003000 0.025734 0.000000 -0.005505 0.000000
# 4 0.000000 0.000000 0.000000 0.026693 0.000000 0.000107
# 5 0.004861 -0.000297 -0.005505 0.000000 0.036260 0.000000
# 6 0.000000 0.000000 0.000000 0.000107 0.000000 0.027679
#
#
# Mechanical properties :
#
#
# Convention : Reuss Voigt Hill
#
# Bulk Modulus (GPa) = 19.27922 20.54353 19.91137
# Shear Modulus (GPa) = 24.40627 29.99802 27.20214
#
# Velocity S-wave (km/s) = 3.30641 3.66566 3.49066
# Velocity P-wave (km/s) = 4.81791 5.20751 5.01649
#
# Compressibility (1/GPa) = 0.05186931
#
# Stress axis : x y z
#
# Youngs Moduli (GPa) = 29.70781 66.61523 38.85912
#
# Poissons Ratio (x) = -0.30393 0.49863
# Poissons Ratio (y) = -0.13554 0.11656
# Poissons Ratio (z) = 0.38120 0.19981
#
# Static dielectric constant tensor:
#      x y z
#    x 1.861420 0.000000 0.015140 
#    y 0.000000 0.455660 0.000000 
#    z 0.015140 0.000000 1.773140 
# 
# From -- ./inp_files/42021.got.cif
#   From: 2010.05.17/outbox.cif.g08.bks.cpg/sg14_22_cif.got.tgz:42021.got - 2010.06.03 17:49:19.
