data_PCOD9243248
_publ_section_title
;
Structure prediction by ZEFSAII (Michael W. Deem and Ramdas Pophale) SiO2 
 PCOD9243248
Probable space group: P 21/C
;
_chemical_formula_sum "Si O2"
_cell_formula_units_Z 32
_cell_length_a 16.647112
_cell_length_b 12.247733
_cell_length_c 24.599911
_cell_angle_alpha 90.000000
_cell_angle_beta 158.343656
_cell_angle_gamma 90.000000
_cell_volume 1850.972925
_symmetry_space_group_name_H-M "P 21/C"
_symmetry_group_IT_number 14
_symmetry_cell_setting 'monoclinic'
loop_
_space_group_symop_operation_xyz
x,y,z
-x,1/2+y,1/2-z
-x,-y,-z
x,1/2-y,1/2+z
loop_
_atom_site_type_symbol
_atom_site_label
_atom_site_fract_x
_atom_site_fract_y
_atom_site_fract_z
Si Si1 0.700840 0.649060 0.566810
Si Si2 0.264126 0.101699 0.090858
Si Si3 0.767075 0.803588 0.503569
Si Si4 0.192960 0.950046 0.230817
Si Si5 0.813828 0.036140 0.058078
Si Si6 0.463819 0.964311 0.633371
Si Si7 0.264454 0.730201 0.336046
Si Si8 0.840071 0.281985 0.105558
O O1 0.703225 0.732096 0.516568
O O2 0.751146 0.530365 0.572668
O O3 0.472392 0.656464 0.453937
O O4 0.904712 0.688394 0.730830
O O5 0.404065 0.076334 0.231117
O O6 0.283746 0.223447 0.078941
O O7 0.004776 0.080206 0.934839
O O8 0.317760 0.018340 0.074793
O O9 0.028476 0.819679 0.672297
O O10 0.642793 0.917301 0.423517
O O11 0.288121 0.838676 0.314281
O O12 0.369560 0.021210 0.311863
O O13 0.063416 0.007000 0.198859
O O14 0.795882 0.164478 0.051400
O O15 0.284480 0.877014 0.503656
O O16 0.243544 0.768788 0.385030
#
# Coordination Sequence:
#
# PCOD9243248 Si02
#       8
#     4   4   4   4   4   4   4   4
#     4  10  20  39  60  79 119 158 182 241 289 337
#     4   8  20  38  60  82 114 151 185 239 293 326
#     4   9  20  38  59  87 114 147 198 231 290 344
#     4   9  19  37  62  86 108 151 195 240 283 332
#     4   9  21  41  55  83 123 147 191 235 291 340
#     4  12  22  35  63  89 113 150 197 240 279 342
#     4  10  20  37  59  86 115 155 192 235 287 347
#     4  11  25  34  56  93 114 149 198 231 291 345
#
# _framework density 17.288205000000001
#
# number of rings (size 3 to 8) (size 9 to 14) (size 15 to 20)
#    0.750    1.500    3.750    0.375    7.000    1.000 
#    0.000    0.000    0.000    3.000    0.000    0.000 
#    0.000    0.000    0.000    0.000    0.000    0.000 
#
# Total GULP energy -178281.452252 kJ/mol
# GULP energy per Si atom -5571.295383 kJ/mol
# Density = 1.724886 g / cm^3
# Si number density = 17.288205 Si / 1000 Ang^3
#
#
#
# Elastic Constant Matrix: (Units=GPa)
#
#
# Indices 1 2 3 4 5 6 
#
# 1 25.4018 -5.3358 12.7443 0.0000 7.5042 0.0000
# 2 -5.3358 76.7571 10.4233 0.0000 0.6232 0.0000
# 3 12.7443 10.4233 30.6164 0.0000 8.6167 0.0000
# 4 0.0000 0.0000 0.0000 7.7050 0.0000 2.3672
# 5 7.5042 0.6232 8.6167 0.0000 22.6391 0.0000
# 6 0.0000 0.0000 0.0000 2.3672 0.0000 12.2705
#
#
#
# Elastic Compliance Matrix: (Units=1/GPa)
#
#
# Indices 1 2 3 4 5 6 
#
# 1 0.055034 0.006961 -0.022500 0.000000 -0.009870 0.000000
# 2 0.006961 0.014590 -0.007954 0.000000 0.000318 0.000000
# 3 -0.022500 -0.007954 0.047683 0.000000 -0.010472 0.000000
# 4 0.000000 0.000000 0.000000 0.137964 0.000000 -0.026615
# 5 -0.009870 0.000318 -0.010472 0.000000 0.051420 0.000000
# 6 0.000000 0.000000 0.000000 -0.026615 0.000000 0.086631
#
#
# Mechanical properties :
#
#
# Convention : Reuss Voigt Hill
#
# Bulk Modulus (GPa) = 14.22072 18.71543 16.46807
# Shear Modulus (GPa) = 10.78171 16.18581 13.48376
#
# Velocity S-wave (km/s) = 2.50000 3.06311 2.79577
# Velocity P-wave (km/s) = 4.07147 4.83314 4.46856
#
# Compressibility (1/GPa) = 0.07031994
#
# Stress axis : x y z
#
# Youngs Moduli (GPa) = 18.17060 68.54194 20.97167
#
# Poissons Ratio (x) = -0.47714 0.47187
# Poissons Ratio (y) = -0.12649 0.16682
# Poissons Ratio (z) = 0.40885 0.54521
#
# Static dielectric constant tensor:
#      x y z
#    x 1.588630 0.000000 0.006530 
#    y 0.000000 1.573240 0.000000 
#    z 0.006530 0.000000 1.576870 
# 
# From -- ./inp_files/77832.got.cif
#   From: 2010.05.17/outbox.cif.g08.bks.cpg/sg14_39_cif.got.tgz:77832.got - 2010.06.03 17:49:19.
