data_PCOD9243719
_publ_section_title
;
Structure prediction by ZEFSAII (Michael W. Deem and Ramdas Pophale) SiO2 
 PCOD9243719
Probable space group: P 21/C
;
_chemical_formula_sum "Si O2"
_cell_formula_units_Z 24
_cell_length_a 22.064684
_cell_length_b 13.441351
_cell_length_c 15.049731
_cell_angle_alpha 90.000000
_cell_angle_beta 162.231435
_cell_angle_gamma 90.000000
_cell_volume 1362.119800
_symmetry_space_group_name_H-M "P 21/C"
_symmetry_group_IT_number 14
_symmetry_cell_setting 'monoclinic'
loop_
_space_group_symop_operation_xyz
x,y,z
-x,1/2+y,1/2-z
-x,-y,-z
x,1/2-y,1/2+z
loop_
_atom_site_type_symbol
_atom_site_label
_atom_site_fract_x
_atom_site_fract_y
_atom_site_fract_z
Si Si1 0.525697 0.590007 0.104114
Si Si2 0.838435 0.736884 0.007976
Si Si3 0.988182 0.660071 0.029118
Si Si4 0.316457 0.009777 0.989297
Si Si5 0.819683 0.251118 0.369367
Si Si6 0.506299 0.579800 0.587171
O O1 0.699476 0.665697 0.316168
O O2 0.586641 0.548610 0.285529
O O3 0.500000 0.500000 0.000000
O O4 0.324139 0.654126 0.828496
O O5 0.912324 0.710977 0.012571
O O6 0.021774 0.748499 0.330532
O O7 0.702662 0.645785 0.852874
O O8 0.163663 0.580870 0.294985
O O9 0.070449 0.737330 0.071405
O O10 0.813252 0.596400 0.738412
O O11 0.475550 0.971984 0.139307
O O12 0.679186 0.154536 0.182827
O O13 0.500000 0.500000 0.500000
#
# Coordination Sequence:
#
# PCOD9243719 Si02
#       6
#     4   4   4   4   4   4
#     4  11  24  41  59  89 126 161 199 249 302 354
#     4  11  22  39  62  88 123 154 202 250 296 359
#     4  10  20  38  64  86 114 162 198 245 304 347
#     4  10  20  39  62  85 121 155 199 248 295 359
#     4  10  23  39  58  90 122 155 198 249 300 355
#     4  10  21  37  62  90 114 156 204 241 297 362
#
# _framework density 17.619596000000001
#
# number of rings (size 3 to 8) (size 9 to 14) (size 15 to 20)
#    0.000    1.667    3.333    1.000    0.000    4.000 
#    3.000    1.667    0.000    0.000    0.000    0.000 
#    0.000    0.000    0.000    0.000    0.000    0.000 
#
# Total GULP energy -134065.466380 kJ/mol
# GULP energy per Si atom -5586.061099 kJ/mol
# Density = 1.757949 g / cm^3
# Si number density = 17.619596 Si / 1000 Ang^3
#
#
#
# Elastic Constant Matrix: (Units=GPa)
#
#
# Indices 1 2 3 4 5 6 
#
# 1 190.6283 93.3771 76.1621 0.0000 8.7855 0.0000
# 2 93.3771 116.6672 50.6012 0.0000 -2.3251 0.0000
# 3 76.1621 50.6012 95.1650 0.0000 -7.3390 0.0000
# 4 0.0000 0.0000 0.0000 9.1403 0.0000 -3.7540
# 5 8.7855 -2.3251 -7.3390 0.0000 22.3723 0.0000
# 6 0.0000 0.0000 0.0000 -3.7540 0.0000 39.4440
#
#
#
# Elastic Compliance Matrix: (Units=1/GPa)
#
#
# Indices 1 2 3 4 5 6 
#
# 1 0.011128 -0.006432 -0.006026 0.000000 -0.007015 0.000000
# 2 -0.006432 0.014873 -0.002510 0.000000 0.003248 0.000000
# 3 -0.006026 -0.002510 0.017265 0.000000 0.007769 0.000000
# 4 0.000000 0.000000 0.000000 0.113857 0.000000 0.010836
# 5 -0.007015 0.003248 0.007769 0.000000 0.050339 0.000000
# 6 0.000000 0.000000 0.000000 0.010836 0.000000 0.026384
#
#
# Mechanical properties :
#
#
# Convention : Reuss Voigt Hill
#
# Bulk Modulus (GPa) = 75.02903 93.63793 84.33348
# Shear Modulus (GPa) = 18.64108 26.34598 22.49353
#
# Velocity S-wave (km/s) = 3.25618 3.87106 3.57686
# Velocity P-wave (km/s) = 7.53738 8.55802 8.06387
#
# Compressibility (1/GPa) = 0.01332817
#
# Stress axis : x y z
#
# Youngs Moduli (GPa) = 89.86633 67.23633 57.92112
#
# Poissons Ratio (x) = 0.43248 0.34906
# Poissons Ratio (y) = 0.57804 0.14538
# Poissons Ratio (z) = 0.54158 0.16876
#
# Static dielectric constant tensor:
#      x y z
#    x 1.573400 0.000000 0.020780 
#    y 0.000000 1.588670 0.000000 
#    z 0.020780 0.000000 1.581980 
# 
# From -- ./inp_files/35363.got.cif
#   From: 2010.05.17/outbox.cif.g08.bks.cpg/sg14_18_cif.got.tgz:35363.got - 2010.06.03 17:49:19.
