data_PCOD9243896
_publ_section_title
;
Structure prediction by ZEFSAII (Michael W. Deem and Ramdas Pophale) SiO2 
 PCOD9243896
Probable space group: P 21/C
;
_chemical_formula_sum "Si O2"
_cell_formula_units_Z 30
_cell_length_a 17.229548
_cell_length_b 5.271988
_cell_length_c 14.348453
_cell_angle_alpha 90.000000
_cell_angle_beta 64.187291
_cell_angle_gamma 90.000000
_cell_volume 1173.283869
_symmetry_space_group_name_H-M "P 21/C"
_symmetry_group_IT_number 14
_symmetry_cell_setting 'monoclinic'
loop_
_space_group_symop_operation_xyz
x,y,z
-x,1/2+y,1/2-z
-x,-y,-z
x,1/2-y,1/2+z
loop_
_atom_site_type_symbol
_atom_site_label
_atom_site_fract_x
_atom_site_fract_y
_atom_site_fract_z
Si Si1 0.546844 0.633500 0.342625
Si Si2 0.000000 0.000000 0.500000
Si Si3 0.920170 0.363072 0.858447
Si Si4 0.257117 0.400101 0.750417
Si Si5 0.746983 0.890165 0.533361
Si Si6 0.850150 0.374201 0.709412
Si Si7 0.121676 0.035292 0.991751
Si Si8 0.555302 0.867750 0.610042
O O1 0.643664 0.620403 0.330669
O O2 0.489351 0.391296 0.397929
O O3 0.553850 0.636914 0.224984
O O4 0.499595 0.892346 0.393037
O O5 0.993546 0.038096 0.388111
O O6 0.072690 0.229968 0.472724
O O7 0.921006 0.416487 0.750260
O O8 0.826758 0.481975 0.939021
O O9 0.912480 0.073085 0.894994
O O10 0.261334 0.490543 0.856868
O O11 0.205000 0.629918 0.731721
O O12 0.208963 0.128057 0.767142
O O13 0.779849 0.604373 0.537437
O O14 0.655587 0.896576 0.532172
O O15 0.889942 0.323388 0.584143
#
# Coordination Sequence:
#
# PCOD9243896 Si02
#       8
#     4   2   4   4   4   4   4   4
#     4   9  17  29  52  84 129 163 221 277 328 379
#     4  10  24  46  68 100 134 170 216 276 344 404
#     4  11  23  43  68  96 133 173 216 277 333 409
#     4  10  20  39  60  95 132 176 222 284 325 395
#     4   9  20  35  63  89 132 170 226 276 332 392
#     4  11  24  40  69  98 132 176 227 263 337 399
#     4  10  22  44  67 100 134 176 220 280 338 407
#     4   9  17  28  51  90 118 170 221 270 329 393
#
# _framework density 25.569261000000001
#
# number of rings (size 3 to 8) (size 9 to 14) (size 15 to 20)
#    0.000    2.133    1.333    1.200    5.600    3.200 
#    2.400    0.000    0.000    4.800    0.000    0.000 
#    0.000    0.000    0.000    0.000    0.000    0.000 
#
# Total GULP energy -167440.374286 kJ/mol
# GULP energy per Si atom -5581.345810 kJ/mol
# Density = 2.551106 g / cm^3
# Si number density = 25.569261 Si / 1000 Ang^3
#
#
#
# Elastic Constant Matrix: (Units=GPa)
#
#
# Indices 1 2 3 4 5 6 
#
# 1 137.7446 45.7350 59.3091 0.0000 -19.9549 0.0000
# 2 45.7350 117.6954 26.2689 0.0000 -0.9827 0.0000
# 3 59.3091 26.2689 70.3514 0.0000 4.5881 0.0000
# 4 0.0000 0.0000 0.0000 21.1474 0.0000 -3.2140
# 5 -19.9549 -0.9827 4.5881 0.0000 36.6944 0.0000
# 6 0.0000 0.0000 0.0000 -3.2140 0.0000 32.7911
#
#
#
# Elastic Compliance Matrix: (Units=1/GPa)
#
#
# Indices 1 2 3 4 5 6 
#
# 1 0.014765 -0.002992 -0.011946 0.000000 0.009443 0.000000
# 2 -0.002992 0.009893 -0.001091 0.000000 -0.001226 0.000000
# 3 -0.011946 -0.001091 0.025325 0.000000 -0.009692 0.000000
# 4 0.000000 0.000000 0.000000 0.048002 0.000000 0.004705
# 5 0.009443 -0.001226 -0.009692 0.000000 0.033566 0.000000
# 6 0.000000 0.000000 0.000000 0.004705 0.000000 0.030957
#
#
# Mechanical properties :
#
#
# Convention : Reuss Voigt Hill
#
# Bulk Modulus (GPa) = 55.79328 65.37971 60.58649
# Shear Modulus (GPa) = 24.93249 31.09180 28.01215
#
# Velocity S-wave (km/s) = 3.12604 3.49088 3.31348
# Velocity P-wave (km/s) = 5.90740 6.47097 6.19560
#
# Compressibility (1/GPa) = 0.01792331
#
# Stress axis : x y z
#
# Youngs Moduli (GPa) = 67.72808 101.08537 39.48700
#
# Poissons Ratio (x) = 0.30248 0.47171
# Poissons Ratio (y) = 0.20267 0.04309
# Poissons Ratio (z) = 0.80907 0.11031
#
# Static dielectric constant tensor:
#      x y z
#    x 1.821840 0.000000 0.048300 
#    y 0.000000 1.902470 0.000000 
#    z 0.048300 0.000000 2.056410 
# 
# From -- ./inp_files/47965.got.cif
#   From: 2010.05.17/outbox.cif.g08.bks.cpg/sg14_24_cif.got.tgz:47965.got - 2010.06.03 17:49:19.
