data_PCOD9243688
_publ_section_title
;
Structure prediction by ZEFSAII (Michael W. Deem and Ramdas Pophale) SiO2 
 PCOD9243688
Probable space group: P 21/C
;
_chemical_formula_sum "Si O2"
_cell_formula_units_Z 28
_cell_length_a 8.735058
_cell_length_b 21.100101
_cell_length_c 11.369228
_cell_angle_alpha 90.000000
_cell_angle_beta 32.486952
_cell_angle_gamma 90.000000
_cell_volume 1125.492338
_symmetry_space_group_name_H-M "P 21/C"
_symmetry_group_IT_number 14
_symmetry_cell_setting 'monoclinic'
loop_
_space_group_symop_operation_xyz
x,y,z
-x,1/2+y,1/2-z
-x,-y,-z
x,1/2-y,1/2+z
loop_
_atom_site_type_symbol
_atom_site_label
_atom_site_fract_x
_atom_site_fract_y
_atom_site_fract_z
Si Si1 0.274639 0.877451 0.129499
Si Si2 0.288901 0.460688 0.979367
Si Si3 0.471672 0.061087 0.827212
Si Si4 0.814761 0.333748 0.961105
Si Si5 0.155143 0.929302 0.755515
Si Si6 0.957920 0.721621 0.975608
Si Si7 0.347965 0.799248 0.860639
O O1 0.507648 0.918054 0.050121
O O2 0.316598 0.858650 0.967208
O O3 0.983951 0.916537 0.339931
O O4 0.209168 0.812392 0.241791
O O5 0.354199 0.497677 0.816289
O O6 0.575372 0.424825 0.834072
O O7 0.228918 0.515574 0.114060
O O8 0.611078 0.117599 0.661814
O O9 0.148933 0.053153 0.993898
O O10 0.885245 0.365635 0.793680
O O11 0.672810 0.265051 0.045894
O O12 0.075064 0.319436 0.881534
O O13 0.660396 0.712417 0.102989
O O14 0.083848 0.787677 0.942988
#
# Coordination Sequence:
#
# PCOD9243688 Si02
#       7
#     4   4   4   4   4   4   4
#     4  11  23  39  62  88 121 165 197 244 311 352
#     4  10  23  38  58  93 121 151 207 250 287 364
#     4  10  20  40  61  85 121 160 195 247 304 351
#     4   8  20  37  58  84 122 148 199 250 289 357
#     4  10  20  38  63  87 119 159 199 244 302 348
#     4   9  22  40  55  88 119 152 202 250 290 360
#     4  10  22  40  61  84 123 156 204 249 299 357
#
# _framework density 24.878001000000001
#
# number of rings (size 3 to 8) (size 9 to 14) (size 15 to 20)
#    0.857    1.429    0.000    1.714    2.000    4.000 
#    2.571    0.000    0.000    0.000    0.000    0.000 
#    0.000    0.000    0.000    0.000    0.000    0.000 
#
# Total GULP energy -156368.020787 kJ/mol
# GULP energy per Si atom -5584.572171 kJ/mol
# Density = 2.482138 g / cm^3
# Si number density = 24.878001 Si / 1000 Ang^3
#
#
#
# Elastic Constant Matrix: (Units=GPa)
#
#
# Indices 1 2 3 4 5 6 
#
# 1 75.7846 29.7177 29.3139 0.0000 -1.8346 0.0000
# 2 29.7177 55.5285 5.2571 0.0000 9.3035 0.0000
# 3 29.3139 5.2571 52.9604 0.0000 -20.7892 0.0000
# 4 0.0000 0.0000 0.0000 28.0879 0.0000 0.6756
# 5 -1.8346 9.3035 -20.7892 0.0000 42.3343 0.0000
# 6 0.0000 0.0000 0.0000 0.6756 0.0000 31.4378
#
#
#
# Elastic Compliance Matrix: (Units=1/GPa)
#
#
# Indices 1 2 3 4 5 6 
#
# 1 0.021759 -0.010021 -0.012158 0.000000 -0.002825 0.000000
# 2 -0.010021 0.024136 0.001112 0.000000 -0.005192 0.000000
# 3 -0.012158 0.001112 0.031216 0.000000 0.014558 0.000000
# 4 0.000000 0.000000 0.000000 0.035621 0.000000 -0.000765
# 5 -0.002825 -0.005192 0.014558 0.000000 0.031789 0.000000
# 6 0.000000 0.000000 0.000000 -0.000765 0.000000 0.031825
#
#
# Mechanical properties :
#
#
# Convention : Reuss Voigt Hill
#
# Bulk Modulus (GPa) = 28.58912 34.76122 31.67517
# Shear Modulus (GPa) = 21.72601 28.37098 25.04850
#
# Velocity S-wave (km/s) = 2.95837 3.38065 3.17654
# Velocity P-wave (km/s) = 4.81518 5.40753 5.11993
#
# Compressibility (1/GPa) = 0.03497834
#
# Stress axis : x y z
#
# Youngs Moduli (GPa) = 45.95753 41.43148 32.03507
#
# Poissons Ratio (x) = 0.41517 0.38949
# Poissons Ratio (y) = 0.46052 -0.03564
# Poissons Ratio (z) = 0.55876 -0.04609
#
# Static dielectric constant tensor:
#      x y z
#    x 2.001690 0.000000 -0.001700 
#    y 0.000000 2.009190 0.000000 
#    z -0.001700 0.000000 1.944560 
# 
# From -- ./inp_files/27112.got.cif
#   From: 2010.05.17/outbox.cif.g08.bks.cpg/sg14_14_cif.got.tgz:27112.got - 2010.06.03 17:49:19.
