data_PCOD9243636
_publ_section_title
;
Structure prediction by ZEFSAII (Michael W. Deem and Ramdas Pophale) SiO2 
 PCOD9243636
Probable space group: P 21/C
;
_chemical_formula_sum "Si O2"
_cell_formula_units_Z 24
_cell_length_a 19.889651
_cell_length_b 5.079912
_cell_length_c 27.021033
_cell_angle_alpha 90.000000
_cell_angle_beta 18.988604
_cell_angle_gamma 90.000000
_cell_volume 888.333970
_symmetry_space_group_name_H-M "P 21/C"
_symmetry_group_IT_number 14
_symmetry_cell_setting 'monoclinic'
loop_
_space_group_symop_operation_xyz
x,y,z
-x,1/2+y,1/2-z
-x,-y,-z
x,1/2-y,1/2+z
loop_
_atom_site_type_symbol
_atom_site_label
_atom_site_fract_x
_atom_site_fract_y
_atom_site_fract_z
Si Si1 0.735050 0.405979 0.920801
Si Si2 0.619576 0.512706 0.647330
Si Si3 0.825065 0.854299 0.091073
Si Si4 0.935718 0.905745 0.731594
Si Si5 0.384524 0.841436 0.227431
Si Si6 0.637642 0.598736 0.358410
O O1 0.798720 0.691894 0.856925
O O2 0.833032 0.381278 0.907715
O O3 0.862384 0.194172 0.799467
O O4 0.498817 0.330400 0.071762
O O5 0.454530 0.722578 0.785996
O O6 0.827724 0.595149 0.530488
O O7 0.597208 0.565078 0.604821
O O8 0.778189 0.552462 0.135584
O O9 0.640744 0.043455 0.238264
O O10 0.000000 0.000000 0.000000
O O11 0.863380 0.857106 0.725363
O O12 0.353341 0.888135 0.191689
O O13 0.500000 0.500000 0.500000
#
# Coordination Sequence:
#
# PCOD9243636 Si02
#       6
#     4   4   4   4   4   4
#     4   9  18  33  53  75 104 153 197 234 283 314
#     4   8  16  33  56  78 107 140 177 234 283 335
#     4  10  20  38  62  86 113 144 186 247 299 336
#     4   9  18  33  53  75 106 149 199 239 269 327
#     4  10  21  36  58  87 116 149 195 227 285 360
#     4  10  21  37  59  83 122 162 193 234 284 337
#
# _framework density 27.016866
#
# number of rings (size 3 to 8) (size 9 to 14) (size 15 to 20)
#    0.000    2.667    0.000    1.000    0.000    5.333 
#    3.000    0.000   11.000    0.000    0.000    0.000 
#    0.000    0.000    0.000    0.000    0.000    0.000 
#
# Total GULP energy -134017.794617 kJ/mol
# GULP energy per Si atom -5584.074776 kJ/mol
# Density = 2.695537 g / cm^3
# Si number density = 27.016866 Si / 1000 Ang^3
#
#
#
# Elastic Constant Matrix: (Units=GPa)
#
#
# Indices 1 2 3 4 5 6 
#
# 1 274.4408 13.8501 37.7429 0.0000 -36.8966 0.0000
# 2 13.8501 112.0785 33.3182 0.0000 -1.6603 0.0000
# 3 37.7429 33.3182 28.2379 0.0000 -6.0106 0.0000
# 4 0.0000 0.0000 0.0000 38.8357 0.0000 4.6085
# 5 -36.8966 -1.6603 -6.0106 0.0000 19.1827 0.0000
# 6 0.0000 0.0000 0.0000 4.6085 0.0000 41.9261
#
#
#
# Elastic Compliance Matrix: (Units=1/GPa)
#
#
# Indices 1 2 3 4 5 6 
#
# 1 0.005858 0.001806 -0.008068 0.000000 0.008896 0.000000
# 2 0.001806 0.014618 -0.019986 0.000000 -0.001523 0.000000
# 3 -0.008068 -0.019986 0.070831 0.000000 0.004947 0.000000
# 4 0.000000 0.000000 0.000000 0.026090 0.000000 -0.002868
# 5 0.008896 -0.001523 0.004947 0.000000 0.070660 0.000000
# 6 0.000000 0.000000 0.000000 -0.002868 0.000000 0.024167
#
#
# Mechanical properties :
#
#
# Convention : Reuss Voigt Hill
#
# Bulk Modulus (GPa) = 25.76507 64.95329 45.35918
# Shear Modulus (GPa) = 18.00789 41.97862 29.99325
#
# Velocity S-wave (km/s) = 2.58455 3.94609 3.33553
# Velocity P-wave (km/s) = 4.29696 6.69747 5.62672
#
# Compressibility (1/GPa) = 0.03881224
#
# Stress axis : x y z
#
# Youngs Moduli (GPa) = 170.70208 68.40899 14.11807
#
# Poissons Ratio (x) = -0.12356 0.11390
# Poissons Ratio (y) = -0.30831 0.28217
# Poissons Ratio (z) = 1.37714 1.36723
#
# Static dielectric constant tensor:
#      x y z
#    x 2.281840 0.000000 -0.068330 
#    y 0.000000 2.042140 0.000000 
#    z -0.068330 0.000000 2.203350 
# 
# From -- ./inp_files/74049.got.cif
#   From: 2010.05.17/outbox.cif.g08.bks.cpg/sg14_38_cif.got.tgz:74049.got - 2010.06.03 17:49:19.
