data_PCOD9243537
_publ_section_title
;
Structure prediction by ZEFSAII (Michael W. Deem and Ramdas Pophale) SiO2 
 PCOD9243537
Probable space group: P 21/C
;
_chemical_formula_sum "Si O2"
_cell_formula_units_Z 26
_cell_length_a 10.890346
_cell_length_b 9.625418
_cell_length_c 14.689959
_cell_angle_alpha 90.000000
_cell_angle_beta 39.163078
_cell_angle_gamma 90.000000
_cell_volume 972.468855
_symmetry_space_group_name_H-M "P 21/C"
_symmetry_group_IT_number 14
_symmetry_cell_setting 'monoclinic'
loop_
_space_group_symop_operation_xyz
x,y,z
-x,1/2+y,1/2-z
-x,-y,-z
x,1/2-y,1/2+z
loop_
_atom_site_type_symbol
_atom_site_label
_atom_site_fract_x
_atom_site_fract_y
_atom_site_fract_z
Si Si1 0.083710 0.811872 0.799620
Si Si2 0.791396 0.051257 0.957735
Si Si3 0.816418 0.577310 0.972831
Si Si4 0.147821 0.795986 0.463722
Si Si5 0.500000 0.500000 0.000000
Si Si6 0.518445 0.229537 0.990231
Si Si7 0.587428 0.673217 0.655972
O O1 0.091297 0.778718 0.902437
O O2 0.307009 0.838781 0.642431
O O3 0.949277 0.934699 0.841951
O O4 0.984722 0.667045 0.826077
O O5 0.624918 0.111788 0.986206
O O6 0.895003 0.188827 0.932974
O O7 0.690895 0.975181 0.103724
O O8 0.915001 0.447909 0.966755
O O9 0.714995 0.689778 0.099368
O O10 0.642228 0.530304 0.008285
O O11 0.380122 0.816258 0.319492
O O12 0.400989 0.349904 0.106399
O O13 0.439150 0.174872 0.940534
#
# Coordination Sequence:
#
# PCOD9243537 Si02
#       7
#     4   4   4   4   2   4   4
#     4  10  24  38  58  89 127 154 197 254 302 365
#     4  11  21  37  62  88 121 159 206 246 308 359
#     4  10  20  38  60  83 120 158 199 246 301 351
#     4  11  20  38  61  85 121 162 201 244 305 361
#     4  10  20  38  60  86 110 154 202 246 286 358
#     4  10  21  38  61  84 122 155 198 249 305 357
#     4   9  21  37  58  87 120 154 201 257 293 352
#
# _framework density 26.736075
#
# number of rings (size 3 to 8) (size 9 to 14) (size 15 to 20)
#    0.000    1.846    1.538    2.308    2.154    0.000 
#    0.000    0.000    6.769    0.000    0.000    0.000 
#    0.000    0.000    0.000    0.000    0.000    0.000 
#
# Total GULP energy -144786.905506 kJ/mol
# GULP energy per Si atom -5568.727135 kJ/mol
# Density = 2.667522 g / cm^3
# Si number density = 26.736075 Si / 1000 Ang^3
#
#
#
# Elastic Constant Matrix: (Units=GPa)
#
#
# Indices 1 2 3 4 5 6 
#
# 1 82.3648 43.9677 -1.2757 0.0000 2.9560 0.0000
# 2 43.9677 201.5665 -13.4865 0.0000 8.8521 0.0000
# 3 -1.2757 -13.4865 39.1817 0.0000 -6.4132 0.0000
# 4 0.0000 0.0000 0.0000 23.6417 0.0000 6.1411
# 5 2.9560 8.8521 -6.4132 0.0000 27.3259 0.0000
# 6 0.0000 0.0000 0.0000 6.1411 0.0000 38.8846
#
#
#
# Elastic Compliance Matrix: (Units=1/GPa)
#
#
# Indices 1 2 3 4 5 6 
#
# 1 0.013767 -0.003020 -0.000702 0.000000 -0.000676 0.000000
# 2 -0.003020 0.005784 0.001705 0.000000 -0.001147 0.000000
# 3 -0.000702 0.001705 0.027047 0.000000 0.005871 0.000000
# 4 0.000000 0.000000 0.000000 0.044108 0.000000 -0.006966
# 5 -0.000676 -0.001147 0.005871 0.000000 0.038418 0.000000
# 6 0.000000 0.000000 0.000000 -0.006966 0.000000 0.026817
#
#
# Mechanical properties :
#
#
# Convention : Reuss Voigt Hill
#
# Bulk Modulus (GPa) = 23.49411 42.39156 32.94284
# Shear Modulus (GPa) = 28.70865 37.56426 33.13646
#
# Velocity S-wave (km/s) = 3.28041 3.75240 3.52432
# Velocity P-wave (km/s) = 4.81193 5.88762 5.37674
#
# Compressibility (1/GPa) = 0.04256386
#
# Stress axis : x y z
#
# Youngs Moduli (GPa) = 72.63887 172.87908 36.97246
#
# Poissons Ratio (x) = 0.52214 0.02595
# Poissons Ratio (y) = 0.21939 -0.06304
# Poissons Ratio (z) = 0.05099 -0.29475
#
# Static dielectric constant tensor:
#      x y z
#    x 2.115510 0.000000 0.062640 
#    y 0.000000 1.765060 0.000000 
#    z 0.062640 0.000000 1.617910 
# 
# From -- ./inp_files/57000.got.cif
#   From: 2010.05.17/outbox.cif.g08.bks.cpg/sg14_29_cif.got.tgz:57000.got - 2010.06.03 17:49:19.
