data_PCOD9243341
_publ_section_title
;
Structure prediction by ZEFSAII (Michael W. Deem and Ramdas Pophale) SiO2 
 PCOD9243341
Probable space group: P 21/C
;
_chemical_formula_sum "Si O2"
_cell_formula_units_Z 20
_cell_length_a 5.443420
_cell_length_b 20.689044
_cell_length_c 7.081232
_cell_angle_alpha 90.000000
_cell_angle_beta 116.289514
_cell_angle_gamma 90.000000
_cell_volume 714.996779
_symmetry_space_group_name_H-M "P 21/C"
_symmetry_group_IT_number 14
_symmetry_cell_setting 'monoclinic'
loop_
_space_group_symop_operation_xyz
x,y,z
-x,1/2+y,1/2-z
-x,-y,-z
x,1/2-y,1/2+z
loop_
_atom_site_type_symbol
_atom_site_label
_atom_site_fract_x
_atom_site_fract_y
_atom_site_fract_z
Si Si1 0.929175 0.599350 0.996783
Si Si2 0.791908 0.534091 0.574521
Si Si3 0.469599 0.638255 0.081690
Si Si4 0.165826 0.251550 0.179641
Si Si5 0.045016 0.834262 0.103209
O O1 0.889697 0.545768 0.822906
O O2 0.717662 0.593656 0.093866
O O3 0.857117 0.671684 0.885605
O O4 0.251546 0.603470 0.141554
O O5 0.500000 0.500000 0.500000
O O6 0.830726 0.608016 0.518819
O O7 0.000000 0.500000 0.500000
O O8 0.295296 0.650234 0.824398
O O9 0.567105 0.705882 0.201051
O O10 0.128892 0.269753 0.400818
O O11 0.904728 0.199030 0.080130
#
# Coordination Sequence:
#
# PCOD9243341 Si02
#       5
#     4   4   4   4   4
#     4  10  22  35  60  91 116 165 202 251 309 369
#     4  10  20  40  63  86 123 168 215 251 297 374
#     4  10  21  37  57  89 132 149 199 254 314 371
#     4  10  20  37  61  94 128 158 200 258 327 372
#     4  10  23  37  65  98 122 168 207 256 323 375
#
# _framework density 27.972155999999998
#
# number of rings (size 3 to 8) (size 9 to 14) (size 15 to 20)
#    0.000    2.400    2.000    2.400    5.600    0.000 
#    0.000    0.000    0.000   16.800    0.000    0.000 
#    0.000    0.000    0.000    0.000    0.000    0.000 
#
# Total GULP energy -111433.852366 kJ/mol
# GULP energy per Si atom -5571.692618 kJ/mol
# Density = 2.790849 g / cm^3
# Si number density = 27.972156 Si / 1000 Ang^3
#
#
#
# Elastic Constant Matrix: (Units=GPa)
#
#
# Indices 1 2 3 4 5 6 
#
# 1 203.9567 49.5558 40.3625 0.0000 16.7985 0.0000
# 2 49.5558 146.8451 54.8724 0.0000 -7.8436 0.0000
# 3 40.3625 54.8724 137.7047 0.0000 -2.2118 0.0000
# 4 0.0000 0.0000 0.0000 78.6649 0.0000 -7.8616
# 5 16.7985 -7.8436 -2.2118 0.0000 11.1090 0.0000
# 6 0.0000 0.0000 0.0000 -7.8616 0.0000 43.8718
#
#
#
# Elastic Compliance Matrix: (Units=1/GPa)
#
#
# Indices 1 2 3 4 5 6 
#
# 1 0.006745 -0.002485 -0.001182 0.000000 -0.012190 0.000000
# 2 -0.002485 0.009208 -0.002785 0.000000 0.009705 0.000000
# 3 -0.001182 -0.002785 0.008743 0.000000 0.001563 0.000000
# 4 0.000000 0.000000 0.000000 0.012944 0.000000 0.002319
# 5 -0.012190 0.009705 0.001563 0.000000 0.115613 0.000000
# 6 0.000000 0.000000 0.000000 0.002319 0.000000 0.023209
#
#
# Mechanical properties :
#
#
# Convention : Reuss Voigt Hill
#
# Bulk Modulus (GPa) = 84.81240 86.45420 85.63330
# Shear Modulus (GPa) = 25.86692 49.64351 37.75522
#
# Velocity S-wave (km/s) = 3.04425 4.21735 3.67787
# Velocity P-wave (km/s) = 6.53779 7.39520 6.97968
#
# Compressibility (1/GPa) = 0.01179073
#
# Stress axis : x y z
#
# Youngs Moduli (GPa) = 148.26132 108.60579 114.37461
#
# Poissons Ratio (x) = 0.26994 0.13523
# Poissons Ratio (y) = 0.36850 0.31849
# Poissons Ratio (z) = 0.17530 0.30243
#
# Static dielectric constant tensor:
#      x y z
#    x 2.436650 0.000000 -0.414790 
#    y 0.000000 2.009660 0.000000 
#    z -0.414790 0.000000 2.614910 
# 
# From -- ./inp_files/6044.got.cif
#   From: 2010.05.17/outbox.cif.g08.bks.cpg/sg14_4_cif.got.tgz:6044.got - 2010.06.03 17:49:19.
