data_PCOD9243353
_publ_section_title
;
Structure prediction by ZEFSAII (Michael W. Deem and Ramdas Pophale) SiO2 
 PCOD9243353
Probable space group: P 21/C
;
_chemical_formula_sum "Si O2"
_cell_formula_units_Z 24
_cell_length_a 8.136869
_cell_length_b 7.124312
_cell_length_c 20.320624
_cell_angle_alpha 90.000000
_cell_angle_beta 111.656643
_cell_angle_gamma 90.000000
_cell_volume 1094.827298
_symmetry_space_group_name_H-M "P 21/C"
_symmetry_group_IT_number 14
_symmetry_cell_setting 'monoclinic'
loop_
_space_group_symop_operation_xyz
x,y,z
-x,1/2+y,1/2-z
-x,-y,-z
x,1/2-y,1/2+z
loop_
_atom_site_type_symbol
_atom_site_label
_atom_site_fract_x
_atom_site_fract_y
_atom_site_fract_z
Si Si1 0.228137 0.410109 0.470799
Si Si2 0.905339 0.147722 0.836743
Si Si3 0.402048 0.360571 0.895588
Si Si4 0.601896 0.022258 0.871236
Si Si5 0.681625 0.269237 0.616632
Si Si6 0.052386 0.483300 0.792132
O O1 0.330553 0.241193 0.450039
O O2 0.278962 0.428304 0.553835
O O3 0.293337 0.598430 0.442605
O O4 0.026240 0.376505 0.419200
O O5 0.716278 0.056023 0.823302
O O6 0.992212 0.038187 0.788300
O O7 0.913359 0.364724 0.814089
O O8 0.552488 0.231227 0.888402
O O9 0.232591 0.359308 0.821334
O O10 0.566338 0.419850 0.089287
O O11 0.423130 0.897509 0.845848
O O12 0.869118 0.173705 0.663660
#
# Coordination Sequence:
#
# PCOD9243353 Si02
#       6
#     4   4   4   4   4   4
#     4  10  20  37  62  86 126 160 189 238 310 363
#     4  11  22  41  58  89 121 153 206 247 297 364
#     4   8  19  38  58  91 112 157 200 239 296 358
#     4  11  22  36  62  93 121 150 198 258 290 350
#     4   9  19  40  61  88 111 163 195 238 302 348
#     4   9  21  40  62  81 116 165 199 245 300 364
#
# _framework density 21.921264000000001
#
# number of rings (size 3 to 8) (size 9 to 14) (size 15 to 20)
#    1.000    1.333    0.000    3.500    0.000    4.000 
#    6.000    0.833    0.000    0.000    0.000    0.000 
#    0.000    0.000    0.000    0.000    0.000    0.000 
#
# Total GULP energy -133655.769834 kJ/mol
# GULP energy per Si atom -5568.990410 kJ/mol
# Density = 2.187137 g / cm^3
# Si number density = 21.921264 Si / 1000 Ang^3
#
#
#
# Elastic Constant Matrix: (Units=GPa)
#
#
# Indices 1 2 3 4 5 6 
#
# 1 58.6590 35.1169 4.5180 0.0000 -18.7107 0.0000
# 2 35.1169 144.0718 8.6065 0.0000 -14.8839 0.0000
# 3 4.5180 8.6065 47.3420 0.0000 9.9721 0.0000
# 4 0.0000 0.0000 0.0000 26.3071 0.0000 14.9277
# 5 -18.7107 -14.8839 9.9721 0.0000 23.3811 0.0000
# 6 0.0000 0.0000 0.0000 14.9277 0.0000 23.0666
#
#
#
# Elastic Compliance Matrix: (Units=1/GPa)
#
#
# Indices 1 2 3 4 5 6 
#
# 1 0.026803 -0.003908 -0.006418 0.000000 0.021699 0.000000
# 2 -0.003908 0.008297 -0.001746 0.000000 0.002899 0.000000
# 3 -0.006418 -0.001746 0.025676 0.000000 -0.017198 0.000000
# 4 0.000000 0.000000 0.000000 0.060072 0.000000 -0.038876
# 5 0.021699 0.002899 -0.017198 0.000000 0.069315 0.000000
# 6 0.000000 0.000000 0.000000 -0.038876 0.000000 0.068512
#
#
# Mechanical properties :
#
#
# Convention : Reuss Voigt Hill
#
# Bulk Modulus (GPa) = 27.29907 38.50620 32.90263
# Shear Modulus (GPa) = 16.94745 28.00638 22.47692
#
# Velocity S-wave (km/s) = 2.78349 3.57822 3.20558
# Velocity P-wave (km/s) = 4.77606 5.88858 5.36125
#
# Compressibility (1/GPa) = 0.03663128
#
# Stress axis : x y z
#
# Youngs Moduli (GPa) = 37.30935 120.51992 38.94762
#
# Poissons Ratio (x) = 0.47100 0.24997
# Poissons Ratio (y) = 0.14581 0.06801
# Poissons Ratio (z) = 0.23945 0.21045
#
# Static dielectric constant tensor:
#      x y z
#    x 1.843620 0.000000 0.086970 
#    y 0.000000 1.826830 0.000000 
#    z 0.086970 0.000000 1.849010 
# 
# From -- ./inp_files/54638.got.cif
#   From: 2010.05.17/outbox.cif.g08.bks.cpg/sg14_28_cif.got.tgz:54638.got - 2010.06.03 17:49:19.
