data_PCOD9243988
_publ_section_title
;
Structure prediction by ZEFSAII (Michael W. Deem and Ramdas Pophale) SiO2 
 PCOD9243988
Probable space group: P 21/C
;
_chemical_formula_sum "Si O2"
_cell_formula_units_Z 32
_cell_length_a 12.490253
_cell_length_b 12.148408
_cell_length_c 13.882784
_cell_angle_alpha 90.000000
_cell_angle_beta 133.162567
_cell_angle_gamma 90.000000
_cell_volume 1536.534379
_symmetry_space_group_name_H-M "P 21/C"
_symmetry_group_IT_number 14
_symmetry_cell_setting 'monoclinic'
loop_
_space_group_symop_operation_xyz
x,y,z
-x,1/2+y,1/2-z
-x,-y,-z
x,1/2-y,1/2+z
loop_
_atom_site_type_symbol
_atom_site_label
_atom_site_fract_x
_atom_site_fract_y
_atom_site_fract_z
Si Si1 0.366473 0.529924 0.768841
Si Si2 0.179953 0.335152 0.874454
Si Si3 0.149727 0.813621 0.854033
Si Si4 0.556289 0.755871 0.340321
Si Si5 0.148955 0.922442 0.305215
Si Si6 0.110425 0.501502 0.477833
Si Si7 0.603711 0.801006 0.651688
Si Si8 0.566167 0.117583 0.074742
O O1 0.467609 0.630038 0.799738
O O2 0.249776 0.580081 0.772203
O O3 0.269475 0.476080 0.622041
O O4 0.445404 0.428444 0.871219
O O5 0.190371 0.466923 0.886727
O O6 0.235746 0.306968 0.799963
O O7 0.012018 0.310816 0.789969
O O8 0.290025 0.271802 0.010534
O O9 0.184559 0.685649 0.887132
O O10 0.265618 0.873792 0.855953
O O11 0.136456 0.879821 0.945031
O O12 0.590314 0.742862 0.250116
O O13 0.468043 0.654628 0.336514
O O14 0.980170 0.936610 0.161648
O O15 0.000000 0.500000 0.500000
O O16 0.510278 0.718462 0.529563
O O17 0.500000 0.000000 0.000000
#
# Coordination Sequence:
#
# PCOD9243988 Si02
#       8
#     4   4   4   4   4   4   4   4
#     4  10  20  39  63  93 119 167 228 260 325 392
#     4   9  23  40  60  95 127 167 218 272 327 389
#     4  11  21  40  65  92 124 169 215 268 331 385
#     4  11  23  40  66  94 133 175 216 278 329 398
#     4   9  19  37  63  90 121 160 215 269 320 385
#     4   9  20  36  60  93 123 158 211 268 311 388
#     4  10  24  40  65  94 128 173 215 275 327 395
#     4  11  26  44  65  97 135 174 220 275 338 394
#
# _framework density 20.826087999999999
#
# number of rings (size 3 to 8) (size 9 to 14) (size 15 to 20)
#    0.000    2.000    1.250    1.500    7.000    4.500 
#    0.000    0.000    0.000    1.500    0.000    0.000 
#    0.000    0.000    0.000    0.000    0.000    0.000 
#
# Total GULP energy -178478.104293 kJ/mol
# GULP energy per Si atom -5577.440759 kJ/mol
# Density = 2.077869 g / cm^3
# Si number density = 20.826088 Si / 1000 Ang^3
#
#
#
# Elastic Constant Matrix: (Units=GPa)
#
#
# Indices 1 2 3 4 5 6 
#
# 1 106.5356 32.7550 30.7130 0.0000 13.3970 0.0000
# 2 32.7550 100.3599 5.3668 0.0000 4.5343 0.0000
# 3 30.7130 5.3668 38.5932 0.0000 3.0825 0.0000
# 4 0.0000 0.0000 0.0000 24.1387 0.0000 -2.6117
# 5 13.3970 4.5343 3.0825 0.0000 37.8775 0.0000
# 6 0.0000 0.0000 0.0000 -2.6117 0.0000 35.4321
#
#
#
# Elastic Compliance Matrix: (Units=1/GPa)
#
#
# Indices 1 2 3 4 5 6 
#
# 1 0.014005 -0.003854 -0.010318 0.000000 -0.003653 0.000000
# 2 -0.003854 0.011145 0.001525 0.000000 -0.000095 0.000000
# 3 -0.010318 0.001525 0.033854 0.000000 0.000712 0.000000
# 4 0.000000 0.000000 0.000000 0.041760 0.000000 0.003078
# 5 -0.003653 -0.000095 0.000712 0.000000 0.027646 0.000000
# 6 0.000000 0.000000 0.000000 0.003078 0.000000 0.028450
#
#
# Mechanical properties :
#
#
# Convention : Reuss Voigt Hill
#
# Bulk Modulus (GPa) = 29.66527 42.57312 36.11920
# Shear Modulus (GPa) = 25.85436 31.26660 28.56048
#
# Velocity S-wave (km/s) = 3.52723 3.87889 3.70723
# Velocity P-wave (km/s) = 5.55551 6.36770 5.97542
#
# Compressibility (1/GPa) = 0.03370946
#
# Stress axis : x y z
#
# Youngs Moduli (GPa) = 71.40103 89.72786 29.53896
#
# Poissons Ratio (x) = 0.34583 0.30478
# Poissons Ratio (y) = 0.27520 -0.04505
# Poissons Ratio (z) = 0.73671 -0.13684
#
# Static dielectric constant tensor:
#      x y z
#    x 1.771510 0.000000 0.018140 
#    y 0.000000 1.794700 0.000000 
#    z 0.018140 0.000000 1.814300 
# 
# From -- ./inp_files/44664.got.cif
#   From: 2010.05.17/outbox.cif.g08.bks.cpg/sg14_23_cif.got.tgz:44664.got - 2010.06.03 17:49:19.
