data_PCOD9243084
_publ_section_title
;
Structure prediction by ZEFSAII (Michael W. Deem and Ramdas Pophale) SiO2 
 PCOD9243084
Probable space group: P 21/C
;
_chemical_formula_sum "Si O2"
_cell_formula_units_Z 24
_cell_length_a 14.582057
_cell_length_b 8.009952
_cell_length_c 19.403114
_cell_angle_alpha 90.000000
_cell_angle_beta 153.889091
_cell_angle_gamma 90.000000
_cell_volume 997.427917
_symmetry_space_group_name_H-M "P 21/C"
_symmetry_group_IT_number 14
_symmetry_cell_setting 'monoclinic'
loop_
_space_group_symop_operation_xyz
x,y,z
-x,1/2+y,1/2-z
-x,-y,-z
x,1/2-y,1/2+z
loop_
_atom_site_type_symbol
_atom_site_label
_atom_site_fract_x
_atom_site_fract_y
_atom_site_fract_z
Si Si1 0.091387 0.465370 0.686998
Si Si2 0.518897 0.652285 0.367546
Si Si3 0.249697 0.839817 0.819969
Si Si4 0.349440 0.522843 0.673308
Si Si5 0.132507 0.396230 0.862275
Si Si6 0.505048 0.174080 0.399478
O O1 0.162988 0.655632 0.744253
O O2 0.026601 0.388090 0.716419
O O3 0.300097 0.371763 0.804933
O O4 0.896343 0.462092 0.504973
O O5 0.382440 0.613631 0.342721
O O6 0.544119 0.505348 0.329271
O O7 0.747265 0.723664 0.541332
O O8 0.417726 0.812123 0.260114
O O9 0.040927 0.939847 0.698212
O O10 0.386997 0.818834 0.982135
O O11 0.414286 0.358819 0.761432
O O12 0.312689 0.533655 0.977227
#
# Coordination Sequence:
#
# PCOD9243084 Si02
#       6
#     4   4   4   4   4   4
#     4  11  19  37  66  91 120 170 223 251 322 384
#     4  11  23  43  62  96 133 172 214 274 324 385
#     4  11  20  39  66  85 128 171 216 265 321 387
#     4  11  24  38  67  99 131 169 216 273 327 382
#     4  10  20  36  62  91 122 166 219 264 310 380
#     4  10  21  39  62  95 121 168 222 264 309 390
#
# _framework density 24.061889000000001
#
# number of rings (size 3 to 8) (size 9 to 14) (size 15 to 20)
#    0.000    1.333    6.667    1.500    2.333    0.000 
#    0.000    4.167    7.333    0.000    0.000    0.000 
#    0.000    0.000    0.000    0.000    0.000    0.000 
#
# Total GULP energy -134099.855198 kJ/mol
# GULP energy per Si atom -5587.493967 kJ/mol
# Density = 2.400712 g / cm^3
# Si number density = 24.061889 Si / 1000 Ang^3
#
#
#
# Elastic Constant Matrix: (Units=GPa)
#
#
# Indices 1 2 3 4 5 6 
#
# 1 192.7305 12.3477 67.0872 0.0000 36.7977 0.0000
# 2 12.3477 86.3805 54.0603 0.0000 13.9917 0.0000
# 3 67.0872 54.0603 154.3096 0.0000 5.2043 0.0000
# 4 0.0000 0.0000 0.0000 16.0408 0.0000 0.7763
# 5 36.7977 13.9917 5.2043 0.0000 44.5954 0.0000
# 6 0.0000 0.0000 0.0000 0.7763 0.0000 42.4366
#
#
#
# Elastic Compliance Matrix: (Units=1/GPa)
#
#
# Indices 1 2 3 4 5 6 
#
# 1 0.007687 0.002472 -0.003984 0.000000 -0.006654 0.000000
# 2 0.002472 0.016394 -0.006602 0.000000 -0.006413 0.000000
# 3 -0.003984 -0.006602 0.010385 0.000000 0.004147 0.000000
# 4 0.000000 0.000000 0.000000 0.062396 0.000000 -0.001141
# 5 -0.006654 -0.006413 0.004147 0.000000 0.029442 0.000000
# 6 0.000000 0.000000 0.000000 -0.001141 0.000000 0.023585
#
#
# Mechanical properties :
#
#
# Convention : Reuss Voigt Hill
#
# Bulk Modulus (GPa) = 54.82581 77.82342 66.32462
# Shear Modulus (GPa) = 29.03645 40.60959 34.82302
#
# Velocity S-wave (km/s) = 3.47759 4.11264 3.80837
# Velocity P-wave (km/s) = 6.24176 7.41383 6.85290
#
# Compressibility (1/GPa) = 0.01823958
#
# Stress axis : x y z
#
# Youngs Moduli (GPa) = 130.08413 60.99891 96.28841
#
# Poissons Ratio (x) = -0.15080 0.38359
# Poissons Ratio (y) = -0.32158 0.63568
# Poissons Ratio (z) = 0.51823 0.40270
#
# Static dielectric constant tensor:
#      x y z
#    x 1.962160 0.000000 -0.023900 
#    y 0.000000 1.984780 0.000000 
#    z -0.023900 0.000000 1.905880 
# 
# From -- ./inp_files/24252.got.cif
#   From: 2010.05.17/outbox.cif.g08.bks.cpg/sg14_13_cif.got.tgz:24252.got - 2010.06.03 17:49:19.
