data_PCOD9243826
_publ_section_title
;
Structure prediction by ZEFSAII (Michael W. Deem and Ramdas Pophale) SiO2 
 PCOD9243826
Probable space group: P 21/C
;
_chemical_formula_sum "Si O2"
_cell_formula_units_Z 20
_cell_length_a 5.608453
_cell_length_b 19.650913
_cell_length_c 7.895868
_cell_angle_alpha 90.000000
_cell_angle_beta 62.683484
_cell_angle_gamma 90.000000
_cell_volume 773.171417
_symmetry_space_group_name_H-M "P 21/C"
_symmetry_group_IT_number 14
_symmetry_cell_setting 'monoclinic'
loop_
_space_group_symop_operation_xyz
x,y,z
-x,1/2+y,1/2-z
-x,-y,-z
x,1/2-y,1/2+z
loop_
_atom_site_type_symbol
_atom_site_label
_atom_site_fract_x
_atom_site_fract_y
_atom_site_fract_z
Si Si1 0.315902 0.686993 0.510315
Si Si2 0.204608 0.533049 0.068660
Si Si3 0.963593 0.595862 0.459728
Si Si4 0.509902 0.648585 0.807145
Si Si5 0.850924 0.726819 0.265351
O O1 0.405065 0.688937 0.676940
O O2 0.571311 0.691378 0.303487
O O3 0.192677 0.613231 0.518982
O O4 0.102038 0.748868 0.573099
O O5 0.282746 0.608940 0.980417
O O6 0.500000 0.500000 0.000000
O O7 0.000000 0.500000 0.000000
O O8 0.044130 0.541062 0.297002
O O9 0.693636 0.591583 0.653831
O O10 0.946396 0.669828 0.367360
O O11 0.710158 0.698346 0.848660
#
# Coordination Sequence:
#
# PCOD9243826 Si02
#       5
#     4   4   4   4   4
#     4  10  21  38  68 104 140 187 230 308 376 444
#     4  12  31  50  74 106 148 205 254 306 354 450
#     4  10  24  45  72 102 144 188 246 304 375 438
#     4  10  24  45  72 102 144 188 246 304 375 438
#     4  10  20  38  68 106 140 182 228 308 374 446
#
# _framework density 25.867487000000001
#
# number of rings (size 3 to 8) (size 9 to 14) (size 15 to 20)
#    0.000    1.600    0.000    2.400   11.200    8.000 
#    0.000    0.000    0.000    0.000    0.000    0.000 
#    0.000    0.000    0.000    0.000    0.000    0.000 
#
# Total GULP energy -111415.091268 kJ/mol
# GULP energy per Si atom -5570.754563 kJ/mol
# Density = 2.580861 g / cm^3
# Si number density = 25.867487 Si / 1000 Ang^3
#
#
#
# Elastic Constant Matrix: (Units=GPa)
#
#
# Indices 1 2 3 4 5 6 
#
# 1 100.6274 30.7236 15.3404 0.0000 -12.2569 0.0000
# 2 30.7236 95.7474 11.6374 0.0000 9.9633 0.0000
# 3 15.3404 11.6374 89.1981 0.0000 -9.3633 0.0000
# 4 0.0000 0.0000 0.0000 59.6141 0.0000 4.9098
# 5 -12.2569 9.9633 -9.3633 0.0000 34.2902 0.0000
# 6 0.0000 0.0000 0.0000 4.9098 0.0000 39.3785
#
#
#
# Elastic Compliance Matrix: (Units=1/GPa)
#
#
# Indices 1 2 3 4 5 6 
#
# 1 0.012040 -0.004298 -0.000954 0.000000 0.005292 0.000000
# 2 -0.004298 0.012587 -0.001491 0.000000 -0.005601 0.000000
# 3 -0.000954 -0.001491 0.011921 0.000000 0.003347 0.000000
# 4 0.000000 0.000000 0.000000 0.016949 0.000000 -0.002113
# 5 0.005292 -0.005601 0.003347 0.000000 0.033596 0.000000
# 6 0.000000 0.000000 0.000000 -0.002113 0.000000 0.025658
#
#
# Mechanical properties :
#
#
# Convention : Reuss Voigt Hill
#
# Bulk Modulus (GPa) = 43.36235 44.55285 43.95760
# Shear Modulus (GPa) = 37.33434 41.84798 39.59116
#
# Velocity S-wave (km/s) = 3.80319 4.02653 3.91645
# Velocity P-wave (km/s) = 6.00711 6.23523 6.12223
#
# Compressibility (1/GPa) = 0.02306148
#
# Stress axis : x y z
#
# Youngs Moduli (GPa) = 83.05633 79.44478 83.88543
#
# Poissons Ratio (x) = 0.34146 0.08006
# Poissons Ratio (y) = 0.35698 0.12507
# Poissons Ratio (z) = 0.07927 0.11845
#
# Static dielectric constant tensor:
#      x y z
#    x 2.135440 0.000000 -0.021680 
#    y 0.000000 2.117990 0.000000 
#    z -0.021680 0.000000 2.053820 
# 
# From -- ./inp_files/5845.got.cif
#   From: 2010.05.17/outbox.cif.g08.bks.cpg/sg14_3_cif.got.tgz:5845.got - 2010.06.03 17:49:19.
