data_PCOD9243263
_publ_section_title
;
Structure prediction by ZEFSAII (Michael W. Deem and Ramdas Pophale) SiO2 
 PCOD9243263
Probable space group: P 21/C
;
_chemical_formula_sum "Si O2"
_cell_formula_units_Z 28
_cell_length_a 7.287117
_cell_length_b 8.579342
_cell_length_c 18.097464
_cell_angle_alpha 90.000000
_cell_angle_beta 70.989085
_cell_angle_gamma 90.000000
_cell_volume 1069.717285
_symmetry_space_group_name_H-M "P 21/C"
_symmetry_group_IT_number 14
_symmetry_cell_setting 'monoclinic'
loop_
_space_group_symop_operation_xyz
x,y,z
-x,1/2+y,1/2-z
-x,-y,-z
x,1/2-y,1/2+z
loop_
_atom_site_type_symbol
_atom_site_label
_atom_site_fract_x
_atom_site_fract_y
_atom_site_fract_z
Si Si1 0.876818 0.120498 0.779126
Si Si2 0.785245 0.415352 0.583645
Si Si3 0.614733 0.557185 0.093683
Si Si4 0.117674 0.205771 0.135911
Si Si5 0.125887 0.244917 0.863769
Si Si6 0.538596 0.252413 0.014330
Si Si7 0.466504 0.693011 0.246739
O O1 0.677338 0.178050 0.769141
O O2 0.034875 0.151635 0.694634
O O3 0.935599 0.231234 0.840349
O O4 0.891709 0.948652 0.810944
O O5 0.844216 0.592263 0.590569
O O6 0.691802 0.380867 0.516254
O O7 0.621324 0.364981 0.665246
O O8 0.971391 0.318726 0.586382
O O9 0.828603 0.606323 0.092493
O O10 0.620555 0.406420 0.043570
O O11 0.485006 0.551422 0.184676
O O12 0.516701 0.698606 0.060751
O O13 0.333216 0.221769 0.079403
O O14 0.312473 0.248244 0.783854
#
# Coordination Sequence:
#
# PCOD9243263 Si02
#       7
#     4   4   4   4   4   4   4
#     4  10  20  37  59  92 118 152 194 245 309 333
#     4  10  21  36  62  87 114 150 205 237 309 333
#     4   9  24  40  60  83 120 161 202 231 305 351
#     4  10  23  36  61  90 120 151 198 247 291 366
#     4   9  20  37  56  88 113 153 195 245 287 355
#     4  11  22  44  57  85 122 161 191 252 290 357
#     4   9  20  36  58  89 114 153 195 242 292 358
#
# _framework density 26.175141
#
# number of rings (size 3 to 8) (size 9 to 14) (size 15 to 20)
#    0.857    1.429    0.000    1.714    8.000    2.857 
#    2.571    2.857    0.000    0.000    0.000    0.000 
#    0.000    0.000    0.000    0.000    0.000    0.000 
#
# Total GULP energy -156784.197079 kJ/mol
# GULP energy per Si atom -5599.435610 kJ/mol
# Density = 2.611557 g / cm^3
# Si number density = 26.175141 Si / 1000 Ang^3
#
#
#
# Elastic Constant Matrix: (Units=GPa)
#
#
# Indices 1 2 3 4 5 6 
#
# 1 112.4007 10.5764 29.3816 0.0000 17.8145 0.0000
# 2 10.5764 41.6712 19.6590 0.0000 1.2968 0.0000
# 3 29.3816 19.6590 95.7236 0.0000 2.9204 0.0000
# 4 0.0000 0.0000 0.0000 43.9668 0.0000 19.0006
# 5 17.8145 1.2968 2.9204 0.0000 35.1420 0.0000
# 6 0.0000 0.0000 0.0000 19.0006 0.0000 21.2585
#
#
#
# Elastic Compliance Matrix: (Units=1/GPa)
#
#
# Indices 1 2 3 4 5 6 
#
# 1 0.010554 -0.001180 -0.002843 0.000000 -0.005071 0.000000
# 2 -0.001180 0.026714 -0.005125 0.000000 0.000038 0.000000
# 3 -0.002843 -0.005125 0.012353 0.000000 0.000603 0.000000
# 4 0.000000 0.000000 0.000000 0.037059 0.000000 -0.033123
# 5 -0.005071 0.000038 0.000603 0.000000 0.030975 0.000000
# 6 0.000000 0.000000 0.000000 -0.033123 0.000000 0.076645
#
#
# Mechanical properties :
#
#
# Convention : Reuss Voigt Hill
#
# Bulk Modulus (GPa) = 31.92243 41.00328 36.46285
# Shear Modulus (GPa) = 22.41778 32.75203 27.58490
#
# Velocity S-wave (km/s) = 2.92970 3.54116 3.24984
# Velocity P-wave (km/s) = 4.86481 5.69374 5.29552
#
# Compressibility (1/GPa) = 0.03132594
#
# Stress axis : x y z
#
# Youngs Moduli (GPa) = 94.74662 37.43410 80.94921
#
# Poissons Ratio (x) = 0.04417 0.23010
# Poissons Ratio (y) = 0.11180 0.41488
# Poissons Ratio (z) = 0.26932 0.19186
#
# Static dielectric constant tensor:
#      x y z
#    x 1.986230 0.000000 0.006800 
#    y 0.000000 2.072490 0.000000 
#    z 0.006800 0.000000 2.079090 
# 
# From -- ./inp_files/64565.got.cif
#   From: 2010.05.17/outbox.cif.g08.bks.cpg/sg14_33_cif.got.tgz:64565.got - 2010.06.03 17:49:19.
