data_PCOD9243911
_publ_section_title
;
Structure prediction by ZEFSAII (Michael W. Deem and Ramdas Pophale) SiO2 
 PCOD9243911
Probable space group: P 21/C
;
_chemical_formula_sum "Si O2"
_cell_formula_units_Z 28
_cell_length_a 6.186600
_cell_length_b 11.071334
_cell_length_c 18.766633
_cell_angle_alpha 90.000000
_cell_angle_beta 65.135494
_cell_angle_gamma 90.000000
_cell_volume 1166.249567
_symmetry_space_group_name_H-M "P 21/C"
_symmetry_group_IT_number 14
_symmetry_cell_setting 'monoclinic'
loop_
_space_group_symop_operation_xyz
x,y,z
-x,1/2+y,1/2-z
-x,-y,-z
x,1/2-y,1/2+z
loop_
_atom_site_type_symbol
_atom_site_label
_atom_site_fract_x
_atom_site_fract_y
_atom_site_fract_z
Si Si1 0.329505 0.241298 0.765488
Si Si2 0.101885 0.511973 0.301121
Si Si3 0.264459 0.510658 0.432816
Si Si4 0.077041 0.909002 0.645414
Si Si5 0.649107 0.816155 0.891939
Si Si6 0.275570 0.089952 0.518927
Si Si7 0.502228 0.253209 0.388021
O O1 0.408401 0.248053 0.673852
O O2 0.528386 0.233285 0.798870
O O3 0.183323 0.361566 0.802133
O O4 0.138431 0.132417 0.799695
O O5 0.255952 0.545889 0.349792
O O6 0.168132 0.540409 0.209859
O O7 0.852971 0.581993 0.350282
O O8 0.415294 0.614115 0.449325
O O9 0.397477 0.383106 0.422959
O O10 0.000000 0.500000 0.500000
O O11 0.260543 0.797711 0.607797
O O12 0.076156 0.005380 0.581693
O O13 0.725261 0.711116 0.933898
O O14 0.308217 0.150495 0.437175
O O15 0.500000 0.000000 0.500000
#
# Coordination Sequence:
#
# PCOD9243911 Si02
#       7
#     4   4   4   4   4   4   4
#     4  10  21  38  65  91 122 162 203 254 311 368
#     4  10  21  39  65  93 122 157 211 258 306 372
#     4  11  24  39  61  91 122 160 208 260 307 364
#     4  10  20  39  61  89 125 163 203 252 307 372
#     4  11  22  41  64  91 124 165 204 254 314 364
#     4  10  22  39  62  88 127 167 200 251 307 367
#     4  10  22  39  59  90 124 160 206 252 304 361
#
# _framework density 24.008583000000002
#
# number of rings (size 3 to 8) (size 9 to 14) (size 15 to 20)
#    0.000    1.714    1.429    2.571    0.000    7.429 
#    0.000    4.286    0.000    0.000    0.000    0.000 
#    0.000    0.000    0.000    0.000    0.000    0.000 
#
# Total GULP energy -156148.476745 kJ/mol
# GULP energy per Si atom -5576.731312 kJ/mol
# Density = 2.395394 g / cm^3
# Si number density = 24.008583 Si / 1000 Ang^3
#
#
#
# Elastic Constant Matrix: (Units=GPa)
#
#
# Indices 1 2 3 4 5 6 
#
# 1 23.4813 16.7554 0.7891 0.0000 -1.7814 0.0000
# 2 16.7554 71.5507 -9.1252 0.0000 -9.0849 0.0000
# 3 0.7891 -9.1252 63.8382 0.0000 19.0140 0.0000
# 4 0.0000 0.0000 0.0000 46.0563 0.0000 -2.6416
# 5 -1.7814 -9.0849 19.0140 0.0000 35.4951 0.0000
# 6 0.0000 0.0000 0.0000 -2.6416 0.0000 22.8585
#
#
#
# Elastic Compliance Matrix: (Units=1/GPa)
#
#
# Indices 1 2 3 4 5 6 
#
# 1 0.051512 -0.012292 -0.002649 0.000000 0.000858 0.000000
# 2 -0.012292 0.017449 0.001784 0.000000 0.002893 0.000000
# 3 -0.002649 0.001784 0.018866 0.000000 -0.009782 0.000000
# 4 0.000000 0.000000 0.000000 0.021857 0.000000 0.002526
# 5 0.000858 0.002893 -0.009782 0.000000 0.034197 0.000000
# 6 0.000000 0.000000 0.000000 0.002526 0.000000 0.044039
#
#
# Mechanical properties :
#
#
# Convention : Reuss Voigt Hill
#
# Bulk Modulus (GPa) = 16.25643 19.52321 17.88982
# Shear Modulus (GPa) = 21.30021 30.91203 26.10612
#
# Velocity S-wave (km/s) = 2.98181 3.59212 3.30110
# Velocity P-wave (km/s) = 4.31749 5.03527 4.69013
#
# Compressibility (1/GPa) = 0.06151410
#
# Stress axis : x y z
#
# Youngs Moduli (GPa) = 19.41291 57.30831 53.00515
#
# Poissons Ratio (x) = 0.70442 0.14044
# Poissons Ratio (y) = 0.23862 -0.09458
# Poissons Ratio (z) = 0.05143 -0.10226
#
# Static dielectric constant tensor:
#      x y z
#    x 1.948740 0.000000 0.007200 
#    y 0.000000 1.893280 0.000000 
#    z 0.007200 0.000000 1.987780 
# 
# From -- ./inp_files/63290.got.cif
#   From: 2010.05.17/outbox.cif.g08.bks.cpg/sg14_32_cif.got.tgz:63290.got - 2010.06.03 17:49:19.
