data_PCOD9243008
_publ_section_title
;
Structure prediction by ZEFSAII (Michael W. Deem and Ramdas Pophale) SiO2 
 PCOD9243008
Probable space group: P 21/C
;
_chemical_formula_sum "Si O2"
_cell_formula_units_Z 28
_cell_length_a 13.911813
_cell_length_b 7.647130
_cell_length_c 13.873782
_cell_angle_alpha 90.000000
_cell_angle_beta 137.936439
_cell_angle_gamma 90.000000
_cell_volume 988.831846
_symmetry_space_group_name_H-M "P 21/C"
_symmetry_group_IT_number 14
_symmetry_cell_setting 'monoclinic'
loop_
_space_group_symop_operation_xyz
x,y,z
-x,1/2+y,1/2-z
-x,-y,-z
x,1/2-y,1/2+z
loop_
_atom_site_type_symbol
_atom_site_label
_atom_site_fract_x
_atom_site_fract_y
_atom_site_fract_z
Si Si1 0.151372 0.407243 0.058683
Si Si2 0.944594 0.929038 0.087696
Si Si3 0.626413 0.688325 0.633609
Si Si4 0.967748 0.225726 0.654230
Si Si5 0.387084 0.357922 0.076022
Si Si6 0.309493 0.568142 0.728069
Si Si7 0.315338 0.762500 0.434569
O O1 0.081875 0.580215 0.960260
O O2 0.279126 0.341756 0.082880
O O3 0.040466 0.246292 0.964349
O O4 0.240238 0.421344 0.224195
O O5 0.047526 0.099239 0.175724
O O6 0.818232 0.030464 0.938632
O O7 0.938127 0.860653 0.191805
O O8 0.632138 0.721189 0.524103
O O9 0.460881 0.646763 0.539955
O O10 0.648762 0.881827 0.695515
O O11 0.826642 0.284975 0.611780
O O12 0.357467 0.550443 0.012038
O O13 0.554555 0.353758 0.227837
O O14 0.280707 0.692324 0.797479
#
# Coordination Sequence:
#
# PCOD9243008 Si02
#       7
#     4   4   4   4   4   4   4
#     4  10  20  36  60  84 112 152 180 228 292 330
#     4  11  22  37  56  79 112 149 194 230 268 333
#     4   8  15  31  56  86 116 142 178 229 283 339
#     4  11  22  37  56  79 112 149 194 230 268 333
#     4   8  15  31  56  86 116 142 178 229 283 339
#     4   8  16  32  55  83 110 142 185 231 278 333
#     4   8  16  32  55  83 110 142 185 231 278 333
#
# _framework density 28.316237999999998
#
# number of rings (size 3 to 8) (size 9 to 14) (size 15 to 20)
#    0.000    2.857    1.429    1.714    2.000    0.571 
#    0.000    1.429    0.000    5.143    0.000    0.000 
#    0.000    0.000    0.000    0.000    0.000    0.000 
#
# Total GULP energy -156753.408896 kJ/mol
# GULP energy per Si atom -5598.336032 kJ/mol
# Density = 2.825179 g / cm^3
# Si number density = 28.316238 Si / 1000 Ang^3
#
#
#
# Elastic Constant Matrix: (Units=GPa)
#
#
# Indices 1 2 3 4 5 6 
#
# 1 129.1696 47.5867 52.1456 0.0000 5.7821 0.0000
# 2 47.5867 156.5287 15.5405 0.0000 2.0104 0.0000
# 3 52.1456 15.5405 101.6994 0.0000 20.0747 0.0000
# 4 0.0000 0.0000 0.0000 31.7956 0.0000 3.4128
# 5 5.7821 2.0104 20.0747 0.0000 37.2685 0.0000
# 6 0.0000 0.0000 0.0000 3.4128 0.0000 23.4493
#
#
#
# Elastic Compliance Matrix: (Units=1/GPa)
#
#
# Indices 1 2 3 4 5 6 
#
# 1 0.010904 -0.002793 -0.005438 0.000000 0.001388 0.000000
# 2 -0.002793 0.007204 0.000361 0.000000 -0.000150 0.000000
# 3 -0.005438 0.000361 0.013879 0.000000 -0.006652 0.000000
# 4 0.000000 0.000000 0.000000 0.031950 0.000000 -0.004650
# 5 0.001388 -0.000150 -0.006652 0.000000 0.030208 0.000000
# 6 0.000000 0.000000 0.000000 -0.004650 0.000000 0.043322
#
#
# Mechanical properties :
#
#
# Convention : Reuss Voigt Hill
#
# Bulk Modulus (GPa) = 61.55236 68.66036 65.10636
# Shear Modulus (GPa) = 31.52135 36.64434 34.08285
#
# Velocity S-wave (km/s) = 3.34007 3.60128 3.47313
# Velocity P-wave (km/s) = 6.05470 6.44923 6.25508
#
# Compressibility (1/GPa) = 0.01624633
#
# Stress axis : x y z
#
# Youngs Moduli (GPa) = 91.71038 138.81623 72.05054
#
# Poissons Ratio (x) = 0.38769 0.39182
# Poissons Ratio (y) = 0.25613 -0.02599
# Poissons Ratio (z) = 0.49873 -0.05008
#
# Static dielectric constant tensor:
#      x y z
#    x 2.251480 0.000000 0.080090 
#    y 0.000000 2.120210 0.000000 
#    z 0.080090 0.000000 2.198950 
# 
# From -- ./inp_files/48599.got.cif
#   From: 2010.05.17/outbox.cif.g08.bks.cpg/sg14_25_cif.got.tgz:48599.got - 2010.06.03 17:49:19.
