data_PCOD9243058
_publ_section_title
;
Structure prediction by ZEFSAII (Michael W. Deem and Ramdas Pophale) SiO2 
 PCOD9243058
Probable space group: P 21/C
;
_chemical_formula_sum "Si O2"
_cell_formula_units_Z 8
_cell_length_a 20.502683
_cell_length_b 5.502855
_cell_length_c 8.610810
_cell_angle_alpha 90.000000
_cell_angle_beta 161.482669
_cell_angle_gamma 90.000000
_cell_volume 308.540113
_symmetry_space_group_name_H-M "P 21/C"
_symmetry_group_IT_number 14
_symmetry_cell_setting 'monoclinic'
loop_
_space_group_symop_operation_xyz
x,y,z
-x,1/2+y,1/2-z
-x,-y,-z
x,1/2-y,1/2+z
loop_
_atom_site_type_symbol
_atom_site_label
_atom_site_fract_x
_atom_site_fract_y
_atom_site_fract_z
Si Si1 0.735132 0.000000 0.594488
Si Si2 0.732404 0.000000 0.958807
O O1 0.725685 1.000000 0.758546
O O2 0.827362 0.250685 0.737740
O O3 0.827362 0.749315 0.737739
O O4 0.500000 0.000000 0.000000
O O5 0.500000 0.000000 0.500000
#
# Coordination Sequence:
#
# PCOD9243058 Si02
#       2
#     4   4
#     4  10  20  36  61  93 122 158 215 273 309 364
#     4  12  23  42  70  99 127 176 228 265 318 400
#
# _framework density 25.928559
#
# number of rings (size 3 to 8) (size 9 to 14) (size 15 to 20)
#    0.000    1.000    0.000   11.500    0.000    0.000 
#    0.000    6.000    0.000    0.000    0.000    0.000 
#    0.000    0.000    0.000    0.000    0.000    0.000 
#
# Total GULP energy -44836.696679 kJ/mol
# GULP energy per Si atom -5604.587085 kJ/mol
# Density = 2.586954 g / cm^3
# Si number density = 25.928559 Si / 1000 Ang^3
#
#
#
# Elastic Constant Matrix: (Units=GPa)
#
#
# Indices 1 2 3 4 5 6 
#
# 1 261.1507 113.2411 86.3982 0.0000 -77.0507 0.0000
# 2 113.2411 342.1157 39.9593 0.0000 -62.8384 0.0000
# 3 86.3982 39.9593 124.7287 0.0000 -28.9987 0.0000
# 4 0.0000 0.0000 0.0000 -12.8634 0.0000 -33.6833
# 5 -77.0507 -62.8384 -28.9987 0.0000 81.7460 0.0000
# 6 0.0000 0.0000 0.0000 -33.6833 0.0000 31.3333
#
#
#
# Elastic Compliance Matrix: (Units=1/GPa)
#
#
# Indices 1 2 3 4 5 6 
#
# 1 0.006617 -0.001021 -0.003258 0.000000 0.004297 0.000000
# 2 -0.001021 0.003593 -0.000028 0.000000 0.001790 0.000000
# 3 -0.003258 -0.000028 0.010424 0.000000 0.000606 0.000000
# 4 0.000000 0.000000 0.000000 -0.020378 0.000000 -0.021906
# 5 0.004297 0.001790 0.000606 0.000000 0.017874 0.000000
# 6 0.000000 0.000000 0.000000 -0.021906 0.000000 0.008366
#
#
# Mechanical properties :
#
#
# Convention : Reuss Voigt Hill
#
# Bulk Modulus (GPa) = 83.18494 134.13248 108.65871
# Shear Modulus (GPa) = 127.82567 52.60294 90.21430
#
# Velocity S-wave (km/s) = 7.02895 4.50907 5.90499
# Velocity P-wave (km/s) = 9.90086 8.88554 9.40691
#
# Compressibility (1/GPa) = 0.01202141
#
# Stress axis : x y z
#
# Youngs Moduli (GPa) = 151.11741 278.33159 95.93456
#
# Poissons Ratio (x) = 0.28406 0.31253
# Poissons Ratio (y) = 0.15423 0.00268
# Poissons Ratio (z) = 0.49231 0.00777
#
# Static dielectric constant tensor:
#      x y z
#    x 1.902630 0.000000 0.047250 
#    y 0.000000 2.165300 0.000000 
#    z 0.047250 0.000000 2.006120 
# 
# From -- ./inp_files/19240.got.cif
#   From: 2010.05.17/outbox.cif.g08.bks.cpg/sg14_10_cif.got.tgz:19240.got - 2010.06.03 17:49:19.
