data_PCOD9243155
_publ_section_title
;
Structure prediction by ZEFSAII (Michael W. Deem and Ramdas Pophale) SiO2 
 PCOD9243155
Probable space group: P 21/C
;
_chemical_formula_sum "Si O2"
_cell_formula_units_Z 32
_cell_length_a 12.027721
_cell_length_b 16.692769
_cell_length_c 15.890436
_cell_angle_alpha 90.000000
_cell_angle_beta 23.567276
_cell_angle_gamma 90.000000
_cell_volume 1275.610643
_symmetry_space_group_name_H-M "P 21/C"
_symmetry_group_IT_number 14
_symmetry_cell_setting 'monoclinic'
loop_
_space_group_symop_operation_xyz
x,y,z
-x,1/2+y,1/2-z
-x,-y,-z
x,1/2-y,1/2+z
loop_
_atom_site_type_symbol
_atom_site_label
_atom_site_fract_x
_atom_site_fract_y
_atom_site_fract_z
Si Si1 0.022284 0.813884 0.243297
Si Si2 0.558447 0.578068 0.901019
Si Si3 0.884087 0.181681 0.192514
Si Si4 0.719833 0.574603 0.497057
Si Si5 0.679194 0.561891 0.182922
Si Si6 0.436562 0.406168 0.565266
Si Si7 0.849912 0.160128 0.023222
Si Si8 0.825303 0.972037 0.414869
O O1 0.982429 0.753973 0.347337
O O2 0.081445 0.784708 0.106800
O O3 0.787462 0.883147 0.403044
O O4 0.297610 0.861468 0.082175
O O5 0.875527 0.602993 0.665527
O O6 0.500000 0.500000 0.000000
O O7 0.367695 0.649070 0.072793
O O8 0.419452 0.537440 0.914838
O O9 0.124987 0.115365 0.033972
O O10 0.819828 0.194885 0.138606
O O11 0.454159 0.523879 0.704695
O O12 0.656822 0.629881 0.459037
O O13 0.944591 0.513428 0.301777
O O14 0.763213 0.598248 0.214456
O O15 0.429135 0.612335 0.310956
O O16 0.905290 0.548380 0.955001
O O17 0.500000 0.500000 0.500000
#
# Coordination Sequence:
#
# PCOD9243155 Si02
#       8
#     4   4   4   4   4   4   4   4
#     4  11  23  45  60  96 136 165 220 267 332 397
#     4  11  21  40  69 100 126 166 223 271 320 389
#     4  11  26  41  64  95 132 174 209 277 338 386
#     4  10  20  42  61  93 128 164 218 268 322 383
#     4  10  20  36  68  95 120 166 214 262 322 377
#     4   9  18  40  65  85 124 172 210 267 312 379
#     4  11  22  44  66  96 133 170 215 268 330 392
#     4  11  20  37  64  95 125 165 215 264 315 398
#
# _framework density 25.086024999999999
#
# number of rings (size 3 to 8) (size 9 to 14) (size 15 to 20)
#    0.000    1.500    5.000    2.250    0.000    3.000 
#    6.750    2.500    0.000    0.000    0.000    0.000 
#    0.000    0.000    0.000    0.000    0.000    0.000 
#
# Total GULP energy -178392.247785 kJ/mol
# GULP energy per Si atom -5574.757743 kJ/mol
# Density = 2.502893 g / cm^3
# Si number density = 25.086025 Si / 1000 Ang^3
#
#
#
# Elastic Constant Matrix: (Units=GPa)
#
#
# Indices 1 2 3 4 5 6 
#
# 1 153.2230 10.4343 25.4905 0.0000 42.1958 0.0000
# 2 10.4343 39.6178 18.2119 0.0000 8.7883 0.0000
# 3 25.4905 18.2119 74.9397 0.0000 24.5705 0.0000
# 4 0.0000 0.0000 0.0000 15.4968 0.0000 3.1105
# 5 42.1958 8.7883 24.5705 0.0000 61.6811 0.0000
# 6 0.0000 0.0000 0.0000 3.1105 0.0000 31.8427
#
#
#
# Elastic Compliance Matrix: (Units=1/GPa)
#
#
# Indices 1 2 3 4 5 6 
#
# 1 0.008128 -0.000571 -0.000954 0.000000 -0.005099 0.000000
# 2 -0.000571 0.028576 -0.006376 0.000000 -0.001141 0.000000
# 3 -0.000954 -0.006376 0.016916 0.000000 -0.005177 0.000000
# 4 0.000000 0.000000 0.000000 0.065820 0.000000 -0.006430
# 5 -0.005099 -0.001141 -0.005177 0.000000 0.021925 0.000000
# 6 0.000000 0.000000 0.000000 -0.006430 0.000000 0.032032
#
#
# Mechanical properties :
#
#
# Convention : Reuss Voigt Hill
#
# Bulk Modulus (GPa) = 26.44333 41.78376 34.11355
# Shear Modulus (GPa) = 24.77627 36.04704 30.41165
#
# Velocity S-wave (km/s) = 3.14610 3.79481 3.48558
# Velocity P-wave (km/s) = 4.87455 5.99109 5.46143
#
# Compressibility (1/GPa) = 0.03781671
#
# Stress axis : x y z
#
# Youngs Moduli (GPa) = 123.02720 34.99478 59.11710
#
# Poissons Ratio (x) = 0.01998 0.05641
# Poissons Ratio (y) = 0.07025 0.37694
# Poissons Ratio (z) = 0.11739 0.22313
#
# Static dielectric constant tensor:
#      x y z
#    x 2.259840 0.000000 -0.067220 
#    y 0.000000 2.045120 0.000000 
#    z -0.067220 0.000000 2.000090 
# 
# From -- ./inp_files/45426.got.cif
#   From: 2010.05.17/outbox.cif.g08.bks.cpg/sg14_23_cif.got.tgz:45426.got - 2010.06.03 17:49:19.
