data_PCOD9243781
_publ_section_title
;
Structure prediction by ZEFSAII (Michael W. Deem and Ramdas Pophale) SiO2 
 PCOD9243781
Probable space group: P 21/C
;
_chemical_formula_sum "Si O2"
_cell_formula_units_Z 20
_cell_length_a 10.894830
_cell_length_b 17.814475
_cell_length_c 8.063155
_cell_angle_alpha 90.000000
_cell_angle_beta 144.516796
_cell_angle_gamma 90.000000
_cell_volume 908.393445
_symmetry_space_group_name_H-M "P 21/C"
_symmetry_group_IT_number 14
_symmetry_cell_setting 'monoclinic'
loop_
_space_group_symop_operation_xyz
x,y,z
-x,1/2+y,1/2-z
-x,-y,-z
x,1/2-y,1/2+z
loop_
_atom_site_type_symbol
_atom_site_label
_atom_site_fract_x
_atom_site_fract_y
_atom_site_fract_z
Si Si1 0.656930 0.849074 0.126363
Si Si2 0.645929 0.993972 0.914560
Si Si3 0.534560 0.286819 0.247134
Si Si4 0.939223 0.364367 0.728302
Si Si5 0.719356 0.583761 0.159421
O O1 0.530781 0.822329 0.149419
O O2 0.900758 0.842590 0.449335
O O3 0.620819 0.934285 0.032545
O O4 0.571325 0.793305 0.892555
O O5 0.754532 0.950415 0.878621
O O6 0.421038 0.023816 0.598893
O O7 0.792700 0.065022 0.116361
O O8 0.785584 0.295811 0.511511
O O9 0.429598 0.342750 0.997313
O O10 0.078305 0.391518 0.724181
#
# Coordination Sequence:
#
# PCOD9243781 Si02
#       5
#     4   4   4   4   4
#     4  11  23  40  61  88 123 158 206 256 300 358
#     4  10  20  38  65  94 123 157 198 251 305 361
#     4  10  23  40  58  86 122 162 204 251 301 359
#     4  10  22  39  62  90 121 162 204 247 306 363
#     4   9  20  39  62  91 126 159 198 244 299 366
#
# _framework density 22.016893
#
# number of rings (size 3 to 8) (size 9 to 14) (size 15 to 20)
#    0.000    2.000    0.000    2.400    0.000   12.000 
#    0.000    4.000    0.000    0.000    0.000    0.000 
#    0.000    0.000    0.000    0.000    0.000    0.000 
#
# Total GULP energy -111764.230337 kJ/mol
# GULP energy per Si atom -5588.211517 kJ/mol
# Density = 2.196678 g / cm^3
# Si number density = 22.016893 Si / 1000 Ang^3
#
#
#
# Elastic Constant Matrix: (Units=GPa)
#
#
# Indices 1 2 3 4 5 6 
#
# 1 80.1300 25.3717 51.3553 0.0000 -4.3459 0.0000
# 2 25.3717 78.7793 50.6831 0.0000 2.9615 0.0000
# 3 51.3553 50.6831 95.5717 0.0000 17.6183 0.0000
# 4 0.0000 0.0000 0.0000 41.1756 0.0000 -8.6489
# 5 -4.3459 2.9615 17.6183 0.0000 26.9685 0.0000
# 6 0.0000 0.0000 0.0000 -8.6489 0.0000 19.8278
#
#
#
# Elastic Compliance Matrix: (Units=1/GPa)
#
#
# Indices 1 2 3 4 5 6 
#
# 1 0.022794 0.002534 -0.016165 0.000000 0.013955 0.000000
# 2 0.002534 0.020208 -0.013353 0.000000 0.006912 0.000000
# 3 -0.016165 -0.013353 0.030061 0.000000 -0.020777 0.000000
# 4 0.000000 0.000000 0.000000 0.026736 0.000000 0.011662
# 5 0.013955 0.006912 -0.020777 0.000000 0.052144 0.000000
# 6 0.000000 0.000000 0.000000 0.011662 0.000000 0.055521
#
#
# Mechanical properties :
#
#
# Convention : Reuss Voigt Hill
#
# Bulk Modulus (GPa) = 52.36627 56.58905 54.47766
# Shear Modulus (GPa) = 18.67086 26.06578 22.36832
#
# Velocity S-wave (km/s) = 2.91524 3.44452 3.19087
# Velocity P-wave (km/s) = 5.93024 6.44810 6.19458
#
# Compressibility (1/GPa) = 0.01909626
#
# Stress axis : x y z
#
# Youngs Moduli (GPa) = 43.87047 49.48482 33.26583
#
# Poissons Ratio (x) = -0.12540 0.53774
# Poissons Ratio (y) = -0.11117 0.44419
# Poissons Ratio (z) = 0.70917 0.66075
#
# Static dielectric constant tensor:
#      x y z
#    x 1.832320 0.000000 -0.008800 
#    y 0.000000 1.834860 0.000000 
#    z -0.008800 0.000000 1.823170 
# 
# From -- ./inp_files/5465.got.cif
#   From: 2010.05.17/outbox.cif.g08.bks.cpg/sg14_3_cif.got.tgz:5465.got - 2010.06.03 17:49:19.
