data_PCOD9243226
_publ_section_title
;
Structure prediction by ZEFSAII (Michael W. Deem and Ramdas Pophale) SiO2 
 PCOD9243226
Probable space group: P 21/C
;
_chemical_formula_sum "Si O2"
_cell_formula_units_Z 20
_cell_length_a 18.679982
_cell_length_b 5.004593
_cell_length_c 13.453929
_cell_angle_alpha 90.000000
_cell_angle_beta 142.292193
_cell_angle_gamma 90.000000
_cell_volume 769.283767
_symmetry_space_group_name_H-M "P 21/C"
_symmetry_group_IT_number 14
_symmetry_cell_setting 'monoclinic'
loop_
_space_group_symop_operation_xyz
x,y,z
-x,1/2+y,1/2-z
-x,-y,-z
x,1/2-y,1/2+z
loop_
_atom_site_type_symbol
_atom_site_label
_atom_site_fract_x
_atom_site_fract_y
_atom_site_fract_z
Si Si1 0.999999 0.544950 0.882104
Si Si2 0.360633 0.993569 0.814770
Si Si3 0.316822 0.491707 0.878700
Si Si4 0.870531 0.459388 0.165720
Si Si5 0.525354 0.215308 0.721732
O O1 0.902727 0.344725 0.729012
O O2 0.112329 0.493534 0.933481
O O3 0.967830 0.850969 0.824554
O O4 0.000000 0.500000 0.000000
O O5 0.297045 0.782497 0.814907
O O6 0.367189 0.859868 0.713601
O O7 0.304905 0.277258 0.777813
O O8 0.500000 0.000000 0.000000
O O9 0.242441 0.453381 0.896092
O O10 0.449875 0.453111 0.060422
O O11 0.450293 0.474196 0.675412
#
# Coordination Sequence:
#
# PCOD9243226 Si02
#       5
#     4   4   4   4   4
#     4  10  21  42  67  92 124 161 198 247 324 374
#     4  10  20  37  59  76 115 166 195 236 297 355
#     4  11  21  39  59  86 119 159 209 241 297 363
#     4  10  22  40  65  92 127 160 198 260 304 365
#     4  11  21  36  56  84 120 158 203 250 298 342
#
# _framework density 25.998207000000001
#
# number of rings (size 3 to 8) (size 9 to 14) (size 15 to 20)
#    0.000    1.600    0.000    7.800    0.000    0.000 
#   10.800    0.000    0.000    0.000    0.000    0.000 
#    0.000    0.000    0.000    0.000    0.000    0.000 
#
# Total GULP energy -111734.963361 kJ/mol
# GULP energy per Si atom -5586.748168 kJ/mol
# Density = 2.593903 g / cm^3
# Si number density = 25.998207 Si / 1000 Ang^3
#
#
#
# Elastic Constant Matrix: (Units=GPa)
#
#
# Indices 1 2 3 4 5 6 
#
# 1 189.4108 20.6931 25.2689 0.0000 -28.7473 0.0000
# 2 20.6931 114.1080 -2.5342 0.0000 -5.9313 0.0000
# 3 25.2689 -2.5342 41.5690 0.0000 -27.8768 0.0000
# 4 0.0000 0.0000 0.0000 31.9233 0.0000 -11.8318
# 5 -28.7473 -5.9313 -27.8768 0.0000 39.6584 0.0000
# 6 0.0000 0.0000 0.0000 -11.8318 0.0000 42.6918
#
#
#
# Elastic Compliance Matrix: (Units=1/GPa)
#
#
# Indices 1 2 3 4 5 6 
#
# 1 0.006079 -0.000981 -0.001699 0.000000 0.003065 0.000000
# 2 -0.000981 0.009153 0.003018 0.000000 0.002780 0.000000
# 3 -0.001699 0.003018 0.046821 0.000000 0.032131 0.000000
# 4 0.000000 0.000000 0.000000 0.034911 0.000000 0.009675
# 5 0.003065 0.002780 0.032131 0.000000 0.050438 0.000000
# 6 0.000000 0.000000 0.000000 0.009675 0.000000 0.026105
#
#
# Mechanical properties :
#
#
# Convention : Reuss Voigt Hill
#
# Bulk Modulus (GPa) = 15.94171 47.99373 31.96772
# Shear Modulus (GPa) = 25.80769 42.96537 34.38653
#
# Velocity S-wave (km/s) = 3.15409 4.06966 3.64077
# Velocity P-wave (km/s) = 4.40562 6.37051 5.47690
#
# Compressibility (1/GPa) = 0.06272853
#
# Stress axis : x y z
#
# Youngs Moduli (GPa) = 164.51243 109.25385 21.35795
#
# Poissons Ratio (x) = 0.10715 0.03630
# Poissons Ratio (y) = 0.16135 -0.06446
# Poissons Ratio (z) = 0.27958 -0.32975
#
# Static dielectric constant tensor:
#      x y z
#    x 2.099470 0.000000 -0.025080 
#    y 0.000000 1.955290 0.000000 
#    z -0.025080 0.000000 2.202000 
# 
# From -- ./inp_files/31136.got.cif
#   From: 2010.05.17/outbox.cif.g08.bks.cpg/sg14_16_cif.got.tgz:31136.got - 2010.06.03 17:49:19.
