data_PCOD9243536
_publ_section_title
;
Structure prediction by ZEFSAII (Michael W. Deem and Ramdas Pophale) SiO2 
 PCOD9243536
Probable space group: P 21/C
;
_chemical_formula_sum "Si O2"
_cell_formula_units_Z 20
_cell_length_a 10.587878
_cell_length_b 9.154084
_cell_length_c 26.990683
_cell_angle_alpha 90.000000
_cell_angle_beta 17.197801
_cell_angle_gamma 90.000000
_cell_volume 773.476270
_symmetry_space_group_name_H-M "P 21/C"
_symmetry_group_IT_number 14
_symmetry_cell_setting 'monoclinic'
loop_
_space_group_symop_operation_xyz
x,y,z
-x,1/2+y,1/2-z
-x,-y,-z
x,1/2-y,1/2+z
loop_
_atom_site_type_symbol
_atom_site_label
_atom_site_fract_x
_atom_site_fract_y
_atom_site_fract_z
Si Si1 0.450073 0.056911 0.855139
Si Si2 0.691577 0.218056 0.922707
Si Si3 0.128052 0.183163 0.357428
Si Si4 0.036102 0.827758 0.476459
Si Si5 0.087409 0.453275 0.717868
O O1 0.374643 0.231862 0.885827
O O2 0.782075 0.984495 0.691819
O O3 0.588123 0.994350 0.857646
O O4 0.000000 0.000000 0.000000
O O5 0.927554 0.247452 0.884973
O O6 0.694656 0.367225 0.890024
O O7 0.978740 0.109743 0.782012
O O8 0.272109 0.138986 0.101511
O O9 0.855941 0.214766 0.507300
O O10 0.573635 0.265708 0.201024
O O11 0.000000 0.000000 0.500000
#
# Coordination Sequence:
#
# PCOD9243536 Si02
#       5
#     4   4   4   4   4
#     4   9  19  37  58  83 117 154 193 240 298 355
#     4  10  21  40  60  85 115 158 202 247 300 355
#     4  10  20  38  60  83 119 156 191 242 300 356
#     4  11  22  36  60  89 117 153 198 246 297 355
#     4  10  22  39  63  87 120 159 201 250 300 359
#
# _framework density 25.857289000000002
#
# number of rings (size 3 to 8) (size 9 to 14) (size 15 to 20)
#    0.000    2.000    0.000    4.800    0.000    4.000 
#    0.000   12.000    0.000    0.000    0.000    0.000 
#    0.000    0.000    0.000    0.000    0.000    0.000 
#
# Total GULP energy -111531.640483 kJ/mol
# GULP energy per Si atom -5576.582024 kJ/mol
# Density = 2.579844 g / cm^3
# Si number density = 25.857289 Si / 1000 Ang^3
#
#
#
# Elastic Constant Matrix: (Units=GPa)
#
#
# Indices 1 2 3 4 5 6 
#
# 1 90.8753 15.0243 8.1798 0.0000 9.9907 0.0000
# 2 15.0243 152.1103 10.5057 0.0000 -5.5201 0.0000
# 3 8.1798 10.5057 39.3051 -0.0002 8.8633 0.0000
# 4 0.0000 0.0000 -0.0002 36.8132 0.0000 5.3104
# 5 9.9907 -5.5201 8.8633 0.0000 35.4187 0.0000
# 6 0.0000 0.0000 0.0000 5.3104 0.0000 44.2219
#
#
#
# Elastic Compliance Matrix: (Units=1/GPa)
#
#
# Indices 1 2 3 4 5 6 
#
# 1 0.011667 -0.001168 -0.001412 0.000000 -0.003120 0.000000
# 2 -0.001168 0.006899 -0.002032 0.000000 0.001913 0.000000
# 3 -0.001412 -0.002032 0.027831 0.000000 -0.006883 0.000000
# 4 0.000000 0.000000 0.000000 0.027643 0.000000 -0.003319
# 5 -0.003120 0.001913 -0.006883 0.000000 0.031134 0.000000
# 6 0.000000 0.000000 0.000000 -0.003319 0.000000 0.023012
#
#
# Mechanical properties :
#
#
# Convention : Reuss Voigt Hill
#
# Bulk Modulus (GPa) = 26.90192 38.85671 32.87932
# Shear Modulus (GPa) = 33.37700 39.86282 36.61991
#
# Velocity S-wave (km/s) = 3.59669 3.93064 3.76737
# Velocity P-wave (km/s) = 5.26069 5.97159 5.62738
#
# Compressibility (1/GPa) = 0.03717207
#
# Stress axis : x y z
#
# Youngs Moduli (GPa) = 85.70953 144.94095 35.93074
#
# Poissons Ratio (x) = 0.16930 0.05075
# Poissons Ratio (y) = 0.10011 0.07303
# Poissons Ratio (z) = 0.12106 0.29459
#
# Static dielectric constant tensor:
#      x y z
#    x 1.979500 0.000000 0.003350 
#    y 0.000000 2.207370 0.000000 
#    z 0.003350 0.000000 2.058750 
# 
# From -- ./inp_files/27833.got.cif
#   From: 2010.05.17/outbox.cif.g08.bks.cpg/sg14_14_cif.got.tgz:27833.got - 2010.06.03 17:49:19.
