data_PCOD9243956
_publ_section_title
;
Structure prediction by ZEFSAII (Michael W. Deem and Ramdas Pophale) SiO2 
 PCOD9243956
Probable space group: P 21/C
;
_chemical_formula_sum "Si O2"
_cell_formula_units_Z 32
_cell_length_a 17.255089
_cell_length_b 11.992278
_cell_length_c 17.117048
_cell_angle_alpha 90.000000
_cell_angle_beta 23.687524
_cell_angle_gamma 90.000000
_cell_volume 1422.990165
_symmetry_space_group_name_H-M "P 21/C"
_symmetry_group_IT_number 14
_symmetry_cell_setting 'monoclinic'
loop_
_space_group_symop_operation_xyz
x,y,z
-x,1/2+y,1/2-z
-x,-y,-z
x,1/2-y,1/2+z
loop_
_atom_site_type_symbol
_atom_site_label
_atom_site_fract_x
_atom_site_fract_y
_atom_site_fract_z
Si Si1 0.411222 0.887579 0.616705
Si Si2 0.073388 0.859553 0.269289
Si Si3 0.697518 0.747356 0.122853
Si Si4 0.476241 0.435659 0.823720
Si Si5 0.575245 0.844327 0.990726
Si Si6 0.689151 0.342996 0.953351
Si Si7 0.776237 0.469899 0.220260
Si Si8 0.221470 0.054773 0.052736
O O1 0.375424 0.911668 0.741275
O O2 0.559084 0.784718 0.486384
O O3 0.265882 0.854009 0.681084
O O4 0.500000 0.000000 0.500000
O O5 0.215905 0.902035 0.205171
O O6 0.868335 0.829933 0.495817
O O7 0.165178 0.748724 0.146724
O O8 0.061855 0.963678 0.221185
O O9 0.617956 0.677199 0.121756
O O10 0.521226 0.786324 0.338841
O O11 0.799142 0.860589 0.999196
O O12 0.336281 0.535001 0.984203
O O13 0.591630 0.483247 0.643728
O O14 0.358146 0.891262 0.209774
O O15 0.722229 0.872910 0.924099
O O16 0.656025 0.917666 0.844990
O O17 0.000000 0.500000 0.000000
#
# Coordination Sequence:
#
# PCOD9243956 Si02
#       8
#     4   4   4   4   4   4   4   4
#     4  10  20  39  67  90 120 163 208 250 309 371
#     4  11  23  37  61  91 125 158 212 254 311 367
#     4  11  23  38  64  88 126 166 204 260 310 368
#     4  10  21  39  66  87 119 170 207 249 320 363
#     4  10  20  39  63  83 126 158 201 260 300 366
#     4  10  22  41  63  88 122 167 206 258 307 369
#     4  10  23  36  58  92 120 163 206 250 310 366
#     4  10  22  41  59  93 121 161 212 254 310 374
#
# _framework density 22.487857999999999
#
# number of rings (size 3 to 8) (size 9 to 14) (size 15 to 20)
#    0.000    1.750    3.750    0.000    5.250    0.000 
#    0.000    2.500    2.750    5.250    0.000    0.000 
#    0.000    0.000    0.000    0.000    0.000    0.000 
#
# Total GULP energy -178253.860992 kJ/mol
# GULP energy per Si atom -5570.433156 kJ/mol
# Density = 2.243667 g / cm^3
# Si number density = 22.487858 Si / 1000 Ang^3
#
#
#
# Elastic Constant Matrix: (Units=GPa)
#
#
# Indices 1 2 3 4 5 6 
#
# 1 49.9697 4.9133 2.3222 0.0000 4.4259 0.0000
# 2 4.9133 123.4020 24.2280 0.0000 4.7127 0.0000
# 3 2.3222 24.2280 71.0381 0.0000 -10.8542 0.0000
# 4 0.0000 0.0000 0.0000 18.5436 0.0000 6.0426
# 5 4.4259 4.7127 -10.8542 0.0000 22.1510 0.0000
# 6 0.0000 0.0000 0.0000 6.0426 0.0000 22.3309
#
#
#
# Elastic Compliance Matrix: (Units=1/GPa)
#
#
# Indices 1 2 3 4 5 6 
#
# 1 0.020518 -0.000396 -0.001242 0.000000 -0.004624 0.000000
# 2 -0.000396 0.008962 -0.003592 0.000000 -0.003587 0.000000
# 3 -0.001242 -0.003592 0.016751 0.000000 0.009221 0.000000
# 4 0.000000 0.000000 0.000000 0.059142 0.000000 -0.016003
# 5 -0.004624 -0.003587 0.009221 0.000000 0.051350 0.000000
# 6 0.000000 0.000000 0.000000 -0.016003 0.000000 0.049111
#
#
# Mechanical properties :
#
#
# Convention : Reuss Voigt Hill
#
# Bulk Modulus (GPa) = 27.95552 34.14852 31.05202
# Shear Modulus (GPa) = 21.90884 26.80152 24.35518
#
# Velocity S-wave (km/s) = 3.12469 3.45602 3.29452
# Velocity P-wave (km/s) = 5.04743 5.58066 5.32073
#
# Compressibility (1/GPa) = 0.03577112
#
# Stress axis : x y z
#
# Youngs Moduli (GPa) = 48.73674 111.58816 59.69674
#
# Poissons Ratio (x) = 0.04424 0.07415
# Poissons Ratio (y) = 0.01932 0.21440
# Poissons Ratio (z) = 0.06053 0.40077
#
# Static dielectric constant tensor:
#      x y z
#    x 1.893270 0.000000 -0.009780 
#    y 0.000000 1.891470 0.000000 
#    z -0.009780 0.000000 1.841740 
# 
# From -- ./inp_files/69915.got.cif
#   From: 2010.05.17/outbox.cif.g08.bks.cpg/sg14_35_cif.got.tgz:69915.got - 2010.06.03 17:49:19.
