data_PCOD9243291
_publ_section_title
;
Structure prediction by ZEFSAII (Michael W. Deem and Ramdas Pophale) SiO2 
 PCOD9243291
Probable space group: P 21/C
;
_chemical_formula_sum "Si O2"
_cell_formula_units_Z 28
_cell_length_a 14.215924
_cell_length_b 9.512021
_cell_length_c 14.110568
_cell_angle_alpha 90.000000
_cell_angle_beta 39.626792
_cell_angle_gamma 90.000000
_cell_volume 1216.931571
_symmetry_space_group_name_H-M "P 21/C"
_symmetry_group_IT_number 14
_symmetry_cell_setting 'monoclinic'
loop_
_space_group_symop_operation_xyz
x,y,z
-x,1/2+y,1/2-z
-x,-y,-z
x,1/2-y,1/2+z
loop_
_atom_site_type_symbol
_atom_site_label
_atom_site_fract_x
_atom_site_fract_y
_atom_site_fract_z
Si Si1 0.334964 0.527916 0.807228
Si Si2 0.019986 0.278815 0.538965
Si Si3 0.695365 0.628398 0.894933
Si Si4 0.762768 0.033634 0.167721
Si Si5 0.180645 0.087145 0.261164
Si Si6 0.515336 0.181659 0.266348
Si Si7 0.067891 0.051372 0.649560
O O1 0.269037 0.529891 0.752409
O O2 0.441360 0.655537 0.755094
O O3 0.421101 0.378579 0.752280
O O4 0.195747 0.521770 0.986676
O O5 0.133914 0.407168 0.445860
O O6 0.071764 0.162907 0.421737
O O7 0.033446 0.201855 0.628527
O O8 0.863649 0.343052 0.632353
O O9 0.665034 0.532790 0.827928
O O10 0.712135 0.790060 0.853905
O O11 0.856527 0.575672 0.808164
O O12 0.583066 0.630578 0.068418
O O13 0.667205 0.097277 0.158021
O O14 0.082571 0.031835 0.250814
#
# Coordination Sequence:
#
# PCOD9243291 Si02
#       7
#     4   4   4   4   4   4   4
#     4  10  23  39  64  88 113 164 202 243 291 356
#     4   9  19  35  65  85 113 151 206 240 295 345
#     4  10  24  35  57  90 122 158 193 246 304 351
#     4  10  20  37  60  88 116 156 193 248 292 358
#     4  10  20  40  60  85 122 152 202 251 294 348
#     4  11  23  40  62  86 123 157 202 240 298 359
#     4  10  20  38  60  86 117 152 199 249 297 345
#
# _framework density 23.008690000000001
#
# number of rings (size 3 to 8) (size 9 to 14) (size 15 to 20)
#    0.000    2.000    0.000    3.857   10.000    0.571 
#    0.000    1.429    0.000    0.000    0.000    0.000 
#    0.000    0.000    0.000    0.000    0.000    0.000 
#
# Total GULP energy -156472.412725 kJ/mol
# GULP energy per Si atom -5588.300454 kJ/mol
# Density = 2.295632 g / cm^3
# Si number density = 23.008690 Si / 1000 Ang^3
#
#
#
# Elastic Constant Matrix: (Units=GPa)
#
#
# Indices 1 2 3 4 5 6 
#
# 1 64.0060 26.5911 0.4377 0.0000 -14.3847 0.0000
# 2 26.5911 88.1628 5.8413 0.0000 -15.0930 0.0000
# 3 0.4377 5.8413 28.7724 0.0000 -13.9701 0.0000
# 4 0.0000 0.0000 0.0000 14.7739 0.0000 -8.2635
# 5 -14.3847 -15.0930 -13.9701 0.0000 22.2672 0.0000
# 6 0.0000 0.0000 0.0000 -8.2635 0.0000 43.7320
#
#
#
# Elastic Compliance Matrix: (Units=1/GPa)
#
#
# Indices 1 2 3 4 5 6 
#
# 1 0.020831 -0.004120 0.008193 0.000000 0.015805 0.000000
# 2 -0.004120 0.013756 0.000726 0.000000 0.007118 0.000000
# 3 0.008193 0.000726 0.053628 0.000000 0.039431 0.000000
# 4 0.000000 0.000000 0.000000 0.075687 0.000000 0.014302
# 5 0.015805 0.007118 0.039431 0.000000 0.084681 0.000000
# 6 0.000000 0.000000 0.000000 0.014302 0.000000 0.025569
#
#
# Mechanical properties :
#
#
# Convention : Reuss Voigt Hill
#
# Bulk Modulus (GPa) = 10.22355 27.40904 18.81630
# Shear Modulus (GPa) = 16.82603 26.02601 21.42602
#
# Velocity S-wave (km/s) = 2.70717 3.36689 3.05489
# Velocity P-wave (km/s) = 3.77156 5.20124 4.54300
#
# Compressibility (1/GPa) = 0.09781336
#
# Stress axis : x y z
#
# Youngs Moduli (GPa) = 48.00504 72.69692 18.64682
#
# Poissons Ratio (x) = 0.29952 -0.15278
# Poissons Ratio (y) = 0.19779 -0.01354
# Poissons Ratio (z) = -0.39332 -0.05277
#
# Static dielectric constant tensor:
#      x y z
#    x 1.868420 0.000000 -0.004560 
#    y 0.000000 1.862630 0.000000 
#    z -0.004560 0.000000 1.855480 
# 
# From -- ./inp_files/59025.got.cif
#   From: 2010.05.17/outbox.cif.g08.bks.cpg/sg14_30_cif.got.tgz:59025.got - 2010.06.03 17:49:19.
