data_PCOD9243542
_publ_section_title
;
Structure prediction by ZEFSAII (Michael W. Deem and Ramdas Pophale) SiO2 
 PCOD9243542
Probable space group: P 21/C
;
_chemical_formula_sum "Si O2"
_cell_formula_units_Z 28
_cell_length_a 12.219438
_cell_length_b 9.378780
_cell_length_c 20.553216
_cell_angle_alpha 90.000000
_cell_angle_beta 144.088511
_cell_angle_gamma 90.000000
_cell_volume 1381.564399
_symmetry_space_group_name_H-M "P 21/C"
_symmetry_group_IT_number 14
_symmetry_cell_setting 'monoclinic'
loop_
_space_group_symop_operation_xyz
x,y,z
-x,1/2+y,1/2-z
-x,-y,-z
x,1/2-y,1/2+z
loop_
_atom_site_type_symbol
_atom_site_label
_atom_site_fract_x
_atom_site_fract_y
_atom_site_fract_z
Si Si1 0.767909 0.109586 0.909949
Si Si2 0.774077 0.598092 0.036525
Si Si3 0.616496 0.711059 0.729819
Si Si4 0.126251 0.284033 0.531953
Si Si5 0.961484 0.856380 0.310643
Si Si6 0.636233 0.040777 0.702952
Si Si7 0.068424 0.446900 0.753759
O O1 0.588864 0.147784 0.865793
O O2 0.835206 0.951300 0.961252
O O3 0.701543 0.104500 0.802681
O O4 0.944314 0.214956 0.990871
O O5 0.883934 0.701834 0.040631
O O6 0.556759 0.604036 0.915311
O O7 0.805785 0.624022 0.128269
O O8 0.868608 0.441868 0.073872
O O9 0.706758 0.717334 0.845324
O O10 0.769972 0.636304 0.758476
O O11 0.602935 0.873546 0.700071
O O12 0.010266 0.690251 0.321887
O O13 0.938984 0.946552 0.232572
O O14 0.802031 0.041368 0.730490
#
# Coordination Sequence:
#
# PCOD9243542 Si02
#       7
#     4   4   4   4   4   4   4
#     4  10  22  38  60  88 129 160 195 259 306 372
#     4  10  21  37  62  90 115 161 213 245 301 377
#     4  10  21  40  58  90 124 155 204 252 310 365
#     4  10  22  38  58  93 122 163 200 246 321 359
#     4   9  22  38  61  87 119 161 201 261 300 365
#     4  10  20  38  60  84 124 161 197 255 309 361
#     4   9  21  40  58  87 120 157 207 249 314 350
#
# _framework density 20.266881000000001
#
# number of rings (size 3 to 8) (size 9 to 14) (size 15 to 20)
#    0.857    1.429    1.429    0.429    4.000    2.857 
#    2.571    0.000    0.000    3.429    0.000    0.000 
#    0.000    0.000    0.000    0.000    0.000    0.000 
#
# Total GULP energy -156095.375739 kJ/mol
# GULP energy per Si atom -5574.834848 kJ/mol
# Density = 2.022075 g / cm^3
# Si number density = 20.266881 Si / 1000 Ang^3
#
#
#
# Elastic Constant Matrix: (Units=GPa)
#
#
# Indices 1 2 3 4 5 6 
#
# 1 85.7431 15.4488 -0.6573 0.0000 2.6910 0.0000
# 2 15.4488 30.6157 10.2249 0.0000 7.3221 0.0000
# 3 -0.6573 10.2249 37.3627 0.0000 10.5384 0.0000
# 4 0.0000 0.0000 0.0000 23.6502 0.0000 -6.1377
# 5 2.6910 7.3221 10.5384 0.0000 27.5425 0.0000
# 6 0.0000 0.0000 0.0000 -6.1377 0.0000 24.5875
#
#
#
# Elastic Compliance Matrix: (Units=1/GPa)
#
#
# Indices 1 2 3 4 5 6 
#
# 1 0.012996 -0.007268 0.002277 0.000000 -0.000209 0.000000
# 2 -0.007268 0.041080 -0.009517 0.000000 -0.006569 0.000000
# 3 0.002277 -0.009517 0.032238 0.000000 -0.010027 0.000000
# 4 0.000000 0.000000 0.000000 0.045212 0.000000 0.011286
# 5 -0.000209 -0.006569 -0.010027 0.000000 0.041911 0.000000
# 6 0.000000 0.000000 0.000000 0.011286 0.000000 0.043488
#
#
# Mechanical properties :
#
#
# Convention : Reuss Voigt Hill
#
# Bulk Modulus (GPa) = 17.45323 22.63937 20.04630
# Shear Modulus (GPa) = 18.86491 23.73639 21.30065
#
# Velocity S-wave (km/s) = 3.05425 3.42598 3.24544
# Velocity P-wave (km/s) = 4.59003 5.18118 4.89454
#
# Compressibility (1/GPa) = 0.05729599
#
# Stress axis : x y z
#
# Youngs Moduli (GPa) = 76.94474 24.34251 31.01974
#
# Poissons Ratio (x) = 0.17693 -0.07062
# Poissons Ratio (y) = 0.55927 0.29522
# Poissons Ratio (z) = -0.17517 0.23167
#
# Static dielectric constant tensor:
#      x y z
#    x 1.739950 0.000000 -0.039380 
#    y 0.000000 1.709520 0.000000 
#    z -0.039380 0.000000 1.767430 
# 
# From -- ./inp_files/67193.got.cif
#   From: 2010.05.17/outbox.cif.g08.bks.cpg/sg14_34_cif.got.tgz:67193.got - 2010.06.03 17:49:19.
