data_PCOD9243488
_publ_section_title
;
Structure prediction by ZEFSAII (Michael W. Deem and Ramdas Pophale) SiO2 
 PCOD9243488
Probable space group: P 21/C
;
_chemical_formula_sum "Si O2"
_cell_formula_units_Z 28
_cell_length_a 15.211228
_cell_length_b 14.172929
_cell_length_c 13.732984
_cell_angle_alpha 90.000000
_cell_angle_beta 30.272677
_cell_angle_gamma 90.000000
_cell_volume 1492.516496
_symmetry_space_group_name_H-M "P 21/C"
_symmetry_group_IT_number 14
_symmetry_cell_setting 'monoclinic'
loop_
_space_group_symop_operation_xyz
x,y,z
-x,1/2+y,1/2-z
-x,-y,-z
x,1/2-y,1/2+z
loop_
_atom_site_type_symbol
_atom_site_label
_atom_site_fract_x
_atom_site_fract_y
_atom_site_fract_z
Si Si1 0.941739 0.852877 0.733004
Si Si2 0.458293 0.009001 0.155143
Si Si3 0.051024 0.042457 0.556045
Si Si4 0.785443 0.226117 0.142396
Si Si5 0.925777 0.242790 0.207996
Si Si6 0.439731 0.303917 0.422417
Si Si7 0.626701 0.173952 0.110305
O O1 0.099374 0.807716 0.519395
O O2 0.954411 0.812057 0.830019
O O3 0.760547 0.818127 0.857983
O O4 0.963993 0.965465 0.710789
O O5 0.258959 0.037170 0.362082
O O6 0.576530 0.086729 0.093161
O O7 0.496223 0.907961 0.166411
O O8 0.500000 0.000000 0.000000
O O9 0.989236 0.149416 0.630115
O O10 0.000000 0.000000 0.500000
O O11 0.888065 0.196316 0.139763
O O12 0.591481 0.267977 0.351384
O O13 0.743915 0.153116 0.094901
O O14 0.740293 0.253979 0.438930
O O15 0.462412 0.229342 0.313326
#
# Coordination Sequence:
#
# PCOD9243488 Si02
#       7
#     4   4   4   4   4   4   4
#     4  11  21  37  56  89 121 151 199 250 294 354
#     4  12  21  34  60  92 117 153 201 249 293 350
#     4  12  21  35  59  93 117 151 202 248 296 348
#     4   9  20  38  55  84 119 153 193 237 301 345
#     4  11  20  37  60  84 122 156 192 251 297 351
#     4  10  20  38  55  83 124 155 191 247 299 342
#     4   9  21  36  55  86 119 152 194 245 290 352
#
# _framework density 18.760261
#
# number of rings (size 3 to 8) (size 9 to 14) (size 15 to 20)
#    0.857    0.571    2.857    4.286    0.000    0.000 
#    2.571    0.000    0.000   11.143    0.000    0.000 
#    0.000    0.000    0.000    0.000    0.000    0.000 
#
# Total GULP energy -155936.264723 kJ/mol
# GULP energy per Si atom -5569.152312 kJ/mol
# Density = 1.871756 g / cm^3
# Si number density = 18.760261 Si / 1000 Ang^3
#
#
#
# Elastic Constant Matrix: (Units=GPa)
#
#
# Indices 1 2 3 4 5 6 
#
# 1 109.7249 35.5813 17.7919 0.0000 0.8938 0.0000
# 2 35.5813 63.4063 6.2693 0.0000 5.5053 0.0000
# 3 17.7919 6.2693 71.6671 0.0000 -17.7815 0.0000
# 4 0.0000 0.0000 0.0000 24.1630 0.0000 -2.3729
# 5 0.8938 5.5053 -17.7815 0.0000 29.0679 0.0000
# 6 0.0000 0.0000 0.0000 -2.3729 0.0000 33.4646
#
#
#
# Elastic Compliance Matrix: (Units=1/GPa)
#
#
# Indices 1 2 3 4 5 6 
#
# 1 0.011521 -0.006156 -0.002500 0.000000 -0.000718 0.000000
# 2 -0.006156 0.019727 -0.001270 0.000000 -0.004324 0.000000
# 3 -0.002500 -0.001270 0.017406 0.000000 0.010965 0.000000
# 4 0.000000 0.000000 0.000000 0.041676 0.000000 0.002955
# 5 -0.000718 -0.004324 0.010965 0.000000 0.041951 0.000000
# 6 0.000000 0.000000 0.000000 0.002955 0.000000 0.030092
#
#
# Mechanical properties :
#
#
# Convention : Reuss Voigt Hill
#
# Bulk Modulus (GPa) = 34.71988 40.45371 37.58680
# Shear Modulus (GPa) = 26.06562 29.68283 27.87422
#
# Velocity S-wave (km/s) = 3.73152 3.98203 3.85881
# Velocity P-wave (km/s) = 6.09204 6.53853 6.31923
#
# Compressibility (1/GPa) = 0.02880194
#
# Stress axis : x y z
#
# Youngs Moduli (GPa) = 86.79766 50.69273 57.45278
#
# Poissons Ratio (x) = 0.31205 0.14362
# Poissons Ratio (y) = 0.53430 0.07298
# Poissons Ratio (z) = 0.21697 0.06439
#
# Static dielectric constant tensor:
#      x y z
#    x 1.691010 0.000000 -0.000470 
#    y 0.000000 1.637940 0.000000 
#    z -0.000470 0.000000 1.707880 
# 
# From -- ./inp_files/47337.got.cif
#   From: 2010.05.17/outbox.cif.g08.bks.cpg/sg14_24_cif.got.tgz:47337.got - 2010.06.03 17:49:19.
