data_PCOD9243883
_publ_section_title
;
Structure prediction by ZEFSAII (Michael W. Deem and Ramdas Pophale) SiO2 
 PCOD9243883
Probable space group: P 21/C
;
_chemical_formula_sum "Si O2"
_cell_formula_units_Z 24
_cell_length_a 8.235614
_cell_length_b 8.905227
_cell_length_c 21.437426
_cell_angle_alpha 90.000000
_cell_angle_beta 51.360777
_cell_angle_gamma 90.000000
_cell_volume 1228.051197
_symmetry_space_group_name_H-M "P 21/C"
_symmetry_group_IT_number 14
_symmetry_cell_setting 'monoclinic'
loop_
_space_group_symop_operation_xyz
x,y,z
-x,1/2+y,1/2-z
-x,-y,-z
x,1/2-y,1/2+z
loop_
_atom_site_type_symbol
_atom_site_label
_atom_site_fract_x
_atom_site_fract_y
_atom_site_fract_z
Si Si1 0.009837 0.822831 0.849651
Si Si2 0.806756 0.641975 0.665653
Si Si3 0.333905 0.545353 0.899546
Si Si4 0.648010 0.071238 0.745508
Si Si5 0.093286 0.227742 0.489535
Si Si6 0.703228 0.711253 0.309844
O O1 0.159286 0.684012 0.794624
O O2 0.831384 0.823690 0.840838
O O3 0.144420 0.973892 0.822984
O O4 0.915445 0.806027 0.941473
O O5 0.562472 0.662863 0.712008
O O6 0.902136 0.676982 0.575326
O O7 0.853278 0.741331 0.715813
O O8 0.323521 0.499228 0.829470
O O9 0.287055 0.389600 0.945665
O O10 0.534003 0.654250 0.860623
O O11 0.127596 0.642244 0.961405
O O12 0.611495 0.945737 0.806464
#
# Coordination Sequence:
#
# PCOD9243883 Si02
#       6
#     4   4   4   4   4   4
#     4  11  24  37  59  94 126 152 198 261 312 349
#     4  11  21  39  65  87 116 166 209 241 296 374
#     4   9  20  37  63  85 116 162 206 244 301 368
#     4  10  20  39  60  87 115 162 207 240 294 371
#     4  10  20  39  61  88 115 161 209 244 298 369
#     4  11  22  39  60  89 125 157 199 260 305 350
#
# _framework density 19.54316
#
# number of rings (size 3 to 8) (size 9 to 14) (size 15 to 20)
#    0.000    1.667    1.667    4.500    2.333    0.667 
#    0.000    5.000    0.000    0.000    0.000    0.000 
#    0.000    0.000    0.000    0.000    0.000    0.000 
#
# Total GULP energy -133659.045755 kJ/mol
# GULP energy per Si atom -5569.126906 kJ/mol
# Density = 1.949868 g / cm^3
# Si number density = 19.543160 Si / 1000 Ang^3
#
#
#
# Elastic Constant Matrix: (Units=GPa)
#
#
# Indices 1 2 3 4 5 6 
#
# 1 73.7490 20.5781 19.0222 0.0000 9.1905 0.0000
# 2 20.5781 65.4925 14.3090 0.0000 5.6107 0.0000
# 3 19.0222 14.3090 65.1899 0.0000 4.4993 0.0000
# 4 0.0000 0.0000 0.0000 34.8919 0.0000 5.6998
# 5 9.1905 5.6107 4.4993 0.0000 24.5307 0.0000
# 6 0.0000 0.0000 0.0000 5.6998 0.0000 18.1666
#
#
#
# Elastic Compliance Matrix: (Units=1/GPa)
#
#
# Indices 1 2 3 4 5 6 
#
# 1 0.016123 -0.003908 -0.003536 0.000000 -0.004498 0.000000
# 2 -0.003908 0.017215 -0.002499 0.000000 -0.002015 0.000000
# 3 -0.003536 -0.002499 0.017005 0.000000 -0.001222 0.000000
# 4 0.000000 0.000000 0.000000 0.030208 0.000000 -0.009478
# 5 -0.004498 -0.002015 -0.001222 0.000000 0.043136 0.000000
# 6 0.000000 0.000000 0.000000 -0.009478 0.000000 0.058020
#
#
# Mechanical properties :
#
#
# Convention : Reuss Voigt Hill
#
# Bulk Modulus (GPa) = 32.83465 34.69446 33.76456
# Shear Modulus (GPa) = 23.61327 25.55263 24.58295
#
# Velocity S-wave (km/s) = 3.47978 3.61986 3.55051
# Velocity P-wave (km/s) = 5.74306 5.93822 5.84145
#
# Compressibility (1/GPa) = 0.03045563
#
# Stress axis : x y z
#
# Youngs Moduli (GPa) = 62.02488 58.08728 58.80740
#
# Poissons Ratio (x) = 0.22700 0.20796
# Poissons Ratio (y) = 0.24238 0.14698
# Poissons Ratio (z) = 0.21934 0.14518
#
# Static dielectric constant tensor:
#      x y z
#    x 1.640340 0.000000 -0.001620 
#    y 0.000000 1.734990 0.000000 
#    z -0.001620 0.000000 1.750350 
# 
# From -- ./inp_files/60212.got.cif
#   From: 2010.05.17/outbox.cif.g08.bks.cpg/sg14_31_cif.got.tgz:60212.got - 2010.06.03 17:49:19.
