data_PCOD9243414
_publ_section_title
;
Structure prediction by ZEFSAII (Michael W. Deem and Ramdas Pophale) SiO2 
 PCOD9243414
Probable space group: P 21/C
;
_chemical_formula_sum "Si O2"
_cell_formula_units_Z 20
_cell_length_a 7.037755
_cell_length_b 10.359572
_cell_length_c 15.984078
_cell_angle_alpha 90.000000
_cell_angle_beta 42.693512
_cell_angle_gamma 90.000000
_cell_volume 790.209426
_symmetry_space_group_name_H-M "P 21/C"
_symmetry_group_IT_number 14
_symmetry_cell_setting 'monoclinic'
loop_
_space_group_symop_operation_xyz
x,y,z
-x,1/2+y,1/2-z
-x,-y,-z
x,1/2-y,1/2+z
loop_
_atom_site_type_symbol
_atom_site_label
_atom_site_fract_x
_atom_site_fract_y
_atom_site_fract_z
Si Si1 0.688346 0.378531 0.557205
Si Si2 0.232847 0.148932 0.000973
Si Si3 0.416285 0.889295 0.362715
Si Si4 0.003515 0.962592 0.191802
Si Si5 0.870788 0.923061 0.426497
O O1 0.581757 0.527127 0.590670
O O2 0.505537 0.260034 0.647088
O O3 0.965263 0.361981 0.525558
O O4 0.801056 0.365671 0.425078
O O5 0.307029 0.297639 0.985533
O O6 0.134888 0.100565 0.124703
O O7 0.697931 0.961215 0.247443
O O8 0.167949 0.907777 0.377310
O O9 0.288063 0.951453 0.488348
O O10 0.936948 0.930199 0.307785
#
# Coordination Sequence:
#
# PCOD9243414 Si02
#       5
#     4   4   4   4   4
#     4   8  18  38  60  79 120 148 183 237 287 329
#     4   8  18  39  55  81 118 150 178 242 283 322
#     4  10  21  40  58  88 115 149 188 240 278 339
#     4  10  20  37  64  79 116 159 180 227 300 327
#     4  10  21  38  58  87 114 142 201 233 273 344
#
# _framework density 25.309744999999999
#
# number of rings (size 3 to 8) (size 9 to 14) (size 15 to 20)
#    1.200    1.600    0.000    0.600    2.800    0.000 
#   21.600    1.000    0.000    0.000    0.000    0.000 
#    0.000    0.000    0.000    0.000    0.000    0.000 
#
# Total GULP energy -111628.119452 kJ/mol
# GULP energy per Si atom -5581.405973 kJ/mol
# Density = 2.525214 g / cm^3
# Si number density = 25.309745 Si / 1000 Ang^3
#
#
#
# Elastic Constant Matrix: (Units=GPa)
#
#
# Indices 1 2 3 4 5 6 
#
# 1 76.8791 13.4848 19.3155 0.0000 10.9487 0.0000
# 2 13.4848 100.1480 5.0258 0.0000 4.8768 0.0000
# 3 19.3155 5.0258 82.2512 0.0000 17.0120 0.0000
# 4 0.0000 0.0000 0.0000 20.2369 0.0000 2.4149
# 5 10.9487 4.8768 17.0120 0.0000 49.2688 0.0000
# 6 0.0000 0.0000 0.0000 2.4149 0.0000 23.9191
#
#
#
# Elastic Compliance Matrix: (Units=1/GPa)
#
#
# Indices 1 2 3 4 5 6 
#
# 1 0.014305 -0.001685 -0.002836 0.000000 -0.002033 0.000000
# 2 -0.001685 0.010247 -0.000106 0.000000 -0.000603 0.000000
# 3 -0.002836 -0.000106 0.013674 0.000000 -0.004081 0.000000
# 4 0.000000 0.000000 0.000000 0.050017 0.000000 -0.005050
# 5 -0.002033 -0.000603 -0.004081 0.000000 0.022217 0.000000
# 6 0.000000 0.000000 0.000000 -0.005050 0.000000 0.042318
#
#
# Mechanical properties :
#
#
# Convention : Reuss Voigt Hill
#
# Bulk Modulus (GPa) = 34.51450 37.21450 35.86450
# Shear Modulus (GPa) = 29.12244 33.44844 31.28544
#
# Velocity S-wave (km/s) = 3.39579 3.63928 3.51964
# Velocity P-wave (km/s) = 5.38903 5.69163 5.54239
#
# Compressibility (1/GPa) = 0.02897333
#
# Stress axis : x y z
#
# Youngs Moduli (GPa) = 69.90566 97.59180 73.12958
#
# Poissons Ratio (x) = 0.16443 0.20739
# Poissons Ratio (y) = 0.11778 0.00773
# Poissons Ratio (z) = 0.19825 0.01031
#
# Static dielectric constant tensor:
#      x y z
#    x 2.104730 0.000000 0.007230 
#    y 0.000000 1.975810 0.000000 
#    z 0.007230 0.000000 1.886810 
# 
# From -- ./inp_files/55009.got.cif
#   From: 2010.05.17/outbox.cif.g08.bks.cpg/sg14_28_cif.got.tgz:55009.got - 2010.06.03 17:49:19.
