data_PCOD9243939
_publ_section_title
;
Structure prediction by ZEFSAII (Michael W. Deem and Ramdas Pophale) SiO2 
 PCOD9243939
Probable space group: P 21/C
;
_chemical_formula_sum "Si O2"
_cell_formula_units_Z 32
_cell_length_a 15.079178
_cell_length_b 11.275732
_cell_length_c 14.039709
_cell_angle_alpha 90.000000
_cell_angle_beta 40.433242
_cell_angle_gamma 90.000000
_cell_volume 1548.216765
_symmetry_space_group_name_H-M "P 21/C"
_symmetry_group_IT_number 14
_symmetry_cell_setting 'monoclinic'
loop_
_space_group_symop_operation_xyz
x,y,z
-x,1/2+y,1/2-z
-x,-y,-z
x,1/2-y,1/2+z
loop_
_atom_site_type_symbol
_atom_site_label
_atom_site_fract_x
_atom_site_fract_y
_atom_site_fract_z
Si Si1 0.037949 0.618325 0.411026
Si Si2 0.288946 0.938039 0.127077
Si Si3 0.669052 0.069967 0.269254
Si Si4 0.790965 0.932167 0.993603
Si Si5 0.611042 0.839740 0.439023
Si Si6 0.740442 0.836218 0.530227
Si Si7 0.577630 0.615607 0.338941
Si Si8 0.003210 0.622173 0.936246
O O1 0.201129 0.619044 0.278741
O O2 0.000000 0.500000 0.500000
O O3 0.950416 0.594749 0.386966
O O4 0.986349 0.745385 0.495838
O O5 0.153535 0.871462 0.268664
O O6 0.360910 0.001076 0.158057
O O7 0.414934 0.870443 0.976515
O O8 0.236816 0.030554 0.090926
O O9 0.726318 0.029661 0.118652
O O10 0.623763 0.948533 0.356665
O O11 0.538483 0.155903 0.387337
O O12 0.724203 0.804021 0.063250
O O13 0.718005 0.854979 0.437362
O O14 0.633667 0.723690 0.356968
O O15 0.626850 0.893069 0.690881
O O16 0.884704 0.880985 0.453773
O O17 0.000000 0.500000 0.000000
#
# Coordination Sequence:
#
# PCOD9243939 Si02
#       8
#     4   4   4   4   4   4   4   4
#     4   9  21  40  65  88 127 171 215 266 326 387
#     4  11  23  38  63  93 129 167 215 270 332 384
#     4  10  21  39  60  89 123 163 217 261 321 386
#     4  10  20  39  62  90 123 168 216 264 327 400
#     4  11  22  37  64  88 123 167 215 269 325 392
#     4  11  22  40  63  91 125 170 217 265 332 395
#     4  11  22  40  63  89 127 169 210 270 332 390
#     4  11  23  42  65  96 134 170 224 277 329 388
#
# _framework density 20.668939999999999
#
# number of rings (size 3 to 8) (size 9 to 14) (size 15 to 20)
#    0.000    1.500    3.750    1.500    1.750    0.000 
#    0.000    1.250    8.250    0.000    0.000    0.000 
#    0.000    0.000    0.000    0.000    0.000    0.000 
#
# Total GULP energy -178325.011196 kJ/mol
# GULP energy per Si atom -5572.656600 kJ/mol
# Density = 2.062190 g / cm^3
# Si number density = 20.668940 Si / 1000 Ang^3
#
#
#
# Elastic Constant Matrix: (Units=GPa)
#
#
# Indices 1 2 3 4 5 6 
#
# 1 64.6989 1.8726 4.0852 0.0000 -7.4871 0.0000
# 2 1.8726 55.1763 4.4172 0.0000 -1.5687 0.0000
# 3 4.0852 4.4172 52.6211 0.0000 -17.4973 0.0000
# 4 0.0000 0.0000 0.0000 8.4112 0.0000 2.1123
# 5 -7.4871 -1.5687 -17.4973 0.0000 29.9561 0.0000
# 6 0.0000 0.0000 0.0000 2.1123 0.0000 25.5706
#
#
#
# Elastic Compliance Matrix: (Units=1/GPa)
#
#
# Indices 1 2 3 4 5 6 
#
# 1 0.015928 -0.000437 0.000144 0.000000 0.004042 0.000000
# 2 -0.000437 0.018258 -0.001510 0.000000 -0.000035 0.000000
# 3 0.000144 -0.001510 0.023710 0.000000 0.013806 0.000000
# 4 0.000000 0.000000 0.000000 0.121408 0.000000 -0.010029
# 5 0.004042 -0.000035 0.013806 0.000000 0.042455 0.000000
# 6 0.000000 0.000000 0.000000 -0.010029 0.000000 0.039936
#
#
# Mechanical properties :
#
#
# Convention : Reuss Voigt Hill
#
# Bulk Modulus (GPa) = 18.41987 21.47182 19.94584
# Shear Modulus (GPa) = 17.64303 23.59567 20.61935
#
# Velocity S-wave (km/s) = 2.92482 3.38242 3.16191
# Velocity P-wave (km/s) = 4.50969 5.06610 4.79597
#
# Compressibility (1/GPa) = 0.05428921
#
# Stress axis : x y z
#
# Youngs Moduli (GPa) = 62.78434 54.76910 42.17622
#
# Poissons Ratio (x) = 0.02394 -0.00608
# Poissons Ratio (y) = 0.02745 0.06371
# Poissons Ratio (z) = -0.00906 0.08273
#
# Static dielectric constant tensor:
#      x y z
#    x 1.735580 0.000000 -0.032240 
#    y 0.000000 1.767200 0.000000 
#    z -0.032240 0.000000 1.790090 
# 
# From -- ./inp_files/47117.got.cif
#   From: 2010.05.17/outbox.cif.g08.bks.cpg/sg14_24_cif.got.tgz:47117.got - 2010.06.03 17:49:19.
