data_PCOD9243768
_publ_section_title
;
Structure prediction by ZEFSAII (Michael W. Deem and Ramdas Pophale) SiO2 
 PCOD9243768
Probable space group: P 21/C
;
_chemical_formula_sum "Si O2"
_cell_formula_units_Z 32
_cell_length_a 14.604077
_cell_length_b 21.862057
_cell_length_c 8.910484
_cell_angle_alpha 90.000000
_cell_angle_beta 147.510384
_cell_angle_gamma 90.000000
_cell_volume 1528.126762
_symmetry_space_group_name_H-M "P 21/C"
_symmetry_group_IT_number 14
_symmetry_cell_setting 'monoclinic'
loop_
_space_group_symop_operation_xyz
x,y,z
-x,1/2+y,1/2-z
-x,-y,-z
x,1/2-y,1/2+z
loop_
_atom_site_type_symbol
_atom_site_label
_atom_site_fract_x
_atom_site_fract_y
_atom_site_fract_z
Si Si1 0.690222 0.662386 0.103289
Si Si2 0.313112 0.518279 0.682190
Si Si3 0.331902 0.618597 0.492445
Si Si4 0.431564 0.676929 0.324826
Si Si5 0.939378 0.560159 0.505812
Si Si6 0.756963 0.373315 0.181321
Si Si7 0.757963 0.741788 0.911940
Si Si8 0.150663 0.785244 0.931883
O O1 0.810636 0.604545 0.238160
O O2 0.714783 0.689171 0.303394
O O3 0.498742 0.641508 0.813380
O O4 0.733034 0.716673 0.045677
O O5 0.308419 0.548866 0.511775
O O6 0.173902 0.465219 0.514082
O O7 0.263629 0.573534 0.725905
O O8 0.500000 0.500000 0.000000
O O9 0.371429 0.632585 0.375522
O O10 0.187157 0.663658 0.355501
O O11 0.616372 0.702074 0.625504
O O12 0.414319 0.643235 0.142689
O O13 0.293418 0.732216 0.121003
O O14 0.000000 0.500000 0.500000
O O15 0.105792 0.602447 0.750798
O O16 0.825126 0.316257 0.371081
O O17 0.956191 0.734698 0.147116
#
# Coordination Sequence:
#
# PCOD9243768 Si02
#       8
#     4   4   4   4   4   4   4   4
#     4  11  21  40  59  94 124 161 206 253 312 380
#     4  10  20  38  65  86 112 159 215 261 303 365
#     4  10  22  37  60  87 124 156 205 260 308 362
#     4  11  23  40  58  91 130 162 199 253 315 379
#     4  10  20  39  64  88 116 165 219 251 304 371
#     4  10  22  39  62  87 121 162 205 252 308 372
#     4  11  25  37  63  91 132 165 199 250 319 380
#     4  11  21  39  59  90 121 165 199 243 303 379
#
# _framework density 20.940671999999999
#
# number of rings (size 3 to 8) (size 9 to 14) (size 15 to 20)
#    0.000    1.500    3.750    1.500    3.500    0.000 
#    0.000    1.250    0.000    0.000    0.000    0.000 
#    0.000    0.000    0.000    0.000    0.000    0.000 
#
# Total GULP energy -178532.009678 kJ/mol
# GULP energy per Si atom -5579.125302 kJ/mol
# Density = 2.089301 g / cm^3
# Si number density = 20.940672 Si / 1000 Ang^3
#
#
#
# Elastic Constant Matrix: (Units=GPa)
#
#
# Indices 1 2 3 4 5 6 
#
# 1 29.5957 8.7581 17.6879 0.0000 3.8370 0.0000
# 2 8.7581 48.8762 9.4005 0.0000 -10.6050 0.0000
# 3 17.6879 9.4005 75.6349 0.0000 0.3985 0.0000
# 4 0.0000 0.0000 0.0000 10.8361 0.0000 5.8146
# 5 3.8370 -10.6050 0.3985 0.0000 25.9689 0.0000
# 6 0.0000 0.0000 0.0000 5.8146 0.0000 31.8284
#
#
#
# Elastic Compliance Matrix: (Units=1/GPa)
#
#
# Indices 1 2 3 4 5 6 
#
# 1 0.042722 -0.007981 -0.008949 0.000000 -0.009434 0.000000
# 2 -0.007981 0.024566 -0.001246 0.000000 0.011231 0.000000
# 3 -0.008949 -0.001246 0.015466 0.000000 0.000576 0.000000
# 4 0.000000 0.000000 0.000000 0.102314 0.000000 -0.018691
# 5 -0.009434 0.011231 0.000576 0.000000 0.044479 0.000000
# 6 0.000000 0.000000 0.000000 -0.018691 0.000000 0.034833
#
#
# Mechanical properties :
#
#
# Convention : Reuss Voigt Hill
#
# Bulk Modulus (GPa) = 21.55087 25.08887 23.31987
# Shear Modulus (GPa) = 15.81274 21.61070 18.71172
#
# Velocity S-wave (km/s) = 2.75093 3.21596 2.99249
# Velocity P-wave (km/s) = 4.51706 5.07905 4.80628
#
# Compressibility (1/GPa) = 0.04640184
#
# Stress axis : x y z
#
# Youngs Moduli (GPa) = 23.40704 40.70598 64.65746
#
# Poissons Ratio (x) = 0.32488 0.57864
# Poissons Ratio (y) = 0.18681 0.08057
# Poissons Ratio (z) = 0.20948 0.05072
#
# Static dielectric constant tensor:
#      x y z
#    x 1.822560 0.000000 0.017900 
#    y 0.000000 1.830540 0.000000 
#    z 0.017900 0.000000 1.737930 
# 
# From -- ./inp_files/17038.got.cif
#   From: 2010.05.17/outbox.cif.g08.bks.cpg/sg14_9_cif.got.tgz:17038.got - 2010.06.03 17:49:19.
