data_PCOD9243320
_publ_section_title
;
Structure prediction by ZEFSAII (Michael W. Deem and Ramdas Pophale) SiO2 
 PCOD9243320
Probable space group: P 21/C
;
_chemical_formula_sum "Si O2"
_cell_formula_units_Z 32
_cell_length_a 26.165123
_cell_length_b 7.474350
_cell_length_c 20.117952
_cell_angle_alpha 90.000000
_cell_angle_beta 160.327367
_cell_angle_gamma 90.000000
_cell_volume 1324.502657
_symmetry_space_group_name_H-M "P 21/C"
_symmetry_group_IT_number 14
_symmetry_cell_setting 'monoclinic'
loop_
_space_group_symop_operation_xyz
x,y,z
-x,1/2+y,1/2-z
-x,-y,-z
x,1/2-y,1/2+z
loop_
_atom_site_type_symbol
_atom_site_label
_atom_site_fract_x
_atom_site_fract_y
_atom_site_fract_z
Si Si1 0.606590 0.713462 0.637996
Si Si2 0.061611 0.836864 0.366642
Si Si3 0.173000 0.038061 0.019966
Si Si4 0.646499 0.524590 0.392576
Si Si5 0.408578 0.602621 0.286751
Si Si6 0.903914 0.082124 0.284495
Si Si7 0.153319 0.201023 0.668423
Si Si8 0.365750 0.178018 0.527379
O O1 0.457049 0.727886 0.409722
O O2 0.569231 0.597369 0.656966
O O3 0.723634 0.612920 0.731118
O O4 0.714287 0.878688 0.788131
O O5 0.082562 0.642403 0.425514
O O6 0.231621 0.889374 0.554038
O O7 0.951793 0.832943 0.167898
O O8 0.994479 0.978385 0.336925
O O9 0.286145 0.998572 0.097449
O O10 0.737959 0.385393 0.551409
O O11 0.687764 0.719574 0.472188
O O12 0.469373 0.487912 0.171771
O O13 0.518851 0.674448 0.364656
O O14 0.005966 0.235467 0.442893
O O15 0.881911 0.940088 0.316891
O O16 0.239694 0.352990 0.816498
#
# Coordination Sequence:
#
# PCOD9243320 Si02
#       8
#     4   4   4   4   4   4   4   4
#     4  10  21  36  60  87 115 156 195 245 298 360
#     4  11  21  39  59  87 118 157 196 248 296 352
#     4  11  24  39  60  89 123 154 202 248 298 355
#     4  10  22  39  59  88 119 158 202 247 299 353
#     4  10  20  37  61  86 117 154 202 238 301 357
#     4   9  19  37  64  83 115 159 203 241 294 363
#     4   9  18  37  61  82 116 151 200 243 292 359
#     4  10  21  38  60  86 120 159 197 250 293 356
#
# _framework density 24.160011000000001
#
# number of rings (size 3 to 8) (size 9 to 14) (size 15 to 20)
#    0.000    2.000    2.500    0.750    3.500    0.500 
#    2.250    0.625    0.000    0.000    0.000    0.000 
#    0.000    0.000    0.000    0.000    0.000    0.000 
#
# Total GULP energy -178475.763474 kJ/mol
# GULP energy per Si atom -5577.367609 kJ/mol
# Density = 2.410502 g / cm^3
# Si number density = 24.160011 Si / 1000 Ang^3
#
#
#
# Elastic Constant Matrix: (Units=GPa)
#
#
# Indices 1 2 3 4 5 6 
#
# 1 60.9198 3.9697 -12.2873 0.0000 -7.3945 0.0000
# 2 3.9697 54.6736 23.0701 0.0000 -12.5490 0.0000
# 3 -12.2873 23.0701 130.3164 0.0000 -28.6723 0.0000
# 4 0.0000 0.0000 0.0000 36.8755 0.0000 -1.2758
# 5 -7.3945 -12.5490 -28.6723 0.0000 31.4239 0.0000
# 6 0.0000 0.0000 0.0000 -1.2758 0.0000 10.7519
#
#
#
# Elastic Compliance Matrix: (Units=1/GPa)
#
#
# Indices 1 2 3 4 5 6 
#
# 1 0.018019 -0.001170 0.003423 0.000000 0.006897 0.000000
# 2 -0.001170 0.020752 -0.002529 0.000000 0.005704 0.000000
# 3 0.003423 -0.002529 0.010509 0.000000 0.009384 0.000000
# 4 0.000000 0.000000 0.000000 0.027230 0.000000 0.003231
# 5 0.006897 0.005704 0.009384 0.000000 0.044286 0.000000
# 6 0.000000 0.000000 0.000000 0.003231 0.000000 0.093390
#
#
# Mechanical properties :
#
#
# Convention : Reuss Voigt Hill
#
# Bulk Modulus (GPa) = 20.52180 30.60164 25.56172
# Shear Modulus (GPa) = 21.64694 31.22075 26.43385
#
# Velocity S-wave (km/s) = 2.99654 3.59869 3.31133
# Velocity P-wave (km/s) = 4.52603 5.47368 5.02225
#
# Compressibility (1/GPa) = 0.04872867
#
# Stress axis : x y z
#
# Youngs Moduli (GPa) = 55.49736 48.18880 95.15763
#
# Poissons Ratio (x) = 0.05638 -0.32577
# Poissons Ratio (y) = 0.06493 0.24065
# Poissons Ratio (z) = -0.18999 0.12187
#
# Static dielectric constant tensor:
#      x y z
#    x 1.922430 0.000000 -0.005390 
#    y 0.000000 2.031100 0.000000 
#    z -0.005390 0.000000 2.016310 
# 
# From -- ./inp_files/70509.got.cif
#   From: 2010.05.17/outbox.cif.g08.bks.cpg/sg14_36_cif.got.tgz:70509.got - 2010.06.03 17:49:19.
