data_PCOD9243795
_publ_section_title
;
Structure prediction by ZEFSAII (Michael W. Deem and Ramdas Pophale) SiO2 
 PCOD9243795
Probable space group: P 21/C
;
_chemical_formula_sum "Si O2"
_cell_formula_units_Z 32
_cell_length_a 8.775812
_cell_length_b 14.753473
_cell_length_c 14.896808
_cell_angle_alpha 90.000000
_cell_angle_beta 49.881222
_cell_angle_gamma 90.000000
_cell_volume 1474.931030
_symmetry_space_group_name_H-M "P 21/C"
_symmetry_group_IT_number 14
_symmetry_cell_setting 'monoclinic'
loop_
_space_group_symop_operation_xyz
x,y,z
-x,1/2+y,1/2-z
-x,-y,-z
x,1/2-y,1/2+z
loop_
_atom_site_type_symbol
_atom_site_label
_atom_site_fract_x
_atom_site_fract_y
_atom_site_fract_z
Si Si1 0.066639 0.357781 0.417878
Si Si2 0.054900 0.284563 0.763478
Si Si3 0.817594 0.031719 0.900564
Si Si4 0.544921 0.766216 0.162417
Si Si5 0.986850 0.479243 0.853494
Si Si6 0.430260 0.148197 0.036477
Si Si7 0.208039 0.091830 0.436954
Si Si8 0.100836 0.738257 0.874548
O O1 0.021576 0.288072 0.353198
O O2 0.293308 0.335406 0.357855
O O3 0.991286 0.451918 0.406279
O O4 0.941334 0.327680 0.551656
O O5 0.949247 0.379135 0.828866
O O6 0.292365 0.305349 0.663841
O O7 0.981116 0.252163 0.694629
O O8 0.640367 0.104270 0.983161
O O9 0.915790 0.036444 0.764101
O O10 0.708518 0.935024 0.945068
O O11 0.538257 0.785226 0.058543
O O12 0.331211 0.783324 0.284468
O O13 0.613406 0.661674 0.146675
O O14 0.800012 0.525942 0.973796
O O15 0.150553 0.463443 0.869952
O O16 0.025516 0.160303 0.528797
#
# Coordination Sequence:
#
# PCOD9243795 Si02
#       8
#     4   4   4   4   4   4   4   4
#     4  11  23  40  63  94 124 168 210 259 322 368
#     4  11  20  40  62  90 127 164 209 260 310 376
#     4  10  23  37  64  95 124 169 206 261 318 386
#     4  11  22  39  63  94 125 167 210 268 309 375
#     4  10  20  38  66  87 126 166 209 257 314 375
#     4  10  21  39  63  92 127 165 212 255 320 374
#     4  10  20  40  64  91 122 168 216 256 310 377
#     4  11  23  41  64  92 129 166 211 262 313 378
#
# _framework density 21.695929
#
# number of rings (size 3 to 8) (size 9 to 14) (size 15 to 20)
#    0.000    1.500    5.000    2.250    1.750    1.500 
#    0.000    0.625    0.000    0.000    0.000    0.000 
#    0.000    0.000    0.000    0.000    0.000    0.000 
#
# Total GULP energy -178787.967824 kJ/mol
# GULP energy per Si atom -5587.123995 kJ/mol
# Density = 2.164655 g / cm^3
# Si number density = 21.695929 Si / 1000 Ang^3
#
#
#
# Elastic Constant Matrix: (Units=GPa)
#
#
# Indices 1 2 3 4 5 6 
#
# 1 44.9412 4.2127 37.6578 0.0000 2.7319 0.0000
# 2 4.2127 38.7341 3.6773 0.0000 4.1584 0.0000
# 3 37.6578 3.6773 64.8608 0.0000 11.3931 0.0000
# 4 0.0000 0.0000 0.0000 25.8034 0.0000 12.0471
# 5 2.7319 4.1584 11.3931 0.0000 33.2150 0.0000
# 6 0.0000 0.0000 0.0000 12.0471 0.0000 28.2664
#
#
#
# Elastic Compliance Matrix: (Units=1/GPa)
#
#
# Indices 1 2 3 4 5 6 
#
# 1 0.044586 -0.002940 -0.026752 0.000000 0.005877 0.000000
# 2 -0.002940 0.026420 0.000796 0.000000 -0.003339 0.000000
# 3 -0.026752 0.000796 0.032493 0.000000 -0.009045 0.000000
# 4 0.000000 0.000000 0.000000 0.048382 0.000000 -0.020620
# 5 0.005877 -0.003339 -0.009045 0.000000 0.033144 0.000000
# 6 0.000000 0.000000 0.000000 -0.020620 0.000000 0.044166
#
#
# Mechanical properties :
#
#
# Convention : Reuss Voigt Hill
#
# Bulk Modulus (GPa) = 21.87902 26.62574 24.25238
# Shear Modulus (GPa) = 16.54424 24.32287 20.43355
#
# Velocity S-wave (km/s) = 2.76443 3.35189 3.07223
# Velocity P-wave (km/s) = 4.50507 5.22294 4.87723
#
# Compressibility (1/GPa) = 0.04570588
#
# Stress axis : x y z
#
# Youngs Moduli (GPa) = 22.42844 37.85050 30.77542
#
# Poissons Ratio (x) = 0.11129 0.82331
# Poissons Ratio (y) = 0.06595 -0.02449
# Poissons Ratio (z) = 0.60001 -0.03012
#
# Static dielectric constant tensor:
#      x y z
#    x 1.791800 0.000000 0.009560 
#    y 0.000000 1.859390 0.000000 
#    z 0.009560 0.000000 1.788080 
# 
# From -- ./inp_files/41680.got.cif
#   From: 2010.05.17/outbox.cif.g08.bks.cpg/sg14_21_cif.got.tgz:41680.got - 2010.06.03 17:49:19.
