data_PCOD9243198
_publ_section_title
;
Structure prediction by ZEFSAII (Michael W. Deem and Ramdas Pophale) SiO2 
 PCOD9243198
Probable space group: P 21/C
;
_chemical_formula_sum "Si O2"
_cell_formula_units_Z 32
_cell_length_a 18.330562
_cell_length_b 8.361214
_cell_length_c 15.306402
_cell_angle_alpha 90.000000
_cell_angle_beta 148.344900
_cell_angle_gamma 90.000000
_cell_volume 1231.164236
_symmetry_space_group_name_H-M "P 21/C"
_symmetry_group_IT_number 14
_symmetry_cell_setting 'monoclinic'
loop_
_space_group_symop_operation_xyz
x,y,z
-x,1/2+y,1/2-z
-x,-y,-z
x,1/2-y,1/2+z
loop_
_atom_site_type_symbol
_atom_site_label
_atom_site_fract_x
_atom_site_fract_y
_atom_site_fract_z
Si Si1 0.625292 0.477117 0.892361
Si Si2 0.613509 0.569647 0.238649
Si Si3 0.865957 0.792261 0.913313
Si Si4 0.105945 0.891185 0.253909
Si Si5 0.974413 0.745087 0.786992
Si Si6 0.703604 0.721034 0.577955
Si Si7 0.453935 0.739979 0.433726
Si Si8 0.787222 0.434847 0.876110
O O1 0.646503 0.656394 0.948095
O O2 0.729049 0.379050 0.063443
O O3 0.464850 0.440971 0.748847
O O4 0.689731 0.456917 0.862845
O O5 0.773559 0.615813 0.391915
O O6 0.586845 0.402012 0.161124
O O7 0.531137 0.704908 0.099578
O O8 0.783369 0.819248 0.738567
O O9 0.851288 0.603277 0.914162
O O10 0.024398 0.849010 0.082614
O O11 0.033775 0.777892 0.251582
O O12 0.064657 0.069980 0.242166
O O13 0.836160 0.640378 0.667937
O O14 0.092598 0.685381 0.972868
O O15 0.571405 0.652586 0.494019
O O16 0.314922 0.639015 0.299509
#
# Coordination Sequence:
#
# PCOD9243198 Si02
#       8
#     4   4   4   4   4   4   4   4
#     4   9  20  37  57  83 112 147 191 239 286 338
#     4   9  19  36  59  82 108 146 188 233 283 337
#     4  11  22  36  57  86 116 151 190 233 284 341
#     4  10  20  37  58  81 113 148 189 236 287 339
#     4  10  21  38  58  81 113 149 187 239 286 336
#     4   9  20  37  58  83 114 149 188 235 285 338
#     4   9  19  38  58  81 113 146 187 234 283 339
#     4  11  23  37  55  85 119 149 190 237 284 339
#
# _framework density 25.991658000000001
#
# number of rings (size 3 to 8) (size 9 to 14) (size 15 to 20)
#    0.000    2.250    0.000    3.750    0.000    8.500 
#    0.000    6.250    0.000    0.000    0.000    0.000 
#    0.000    0.000    0.000    0.000    0.000    0.000 
#
# Total GULP energy -178983.298781 kJ/mol
# GULP energy per Si atom -5593.228087 kJ/mol
# Density = 2.593250 g / cm^3
# Si number density = 25.991658 Si / 1000 Ang^3
#
#
#
# Elastic Constant Matrix: (Units=GPa)
#
#
# Indices 1 2 3 4 5 6 
#
# 1 62.1874 2.0345 -19.6484 0.0000 4.9344 0.0000
# 2 2.0345 56.3807 13.4408 0.0000 -8.2311 0.0000
# 3 -19.6484 13.4408 76.4971 0.0000 6.3373 0.0000
# 4 0.0000 0.0000 0.0000 32.9747 0.0000 -5.0825
# 5 4.9344 -8.2311 6.3373 0.0000 34.6075 0.0000
# 6 0.0000 0.0000 0.0000 -5.0825 0.0000 18.3842
#
#
#
# Elastic Compliance Matrix: (Units=1/GPa)
#
#
# Indices 1 2 3 4 5 6 
#
# 1 0.018233 -0.002582 0.005486 0.000000 -0.004218 0.000000
# 2 -0.002582 0.019799 -0.004633 0.000000 0.005926 0.000000
# 3 0.005486 -0.004633 0.015690 0.000000 -0.004757 0.000000
# 4 0.000000 0.000000 0.000000 0.031676 0.000000 0.008757
# 5 -0.004218 0.005926 -0.004757 0.000000 0.031777 0.000000
# 6 0.000000 0.000000 0.000000 0.008757 0.000000 0.056815
#
#
# Mechanical properties :
#
#
# Convention : Reuss Voigt Hill
#
# Bulk Modulus (GPa) = 19.89437 20.74655 20.32046
# Shear Modulus (GPa) = 25.74633 30.47582 28.11108
#
# Velocity S-wave (km/s) = 3.15073 3.42793 3.29225
# Velocity P-wave (km/s) = 4.57241 4.86487 4.72090
#
# Compressibility (1/GPa) = 0.05026547
#
# Stress axis : x y z
#
# Youngs Moduli (GPa) = 54.84556 50.50700 63.73632
#
# Poissons Ratio (x) = 0.13039 -0.34967
# Poissons Ratio (y) = 0.14159 0.29528
# Poissons Ratio (z) = -0.30090 0.23399
#
# Static dielectric constant tensor:
#      x y z
#    x 2.114940 0.000000 -0.018570 
#    y 0.000000 2.022070 0.000000 
#    z -0.018570 0.000000 2.070670 
# 
# From -- ./inp_files/61160.got.cif
#   From: 2010.05.17/outbox.cif.g08.bks.cpg/sg14_31_cif.got.tgz:61160.got - 2010.06.03 17:49:19.
