data_PCOD9243554
_publ_section_title
;
Structure prediction by ZEFSAII (Michael W. Deem and Ramdas Pophale) SiO2 
 PCOD9243554
Probable space group: P 21/C
;
_chemical_formula_sum "Si O2"
_cell_formula_units_Z 24
_cell_length_a 12.347611
_cell_length_b 15.495883
_cell_length_c 8.666071
_cell_angle_alpha 90.000000
_cell_angle_beta 43.539763
_cell_angle_gamma 90.000000
_cell_volume 1142.223526
_symmetry_space_group_name_H-M "P 21/C"
_symmetry_group_IT_number 14
_symmetry_cell_setting 'monoclinic'
loop_
_space_group_symop_operation_xyz
x,y,z
-x,1/2+y,1/2-z
-x,-y,-z
x,1/2-y,1/2+z
loop_
_atom_site_type_symbol
_atom_site_label
_atom_site_fract_x
_atom_site_fract_y
_atom_site_fract_z
Si Si1 0.773140 0.688737 0.799582
Si Si2 0.352320 0.828793 0.273472
Si Si3 0.054448 0.783798 0.374145
Si Si4 0.962461 0.071117 0.869167
Si Si5 0.443852 0.271408 0.698271
Si Si6 0.138927 0.593266 0.206006
O O1 0.891965 0.768080 0.635783
O O2 0.884300 0.606611 0.696544
O O3 0.637281 0.693337 0.812588
O O4 0.690053 0.695072 0.050101
O O5 0.419276 0.762139 0.330887
O O6 0.290533 0.908699 0.438780
O O7 0.201491 0.795375 0.335395
O O8 0.487079 0.835103 0.003443
O O9 0.057418 0.863017 0.251073
O O10 0.078141 0.691944 0.264983
O O11 0.010709 0.974597 0.776283
O O12 0.833828 0.076417 0.138726
#
# Coordination Sequence:
#
# PCOD9243554 Si02
#       6
#     4   4   4   4   4   4
#     4  10  20  38  60  86 118 163 210 253 302 366
#     4  11  22  36  62  89 122 162 209 256 308 366
#     4  11  21  38  69  90 117 169 210 257 310 365
#     4  10  22  38  63  95 124 157 211 263 307 366
#     4  10  22  36  60  91 120 159 213 248 312 368
#     4  10  21  38  60  96 125 156 209 263 309 365
#
# _framework density 21.011648000000001
#
# number of rings (size 3 to 8) (size 9 to 14) (size 15 to 20)
#    0.000    1.667    3.333    2.000    2.333    0.667 
#    0.000    1.667    0.000    0.000    0.000    0.000 
#    0.000    0.000    0.000    0.000    0.000    0.000 
#
# Total GULP energy -133664.327307 kJ/mol
# GULP energy per Si atom -5569.346971 kJ/mol
# Density = 2.096382 g / cm^3
# Si number density = 21.011648 Si / 1000 Ang^3
#
#
#
# Elastic Constant Matrix: (Units=GPa)
#
#
# Indices 1 2 3 4 5 6 
#
# 1 94.5527 19.8873 31.8805 0.0000 -1.6918 0.0000
# 2 19.8873 35.2361 11.0555 0.0000 2.0484 0.0000
# 3 31.8805 11.0555 155.9581 0.0000 19.0900 0.0000
# 4 0.0000 0.0000 0.0000 20.3566 0.0000 -0.2583
# 5 -1.6918 2.0484 19.0900 0.0000 23.6471 0.0000
# 6 0.0000 0.0000 0.0000 -0.2583 0.0000 15.2673
#
#
#
# Elastic Compliance Matrix: (Units=1/GPa)
#
#
# Indices 1 2 3 4 5 6 
#
# 1 0.012927 -0.006687 -0.002611 0.000000 0.003612 0.000000
# 2 -0.006687 0.032504 -0.000592 0.000000 -0.002816 0.000000
# 3 -0.002611 -0.000592 0.007772 0.000000 -0.006410 0.000000
# 4 0.000000 0.000000 0.000000 0.049135 0.000000 0.000831
# 5 0.003612 -0.002816 -0.006410 0.000000 0.047965 0.000000
# 6 0.000000 0.000000 0.000000 0.000831 0.000000 0.065514
#
#
# Mechanical properties :
#
#
# Convention : Reuss Voigt Hill
#
# Bulk Modulus (GPa) = 29.91959 45.71039 37.81499
# Shear Modulus (GPa) = 20.26435 26.71576 23.49005
#
# Velocity S-wave (km/s) = 3.10890 3.56964 3.34721
# Velocity P-wave (km/s) = 5.21128 6.22831 5.74235
#
# Compressibility (1/GPa) = 0.03342292
#
# Stress axis : x y z
#
# Youngs Moduli (GPa) = 77.35460 30.76567 128.66299
#
# Poissons Ratio (x) = 0.20573 0.33589
# Poissons Ratio (y) = 0.51728 0.07623
# Poissons Ratio (z) = 0.20195 0.01823
#
# Static dielectric constant tensor:
#      x y z
#    x 1.774710 0.000000 0.002590 
#    y 0.000000 1.767980 0.000000 
#    z 0.002590 0.000000 1.905910 
# 
# From -- ./inp_files/13683.got.cif
#   From: 2010.05.17/outbox.cif.g08.bks.cpg/sg14_7_cif.got.tgz:13683.got - 2010.06.03 17:49:19.
