data_PCOD9243040
_publ_section_title
;
Structure prediction by ZEFSAII (Michael W. Deem and Ramdas Pophale) SiO2 
 PCOD9243040
Probable space group: P 21/C
;
_chemical_formula_sum "Si O2"
_cell_formula_units_Z 32
_cell_length_a 15.803117
_cell_length_b 10.516195
_cell_length_c 19.040260
_cell_angle_alpha 90.000000
_cell_angle_beta 152.569805
_cell_angle_gamma 90.000000
_cell_volume 1457.679111
_symmetry_space_group_name_H-M "P 21/C"
_symmetry_group_IT_number 14
_symmetry_cell_setting 'monoclinic'
loop_
_space_group_symop_operation_xyz
x,y,z
-x,1/2+y,1/2-z
-x,-y,-z
x,1/2-y,1/2+z
loop_
_atom_site_type_symbol
_atom_site_label
_atom_site_fract_x
_atom_site_fract_y
_atom_site_fract_z
Si Si1 0.636373 0.318771 0.920865
Si Si2 0.692932 0.834704 0.997206
Si Si3 0.911006 0.091629 0.738400
Si Si4 0.077627 0.691499 0.597689
Si Si5 0.670471 0.643022 0.094602
Si Si6 0.640490 0.991902 0.714250
Si Si7 0.280609 0.596910 0.164824
Si Si8 0.714358 0.688146 0.866880
O O1 0.492961 0.438623 0.823668
O O2 0.734956 0.326210 0.919355
O O3 0.491636 0.204879 0.813952
O O4 0.787060 0.332369 0.091592
O O5 0.703445 0.776794 0.082994
O O6 0.875134 0.916023 0.121003
O O7 0.496323 0.898942 0.842847
O O8 0.706121 0.727737 0.943706
O O9 0.886539 0.160551 0.794661
O O10 0.827052 0.952226 0.683118
O O11 0.178661 0.572926 0.632869
O O12 0.169476 0.821778 0.639476
O O13 0.858277 0.714492 0.436090
O O14 0.662839 0.619330 0.172039
O O15 0.482878 0.593068 0.920709
O O16 0.222254 0.453750 0.104016
#
# Coordination Sequence:
#
# PCOD9243040 Si02
#       8
#     4   4   4   4   4   4   4   4
#     4  10  22  37  58  86 120 150 194 257 294 341
#     4  10  20  36  61  86 114 162 201 239 302 357
#     4   9  20  37  58  86 116 148 201 250 295 346
#     4  10  20  38  62  84 111 161 199 236 299 361
#     4   9  16  32  59  84 107 144 194 246 289 342
#     4   9  17  33  60  84 108 145 198 245 288 339
#     4  11  22  37  60  84 118 162 198 236 299 364
#     4  10  22  38  54  86 126 153 192 243 298 357
#
# _framework density 21.952705999999999
#
# number of rings (size 3 to 8) (size 9 to 14) (size 15 to 20)
#    0.000    2.250    1.250    2.625    1.750    1.500 
#    2.250    0.625    0.000    0.000    0.000    0.000 
#    0.000    0.000    0.000    0.000    0.000    0.000 
#
# Total GULP energy -178564.430737 kJ/mol
# GULP energy per Si atom -5580.138461 kJ/mol
# Density = 2.190274 g / cm^3
# Si number density = 21.952706 Si / 1000 Ang^3
#
#
#
# Elastic Constant Matrix: (Units=GPa)
#
#
# Indices 1 2 3 4 5 6 
#
# 1 50.1975 5.4224 11.5135 0.0000 14.5657 0.0000
# 2 5.4224 40.4404 -3.7201 0.0000 -2.3351 0.0000
# 3 11.5135 -3.7201 74.5893 0.0000 10.6011 0.0000
# 4 0.0000 0.0000 0.0000 20.7483 0.0000 -0.6486
# 5 14.5657 -2.3351 10.6011 0.0000 20.9456 0.0000
# 6 0.0000 0.0000 0.0000 -0.6486 0.0000 22.1360
#
#
#
# Elastic Compliance Matrix: (Units=1/GPa)
#
#
# Indices 1 2 3 4 5 6 
#
# 1 0.025955 -0.004661 -0.001724 0.000000 -0.017697 0.000000
# 2 -0.004661 0.025783 0.001224 0.000000 0.005496 0.000000
# 3 -0.001724 0.001224 0.014594 0.000000 -0.006051 0.000000
# 4 0.000000 0.000000 0.000000 0.048241 0.000000 0.001413
# 5 -0.017697 0.005496 -0.006051 0.000000 0.063725 0.000000
# 6 0.000000 0.000000 0.000000 0.001413 0.000000 0.045217
#
#
# Mechanical properties :
#
#
# Convention : Reuss Voigt Hill
#
# Bulk Modulus (GPa) = 17.85348 21.29543 19.57445
# Shear Modulus (GPa) = 19.80164 22.90006 21.35085
#
# Velocity S-wave (km/s) = 3.00661 3.23329 3.12201
# Velocity P-wave (km/s) = 4.49481 4.86421 4.68316
#
# Compressibility (1/GPa) = 0.05601148
#
# Stress axis : x y z
#
# Youngs Moduli (GPa) = 38.52811 38.78579 68.52168
#
# Poissons Ratio (x) = 0.18076 0.11811
# Poissons Ratio (y) = 0.17956 -0.08388
# Poissons Ratio (z) = 0.06641 -0.04748
#
# Static dielectric constant tensor:
#      x y z
#    x 1.807780 0.000000 0.025110 
#    y 0.000000 1.827690 0.000000 
#    z 0.025110 0.000000 1.823590 
# 
# From -- ./inp_files/59496.got.cif
#   From: 2010.05.17/outbox.cif.g08.bks.cpg/sg14_30_cif.got.tgz:59496.got - 2010.06.03 17:49:19.
