data_PCOD9243824
_publ_section_title
;
Structure prediction by ZEFSAII (Michael W. Deem and Ramdas Pophale) SiO2 
 PCOD9243824
Probable space group: P 21/C
;
_chemical_formula_sum "Si O2"
_cell_formula_units_Z 16
_cell_length_a 22.082878
_cell_length_b 5.248147
_cell_length_c 27.510972
_cell_angle_alpha 90.000000
_cell_angle_beta 10.835468
_cell_angle_gamma 90.000000
_cell_volume 599.378056
_symmetry_space_group_name_H-M "P 21/C"
_symmetry_group_IT_number 14
_symmetry_cell_setting 'monoclinic'
loop_
_space_group_symop_operation_xyz
x,y,z
-x,1/2+y,1/2-z
-x,-y,-z
x,1/2-y,1/2+z
loop_
_atom_site_type_symbol
_atom_site_label
_atom_site_fract_x
_atom_site_fract_y
_atom_site_fract_z
Si Si1 0.752695 0.312187 0.168207
Si Si2 0.252182 0.940573 0.995258
Si Si3 0.789165 0.093462 0.239210
Si Si4 0.908781 0.569465 0.920770
O O1 0.466890 0.484548 0.372405
O O2 0.660213 0.137138 0.286717
O O3 0.000000 0.500000 0.000000
O O4 0.925394 0.118408 0.993331
O O5 0.535869 0.933844 0.731007
O O6 0.057691 0.684083 0.137508
O O7 0.035315 0.186252 0.156859
O O8 0.500000 0.000000 0.500000
O O9 0.909515 0.349903 0.172606
#
# Coordination Sequence:
#
# PCOD9243824 Si02
#       4
#     4   4   4   4
#     4  11  23  43  75 107 145 202 253 312 380 454
#     4  10  20  38  69 101 140 191 257 295 364 449
#     4  11  25  44  74 113 155 194 254 316 389 459
#     4  10  20  38  68 104 137 198 244 301 371 443
#
# _framework density 26.694336
#
# number of rings (size 3 to 8) (size 9 to 14) (size 15 to 20)
#    0.000    1.500    2.500    4.500    3.500    1.000 
#    0.000    0.000    5.500    6.000    0.000    0.000 
#    0.000    0.000    0.000    0.000    0.000    0.000 
#
# Total GULP energy -89388.554538 kJ/mol
# GULP energy per Si atom -5586.784659 kJ/mol
# Density = 2.663358 g / cm^3
# Si number density = 26.694336 Si / 1000 Ang^3
#
#
#
# Elastic Constant Matrix: (Units=GPa)
#
#
# Indices 1 2 3 4 5 6 
#
# 1 183.7761 87.0023 63.6686 0.0000 -22.5619 0.0000
# 2 87.0023 224.4843 53.7586 0.0000 -7.9411 0.0000
# 3 63.6686 53.7586 96.7454 0.0000 21.2294 0.0000
# 4 0.0000 0.0000 0.0000 26.9606 0.0000 -17.1698
# 5 -22.5619 -7.9411 21.2294 0.0000 37.4019 0.0000
# 6 0.0000 0.0000 0.0000 -17.1698 0.0000 55.4753
#
#
#
# Elastic Compliance Matrix: (Units=1/GPa)
#
#
# Indices 1 2 3 4 5 6 
#
# 1 0.010382 -0.001682 -0.008217 0.000000 0.010570 0.000000
# 2 -0.001682 0.005746 -0.002434 0.000000 0.001587 0.000000
# 3 -0.008217 -0.002434 0.020901 0.000000 -0.017337 0.000000
# 4 0.000000 0.000000 0.000000 0.046197 0.000000 0.014298
# 5 0.010570 0.001587 -0.017337 0.000000 0.043290 0.000000
# 6 0.000000 0.000000 0.000000 0.014298 0.000000 0.022451
#
#
# Mechanical properties :
#
#
# Convention : Reuss Voigt Hill
#
# Bulk Modulus (GPa) = 80.89040 101.54053 91.21547
# Shear Modulus (GPa) = 28.12864 44.00597 36.06731
#
# Velocity S-wave (km/s) = 3.24964 4.06459 3.67975
# Velocity P-wave (km/s) = 6.66697 7.75556 7.23178
#
# Compressibility (1/GPa) = 0.01236241
#
# Stress axis : x y z
#
# Youngs Moduli (GPa) = 96.31837 174.04850 47.84428
#
# Poissons Ratio (x) = 0.29275 0.39315
# Poissons Ratio (y) = 0.16201 0.11645
# Poissons Ratio (z) = 0.79148 0.42361
#
# Static dielectric constant tensor:
#      x y z
#    x 2.167940 0.000000 0.011200 
#    y 0.000000 2.353900 0.000000 
#    z 0.011200 0.000000 2.058500 
# 
# From -- ./inp_files/80590.got.cif
#   From: 2010.05.17/outbox.cif.g08.bks.cpg/sg14_41_cif.got.tgz:80590.got - 2010.06.03 17:49:19.
