data_PCOD9243433
_publ_section_title
;
Structure prediction by ZEFSAII (Michael W. Deem and Ramdas Pophale) SiO2 
 PCOD9243433
Probable space group: P 21/C
;
_chemical_formula_sum "Si O2"
_cell_formula_units_Z 32
_cell_length_a 14.404268
_cell_length_b 18.693380
_cell_length_c 14.993173
_cell_angle_alpha 90.000000
_cell_angle_beta 160.731895
_cell_angle_gamma 90.000000
_cell_volume 1332.207828
_symmetry_space_group_name_H-M "P 21/C"
_symmetry_group_IT_number 14
_symmetry_cell_setting 'monoclinic'
loop_
_space_group_symop_operation_xyz
x,y,z
-x,1/2+y,1/2-z
-x,-y,-z
x,1/2-y,1/2+z
loop_
_atom_site_type_symbol
_atom_site_label
_atom_site_fract_x
_atom_site_fract_y
_atom_site_fract_z
Si Si1 0.744339 0.878365 0.488238
Si Si2 0.885861 0.488288 0.996279
Si Si3 0.187422 0.794010 0.224363
Si Si4 0.329753 0.805862 0.998463
Si Si5 0.335475 0.100485 0.002327
Si Si6 0.295149 0.284718 0.319164
Si Si7 0.494001 0.012116 0.599875
Si Si8 0.023998 0.073523 0.888051
O O1 0.063400 0.852423 0.783562
O O2 0.747322 0.941818 0.416197
O O3 0.617985 0.914501 0.461338
O O4 0.552026 0.813135 0.278973
O O5 0.656864 0.424563 0.787821
O O6 0.000000 0.500000 0.000000
O O7 0.151289 0.465040 0.296457
O O8 0.216117 0.768731 0.354583
O O9 0.503103 0.782497 0.476779
O O10 0.064691 0.872753 0.114290
O O11 0.979647 0.741789 0.981926
O O12 0.508684 0.829350 0.072687
O O13 0.258440 0.167759 0.871742
O O14 0.231192 0.112198 0.007571
O O15 0.257731 0.954027 0.414727
O O16 0.500000 0.000000 0.500000
O O17 0.796729 0.992861 0.913547
#
# Coordination Sequence:
#
# PCOD9243433 Si02
#       8
#     4   4   4   4   4   4   4   4
#     4  12  20  39  63  95 133 163 218 264 326 405
#     4  12  23  35  59 101 133 173 202 245 340 406
#     4  10  22  41  67  90 126 182 217 262 336 381
#     4  10  20  37  64  93 132 171 205 263 332 391
#     4  12  22  40  61  98 133 165 215 266 321 411
#     4  10  20  39  62  97 131 170 208 265 326 397
#     4  12  27  47  69  95 129 176 229 291 336 378
#     4  12  24  48  71  94 131 177 231 283 330 393
#
# _framework density 24.020277
#
# number of rings (size 3 to 8) (size 9 to 14) (size 15 to 20)
#    0.750    0.000    3.750    5.250    0.000    0.000 
#    0.000    3.750    2.750    0.000    0.000    0.000 
#    0.000    0.000    0.000    0.000    0.000    0.000 
#
# Total GULP energy -178885.938719 kJ/mol
# GULP energy per Si atom -5590.185585 kJ/mol
# Density = 2.396561 g / cm^3
# Si number density = 24.020277 Si / 1000 Ang^3
#
#
#
# Elastic Constant Matrix: (Units=GPa)
#
#
# Indices 1 2 3 4 5 6 
#
# 1 90.6928 14.7537 5.6135 0.0000 -0.5578 0.0000
# 2 14.7537 50.4633 6.5002 0.0000 5.3168 0.0000
# 3 5.6135 6.5002 115.7892 0.0000 1.3746 0.0000
# 4 0.0000 0.0000 0.0000 -2.9415 0.0000 -3.9274
# 5 -0.5578 5.3168 1.3746 0.0000 6.3494 0.0000
# 6 0.0000 0.0000 0.0000 -3.9274 0.0000 21.1530
#
#
#
# Elastic Compliance Matrix: (Units=1/GPa)
#
#
# Indices 1 2 3 4 5 6 
#
# 1 0.011700 -0.003823 -0.000404 0.000000 0.004317 0.000000
# 2 -0.003823 0.023101 -0.000880 0.000000 -0.019490 0.000000
# 3 -0.000404 -0.000880 0.008719 0.000000 -0.001186 0.000000
# 4 0.000000 0.000000 0.000000 -0.272431 0.000000 -0.050581
# 5 0.004317 -0.019490 -0.001186 0.000000 0.174451 0.000000
# 6 0.000000 0.000000 0.000000 -0.050581 0.000000 0.037884
#
#
# Mechanical properties :
#
#
# Convention : Reuss Voigt Hill
#
# Bulk Modulus (GPa) = 30.02507 34.52002 32.27254
# Shear Modulus (GPa) = 1054.81883 20.25071 537.53477
#
# Velocity S-wave (km/s) = 20.97833 2.90671 14.97563
# Velocity P-wave (km/s) = 24.48089 5.06633 17.67741
#
# Compressibility (1/GPa) = 0.03330551
#
# Stress axis : x y z
#
# Youngs Moduli (GPa) = 85.47176 43.28810 114.68612
#
# Poissons Ratio (x) = 0.16551 0.04631
# Poissons Ratio (y) = 0.32680 0.10094
# Poissons Ratio (z) = 0.03451 0.03810
#
# Static dielectric constant tensor:
#      x y z
#    x 1.966070 0.000000 0.017370 
#    y 0.000000 1.954200 0.000000 
#    z 0.017370 0.000000 1.865550 
# 
# From -- ./inp_files/47676.got.cif
#   From: 2010.05.17/outbox.cif.g08.bks.cpg/sg14_24_cif.got.tgz:47676.got - 2010.06.03 17:49:19.
