data_PCOD9243641
_publ_section_title
;
Structure prediction by ZEFSAII (Michael W. Deem and Ramdas Pophale) SiO2 
 PCOD9243641
Probable space group: P 21/C
;
_chemical_formula_sum "Si O2"
_cell_formula_units_Z 28
_cell_length_a 13.793657
_cell_length_b 6.838477
_cell_length_c 12.355624
_cell_angle_alpha 90.000000
_cell_angle_beta 58.725452
_cell_angle_gamma 90.000000
_cell_volume 996.120503
_symmetry_space_group_name_H-M "P 21/C"
_symmetry_group_IT_number 14
_symmetry_cell_setting 'monoclinic'
loop_
_space_group_symop_operation_xyz
x,y,z
-x,1/2+y,1/2-z
-x,-y,-z
x,1/2-y,1/2+z
loop_
_atom_site_type_symbol
_atom_site_label
_atom_site_fract_x
_atom_site_fract_y
_atom_site_fract_z
Si Si1 0.628550 0.836806 0.091505
Si Si2 0.132244 0.093397 0.290759
Si Si3 0.613892 0.237221 0.994704
Si Si4 0.072809 0.753378 0.457866
Si Si5 0.635623 0.741439 0.805733
Si Si6 0.129899 0.109069 0.054112
Si Si7 0.626099 0.200680 0.745306
O O1 0.635641 0.917769 0.209713
O O2 0.507554 0.737809 0.168390
O O3 0.623381 0.002510 0.004037
O O4 0.757397 0.756605 0.010115
O O5 0.235405 0.247105 0.228145
O O6 0.121642 0.015118 0.176394
O O7 0.013503 0.186173 0.397001
O O8 0.151350 0.925955 0.369932
O O9 0.481158 0.296022 0.064854
O O10 0.653586 0.293213 0.096236
O O11 0.669014 0.276662 0.843881
O O12 0.135537 0.561644 0.461456
O O13 0.985435 0.716183 0.410163
O O14 0.620827 0.962838 0.768288
#
# Coordination Sequence:
#
# PCOD9243641 Si02
#       7
#     4   4   4   4   4   4   4
#     4  10  20  38  62  87 116 159 199 243 299 358
#     4  11  21  40  62  84 117 155 193 245 298 351
#     4  10  21  39  63  91 125 160 202 249 301 361
#     4  10  24  38  60  88 116 144 204 242 298 352
#     4  10  20  38  62  87 116 159 199 243 299 358
#     4  11  21  40  62  84 117 155 193 245 298 351
#     4  10  21  39  63  91 125 160 202 249 301 361
#
# _framework density 28.109048000000001
#
# number of rings (size 3 to 8) (size 9 to 14) (size 15 to 20)
#    0.000    1.714    1.429    4.286    2.000    0.000 
#    0.000   14.286    0.000    0.000    0.000    0.000 
#    0.000    0.000    0.000    0.000    0.000    0.000 
#
# Total GULP energy -155960.734859 kJ/mol
# GULP energy per Si atom -5570.026245 kJ/mol
# Density = 2.804507 g / cm^3
# Si number density = 28.109048 Si / 1000 Ang^3
#
#
#
# Elastic Constant Matrix: (Units=GPa)
#
#
# Indices 1 2 3 4 5 6 
#
# 1 106.9745 40.7595 73.4195 0.0000 -1.5647 0.0000
# 2 40.7595 53.4897 37.0695 0.0000 3.6723 0.0000
# 3 73.4195 37.0695 174.4845 0.0000 31.9511 0.0000
# 4 0.0000 0.0000 0.0000 43.7068 0.0000 10.7583
# 5 -1.5647 3.6723 31.9511 0.0000 66.2665 0.0000
# 6 0.0000 0.0000 0.0000 10.7583 0.0000 35.0189
#
#
#
# Elastic Compliance Matrix: (Units=1/GPa)
#
#
# Indices 1 2 3 4 5 6 
#
# 1 0.016873 -0.009053 -0.005858 0.000000 0.003725 0.000000
# 2 -0.009053 0.026858 -0.001739 0.000000 -0.000864 0.000000
# 3 -0.005858 -0.001739 0.009404 0.000000 -0.004576 0.000000
# 4 0.000000 0.000000 0.000000 0.024751 0.000000 -0.007604
# 5 0.003725 -0.000864 -0.004576 0.000000 0.017433 0.000000
# 6 0.000000 0.000000 0.000000 -0.007604 0.000000 0.030892
#
#
# Mechanical properties :
#
#
# Convention : Reuss Voigt Hill
#
# Bulk Modulus (GPa) = 50.41763 70.82728 60.62245
# Shear Modulus (GPa) = 30.09857 41.24512 35.67185
#
# Velocity S-wave (km/s) = 3.27583 3.83472 3.56624
# Velocity P-wave (km/s) = 5.68185 6.69767 6.21057
#
# Compressibility (1/GPa) = 0.01983433
#
# Stress axis : x y z
#
# Youngs Moduli (GPa) = 59.26778 37.23345 106.34242
#
# Poissons Ratio (x) = 0.33706 0.62300
# Poissons Ratio (y) = 0.53653 0.18488
# Poissons Ratio (z) = 0.34722 0.06473
#
# Static dielectric constant tensor:
#      x y z
#    x 2.245690 0.000000 0.053410 
#    y 0.000000 2.303120 0.000000 
#    z 0.053410 0.000000 2.218350 
# 
# From -- ./inp_files/31450.got.cif
#   From: 2010.05.17/outbox.cif.g08.bks.cpg/sg14_16_cif.got.tgz:31450.got - 2010.06.03 17:49:19.
