data_PCOD9243308
_publ_section_title
;
Structure prediction by ZEFSAII (Michael W. Deem and Ramdas Pophale) SiO2 
 PCOD9243308
Probable space group: P 21/C
;
_chemical_formula_sum "Si O2"
_cell_formula_units_Z 30
_cell_length_a 11.185176
_cell_length_b 6.111827
_cell_length_c 17.642276
_cell_angle_alpha 90.000000
_cell_angle_beta 115.997258
_cell_angle_gamma 90.000000
_cell_volume 1084.023782
_symmetry_space_group_name_H-M "P 21/C"
_symmetry_group_IT_number 14
_symmetry_cell_setting 'monoclinic'
loop_
_space_group_symop_operation_xyz
x,y,z
-x,1/2+y,1/2-z
-x,-y,-z
x,1/2-y,1/2+z
loop_
_atom_site_type_symbol
_atom_site_label
_atom_site_fract_x
_atom_site_fract_y
_atom_site_fract_z
Si Si1 0.409753 0.233047 0.899225
Si Si2 0.154998 0.366651 0.076697
Si Si3 0.592016 0.113786 0.713824
Si Si4 0.000000 0.000000 0.000000
Si Si5 0.968263 0.194703 0.348876
Si Si6 0.802075 0.361061 0.673424
Si Si7 0.248208 0.976566 0.459917
Si Si8 0.624836 0.970705 0.888139
O O1 0.423090 0.379463 0.828308
O O2 0.372773 0.391470 0.959111
O O3 0.280346 0.083538 0.851476
O O4 0.546375 0.090749 0.934832
O O5 0.133051 0.506617 0.146115
O O6 0.225922 0.129138 0.069162
O O7 0.009239 0.263833 0.021904
O O8 0.244096 0.523222 0.048729
O O9 0.617003 0.106870 0.809147
O O10 0.719107 0.209183 0.707661
O O11 0.468592 0.264064 0.657675
O O12 0.035044 0.920788 0.103197
O O13 0.944304 0.172203 0.251500
O O14 0.118087 0.115870 0.403839
O O15 0.778940 0.253801 0.585713
#
# Coordination Sequence:
#
# PCOD9243308 Si02
#       8
#     4   4   4   2   4   4   4   4
#     4  10  22  40  61  92 133 173 219 282 342 405
#     4  11  25  43  68 100 134 179 229 278 342 412
#     4  10  20  37  60  96 128 164 223 280 330 394
#     4  10  22  44  66  96 134 170 216 272 340 400
#     4  11  24  42  68  99 131 178 230 285 334 415
#     4  10  23  41  64  93 131 177 220 280 339 394
#     4  10  24  43  60  96 137 172 225 278 338 415
#     4  11  21  37  67  95 131 174 220 287 336 401
#
# _framework density 27.674671
#
# number of rings (size 3 to 8) (size 9 to 14) (size 15 to 20)
#    0.000    1.600    1.333    3.200    3.733    6.933 
#    0.000    6.000    0.000    0.000    0.000    0.000 
#    0.000    0.000    0.000    0.000    0.000    0.000 
#
# Total GULP energy -167121.296897 kJ/mol
# GULP energy per Si atom -5570.709897 kJ/mol
# Density = 2.761168 g / cm^3
# Si number density = 27.674671 Si / 1000 Ang^3
#
#
#
# Elastic Constant Matrix: (Units=GPa)
#
#
# Indices 1 2 3 4 5 6 
#
# 1 109.4675 27.1186 17.5941 0.0000 -13.7870 0.0000
# 2 27.1186 88.1131 29.2125 0.0000 -11.6139 0.0000
# 3 17.5941 29.2125 89.0671 0.0000 -1.9786 0.0000
# 4 0.0000 0.0000 0.0000 22.4071 0.0000 -4.0435
# 5 -13.7870 -11.6139 -1.9786 0.0000 34.4332 0.0000
# 6 0.0000 0.0000 0.0000 -4.0435 0.0000 74.3207
#
#
#
# Elastic Compliance Matrix: (Units=1/GPa)
#
#
# Indices 1 2 3 4 5 6 
#
# 1 0.010321 -0.002349 -0.001196 0.000000 0.003272 0.000000
# 2 -0.002349 0.013862 -0.004004 0.000000 0.003505 0.000000
# 3 -0.001196 -0.004004 0.012753 0.000000 -0.001097 0.000000
# 4 0.000000 0.000000 0.000000 0.045071 0.000000 0.002452
# 5 0.003272 0.003505 -0.001097 0.000000 0.031471 0.000000
# 6 0.000000 0.000000 0.000000 0.002452 0.000000 0.013589
#
#
# Mechanical properties :
#
#
# Convention : Reuss Voigt Hill
#
# Bulk Modulus (GPa) = 45.79337 48.27755 47.03546
# Shear Modulus (GPa) = 33.45744 40.41370 36.93557
#
# Velocity S-wave (km/s) = 3.48078 3.82555 3.65723
# Velocity P-wave (km/s) = 5.72166 6.08241 5.90479
#
# Compressibility (1/GPa) = 0.02183722
#
# Stress axis : x y z
#
# Youngs Moduli (GPa) = 96.88731 72.14199 78.41451
#
# Poissons Ratio (x) = 0.16946 0.09376
# Poissons Ratio (y) = 0.22758 0.31401
# Poissons Ratio (z) = 0.11585 0.28889
#
# Static dielectric constant tensor:
#      x y z
#    x 1.528450 0.000000 -0.304100 
#    y 0.000000 2.298720 0.000000 
#    z -0.304100 0.000000 2.138260 
# 
# From -- ./inp_files/66524.got.cif
#   From: 2010.05.17/outbox.cif.g08.bks.cpg/sg14_34_cif.got.tgz:66524.got - 2010.06.03 17:49:19.
