data_PCOD9243592
_publ_section_title
;
Structure prediction by ZEFSAII (Michael W. Deem and Ramdas Pophale) SiO2 
 PCOD9243592
Probable space group: P 21/C
;
_chemical_formula_sum "Si O2"
_cell_formula_units_Z 18
_cell_length_a 12.734899
_cell_length_b 7.025492
_cell_length_c 6.660492
_cell_angle_alpha 90.000000
_cell_angle_beta 93.498941
_cell_angle_gamma 90.000000
_cell_volume 594.796285
_symmetry_space_group_name_H-M "P 21/C"
_symmetry_group_IT_number 14
_symmetry_cell_setting 'monoclinic'
loop_
_space_group_symop_operation_xyz
x,y,z
-x,1/2+y,1/2-z
-x,-y,-z
x,1/2-y,1/2+z
loop_
_atom_site_type_symbol
_atom_site_label
_atom_site_fract_x
_atom_site_fract_y
_atom_site_fract_z
Si Si1 0.500000 0.500000 0.500000
Si Si2 0.683617 0.469429 0.337703
Si Si3 0.643399 0.918044 0.379717
Si Si4 0.910120 0.991255 0.797266
Si Si5 0.127969 0.046980 0.670126
O O1 0.598702 0.353786 0.449946
O O2 0.454353 0.477362 0.261819
O O3 0.641013 0.683948 0.410955
O O4 0.805576 0.407627 0.371611
O O5 0.666574 0.505571 0.102114
O O6 0.749885 0.976011 0.271573
O O7 0.882229 0.774429 0.840984
O O8 0.898653 0.030556 0.554259
O O9 0.038328 0.995650 0.822224
#
# Coordination Sequence:
#
# PCOD9243592 Si02
#       5
#     2   4   4   4   4
#     4  12  22  36  62  84 110 164 196 246 290 344
#     4  10  20  38  61  85 116 157 201 240 298 361
#     4  10  20  38  61  85 116 157 201 240 298 361
#     4   9  19  36  60  88 118 152 192 243 296 357
#     4   9  19  36  60  88 118 152 192 243 296 357
#
# _framework density 30.262460999999998
#
# number of rings (size 3 to 8) (size 9 to 14) (size 15 to 20)
#    0.000    2.222    2.222    0.667    3.111    0.889 
#    0.000    2.222    9.778    0.000    0.000    0.000 
#    0.000    0.000    0.000    0.000    0.000    0.000 
#
# Total GULP energy -100275.586925 kJ/mol
# GULP energy per Si atom -5570.865940 kJ/mol
# Density = 3.019358 g / cm^3
# Si number density = 30.262461 Si / 1000 Ang^3
#
#
#
# Elastic Constant Matrix: (Units=GPa)
#
#
# Indices 1 2 3 4 5 6 
#
# 1 143.7782 -16.9522 16.1673 0.0000 28.6236 0.0000
# 2 -16.9522 93.2010 1.1578 0.0000 23.3545 0.0000
# 3 16.1673 1.1578 74.9777 0.0000 1.0215 0.0000
# 4 0.0000 0.0000 0.0000 13.4528 0.0000 1.6045
# 5 28.6236 23.3545 1.0215 0.0000 82.1476 0.0000
# 6 0.0000 0.0000 0.0000 1.6045 0.0000 1.6527
#
#
#
# Elastic Compliance Matrix: (Units=1/GPa)
#
#
# Indices 1 2 3 4 5 6 
#
# 1 0.008124 0.002372 -0.001741 0.000000 -0.003484 0.000000
# 2 0.002372 0.012247 -0.000642 0.000000 -0.004300 0.000000
# 3 -0.001741 -0.000642 0.013714 0.000000 0.000619 0.000000
# 4 0.000000 0.000000 0.000000 0.084069 0.000000 -0.081619
# 5 -0.003484 -0.004300 0.000619 0.000000 0.014602 0.000000
# 6 0.000000 0.000000 0.000000 -0.081619 0.000000 0.684319
#
#
# Mechanical properties :
#
#
# Convention : Reuss Voigt Hill
#
# Bulk Modulus (GPa) = 29.35711 34.74476 32.05094
# Shear Modulus (GPa) = 6.03536 40.22289 23.12913
#
# Velocity S-wave (km/s) = 1.41374 3.64969 2.76757
# Velocity P-wave (km/s) = 3.51949 5.40984 4.56361
#
# Compressibility (1/GPa) = 0.03406329
#
# Stress axis : x y z
#
# Youngs Moduli (GPa) = 123.09004 81.65573 72.91723
#
# Poissons Ratio (x) = -0.19371 0.12695
# Poissons Ratio (y) = -0.29200 0.04682
# Poissons Ratio (z) = 0.21430 0.05243
#
# Static dielectric constant tensor:
#      x y z
#    x 1.611160 0.000000 0.300400 
#    y 0.000000 1.972780 0.000000 
#    z 0.300400 0.000000 2.245000 
# 
# From -- ./inp_files/11526.got.cif
#   From: 2010.05.17/outbox.cif.g08.bks.cpg/sg14_6_cif.got.tgz:11526.got - 2010.06.03 17:49:19.
