data_PCOD9243204
_publ_section_title
;
Structure prediction by ZEFSAII (Michael W. Deem and Ramdas Pophale) SiO2 
 PCOD9243204
Probable space group: P 21/C
;
_chemical_formula_sum "Si O2"
_cell_formula_units_Z 20
_cell_length_a 12.719702
_cell_length_b 7.879694
_cell_length_c 17.881339
_cell_angle_alpha 90.000000
_cell_angle_beta 26.590813
_cell_angle_gamma 90.000000
_cell_volume 802.216604
_symmetry_space_group_name_H-M "P 21/C"
_symmetry_group_IT_number 14
_symmetry_cell_setting 'monoclinic'
loop_
_space_group_symop_operation_xyz
x,y,z
-x,1/2+y,1/2-z
-x,-y,-z
x,1/2-y,1/2+z
loop_
_atom_site_type_symbol
_atom_site_label
_atom_site_fract_x
_atom_site_fract_y
_atom_site_fract_z
Si Si1 0.787936 0.490336 0.227923
Si Si2 0.267871 0.823506 0.385654
Si Si3 0.096131 0.757770 0.215968
Si Si4 0.544628 0.849522 0.352371
Si Si5 0.005834 0.461475 0.363412
O O1 0.698676 0.357408 0.222642
O O2 0.788688 0.407215 0.308635
O O3 0.641621 0.660912 0.308160
O O4 0.057867 0.545453 0.040835
O O5 0.481764 0.859202 0.305196
O O6 0.170172 0.638143 0.470213
O O7 0.941782 0.643252 0.369799
O O8 0.974902 0.835800 0.220492
O O9 0.302755 0.638757 0.051812
O O10 0.746045 0.972525 0.252914
#
# Coordination Sequence:
#
# PCOD9243204 Si02
#       5
#     4   4   4   4   4
#     4  10  21  38  59  82 116 151 186 237 285 338
#     4   9  21  40  57  82 116 151 189 232 285 341
#     4  11  21  36  58  84 114 149 191 237 288 338
#     4  10  20  37  58  84 114 147 191 236 284 340
#     4  10  21  37  58  83 115 150 190 237 283 341
#
# _framework density 24.930923
#
# number of rings (size 3 to 8) (size 9 to 14) (size 15 to 20)
#    0.000    2.000    0.000    4.800    0.000    4.000 
#    0.000   14.000    0.000    0.000    0.000    0.000 
#    0.000    0.000    0.000    0.000    0.000    0.000 
#
# Total GULP energy -111949.932613 kJ/mol
# GULP energy per Si atom -5597.496631 kJ/mol
# Density = 2.487418 g / cm^3
# Si number density = 24.930923 Si / 1000 Ang^3
#
#
#
# Elastic Constant Matrix: (Units=GPa)
#
#
# Indices 1 2 3 4 5 6 
#
# 1 171.1217 30.3436 28.8674 0.0000 -13.0578 0.0000
# 2 30.3436 90.7869 11.1089 0.0000 7.8108 0.0000
# 3 28.8674 11.1089 29.3789 0.0000 -6.6136 0.0000
# 4 0.0000 0.0000 0.0000 19.2715 0.0000 25.6028
# 5 -13.0578 7.8108 -6.6136 0.0000 24.4431 0.0000
# 6 0.0000 0.0000 0.0000 25.6028 0.0000 28.7567
#
#
#
# Elastic Compliance Matrix: (Units=1/GPa)
#
#
# Indices 1 2 3 4 5 6 
#
# 1 0.007420 -0.002026 -0.005843 0.000000 0.003030 0.000000
# 2 -0.002026 0.012755 -0.004253 0.000000 -0.006309 0.000000
# 3 -0.005843 -0.004253 0.043649 0.000000 0.010048 0.000000
# 4 0.000000 0.000000 0.000000 -0.283824 0.000000 0.252696
# 5 0.003030 -0.006309 0.010048 0.000000 0.047265 0.000000
# 6 0.000000 0.000000 0.000000 0.252696 0.000000 -0.190207
#
#
# Mechanical properties :
#
#
# Convention : Reuss Voigt Hill
#
# Bulk Modulus (GPa) = 25.26421 47.99195 36.62808
# Shear Modulus (GPa) = -15.36063 29.22543 6.93240
#
# Velocity S-wave (km/s) = -2.48488 3.42754 1.66934
# Velocity P-wave (km/s) = 1.38666 5.91234 4.29410
#
# Compressibility (1/GPa) = 0.03958169
#
# Stress axis : x y z
#
# Youngs Moduli (GPa) = 134.77392 78.40057 22.91016
#
# Poissons Ratio (x) = 0.15882 0.13385
# Poissons Ratio (y) = 0.27302 0.09743
# Poissons Ratio (z) = 0.78742 0.33342
#
# Static dielectric constant tensor:
#      x y z
#    x 1.911660 0.000000 -0.004940 
#    y 0.000000 2.005510 0.000000 
#    z -0.004940 0.000000 1.985050 
# 
# From -- ./inp_files/27732.got.cif
#   From: 2010.05.17/outbox.cif.g08.bks.cpg/sg14_14_cif.got.tgz:27732.got - 2010.06.03 17:49:19.
