data_PCOD9243440
_publ_section_title
;
Structure prediction by ZEFSAII (Michael W. Deem and Ramdas Pophale) SiO2 
 PCOD9243440
Probable space group: P 21/C
;
_chemical_formula_sum "Si O2"
_cell_formula_units_Z 32
_cell_length_a 12.893865
_cell_length_b 7.707029
_cell_length_c 13.031860
_cell_angle_alpha 90.000000
_cell_angle_beta 112.346147
_cell_angle_gamma 90.000000
_cell_volume 1197.769032
_symmetry_space_group_name_H-M "P 21/C"
_symmetry_group_IT_number 14
_symmetry_cell_setting 'monoclinic'
loop_
_space_group_symop_operation_xyz
x,y,z
-x,1/2+y,1/2-z
-x,-y,-z
x,1/2-y,1/2+z
loop_
_atom_site_type_symbol
_atom_site_label
_atom_site_fract_x
_atom_site_fract_y
_atom_site_fract_z
Si Si1 0.202620 0.159971 0.146971
Si Si2 0.539055 0.031386 0.178855
Si Si3 0.250541 0.784886 0.228774
Si Si4 0.886839 0.530967 0.583966
Si Si5 0.847674 0.153500 0.491023
Si Si6 0.101225 0.002878 0.297604
Si Si7 0.355311 0.452672 0.093801
Si Si8 0.356601 0.332987 0.454787
O O1 0.277684 0.320299 0.134885
O O2 0.263813 0.969660 0.173455
O O3 0.148639 0.157433 0.241065
O O4 0.109921 0.134334 0.023043
O O5 0.637902 0.176077 0.210382
O O6 0.535299 0.982719 0.296958
O O7 0.585439 0.871788 0.129868
O O8 0.432269 0.092854 0.076352
O O9 0.191769 0.851494 0.309121
O O10 0.153696 0.673265 0.132934
O O11 0.889387 0.331432 0.552310
O O12 0.765276 0.582850 0.582697
O O13 0.986442 0.555106 0.701391
O O14 0.899719 0.998162 0.579160
O O15 0.712450 0.128919 0.445780
O O16 0.359385 0.367918 0.984536
#
# Coordination Sequence:
#
# PCOD9243440 Si02
#       8
#     4   4   4   4   4   4   4   4
#     4   8  19  36  60  85 122 165 199 250 318 367
#     4  10  21  42  64  92 123 166 209 262 314 370
#     4   8  19  38  63  87 123 158 208 256 305 376
#     4  10  20  39  59  88 125 168 205 256 305 374
#     4  10  21  36  61  94 120 164 210 253 308 378
#     4  10  20  37  65  87 125 167 203 252 320 371
#     4  10  22  39  60  92 127 153 209 267 313 370
#     4  10  23  39  64  89 125 166 211 254 315 373
#
# _framework density 26.716338
#
# number of rings (size 3 to 8) (size 9 to 14) (size 15 to 20)
#    0.750    1.750    0.000    1.125    1.750    6.000 
#    0.000    0.625    0.000    4.500    0.000    0.000 
#    0.000    0.000    0.000    0.000    0.000    0.000 
#
# Total GULP energy -178591.993682 kJ/mol
# GULP energy per Si atom -5580.999803 kJ/mol
# Density = 2.665553 g / cm^3
# Si number density = 26.716338 Si / 1000 Ang^3
#
#
#
# Elastic Constant Matrix: (Units=GPa)
#
#
# Indices 1 2 3 4 5 6 
#
# 1 50.4577 19.3500 32.2930 0.0000 15.3550 0.0000
# 2 19.3500 77.9486 35.9618 0.0000 -8.4596 0.0000
# 3 32.2930 35.9618 171.0005 0.0000 27.8635 0.0000
# 4 0.0000 0.0000 0.0000 47.2202 0.0000 -7.4605
# 5 15.3550 -8.4596 27.8635 0.0000 27.3335 0.0000
# 6 0.0000 0.0000 0.0000 -7.4605 0.0000 16.7521
#
#
#
# Elastic Compliance Matrix: (Units=1/GPa)
#
#
# Indices 1 2 3 4 5 6 
#
# 1 0.029350 -0.009036 -0.000600 0.000000 -0.018673 0.000000
# 2 -0.009036 0.019071 -0.004908 0.000000 0.015982 0.000000
# 3 -0.000600 -0.004908 0.008618 0.000000 -0.009967 0.000000
# 4 0.000000 0.000000 0.000000 0.022780 0.000000 0.010145
# 5 -0.018673 0.015982 -0.009967 0.000000 0.062181 0.000000
# 6 0.000000 0.000000 0.000000 0.010145 0.000000 0.064212
#
#
# Mechanical properties :
#
#
# Convention : Reuss Voigt Hill
#
# Bulk Modulus (GPa) = 35.77747 52.73516 44.25632
# Shear Modulus (GPa) = 20.44017 32.38130 26.41074
#
# Velocity S-wave (km/s) = 2.76901 3.48522 3.14755
# Velocity P-wave (km/s) = 4.86250 5.99812 5.45991
#
# Compressibility (1/GPa) = 0.02795055
#
# Stress axis : x y z
#
# Youngs Moduli (GPa) = 34.07175 52.43567 116.04281
#
# Poissons Ratio (x) = 0.47379 0.06961
# Poissons Ratio (y) = 0.30786 0.56959
# Poissons Ratio (z) = 0.02044 0.25738
#
# Static dielectric constant tensor:
#      x y z
#    x 2.129220 0.000000 -0.025730 
#    y 0.000000 2.161830 0.000000 
#    z -0.025730 0.000000 2.077690 
# 
# From -- ./inp_files/48429.got.cif
#   From: 2010.05.17/outbox.cif.g08.bks.cpg/sg14_25_cif.got.tgz:48429.got - 2010.06.03 17:49:19.
