data_PCOD9243361
_publ_section_title
;
Structure prediction by ZEFSAII (Michael W. Deem and Ramdas Pophale) SiO2 
 PCOD9243361
Probable space group: P 21/C
;
_chemical_formula_sum "Si O2"
_cell_formula_units_Z 24
_cell_length_a 23.597385
_cell_length_b 5.044225
_cell_length_c 16.399187
_cell_angle_alpha 90.000000
_cell_angle_beta 151.841807
_cell_angle_gamma 90.000000
_cell_volume 921.165361
_symmetry_space_group_name_H-M "P 21/C"
_symmetry_group_IT_number 14
_symmetry_cell_setting 'monoclinic'
loop_
_space_group_symop_operation_xyz
x,y,z
-x,1/2+y,1/2-z
-x,-y,-z
x,1/2-y,1/2+z
loop_
_atom_site_type_symbol
_atom_site_label
_atom_site_fract_x
_atom_site_fract_y
_atom_site_fract_z
Si Si1 0.129624 0.579275 0.471839
Si Si2 0.084285 0.371156 0.234903
Si Si3 0.676641 0.372474 0.841362
Si Si4 0.526367 0.630063 0.117137
Si Si5 0.578378 0.979032 0.368968
Si Si6 0.094547 0.210591 0.079760
O O1 0.135821 0.485291 0.385285
O O2 0.205377 0.849900 0.562091
O O3 0.173542 0.415321 0.606808
O O4 0.992589 0.629030 0.324033
O O5 0.158195 0.311065 0.244828
O O6 0.985294 0.569166 0.068530
O O7 0.580754 0.579315 0.684047
O O8 0.688966 0.477083 0.949051
O O9 0.624153 0.075890 0.777017
O O10 0.410768 0.594894 0.027733
O O11 0.500000 0.500000 0.000000
O O12 0.473910 0.182567 0.201759
O O13 0.000000 0.000000 0.000000
#
# Coordination Sequence:
#
# PCOD9243361 Si02
#       6
#     4   4   4   4   4   4
#     4  11  21  36  65  92 129 173 229 277 341 406
#     4  10  20  37  62  88 126 179 219 274 350 398
#     4  10  22  36  64  94 125 164 218 271 314 409
#     4  10  20  39  64  90 126 166 208 264 345 396
#     4   8  16  34  57  83 116 154 195 249 318 383
#     4   9  20  38  58  85 121 172 223 274 333 406
#
# _framework density 26.053955999999999
#
# number of rings (size 3 to 8) (size 9 to 14) (size 15 to 20)
#    0.000    2.333    1.667    0.500    2.333    0.000 
#    0.000    5.000   18.333    0.000    0.000    0.000 
#    0.000    0.000    0.000    0.000    0.000    0.000 
#
# Total GULP energy -133763.674118 kJ/mol
# GULP energy per Si atom -5573.486422 kJ/mol
# Density = 2.599466 g / cm^3
# Si number density = 26.053956 Si / 1000 Ang^3
#
#
#
# Elastic Constant Matrix: (Units=GPa)
#
#
# Indices 1 2 3 4 5 6 
#
# 1 216.7768 42.9266 67.1280 0.0000 -61.0571 0.0000
# 2 42.9266 98.4925 21.2319 0.0000 -10.5127 0.0000
# 3 67.1280 21.2319 64.5878 0.0000 -39.2593 0.0000
# 4 0.0000 0.0000 0.0000 19.6260 0.0000 -3.9669
# 5 -61.0571 -10.5127 -39.2593 0.0000 44.6273 0.0000
# 6 0.0000 0.0000 0.0000 -3.9669 0.0000 51.5226
#
#
#
# Elastic Compliance Matrix: (Units=1/GPa)
#
#
# Indices 1 2 3 4 5 6 
#
# 1 0.008240 -0.002095 -0.002843 0.000000 0.008279 0.000000
# 2 -0.002095 0.011493 -0.003648 0.000000 -0.003368 0.000000
# 3 -0.002843 -0.003648 0.036001 0.000000 0.026921 0.000000
# 4 0.000000 0.000000 0.000000 0.051758 0.000000 0.003985
# 5 0.008279 -0.003368 0.026921 0.000000 0.056625 0.000000
# 6 0.000000 0.000000 0.000000 0.003985 0.000000 0.019716
#
#
# Mechanical properties :
#
#
# Convention : Reuss Voigt Hill
#
# Bulk Modulus (GPa) = 25.93217 71.38113 48.65665
# Shear Modulus (GPa) = 23.37984 39.72655 31.55320
#
# Velocity S-wave (km/s) = 2.99885 3.90908 3.48382
# Velocity P-wave (km/s) = 4.68676 6.91603 5.90750
#
# Compressibility (1/GPa) = 0.03856214
#
# Stress axis : x y z
#
# Youngs Moduli (GPa) = 121.35622 87.00966 27.77696
#
# Poissons Ratio (x) = 0.18227 0.07897
# Poissons Ratio (y) = 0.25422 0.10133
# Poissons Ratio (z) = 0.34504 0.31742
#
# Static dielectric constant tensor:
#      x y z
#    x 2.272060 0.000000 0.006270 
#    y 0.000000 2.125230 0.000000 
#    z 0.006270 0.000000 2.160540 
# 
# From -- ./inp_files/49731.got.cif
#   From: 2010.05.17/outbox.cif.g08.bks.cpg/sg14_25_cif.got.tgz:49731.got - 2010.06.03 17:49:19.
