data_PCOD9243274
_publ_section_title
;
Structure prediction by ZEFSAII (Michael W. Deem and Ramdas Pophale) SiO2 
 PCOD9243274
Probable space group: P 21/C
;
_chemical_formula_sum "Si O2"
_cell_formula_units_Z 24
_cell_length_a 11.548020
_cell_length_b 19.467137
_cell_length_c 4.921742
_cell_angle_alpha 90.000000
_cell_angle_beta 81.567168
_cell_angle_gamma 90.000000
_cell_volume 1094.479164
_symmetry_space_group_name_H-M "P 21/C"
_symmetry_group_IT_number 14
_symmetry_cell_setting 'monoclinic'
loop_
_space_group_symop_operation_xyz
x,y,z
-x,1/2+y,1/2-z
-x,-y,-z
x,1/2-y,1/2+z
loop_
_atom_site_type_symbol
_atom_site_label
_atom_site_fract_x
_atom_site_fract_y
_atom_site_fract_z
Si Si1 0.471928 0.793496 0.852732
Si Si2 0.598148 0.595610 0.943611
Si Si3 0.647291 0.454380 0.193413
Si Si4 0.957920 0.296788 0.417401
Si Si5 0.745566 0.381744 0.657221
Si Si6 0.232155 0.202249 0.881901
O O1 0.493613 0.727541 0.653991
O O2 0.543308 0.854840 0.692458
O O3 0.337525 0.816155 0.868949
O O4 0.654101 0.531256 0.080416
O O5 0.487998 0.568624 0.802754
O O6 0.691429 0.637958 0.736952
O O7 0.691847 0.440689 0.480493
O O8 0.724763 0.406042 0.970314
O O9 0.935718 0.232005 0.624797
O O10 0.874493 0.358765 0.532060
O O11 0.094654 0.314624 0.402420
O O12 0.254720 0.266345 0.670075
#
# Coordination Sequence:
#
# PCOD9243274 Si02
#       6
#     4   4   4   4   4   4
#     4  11  21  32  54  82 106 138 177 227 279 321
#     4  10  22  40  56  81 118 149 189 230 273 338
#     4  10  24  37  58  81 112 157 187 226 279 323
#     4  10  20  37  60  84 113 145 181 233 288 332
#     4  11  21  38  56  83 113 144 190 230 275 336
#     4  10  22  38  60  86 112 147 184 229 285 334
#
# _framework density 21.928238
#
# number of rings (size 3 to 8) (size 9 to 14) (size 15 to 20)
#    0.000    1.667    0.000    5.000    0.000   11.333 
#    0.000    1.667    0.000    0.000    0.000    0.000 
#    0.000    0.000    0.000    0.000    0.000    0.000 
#
# Total GULP energy -134453.076798 kJ/mol
# GULP energy per Si atom -5602.211533 kJ/mol
# Density = 2.187833 g / cm^3
# Si number density = 21.928238 Si / 1000 Ang^3
#
#
#
# Elastic Constant Matrix: (Units=GPa)
#
#
# Indices 1 2 3 4 5 6 
#
# 1 74.5389 24.6869 17.8971 0.0000 -24.0797 0.0000
# 2 24.6869 67.1408 -1.2566 0.0000 -14.0467 0.0000
# 3 17.8971 -1.2566 76.9747 0.0000 -3.9302 0.0000
# 4 0.0000 0.0000 0.0000 21.7264 0.0000 -2.9382
# 5 -24.0797 -14.0467 -3.9302 0.0000 39.8453 0.0000
# 6 0.0000 0.0000 0.0000 -2.9382 0.0000 22.1440
#
#
#
# Elastic Compliance Matrix: (Units=1/GPa)
#
#
# Indices 1 2 3 4 5 6 
#
# 1 0.019109 -0.005149 -0.004050 0.000000 0.009333 0.000000
# 2 -0.005149 0.017491 0.001647 0.000000 0.003217 0.000000
# 3 -0.004050 0.001647 0.013935 0.000000 -0.000493 0.000000
# 4 0.000000 0.000000 0.000000 0.046868 0.000000 0.006219
# 5 0.009333 0.003217 -0.000493 0.000000 0.031823 0.000000
# 6 0.000000 0.000000 0.000000 0.006219 0.000000 0.045984
#
#
# Mechanical properties :
#
#
# Convention : Reuss Voigt Hill
#
# Bulk Modulus (GPa) = 28.22511 33.47880 30.85195
# Shear Modulus (GPa) = 24.73718 28.56495 26.65106
#
# Velocity S-wave (km/s) = 3.36236 3.61315 3.49001
# Velocity P-wave (km/s) = 5.28900 5.71901 5.50820
#
# Compressibility (1/GPa) = 0.03542945
#
# Stress axis : x y z
#
# Youngs Moduli (GPa) = 52.33172 57.17151 71.76294
#
# Poissons Ratio (x) = 0.29439 0.29067
# Poissons Ratio (y) = 0.26947 -0.11820
# Poissons Ratio (z) = 0.21197 -0.09416
#
# Static dielectric constant tensor:
#      x y z
#    x 1.808950 0.000000 -0.009140 
#    y 0.000000 1.793860 0.000000 
#    z -0.009140 0.000000 1.787110 
# 
# From -- ./inp_files/2664.got.cif
#   From: 2010.05.17/outbox.cif.g08.bks.cpg/sg14_2_cif.got.tgz:2664.got - 2010.06.03 17:49:19.
