data_PCOD9243597
_publ_section_title
;
Structure prediction by ZEFSAII (Michael W. Deem and Ramdas Pophale) SiO2 
 PCOD9243597
Probable space group: P 21/C
;
_chemical_formula_sum "Si O2"
_cell_formula_units_Z 32
_cell_length_a 24.441496
_cell_length_b 9.517003
_cell_length_c 10.432350
_cell_angle_alpha 90.000000
_cell_angle_beta 37.624090
_cell_angle_gamma 90.000000
_cell_volume 1481.427218
_symmetry_space_group_name_H-M "P 21/C"
_symmetry_group_IT_number 14
_symmetry_cell_setting 'monoclinic'
loop_
_space_group_symop_operation_xyz
x,y,z
-x,1/2+y,1/2-z
-x,-y,-z
x,1/2-y,1/2+z
loop_
_atom_site_type_symbol
_atom_site_label
_atom_site_fract_x
_atom_site_fract_y
_atom_site_fract_z
Si Si1 0.047540 0.904685 0.016389
Si Si2 0.676818 0.835504 0.591564
Si Si3 0.126745 0.868694 0.279608
Si Si4 0.713763 0.550113 0.626385
Si Si5 0.949174 0.615115 0.933573
Si Si6 0.458067 0.096155 0.962922
Si Si7 0.829339 0.630902 0.648398
Si Si8 0.455241 0.092139 0.397096
O O1 0.971277 0.840554 0.247413
O O2 0.119454 0.792339 0.835747
O O3 0.096648 0.015715 0.015236
O O4 0.000000 0.000000 0.000000
O O5 0.694962 0.669273 0.556831
O O6 0.764888 0.915789 0.383481
O O7 0.604193 0.863422 0.615878
O O8 0.641270 0.880726 0.796354
O O9 0.040669 0.877979 0.344684
O O10 0.098429 0.967138 0.452014
O O11 0.219864 0.927336 0.047215
O O12 0.769047 0.633683 0.634244
O O13 0.615832 0.519296 0.872384
O O14 0.878761 0.731818 0.106364
O O15 0.491595 0.259425 0.887128
O O16 0.474464 0.015135 0.798674
O O17 0.500000 0.000000 0.000000
#
# Coordination Sequence:
#
# PCOD9243597 Si02
#       8
#     4   4   4   4   4   4   4   4
#     4  12  25  37  55  85 119 156 207 262 308 354
#     4   9  19  37  62  89 116 157 200 241 294 367
#     4  11  23  39  58  80 121 157 207 255 303 356
#     4  10  20  38  61  86 119 158 199 250 297 359
#     4  11  23  38  59  84 109 164 209 253 299 356
#     4   9  18  38  64  94 123 157 193 242 300 370
#     4  11  21  37  59  81 116 157 207 249 304 351
#     4   9  19  37  68  93 124 153 197 243 301 375
#
# _framework density 21.600791000000001
#
# number of rings (size 3 to 8) (size 9 to 14) (size 15 to 20)
#    0.000    1.750    3.750    0.750    3.500    0.000 
#    2.250    5.625    5.500    0.000    0.000    0.000 
#    0.000    0.000    0.000    0.000    0.000    0.000 
#
# Total GULP energy -178178.778194 kJ/mol
# GULP energy per Si atom -5568.086819 kJ/mol
# Density = 2.155163 g / cm^3
# Si number density = 21.600791 Si / 1000 Ang^3
#
#
#
# Elastic Constant Matrix: (Units=GPa)
#
#
# Indices 1 2 3 4 5 6 
#
# 1 17.9952 10.4262 15.0843 0.0000 1.2288 0.0000
# 2 10.4262 103.1457 41.9293 0.0000 -1.9477 0.0000
# 3 15.0843 41.9293 115.9313 0.0000 12.4113 0.0000
# 4 0.0000 0.0000 0.0000 42.4846 0.0000 -2.2686
# 5 1.2288 -1.9477 12.4113 0.0000 18.3204 0.0000
# 6 0.0000 0.0000 0.0000 -2.2686 0.0000 24.7773
#
#
#
# Elastic Compliance Matrix: (Units=1/GPa)
#
#
# Indices 1 2 3 4 5 6 
#
# 1 0.063485 -0.003580 -0.006975 0.000000 0.000086 0.000000
# 2 -0.003580 0.011892 -0.004309 0.000000 0.004423 0.000000
# 3 -0.006975 -0.004309 0.011958 0.000000 -0.008091 0.000000
# 4 0.000000 0.000000 0.000000 0.023654 0.000000 0.002166
# 5 0.000086 0.004423 -0.008091 0.000000 0.060530 0.000000
# 6 0.000000 0.000000 0.000000 0.002166 0.000000 0.040558
#
#
# Mechanical properties :
#
#
# Convention : Reuss Voigt Hill
#
# Bulk Modulus (GPa) = 17.35880 41.32798 29.34339
# Shear Modulus (GPa) = 19.15660 28.42529 23.79095
#
# Velocity S-wave (km/s) = 2.98123 3.63152 3.32232
# Velocity P-wave (km/s) = 4.46138 6.06284 5.32269
#
# Compressibility (1/GPa) = 0.05760766
#
# Stress axis : x y z
#
# Youngs Moduli (GPa) = 15.75168 84.09026 83.62692
#
# Poissons Ratio (x) = 0.30108 0.58327
# Poissons Ratio (y) = 0.05640 0.36032
# Poissons Ratio (z) = 0.10986 0.36232
#
# Static dielectric constant tensor:
#      x y z
#    x 1.844000 0.000000 0.028160 
#    y 0.000000 1.846530 0.000000 
#    z 0.028160 0.000000 1.849450 
# 
# From -- ./inp_files/36478.got.cif
#   From: 2010.05.17/outbox.cif.g08.bks.cpg/sg14_19_cif.got.tgz:36478.got - 2010.06.03 17:49:19.
