data_PCOD9243876
_publ_section_title
;
Structure prediction by ZEFSAII (Michael W. Deem and Ramdas Pophale) SiO2 
 PCOD9243876
Probable space group: P 21/C
;
_chemical_formula_sum "Si O2"
_cell_formula_units_Z 28
_cell_length_a 14.231571
_cell_length_b 13.371723
_cell_length_c 10.037785
_cell_angle_alpha 90.000000
_cell_angle_beta 140.402025
_cell_angle_gamma 90.000000
_cell_volume 1217.553222
_symmetry_space_group_name_H-M "P 21/C"
_symmetry_group_IT_number 14
_symmetry_cell_setting 'monoclinic'
loop_
_space_group_symop_operation_xyz
x,y,z
-x,1/2+y,1/2-z
-x,-y,-z
x,1/2-y,1/2+z
loop_
_atom_site_type_symbol
_atom_site_label
_atom_site_fract_x
_atom_site_fract_y
_atom_site_fract_z
Si Si1 0.871937 0.701130 0.065527
Si Si2 0.568529 0.271518 0.971034
Si Si3 0.511658 0.870045 0.881116
Si Si4 0.743863 0.503286 0.790485
Si Si5 0.803074 0.428849 0.335137
Si Si6 0.139100 0.357650 0.660842
Si Si7 0.816418 0.375118 0.643394
O O1 0.833006 0.706574 0.177103
O O2 0.048554 0.697926 0.241304
O O3 0.815459 0.593748 0.949711
O O4 0.820857 0.792966 0.922216
O O5 0.489061 0.215589 0.005769
O O6 0.680457 0.350918 0.157293
O O7 0.668314 0.186768 0.008069
O O8 0.479286 0.324639 0.755634
O O9 0.356330 0.930490 0.727949
O O10 0.636117 0.947398 0.062321
O O11 0.849233 0.434794 0.815204
O O12 0.778738 0.536926 0.244891
O O13 0.803388 0.440055 0.495571
O O14 0.965005 0.387551 0.471571
#
# Coordination Sequence:
#
# PCOD9243876 Si02
#       7
#     4   4   4   4   4   4   4
#     4  11  22  39  61  94 120 166 195 252 316 360
#     4  11  19  39  66  90 117 162 205 245 305 368
#     4  10  23  40  63  86 119 164 206 248 296 364
#     4  10  23  41  60  87 125 157 208 252 300 363
#     4  10  20  39  59  93 125 156 199 255 298 368
#     4  10  23  36  59  91 130 156 197 249 311 363
#     4  10  21  38  66  94 116 159 200 257 309 367
#
# _framework density 22.996939999999999
#
# number of rings (size 3 to 8) (size 9 to 14) (size 15 to 20)
#    0.000    1.714    2.857    1.286    2.000    1.143 
#    2.571    2.143    0.000    0.000    0.000    0.000 
#    0.000    0.000    0.000    0.000    0.000    0.000 
#
# Total GULP energy -156671.975010 kJ/mol
# GULP energy per Si atom -5595.427679 kJ/mol
# Density = 2.294460 g / cm^3
# Si number density = 22.996940 Si / 1000 Ang^3
#
#
#
# Elastic Constant Matrix: (Units=GPa)
#
#
# Indices 1 2 3 4 5 6 
#
# 1 68.6361 24.5543 16.8224 0.0000 -15.1388 0.0000
# 2 24.5543 84.8797 9.6621 0.0000 -22.5893 0.0000
# 3 16.8224 9.6621 40.4851 0.0000 -16.1306 0.0000
# 4 0.0000 0.0000 0.0000 46.9616 0.0000 -9.4292
# 5 -15.1388 -22.5893 -16.1306 0.0000 26.8058 0.0000
# 6 0.0000 0.0000 0.0000 -9.4292 0.0000 19.5849
#
#
#
# Elastic Compliance Matrix: (Units=1/GPa)
#
#
# Indices 1 2 3 4 5 6 
#
# 1 0.017968 -0.003515 -0.004951 0.000000 0.004206 0.000000
# 2 -0.003515 0.015992 0.002923 0.000000 0.013250 0.000000
# 3 -0.004951 0.002923 0.034105 0.000000 0.020190 0.000000
# 4 0.000000 0.000000 0.000000 0.023573 0.000000 0.011349
# 5 0.004206 0.013250 0.020190 0.000000 0.062996 0.000000
# 6 0.000000 0.000000 0.000000 0.011349 0.000000 0.056524
#
#
# Mechanical properties :
#
#
# Convention : Reuss Voigt Hill
#
# Bulk Modulus (GPa) = 17.55045 32.89761 25.22403
# Shear Modulus (GPa) = 20.72656 28.20127 24.46392
#
# Velocity S-wave (km/s) = 3.00538 3.50566 3.26512
# Velocity P-wave (km/s) = 4.43749 5.54279 5.02065
#
# Compressibility (1/GPa) = 0.05697859
#
# Stress axis : x y z
#
# Youngs Moduli (GPa) = 55.65337 62.53217 29.32163
#
# Poissons Ratio (x) = 0.21980 0.14519
# Poissons Ratio (y) = 0.19562 -0.08572
# Poissons Ratio (z) = 0.27557 -0.18280
#
# Static dielectric constant tensor:
#      x y z
#    x 1.863740 0.000000 0.032020 
#    y 0.000000 1.831580 0.000000 
#    z 0.032020 0.000000 1.850010 
# 
# From -- ./inp_files/13189.got.cif
#   From: 2010.05.17/outbox.cif.g08.bks.cpg/sg14_7_cif.got.tgz:13189.got - 2010.06.03 17:49:19.
