data_PCOD9243225
_publ_section_title
;
Structure prediction by ZEFSAII (Michael W. Deem and Ramdas Pophale) SiO2 
 PCOD9243225
Probable space group: P 21/C
;
_chemical_formula_sum "Si O2"
_cell_formula_units_Z 20
_cell_length_a 16.779708
_cell_length_b 5.104291
_cell_length_c 13.245198
_cell_angle_alpha 90.000000
_cell_angle_beta 45.423303
_cell_angle_gamma 90.000000
_cell_volume 808.068679
_symmetry_space_group_name_H-M "P 21/C"
_symmetry_group_IT_number 14
_symmetry_cell_setting 'monoclinic'
loop_
_space_group_symop_operation_xyz
x,y,z
-x,1/2+y,1/2-z
-x,-y,-z
x,1/2-y,1/2+z
loop_
_atom_site_type_symbol
_atom_site_label
_atom_site_fract_x
_atom_site_fract_y
_atom_site_fract_z
Si Si1 0.867307 0.509886 0.649570
Si Si2 0.640328 0.532719 0.084395
Si Si3 0.453167 0.536995 0.428461
Si Si4 0.976159 0.715379 0.215764
Si Si5 0.824133 0.013891 0.579692
O O1 0.811674 0.231830 0.677471
O O2 0.000000 0.500000 0.500000
O O3 0.873199 0.638705 0.754542
O O4 0.807041 0.724054 0.634655
O O5 0.552950 0.533811 0.256724
O O6 0.629020 0.808018 0.037266
O O7 0.605613 0.314632 0.034681
O O8 0.751545 0.451767 0.044738
O O9 0.500000 0.500000 0.500000
O O10 0.048816 0.554938 0.069960
O O11 0.952801 0.471686 0.310810
#
# Coordination Sequence:
#
# PCOD9243225 Si02
#       5
#     4   4   4   4   4
#     4  10  20  37  59  76 114 164 192 230 293 347
#     4  10  22  40  65  91 122 158 193 255 299 357
#     4  10  21  42  66  89 124 155 194 243 318 367
#     4  11  21  36  55  82 120 156 196 244 293 334
#     4  11  21  39  59  84 117 154 206 236 289 358
#
# _framework density 24.750374000000001
#
# number of rings (size 3 to 8) (size 9 to 14) (size 15 to 20)
#    0.000    1.600    0.000    7.800    0.000    0.000 
#   10.800    0.000    0.000    0.000    0.000    0.000 
#    0.000    0.000    0.000    0.000    0.000    0.000 
#
# Total GULP energy -111765.243123 kJ/mol
# GULP energy per Si atom -5588.262156 kJ/mol
# Density = 2.469404 g / cm^3
# Si number density = 24.750374 Si / 1000 Ang^3
#
#
#
# Elastic Constant Matrix: (Units=GPa)
#
#
# Indices 1 2 3 4 5 6 
#
# 1 65.6700 -4.4504 9.3656 0.0000 24.3319 0.0000
# 2 -4.4504 123.5867 6.1515 0.0000 6.4502 0.0000
# 3 9.3656 6.1515 58.7275 0.0000 10.6408 0.0000
# 4 0.0000 0.0000 0.0000 27.9964 0.0000 24.1345
# 5 24.3319 6.4502 10.6408 0.0000 31.0980 0.0000
# 6 0.0000 0.0000 0.0000 24.1345 0.0000 34.9428
#
#
#
# Elastic Compliance Matrix: (Units=1/GPa)
#
#
# Indices 1 2 3 4 5 6 
#
# 1 0.021805 0.001711 -0.000534 0.000000 -0.017233 0.000000
# 2 0.001711 0.008333 -0.000629 0.000000 -0.002852 0.000000
# 3 -0.000534 -0.000629 0.018208 0.000000 -0.005682 0.000000
# 4 0.000000 0.000000 0.000000 0.088284 0.000000 -0.060977
# 5 -0.017233 -0.002852 -0.005682 0.000000 0.048176 0.000000
# 6 0.000000 0.000000 0.000000 -0.060977 0.000000 0.070734
#
#
# Mechanical properties :
#
#
# Convention : Reuss Voigt Hill
#
# Bulk Modulus (GPa) = 20.22549 30.01308 25.11928
# Shear Modulus (GPa) = 18.45525 34.60193 26.52859
#
# Velocity S-wave (km/s) = 2.73363 3.74309 3.27746
# Velocity P-wave (km/s) = 4.26066 5.55280 4.94908
#
# Compressibility (1/GPa) = 0.04944256
#
# Stress axis : x y z
#
# Youngs Moduli (GPa) = 45.86133 120.00088 54.91974
#
# Poissons Ratio (x) = -0.20535 0.02934
# Poissons Ratio (y) = -0.07848 0.03454
# Poissons Ratio (z) = 0.02450 0.07548
#
# Static dielectric constant tensor:
#      x y z
#    x 1.961780 0.000000 -0.006950 
#    y 0.000000 1.930250 0.000000 
#    z -0.006950 0.000000 2.169170 
# 
# From -- ./inp_files/30975.got.cif
#   From: 2010.05.17/outbox.cif.g08.bks.cpg/sg14_16_cif.got.tgz:30975.got - 2010.06.03 17:49:19.
