data_PCOD9243586
_publ_section_title
;
Structure prediction by ZEFSAII (Michael W. Deem and Ramdas Pophale) SiO2 
 PCOD9243586
Probable space group: P 21/C
;
_chemical_formula_sum "Si O2"
_cell_formula_units_Z 20
_cell_length_a 12.521521
_cell_length_b 11.155850
_cell_length_c 13.508818
_cell_angle_alpha 90.000000
_cell_angle_beta 149.682772
_cell_angle_gamma 90.000000
_cell_volume 952.544879
_symmetry_space_group_name_H-M "P 21/C"
_symmetry_group_IT_number 14
_symmetry_cell_setting 'monoclinic'
loop_
_space_group_symop_operation_xyz
x,y,z
-x,1/2+y,1/2-z
-x,-y,-z
x,1/2-y,1/2+z
loop_
_atom_site_type_symbol
_atom_site_label
_atom_site_fract_x
_atom_site_fract_y
_atom_site_fract_z
Si Si1 0.310187 0.359785 0.136366
Si Si2 0.743082 0.184704 0.895533
Si Si3 0.695161 0.071057 0.059553
Si Si4 0.908861 0.293555 0.327267
Si Si5 0.947373 0.085209 0.646369
O O1 0.490201 0.305316 0.208033
O O2 0.449336 0.419187 0.335677
O O3 0.182246 0.464903 0.980625
O O4 0.143333 0.259032 0.033697
O O5 0.815376 0.139421 0.847205
O O6 0.801237 0.103391 0.036807
O O7 0.857500 0.311002 0.004521
O O8 0.761658 0.177352 0.186205
O O9 0.808178 0.948043 0.177342
O O10 0.912604 0.369153 0.229840
#
# Coordination Sequence:
#
# PCOD9243586 Si02
#       5
#     4   4   4   4   4
#     4   9  21  39  56  87 115 146 197 225 283 345
#     4   9  21  39  57  87 113 149 194 230 281 341
#     4   8  20  38  53  87 112 146 192 227 278 337
#     4  10  20  39  59  83 118 147 189 238 280 332
#     4  10  20  38  61  78 122 150 181 247 276 327
#
# _framework density 20.996386999999999
#
# number of rings (size 3 to 8) (size 9 to 14) (size 15 to 20)
#    1.200    1.600    0.000    0.000    2.800    4.800 
#   10.800    2.000    0.000    0.000    0.000    0.000 
#    0.000    0.000    0.000    0.000    0.000    0.000 
#
# Total GULP energy -111447.871359 kJ/mol
# GULP energy per Si atom -5572.393568 kJ/mol
# Density = 2.094860 g / cm^3
# Si number density = 20.996387 Si / 1000 Ang^3
#
#
#
# Elastic Constant Matrix: (Units=GPa)
#
#
# Indices 1 2 3 4 5 6 
#
# 1 93.4513 15.7459 29.6761 0.0000 8.6009 0.0000
# 2 15.7459 20.5358 4.1977 0.0000 2.2308 0.0000
# 3 29.6761 4.1977 118.3013 0.0000 7.4337 0.0000
# 4 0.0000 0.0000 0.0000 30.5466 0.0000 1.3775
# 5 8.6009 2.2308 7.4337 0.0000 18.3999 0.0000
# 6 0.0000 0.0000 0.0000 1.3775 0.0000 1.5619
#
#
#
# Elastic Compliance Matrix: (Units=1/GPa)
#
#
# Indices 1 2 3 4 5 6 
#
# 1 0.013546 -0.009371 -0.002810 0.000000 -0.004060 0.000000
# 2 -0.009371 0.056058 0.000527 0.000000 -0.002629 0.000000
# 3 -0.002810 0.000527 0.009297 0.000000 -0.002506 0.000000
# 4 0.000000 0.000000 0.000000 0.034093 0.000000 -0.030066
# 5 -0.004060 -0.002629 -0.002506 0.000000 0.057577 0.000000
# 6 0.000000 0.000000 0.000000 -0.030066 0.000000 0.666741
#
#
# Mechanical properties :
#
#
# Convention : Reuss Voigt Hill
#
# Bulk Modulus (GPa) = 17.98814 36.83645 27.41229
# Shear Modulus (GPa) = 5.68730 22.27960 13.98345
#
# Velocity S-wave (km/s) = 1.64760 3.26101 2.58348
# Velocity P-wave (km/s) = 3.49361 5.63571 4.68863
#
# Compressibility (1/GPa) = 0.05559219
#
# Stress axis : x y z
#
# Youngs Moduli (GPa) = 73.82352 17.83854 107.56438
#
# Poissons Ratio (x) = 0.16716 0.30229
# Poissons Ratio (y) = 0.69178 -0.05666
# Poissons Ratio (z) = 0.20747 -0.00940
#
# Static dielectric constant tensor:
#      x y z
#    x 1.759850 0.000000 0.007540 
#    y 0.000000 1.750940 0.000000 
#    z 0.007540 0.000000 1.771330 
# 
# From -- ./inp_files/44520.got.cif
#   From: 2010.05.17/outbox.cif.g08.bks.cpg/sg14_23_cif.got.tgz:44520.got - 2010.06.03 17:49:19.
