data_PCOD9243809
_publ_section_title
;
Structure prediction by ZEFSAII (Michael W. Deem and Ramdas Pophale) SiO2 
 PCOD9243809
Probable space group: P 21/C
;
_chemical_formula_sum "Si O2"
_cell_formula_units_Z 30
_cell_length_a 10.909250
_cell_length_b 11.840256
_cell_length_c 9.557975
_cell_angle_alpha 90.000000
_cell_angle_beta 89.147257
_cell_angle_gamma 90.000000
_cell_volume 1234.450771
_symmetry_space_group_name_H-M "P 21/C"
_symmetry_group_IT_number 14
_symmetry_cell_setting 'monoclinic'
loop_
_space_group_symop_operation_xyz
x,y,z
-x,1/2+y,1/2-z
-x,-y,-z
x,1/2-y,1/2+z
loop_
_atom_site_type_symbol
_atom_site_label
_atom_site_fract_x
_atom_site_fract_y
_atom_site_fract_z
Si Si1 0.825394 0.693402 0.380862
Si Si2 0.422761 0.080361 0.198009
Si Si3 0.379571 0.858309 0.044279
Si Si4 0.000000 0.500000 0.500000
Si Si5 0.077651 0.140503 0.402363
Si Si6 0.177424 0.648860 0.331793
Si Si7 0.837720 0.388611 0.088054
Si Si8 0.378460 0.612971 0.108062
O O1 0.690526 0.665201 0.322123
O O2 0.881107 0.589609 0.471925
O O3 0.903907 0.711180 0.238294
O O4 0.838841 0.803423 0.478230
O O5 0.495701 0.059113 0.341613
O O6 0.374182 0.960632 0.148729
O O7 0.524939 0.117033 0.081851
O O8 0.415880 0.744117 0.118166
O O9 0.247669 0.841016 0.978647
O O10 0.929703 0.436647 0.630132
O O11 0.939388 0.140803 0.465444
O O12 0.119666 0.012833 0.366465
O O13 0.154898 0.782960 0.305397
O O14 0.271721 0.593785 0.223364
O O15 0.699531 0.400567 0.031705
#
# Coordination Sequence:
#
# PCOD9243809 Si02
#       8
#     4   4   4   2   4   4   4   4
#     4  12  27  44  72 103 142 187 232 295 361 424
#     4  10  22  40  63  96 132 180 234 289 352 412
#     4   9  20  40  60  91 128 172 235 283 337 419
#     4  12  22  42  70 104 128 190 230 290 350 428
#     4  11  27  46  68 103 143 183 231 298 357 427
#     4  10  20  38  66  96 130 178 233 281 347 421
#     4  10  23  44  64  98 135 181 236 286 347 425
#     4  10  22  39  67  96 132 185 231 294 348 419
#
# _framework density 24.302303999999999
#
# number of rings (size 3 to 8) (size 9 to 14) (size 15 to 20)
#    0.000    1.600    2.667    0.800    3.733    4.267 
#    0.000    0.667    0.000    0.000    0.000    0.000 
#    0.000    0.000    0.000    0.000    0.000    0.000 
#
# Total GULP energy -167013.127294 kJ/mol
# GULP energy per Si atom -5567.104243 kJ/mol
# Density = 2.424699 g / cm^3
# Si number density = 24.302304 Si / 1000 Ang^3
#
#
#
# Elastic Constant Matrix: (Units=GPa)
#
#
# Indices 1 2 3 4 5 6 
#
# 1 94.4706 27.0587 20.2445 0.0000 30.0238 0.0000
# 2 27.0587 52.8367 6.6974 0.0000 -0.3169 0.0000
# 3 20.2445 6.6974 67.9203 0.0000 9.2846 0.0000
# 4 0.0000 0.0000 0.0000 26.6916 0.0000 -3.9859
# 5 30.0238 -0.3169 9.2846 0.0000 39.9640 0.0000
# 6 0.0000 0.0000 0.0000 -3.9859 0.0000 28.3463
#
#
#
# Elastic Compliance Matrix: (Units=1/GPa)
#
#
# Indices 1 2 3 4 5 6 
#
# 1 0.017749 -0.008828 -0.002672 0.000000 -0.012784 0.000000
# 2 -0.008828 0.023571 -0.000646 0.000000 0.006969 0.000000
# 3 -0.002672 -0.000646 0.015812 0.000000 -0.001671 0.000000
# 4 0.000000 0.000000 0.000000 0.038268 0.000000 0.005381
# 5 -0.012784 0.006969 -0.001671 0.000000 0.035070 0.000000
# 6 0.000000 0.000000 0.000000 0.005381 0.000000 0.036035
#
#
# Mechanical properties :
#
#
# Convention : Reuss Voigt Hill
#
# Bulk Modulus (GPa) = 30.45046 35.91430 33.18238
# Shear Modulus (GPa) = 24.78403 29.74885 27.26644
#
# Velocity S-wave (km/s) = 3.19693 3.50253 3.35322
# Velocity P-wave (km/s) = 5.11705 5.58276 5.35497
#
# Compressibility (1/GPa) = 0.03284023
#
# Stress axis : x y z
#
# Youngs Moduli (GPa) = 56.34055 42.42559 63.24402
#
# Poissons Ratio (x) = 0.37452 0.16901
# Poissons Ratio (y) = 0.49735 0.04084
# Poissons Ratio (z) = 0.15057 0.02739
#
# Static dielectric constant tensor:
#      x y z
#    x 1.992630 0.000000 0.042070 
#    y 0.000000 1.925910 0.000000 
#    z 0.042070 0.000000 1.983970 
# 
# From -- ./inp_files/29129.got.cif
#   From: 2010.05.17/outbox.cif.g08.bks.cpg/sg14_15_cif.got.tgz:29129.got - 2010.06.03 17:49:19.
