data_PCOD9243512
_publ_section_title
;
Structure prediction by ZEFSAII (Michael W. Deem and Ramdas Pophale) SiO2 
 PCOD9243512
Probable space group: P 21/C
;
_chemical_formula_sum "Si O2"
_cell_formula_units_Z 24
_cell_length_a 13.275620
_cell_length_b 14.684079
_cell_length_c 11.189535
_cell_angle_alpha 90.000000
_cell_angle_beta 22.321157
_cell_angle_gamma 90.000000
_cell_volume 828.449388
_symmetry_space_group_name_H-M "P 21/C"
_symmetry_group_IT_number 14
_symmetry_cell_setting 'monoclinic'
loop_
_space_group_symop_operation_xyz
x,y,z
-x,1/2+y,1/2-z
-x,-y,-z
x,1/2-y,1/2+z
loop_
_atom_site_type_symbol
_atom_site_label
_atom_site_fract_x
_atom_site_fract_y
_atom_site_fract_z
Si Si1 0.651597 0.046348 0.977859
Si Si2 0.178772 0.135214 0.118268
Si Si3 0.404545 0.620748 0.053877
Si Si4 0.463952 0.188321 0.035078
Si Si5 0.761112 0.543751 0.874735
Si Si6 0.977923 0.309399 0.258274
O O1 0.750828 0.137015 0.938727
O O2 0.597168 0.090101 0.909074
O O3 0.384631 0.020486 0.340524
O O4 0.849929 0.962794 0.785261
O O5 0.363309 0.117683 0.801247
O O6 0.338151 0.193397 0.042553
O O7 0.947592 0.203953 0.329943
O O8 0.352730 0.726120 0.135172
O O9 0.175837 0.555383 0.251686
O O10 0.545098 0.581883 0.018291
O O11 0.223437 0.191266 0.395246
O O12 0.955497 0.623542 0.703578
#
# Coordination Sequence:
#
# PCOD9243512 Si02
#       6
#     4   4   4   4   4   4
#     4  10  22  37  59  88 111 148 195 226 282 341
#     4  10  20  38  60  81 118 151 185 237 283 327
#     4   9  18  35  62  84 109 152 185 227 287 331
#     4  10  20  38  59  82 116 151 184 233 281 338
#     4   9  18  38  60  84 115 144 187 235 280 334
#     4  10  21  38  58  83 116 150 186 237 281 328
#
# _framework density 28.969785000000002
#
# number of rings (size 3 to 8) (size 9 to 14) (size 15 to 20)
#    0.000    2.333    1.667    0.500    0.000    2.000 
#    3.000    9.167    0.000    0.000    0.000    0.000 
#    0.000    0.000    0.000    0.000    0.000    0.000 
#
# Total GULP energy -134467.344309 kJ/mol
# GULP energy per Si atom -5602.806013 kJ/mol
# Density = 2.890385 g / cm^3
# Si number density = 28.969785 Si / 1000 Ang^3
#
#
#
# Elastic Constant Matrix: (Units=GPa)
#
#
# Indices 1 2 3 4 5 6 
#
# 1 92.4058 29.8127 16.4941 0.0000 13.1755 0.0000
# 2 29.8127 168.6866 3.8903 0.0000 3.1492 0.0000
# 3 16.4941 3.8903 85.1848 0.0000 22.5291 0.0000
# 4 0.0000 0.0000 0.0000 41.6448 0.0000 0.9351
# 5 13.1755 3.1492 22.5291 0.0000 37.7090 0.0000
# 6 0.0000 0.0000 0.0000 0.9351 0.0000 58.4208
#
#
#
# Elastic Compliance Matrix: (Units=1/GPa)
#
#
# Indices 1 2 3 4 5 6 
#
# 1 0.012202 -0.002063 -0.001409 0.000000 -0.003249 0.000000
# 2 -0.002063 0.006288 0.000072 0.000000 0.000153 0.000000
# 3 -0.001409 0.000072 0.014110 0.000000 -0.007943 0.000000
# 4 0.000000 0.000000 0.000000 0.024021 0.000000 -0.000385
# 5 -0.003249 0.000153 -0.007943 0.000000 0.032387 0.000000
# 6 0.000000 0.000000 0.000000 -0.000385 0.000000 0.017123
#
#
# Mechanical properties :
#
#
# Convention : Reuss Voigt Hill
#
# Bulk Modulus (GPa) = 38.76116 49.63016 44.19566
# Shear Modulus (GPa) = 41.14116 47.29360 44.21738
#
# Velocity S-wave (km/s) = 3.77256 4.04482 3.91106
# Velocity P-wave (km/s) = 5.69080 6.24364 5.97362
#
# Compressibility (1/GPa) = 0.02579902
#
# Stress axis : x y z
#
# Youngs Moduli (GPa) = 81.95129 159.02504 70.87403
#
# Poissons Ratio (x) = 0.32814 0.09987
# Poissons Ratio (y) = 0.16910 -0.00510
# Poissons Ratio (z) = 0.11548 -0.01144
#
# Static dielectric constant tensor:
#      x y z
#    x 2.182420 0.000000 0.012300 
#    y 0.000000 2.296970 0.000000 
#    z 0.012300 0.000000 2.221390 
# 
# From -- ./inp_files/29896.got.cif
#   From: 2010.05.17/outbox.cif.g08.bks.cpg/sg14_15_cif.got.tgz:29896.got - 2010.06.03 17:49:19.
