data_PCOD9243588
_publ_section_title
;
Structure prediction by ZEFSAII (Michael W. Deem and Ramdas Pophale) SiO2 
 PCOD9243588
Probable space group: P 21/C
;
_chemical_formula_sum "Si O2"
_cell_formula_units_Z 32
_cell_length_a 12.060386
_cell_length_b 29.366581
_cell_length_c 8.022847
_cell_angle_alpha 90.000000
_cell_angle_beta 26.725664
_cell_angle_gamma 90.000000
_cell_volume 1277.863457
_symmetry_space_group_name_H-M "P 21/C"
_symmetry_group_IT_number 14
_symmetry_cell_setting 'monoclinic'
loop_
_space_group_symop_operation_xyz
x,y,z
-x,1/2+y,1/2-z
-x,-y,-z
x,1/2-y,1/2+z
loop_
_atom_site_type_symbol
_atom_site_label
_atom_site_fract_x
_atom_site_fract_y
_atom_site_fract_z
Si Si1 0.508109 0.607756 0.564212
Si Si2 0.160540 0.540535 0.479620
Si Si3 0.979745 0.897776 0.958299
Si Si4 0.306231 0.627009 0.489052
Si Si5 0.314223 0.449704 0.402638
Si Si6 0.213075 0.683948 0.320859
Si Si7 0.019739 0.764769 0.809414
Si Si8 0.153134 0.185358 0.255645
O O1 0.490594 0.613931 0.389832
O O2 0.659169 0.565798 0.441988
O O3 0.635102 0.652322 0.469193
O O4 0.237304 0.603377 0.009361
O O5 0.968193 0.559357 0.602159
O O6 0.197238 0.579999 0.566411
O O7 0.137731 0.492219 0.600112
O O8 0.414195 0.538931 0.031226
O O9 0.005366 0.853268 0.042273
O O10 0.781424 0.908093 0.083017
O O11 0.381994 0.655000 0.220356
O O12 0.097466 0.658994 0.852842
O O13 0.125447 0.726285 0.547906
O O14 0.243547 0.711046 0.107004
O O15 0.874557 0.802398 0.899943
O O16 0.841267 0.734808 0.164613
#
# Coordination Sequence:
#
# PCOD9243588 Si02
#       8
#     4   4   4   4   4   4   4   4
#     4  11  22  36  56  84 117 157 194 231 291 348
#     4   9  21  37  59  90 113 151 202 240 294 349
#     4  10  20  38  61  83 115 156 195 239 292 348
#     4  10  21  37  57  84 118 151 190 237 290 350
#     4  10  20  38  61  84 118 153 195 249 287 346
#     4   9  18  34  57  80 107 145 184 231 288 342
#     4   9  18  36  61  82 108 148 187 235 295 341
#     4  10  21  40  59  83 118 149 189 241 289 347
#
# _framework density 25.041796999999999
#
# number of rings (size 3 to 8) (size 9 to 14) (size 15 to 20)
#    0.000    2.250    0.000    2.625    0.000    3.500 
#    0.000   17.500    0.000    0.000    0.000    0.000 
#    0.000    0.000    0.000    0.000    0.000    0.000 
#
# Total GULP energy -178645.248589 kJ/mol
# GULP energy per Si atom -5582.664018 kJ/mol
# Density = 2.498480 g / cm^3
# Si number density = 25.041797 Si / 1000 Ang^3
#
#
#
# Elastic Constant Matrix: (Units=GPa)
#
#
# Indices 1 2 3 4 5 6 
#
# 1 173.0446 43.8061 -11.8864 0.0000 4.9662 0.0000
# 2 43.8061 119.2557 -1.0776 0.0000 9.7165 0.0000
# 3 -11.8864 -1.0776 42.9970 0.0000 -1.9621 0.0000
# 4 0.0000 0.0000 0.0000 22.9566 0.0000 11.0724
# 5 4.9662 9.7165 -1.9621 0.0000 9.0791 0.0000
# 6 0.0000 0.0000 0.0000 11.0724 0.0000 31.7114
#
#
#
# Elastic Compliance Matrix: (Units=1/GPa)
#
#
# Indices 1 2 3 4 5 6 
#
# 1 0.006503 -0.002315 0.001707 0.000000 -0.000710 0.000000
# 2 -0.002315 0.010013 -0.000829 0.000000 -0.009628 0.000000
# 3 0.001707 -0.000829 0.023943 0.000000 0.005127 0.000000
# 4 0.000000 0.000000 0.000000 0.052382 0.000000 -0.018290
# 5 -0.000710 -0.009628 0.005127 0.000000 0.121944 0.000000
# 6 0.000000 0.000000 0.000000 -0.018290 0.000000 0.037920
#
#
# Mechanical properties :
#
#
# Convention : Reuss Voigt Hill
#
# Bulk Modulus (GPa) = 26.60649 44.10906 35.35777
# Shear Modulus (GPa) = 18.64932 33.04641 25.84786
#
# Velocity S-wave (km/s) = 2.73193 3.63664 3.21626
# Velocity P-wave (km/s) = 4.53863 5.94020 5.28607
#
# Compressibility (1/GPa) = 0.03758481
#
# Stress axis : x y z
#
# Youngs Moduli (GPa) = 153.78401 99.87184 41.76654
#
# Poissons Ratio (x) = 0.23124 -0.07130
# Poissons Ratio (y) = 0.35606 0.03460
# Poissons Ratio (z) = -0.26254 0.08274
#
# Static dielectric constant tensor:
#      x y z
#    x 2.007920 0.000000 0.027590 
#    y 0.000000 1.983650 0.000000 
#    z 0.027590 0.000000 2.087530 
# 
# From -- ./inp_files/14665.got.cif
#   From: 2010.05.17/outbox.cif.g08.bks.cpg/sg14_8_cif.got.tgz:14665.got - 2010.06.03 17:49:19.
