data_PCOD9243648
_publ_section_title
;
Structure prediction by ZEFSAII (Michael W. Deem and Ramdas Pophale) SiO2 
 PCOD9243648
Probable space group: P 21/C
;
_chemical_formula_sum "Si O2"
_cell_formula_units_Z 20
_cell_length_a 10.790190
_cell_length_b 9.477540
_cell_length_c 20.824069
_cell_angle_alpha 90.000000
_cell_angle_beta 156.486643
_cell_angle_gamma 90.000000
_cell_volume 849.616163
_symmetry_space_group_name_H-M "P 21/C"
_symmetry_group_IT_number 14
_symmetry_cell_setting 'monoclinic'
loop_
_space_group_symop_operation_xyz
x,y,z
-x,1/2+y,1/2-z
-x,-y,-z
x,1/2-y,1/2+z
loop_
_atom_site_type_symbol
_atom_site_label
_atom_site_fract_x
_atom_site_fract_y
_atom_site_fract_z
Si Si1 0.227339 0.972272 0.168287
Si Si2 0.391376 0.209119 0.435374
Si Si3 0.926168 0.067835 0.763839
Si Si4 0.393743 0.754911 0.601046
Si Si5 0.799182 0.873729 0.376352
O O1 0.041504 0.933467 0.144040
O O2 0.504855 0.858439 0.284735
O O3 0.421882 0.111317 0.281516
O O4 0.000000 0.000000 0.000000
O O5 0.608974 0.151449 0.595220
O O6 0.608237 0.227087 0.475694
O O7 0.210837 0.350219 0.367497
O O8 0.142852 0.087349 0.297614
O O9 0.594768 0.616691 0.714142
O O10 0.065683 0.766393 0.480111
O O11 0.000000 0.000000 0.500000
#
# Coordination Sequence:
#
# PCOD9243648 Si02
#       5
#     4   4   4   4   4
#     4  10  22  40  61  93 130 167 215 272 333 398
#     4  10  22  43  66  95 132 174 225 278 332 394
#     4  10  23  42  66  96 132 171 220 277 331 398
#     4  10  20  38  62  88 129 173 215 272 333 388
#     4  10  21  37  63  94 127 173 220 266 328 399
#
# _framework density 23.540043000000001
#
# number of rings (size 3 to 8) (size 9 to 14) (size 15 to 20)
#    0.000    2.000    0.000    2.400    0.000    7.200 
#    0.000   12.000    0.000    0.000    0.000    0.000 
#    0.000    0.000    0.000    0.000    0.000    0.000 
#
# Total GULP energy -111455.279710 kJ/mol
# GULP energy per Si atom -5572.763986 kJ/mol
# Density = 2.348646 g / cm^3
# Si number density = 23.540043 Si / 1000 Ang^3
#
#
#
# Elastic Constant Matrix: (Units=GPa)
#
#
# Indices 1 2 3 4 5 6 
#
# 1 130.2511 50.7261 59.5063 0.0000 -8.0991 0.0000
# 2 50.7261 53.6354 39.0378 0.0000 10.2124 0.0000
# 3 59.5063 39.0378 118.3987 0.0000 -10.3444 0.0000
# 4 0.0000 0.0000 0.0000 41.9547 0.0000 4.8757
# 5 -8.0991 10.2124 -10.3444 0.0000 46.6030 0.0000
# 6 0.0000 0.0000 0.0000 4.8757 0.0000 32.5720
#
#
#
# Elastic Compliance Matrix: (Units=1/GPa)
#
#
# Indices 1 2 3 4 5 6 
#
# 1 0.013829 -0.012046 -0.002588 0.000000 0.004469 0.000000
# 2 -0.012046 0.037739 -0.007438 0.000000 -0.012014 0.000000
# 3 -0.002588 -0.007438 0.012546 0.000000 0.003965 0.000000
# 4 0.000000 0.000000 0.000000 0.024257 0.000000 -0.003631
# 5 0.004469 -0.012014 0.003965 0.000000 0.025747 0.000000
# 6 0.000000 0.000000 0.000000 -0.003631 0.000000 0.031245
#
#
# Mechanical properties :
#
#
# Convention : Reuss Voigt Hill
#
# Bulk Modulus (GPa) = 50.07966 66.75837 58.41902
# Shear Modulus (GPa) = 25.48886 34.42693 29.95789
#
# Velocity S-wave (km/s) = 3.29414 3.82839 3.57127
# Velocity P-wave (km/s) = 5.98239 6.92555 6.47117
#
# Compressibility (1/GPa) = 0.01996819
#
# Stress axis : x y z
#
# Youngs Moduli (GPa) = 72.31134 26.49810 79.70764
#
# Poissons Ratio (x) = 0.31920 0.20630
# Poissons Ratio (y) = 0.87106 0.59290
# Poissons Ratio (z) = 0.18716 0.19710
#
# Static dielectric constant tensor:
#      x y z
#    x 1.925620 0.000000 0.046080 
#    y 0.000000 2.137590 0.000000 
#    z 0.046080 0.000000 1.936480 
# 
# From -- ./inp_files/7999.got.cif
#   From: 2010.05.17/outbox.cif.g08.bks.cpg/sg14_4_cif.got.tgz:7999.got - 2010.06.03 17:49:19.
