data_PCOD9243680
_publ_section_title
;
Structure prediction by ZEFSAII (Michael W. Deem and Ramdas Pophale) SiO2 
 PCOD9243680
Probable space group: P 21/C
;
_chemical_formula_sum "Si O2"
_cell_formula_units_Z 32
_cell_length_a 9.328263
_cell_length_b 13.303195
_cell_length_c 12.726230
_cell_angle_alpha 90.000000
_cell_angle_beta 72.247735
_cell_angle_gamma 90.000000
_cell_volume 1504.071501
_symmetry_space_group_name_H-M "P 21/C"
_symmetry_group_IT_number 14
_symmetry_cell_setting 'monoclinic'
loop_
_space_group_symop_operation_xyz
x,y,z
-x,1/2+y,1/2-z
-x,-y,-z
x,1/2-y,1/2+z
loop_
_atom_site_type_symbol
_atom_site_label
_atom_site_fract_x
_atom_site_fract_y
_atom_site_fract_z
Si Si1 0.533412 0.243131 0.790997
Si Si2 0.151418 0.682922 0.701053
Si Si3 0.499265 0.939166 0.356810
Si Si4 0.340228 0.375741 0.974285
Si Si5 0.690913 0.076592 0.178948
Si Si6 0.148400 0.500464 0.540100
Si Si7 0.990872 0.123485 0.225278
Si Si8 0.022436 0.055925 0.604717
O O1 0.681698 0.229458 0.830547
O O2 0.518839 0.141317 0.730283
O O3 0.392787 0.284021 0.889374
O O4 0.574618 0.332119 0.699730
O O5 0.143944 0.600146 0.612238
O O6 0.026371 0.770009 0.714386
O O7 0.108275 0.627495 0.820207
O O8 0.543099 0.886017 0.455336
O O9 0.365051 0.018672 0.405617
O O10 0.636415 0.009205 0.287972
O O11 0.172910 0.377569 0.057056
O O12 0.851081 0.122964 0.175262
O O13 0.712522 0.011014 0.070040
O O14 0.000000 0.500000 0.500000
O O15 0.135060 0.406781 0.623122
O O16 0.964326 0.032979 0.312446
O O17 0.000000 0.000000 0.500000
#
# Coordination Sequence:
#
# PCOD9243680 Si02
#       8
#     4   4   4   4   4   4   4   4
#     4  10  22  37  61  95 119 159 210 252 304 371
#     4  10  22  38  59  92 120 152 210 255 305 372
#     4  10  20  38  63  83 124 160 205 255 301 374
#     4  10  22  39  63  91 120 168 206 252 317 367
#     4   9  18  36  59  84 111 157 203 235 303 360
#     4   9  19  34  58  83 118 156 193 252 312 367
#     4   9  19  37  55  86 118 153 198 245 298 367
#     4  11  22  39  61  90 125 159 201 256 312 364
#
# _framework density 21.275583999999998
#
# number of rings (size 3 to 8) (size 9 to 14) (size 15 to 20)
#    0.000    2.250    1.250    0.750    3.500    4.000 
#    2.250    0.625    0.000    0.000    0.000    0.000 
#    0.000    0.000    0.000    0.000    0.000    0.000 
#
# Total GULP energy -178408.377442 kJ/mol
# GULP energy per Si atom -5575.261795 kJ/mol
# Density = 2.122716 g / cm^3
# Si number density = 21.275584 Si / 1000 Ang^3
#
#
#
# Elastic Constant Matrix: (Units=GPa)
#
#
# Indices 1 2 3 4 5 6 
#
# 1 22.5182 0.3920 8.1373 0.0000 -7.1554 0.0000
# 2 0.3920 53.6038 8.8152 0.0000 3.5589 0.0000
# 3 8.1373 8.8152 80.7562 0.0000 -16.2976 0.0000
# 4 0.0000 0.0000 0.0000 32.2963 0.0000 4.6445
# 5 -7.1554 3.5589 -16.2976 0.0000 18.4599 0.0000
# 6 0.0000 0.0000 0.0000 4.6445 0.0000 16.9242
#
#
#
# Elastic Compliance Matrix: (Units=1/GPa)
#
#
# Indices 1 2 3 4 5 6 
#
# 1 0.050881 -0.001447 -0.001135 0.000000 0.019000 0.000000
# 2 -0.001447 0.019740 -0.003517 0.000000 -0.007472 0.000000
# 3 -0.001135 -0.003517 0.015732 0.000000 0.014128 0.000000
# 4 0.000000 0.000000 0.000000 0.032235 0.000000 -0.008846
# 5 0.019000 -0.007472 0.014128 0.000000 0.075449 0.000000
# 6 0.000000 0.000000 0.000000 -0.008846 0.000000 0.061515
#
#
# Mechanical properties :
#
#
# Convention : Reuss Voigt Hill
#
# Bulk Modulus (GPa) = 13.48492 21.28523 17.38507
# Shear Modulus (GPa) = 17.09581 22.83833 19.96707
#
# Velocity S-wave (km/s) = 2.83776 3.27991 3.06681
# Velocity P-wave (km/s) = 4.13390 4.93660 4.55297
#
# Compressibility (1/GPa) = 0.07415692
#
# Stress axis : x y z
#
# Youngs Moduli (GPa) = 19.65366 50.65756 63.56338
#
# Poissons Ratio (x) = 0.07330 0.07212
# Poissons Ratio (y) = 0.02844 0.22354
# Poissons Ratio (z) = 0.02230 0.17816
#
# Static dielectric constant tensor:
#      x y z
#    x 1.811860 0.000000 -0.035660 
#    y 0.000000 1.797350 0.000000 
#    z -0.035660 0.000000 1.789250 
# 
# From -- ./inp_files/29351.got.cif
#   From: 2010.05.17/outbox.cif.g08.bks.cpg/sg14_15_cif.got.tgz:29351.got - 2010.06.03 17:49:19.
