data_PCOD9243815
_publ_section_title
;
Structure prediction by ZEFSAII (Michael W. Deem and Ramdas Pophale) SiO2 
 PCOD9243815
Probable space group: P 21/C
;
_chemical_formula_sum "Si O2"
_cell_formula_units_Z 28
_cell_length_a 20.994497
_cell_length_b 14.172747
_cell_length_c 14.199725
_cell_angle_alpha 90.000000
_cell_angle_beta 17.536438
_cell_angle_gamma 90.000000
_cell_volume 1273.081643
_symmetry_space_group_name_H-M "P 21/C"
_symmetry_group_IT_number 14
_symmetry_cell_setting 'monoclinic'
loop_
_space_group_symop_operation_xyz
x,y,z
-x,1/2+y,1/2-z
-x,-y,-z
x,1/2-y,1/2+z
loop_
_atom_site_type_symbol
_atom_site_label
_atom_site_fract_x
_atom_site_fract_y
_atom_site_fract_z
Si Si1 0.154813 0.137959 0.213722
Si Si2 0.770540 0.146597 0.485391
Si Si3 0.781829 0.896079 0.093448
Si Si4 0.314163 0.900090 0.722109
Si Si5 0.480228 0.209544 0.283578
Si Si6 0.532005 0.489446 0.192079
Si Si7 0.739300 0.301546 0.240912
O O1 0.904947 0.144648 0.574551
O O2 0.178392 0.140686 0.067319
O O3 0.271836 0.227936 0.092551
O O4 0.294385 0.048164 0.046049
O O5 0.662535 0.234586 0.583932
O O6 0.676763 0.052548 0.570368
O O7 0.710904 0.149844 0.680163
O O8 0.025093 0.144071 0.118385
O O9 0.535913 0.875594 0.461876
O O10 0.794465 0.010650 0.076013
O O11 0.384679 0.938553 0.520254
O O12 0.184252 0.804799 0.892448
O O13 0.455827 0.100124 0.338860
O O14 0.537795 0.213133 0.091098
#
# Coordination Sequence:
#
# PCOD9243815 Si02
#       7
#     4   4   4   4   4   4   4
#     4   9  21  41  58  91 130 155 206 261 298 365
#     4  10  23  40  59  95 124 157 211 250 306 374
#     4   9  19  36  59  92 122 152 201 260 300 357
#     4  10  20  38  67  91 120 160 210 260 309 347
#     4  11  23  41  63  91 127 163 203 259 307 360
#     4  10  22  41  59  90 128 156 207 258 299 370
#     4  11  22  41  64  88 126 167 200 249 321 362
#
# _framework density 21.993876
#
# number of rings (size 3 to 8) (size 9 to 14) (size 15 to 20)
#    0.000    2.000    4.286    0.000    8.000    2.857 
#    2.571    0.000    0.000    0.000    0.000    0.000 
#    0.000    0.000    0.000    0.000    0.000    0.000 
#
# Total GULP energy -156245.116218 kJ/mol
# GULP energy per Si atom -5580.182722 kJ/mol
# Density = 2.194382 g / cm^3
# Si number density = 21.993876 Si / 1000 Ang^3
#
#
#
# Elastic Constant Matrix: (Units=GPa)
#
#
# Indices 1 2 3 4 5 6 
#
# 1 89.6189 30.5302 39.5732 0.0000 -23.6579 0.0000
# 2 30.5302 118.0166 18.9939 0.0000 -20.9130 0.0000
# 3 39.5732 18.9939 34.3611 0.0000 -11.5205 0.0000
# 4 0.0000 0.0000 0.0000 18.0733 0.0000 2.2959
# 5 -23.6579 -20.9130 -11.5205 0.0000 28.5964 0.0000
# 6 0.0000 0.0000 0.0000 2.2959 0.0000 29.7193
#
#
#
# Elastic Compliance Matrix: (Units=1/GPa)
#
#
# Indices 1 2 3 4 5 6 
#
# 1 0.025244 -0.000649 -0.025287 0.000000 0.010222 0.000000
# 2 -0.000649 0.010121 -0.002943 0.000000 0.005679 0.000000
# 3 -0.025287 -0.002943 0.060255 0.000000 0.001203 0.000000
# 4 0.000000 0.000000 0.000000 0.055879 0.000000 -0.004317
# 5 0.010222 0.005679 0.001203 0.000000 0.048064 0.000000
# 6 0.000000 0.000000 0.000000 -0.004317 0.000000 0.033982
#
#
# Mechanical properties :
#
#
# Convention : Reuss Voigt Hill
#
# Bulk Modulus (GPa) = 26.41151 46.68792 36.54972
# Shear Modulus (GPa) = 16.45144 25.47109 20.96127
#
# Velocity S-wave (km/s) = 2.73793 3.40678 3.09050
# Velocity P-wave (km/s) = 4.69357 6.06206 5.42117
#
# Compressibility (1/GPa) = 0.03786228
#
# Stress axis : x y z
#
# Youngs Moduli (GPa) = 39.61311 98.80089 16.59602
#
# Poissons Ratio (x) = 0.06415 0.41966
# Poissons Ratio (y) = 0.02572 0.04884
# Poissons Ratio (z) = 1.00170 0.29077
#
# Static dielectric constant tensor:
#      x y z
#    x 1.839470 0.000000 -0.007290 
#    y 0.000000 1.813480 0.000000 
#    z -0.007290 0.000000 1.858920 
# 
# From -- ./inp_files/50560.got.cif
#   From: 2010.05.17/outbox.cif.g08.bks.cpg/sg14_26_cif.got.tgz:50560.got - 2010.06.03 17:49:19.
