data_PCOD9243643
_publ_section_title
;
Structure prediction by ZEFSAII (Michael W. Deem and Ramdas Pophale) SiO2 
 PCOD9243643
Probable space group: P 21/C
;
_chemical_formula_sum "Si O2"
_cell_formula_units_Z 28
_cell_length_a 5.383675
_cell_length_b 8.419653
_cell_length_c 26.067478
_cell_angle_alpha 90.000000
_cell_angle_beta 59.825893
_cell_angle_gamma 90.000000
_cell_volume 1021.499280
_symmetry_space_group_name_H-M "P 21/C"
_symmetry_group_IT_number 14
_symmetry_cell_setting 'monoclinic'
loop_
_space_group_symop_operation_xyz
x,y,z
-x,1/2+y,1/2-z
-x,-y,-z
x,1/2-y,1/2+z
loop_
_atom_site_type_symbol
_atom_site_label
_atom_site_fract_x
_atom_site_fract_y
_atom_site_fract_z
Si Si1 0.293150 0.332987 0.704335
Si Si2 0.276908 0.670519 0.179019
Si Si3 0.531802 0.962463 0.259356
Si Si4 0.705794 0.280474 0.998749
Si Si5 0.857233 0.471131 0.362692
Si Si6 0.904942 0.662039 0.453015
Si Si7 0.198995 0.471789 0.091895
O O1 0.349092 0.495442 0.729126
O O2 0.311979 0.375772 0.642950
O O3 0.977054 0.287157 0.755299
O O4 0.497113 0.201532 0.707634
O O5 0.513174 0.599481 0.192902
O O6 0.177030 0.525192 0.152662
O O7 0.319101 0.815474 0.135628
O O8 0.849251 0.963768 0.200626
O O9 0.437612 0.183035 0.002751
O O10 0.532937 0.419432 0.047997
O O11 0.906121 0.180565 0.015896
O O12 0.867493 0.378584 0.937930
O O13 0.940339 0.511010 0.412123
O O14 0.969692 0.819584 0.411750
#
# Coordination Sequence:
#
# PCOD9243643 Si02
#       7
#     4   4   4   4   4   4   4
#     4  10  21  37  55  85 116 160 196 251 296 365
#     4  10  21  39  53  88 113 159 196 252 302 363
#     4  10  21  36  58  81 119 154 205 244 301 362
#     4   9  21  38  64  90 117 156 208 251 300 357
#     4  10  22  36  57  80 125 150 204 245 306 359
#     4  10  20  38  62  88 117 158 201 246 303 358
#     4   9  20  36  63  84 122 151 207 251 302 358
#
# _framework density 27.410688
#
# number of rings (size 3 to 8) (size 9 to 14) (size 15 to 20)
#    0.857    1.429    0.000    2.143    2.000    4.571 
#    0.000    1.429    0.000    0.000    0.000    0.000 
#    0.000    0.000    0.000    0.000    0.000    0.000 
#
# Total GULP energy -156569.101398 kJ/mol
# GULP energy per Si atom -5591.753621 kJ/mol
# Density = 2.734830 g / cm^3
# Si number density = 27.410688 Si / 1000 Ang^3
#
#
#
# Elastic Constant Matrix: (Units=GPa)
#
#
# Indices 1 2 3 4 5 6 
#
# 1 106.9525 23.6497 41.4237 0.0000 35.5816 0.0000
# 2 23.6497 100.1007 25.1339 0.0000 16.9516 0.0000
# 3 41.4237 25.1339 119.6261 0.0000 25.2004 0.0000
# 4 0.0000 0.0000 0.0000 46.5639 0.0000 19.2000
# 5 35.5816 16.9516 25.2004 0.0000 50.9787 0.0000
# 6 0.0000 0.0000 0.0000 19.2000 0.0000 32.9640
#
#
#
# Elastic Compliance Matrix: (Units=1/GPa)
#
#
# Indices 1 2 3 4 5 6 
#
# 1 0.013140 -0.001158 -0.002741 0.000000 -0.007431 0.000000
# 2 -0.001158 0.010990 -0.001461 0.000000 -0.002124 0.000000
# 3 -0.002741 -0.001461 0.010169 0.000000 -0.002628 0.000000
# 4 0.000000 0.000000 0.000000 0.028264 0.000000 -0.016462
# 5 -0.007431 -0.002124 -0.002628 0.000000 0.026808 0.000000
# 6 0.000000 0.000000 0.000000 -0.016462 0.000000 0.039925
#
#
# Mechanical properties :
#
#
# Convention : Reuss Voigt Hill
#
# Bulk Modulus (GPa) = 42.40946 56.34377 49.37662
# Shear Modulus (GPa) = 33.81234 41.86611 37.83923
#
# Velocity S-wave (km/s) = 3.51600 3.91239 3.71948
# Velocity P-wave (km/s) = 5.65583 6.40383 6.04142
#
# Compressibility (1/GPa) = 0.02357964
#
# Stress axis : x y z
#
# Youngs Moduli (GPa) = 76.10377 90.99230 98.33693
#
# Poissons Ratio (x) = 0.10534 0.26958
# Poissons Ratio (y) = 0.08810 0.14363
# Poissons Ratio (z) = 0.20863 0.13291
#
# Static dielectric constant tensor:
#      x y z
#    x 2.111530 0.000000 -0.037780 
#    y 0.000000 2.221400 0.000000 
#    z -0.037780 0.000000 2.059550 
# 
# From -- ./inp_files/75635.got.cif
#   From: 2010.05.17/outbox.cif.g08.bks.cpg/sg14_38_cif.got.tgz:75635.got - 2010.06.03 17:49:19.
