data_PCOD9243464
_publ_section_title
;
Structure prediction by ZEFSAII (Michael W. Deem and Ramdas Pophale) SiO2 
 PCOD9243464
Probable space group: P 21/C
;
_chemical_formula_sum "Si O2"
_cell_formula_units_Z 28
_cell_length_a 20.759041
_cell_length_b 10.451126
_cell_length_c 9.057617
_cell_angle_alpha 90.000000
_cell_angle_beta 36.473467
_cell_angle_gamma 90.000000
_cell_volume 1168.153717
_symmetry_space_group_name_H-M "P 21/C"
_symmetry_group_IT_number 14
_symmetry_cell_setting 'monoclinic'
loop_
_space_group_symop_operation_xyz
x,y,z
-x,1/2+y,1/2-z
-x,-y,-z
x,1/2-y,1/2+z
loop_
_atom_site_type_symbol
_atom_site_label
_atom_site_fract_x
_atom_site_fract_y
_atom_site_fract_z
Si Si1 0.504711 0.864726 0.405904
Si Si2 0.979677 0.568900 0.370311
Si Si3 0.164200 0.620822 0.519267
Si Si4 0.571656 0.110020 0.788844
Si Si5 0.772081 0.407677 0.102592
Si Si6 0.265419 0.434703 0.548111
Si Si7 0.958936 0.802218 0.594786
O O1 0.454490 0.746804 0.587470
O O2 0.500000 0.000000 0.500000
O O3 0.634131 0.840287 0.152136
O O4 0.454213 0.880289 0.336308
O O5 0.897542 0.453929 0.495180
O O6 0.956624 0.655379 0.553660
O O7 0.961984 0.662515 0.260682
O O8 0.106713 0.539517 0.132905
O O9 0.211182 0.757659 0.392124
O O10 0.252108 0.530125 0.433755
O O11 0.068124 0.642398 0.818168
O O12 0.696556 0.081199 0.599090
O O13 0.500000 0.000000 0.000000
O O14 0.716278 0.479628 0.341163
O O15 0.149894 0.364888 0.768919
#
# Coordination Sequence:
#
# PCOD9243464 Si02
#       7
#     4   4   4   4   4   4   4
#     4  12  28  50  78 110 147 195 252 318 379 445
#     4  10  20  39  65 101 140 187 234 290 358 439
#     4  10  20  38  66 102 138 191 237 281 368 433
#     4  12  27  48  76 109 150 197 256 314 374 444
#     4  11  22  40  71 101 142 194 235 300 365 430
#     4  11  21  44  68  97 142 189 235 298 370 428
#     4  10  20  37  66  94 139 180 231 287 356 431
#
# _framework density 23.969448
#
# number of rings (size 3 to 8) (size 9 to 14) (size 15 to 20)
#    0.000    1.143    4.286    2.571    2.000    2.286 
#    0.000    5.714    0.000    0.000    0.000    0.000 
#    0.000    0.000    0.000    0.000    0.000    0.000 
#
# Total GULP energy -156955.898466 kJ/mol
# GULP energy per Si atom -5605.567802 kJ/mol
# Density = 2.391489 g / cm^3
# Si number density = 23.969448 Si / 1000 Ang^3
#
#
#
# Elastic Constant Matrix: (Units=GPa)
#
#
# Indices 1 2 3 4 5 6 
#
# 1 204.1468 44.0209 46.3208 0.0000 -1.4273 0.0000
# 2 44.0209 55.6217 32.4370 0.0000 13.1027 0.0000
# 3 46.3208 32.4370 71.2495 0.0000 -8.5598 0.0000
# 4 0.0000 0.0000 0.0000 42.2382 0.0000 6.8527
# 5 -1.4273 13.1027 -8.5598 0.0000 46.9409 0.0000
# 6 0.0000 0.0000 0.0000 6.8527 0.0000 34.5440
#
#
#
# Elastic Compliance Matrix: (Units=1/GPa)
#
#
# Indices 1 2 3 4 5 6 
#
# 1 0.006234 -0.003860 -0.002191 0.000000 0.000868 0.000000
# 2 -0.003860 0.031325 -0.013103 0.000000 -0.011251 0.000000
# 3 -0.002191 -0.013103 0.022346 0.000000 0.007666 0.000000
# 4 0.000000 0.000000 0.000000 0.024463 0.000000 -0.004853
# 5 0.000868 -0.011251 0.007666 0.000000 0.025868 0.000000
# 6 0.000000 0.000000 0.000000 -0.004853 0.000000 0.029911
#
#
# Mechanical properties :
#
#
# Convention : Reuss Voigt Hill
#
# Bulk Modulus (GPa) = 46.30461 64.06393 55.18427
# Shear Modulus (GPa) = 26.93156 38.62722 32.77939
#
# Velocity S-wave (km/s) = 3.35562 4.01873 3.70205
# Velocity P-wave (km/s) = 5.86291 6.95118 6.43011
#
# Compressibility (1/GPa) = 0.02159612
#
# Stress axis : x y z
#
# Youngs Moduli (GPa) = 160.40753 31.92290 44.75066
#
# Poissons Ratio (x) = 0.12323 0.09806
# Poissons Ratio (y) = 0.61924 0.58637
# Poissons Ratio (z) = 0.35149 0.41829
#
# Static dielectric constant tensor:
#      x y z
#    x 1.901450 0.000000 0.008860 
#    y 0.000000 1.919850 0.000000 
#    z 0.008860 0.000000 1.933030 
# 
# From -- ./inp_files/36095.got.cif
#   From: 2010.05.17/outbox.cif.g08.bks.cpg/sg14_19_cif.got.tgz:36095.got - 2010.06.03 17:49:19.
