data_PCOD9243609
_publ_section_title
;
Structure prediction by ZEFSAII (Michael W. Deem and Ramdas Pophale) SiO2 
 PCOD9243609
Probable space group: P 21/C
;
_chemical_formula_sum "Si O2"
_cell_formula_units_Z 28
_cell_length_a 8.635943
_cell_length_b 17.175795
_cell_length_c 18.109569
_cell_angle_alpha 90.000000
_cell_angle_beta 147.009598
_cell_angle_gamma 90.000000
_cell_volume 1462.619792
_symmetry_space_group_name_H-M "P 21/C"
_symmetry_group_IT_number 14
_symmetry_cell_setting 'monoclinic'
loop_
_space_group_symop_operation_xyz
x,y,z
-x,1/2+y,1/2-z
-x,-y,-z
x,1/2-y,1/2+z
loop_
_atom_site_type_symbol
_atom_site_label
_atom_site_fract_x
_atom_site_fract_y
_atom_site_fract_z
Si Si1 0.982087 0.381035 0.458702
Si Si2 0.895924 0.769999 0.586949
Si Si3 0.874009 0.606512 0.797390
Si Si4 0.519362 0.993097 0.792317
Si Si5 0.244483 0.786987 0.362154
Si Si6 0.806994 0.366184 0.921828
Si Si7 0.651255 0.218250 0.937009
O O1 0.703599 0.434678 0.333709
O O2 0.899811 0.332351 0.498902
O O3 0.053359 0.315621 0.427691
O O4 0.249431 0.436589 0.578131
O O5 0.563993 0.789956 0.459335
O O6 0.047042 0.760617 0.726526
O O7 0.040432 0.832140 0.589859
O O8 0.707197 0.525271 0.738474
O O9 0.632589 0.668638 0.680597
O O10 0.117519 0.628398 0.835584
O O11 0.987788 0.620146 0.926216
O O12 0.357140 0.943931 0.665595
O O13 0.266702 0.741496 0.448225
O O14 0.609708 0.295848 0.871706
#
# Coordination Sequence:
#
# PCOD9243609 Si02
#       7
#     4   4   4   4   4   4   4
#     4   9  21  38  65  87 118 155 210 250 289 359
#     4  11  23  38  64  94 118 155 207 253 291 348
#     4  10  21  39  57  89 122 162 195 250 297 370
#     4  10  20  38  61  89 118 158 200 250 308 350
#     4  11  22  38  60  87 126 157 195 249 303 352
#     4  10  22  34  65  87 117 151 207 256 295 348
#     4   9  20  37  62  87 116 156 209 245 297 350
#
# _framework density 19.143732
#
# number of rings (size 3 to 8) (size 9 to 14) (size 15 to 20)
#    0.000    2.000    1.429    1.286   12.000    0.000 
#    0.000    1.429    9.429    0.000    0.000    0.000 
#    0.000    0.000    0.000    0.000    0.000    0.000 
#
# Total GULP energy -156149.385844 kJ/mol
# GULP energy per Si atom -5576.763780 kJ/mol
# Density = 1.910016 g / cm^3
# Si number density = 19.143732 Si / 1000 Ang^3
#
#
#
# Elastic Constant Matrix: (Units=GPa)
#
#
# Indices 1 2 3 4 5 6 
#
# 1 74.8935 28.7971 19.5138 0.0000 7.9687 0.0000
# 2 28.7971 52.3407 6.7496 0.0000 12.6479 0.0000
# 3 19.5138 6.7496 59.3366 0.0000 15.6902 0.0000
# 4 0.0000 0.0000 0.0000 27.5824 0.0000 7.5959
# 5 7.9687 12.6479 15.6902 0.0000 11.4288 0.0000
# 6 0.0000 0.0000 0.0000 7.5959 0.0000 16.5394
#
#
#
# Elastic Compliance Matrix: (Units=1/GPa)
#
#
# Indices 1 2 3 4 5 6 
#
# 1 0.018790 -0.011895 -0.007603 0.000000 0.010500 0.000000
# 2 -0.011895 0.035808 0.012754 0.000000 -0.048844 0.000000
# 3 -0.007603 0.012754 0.031764 0.000000 -0.052422 0.000000
# 4 0.000000 0.000000 0.000000 0.041504 0.000000 -0.019061
# 5 0.010500 -0.048844 -0.052422 0.000000 0.206200 0.000000
# 6 0.000000 0.000000 0.000000 -0.019061 0.000000 0.069216
#
#
# Mechanical properties :
#
#
# Convention : Reuss Voigt Hill
#
# Bulk Modulus (GPa) = 13.72202 32.96576 23.34389
# Shear Modulus (GPa) = 11.33635 19.87747 15.60691
#
# Velocity S-wave (km/s) = 2.43609 3.22580 2.85835
# Velocity P-wave (km/s) = 3.88538 5.57960 4.80771
#
# Compressibility (1/GPa) = 0.07287558
#
# Stress axis : x y z
#
# Youngs Moduli (GPa) = 53.22105 27.92673 31.48209
#
# Poissons Ratio (x) = 0.33218 0.23935
# Poissons Ratio (y) = 0.63304 -0.40153
# Poissons Ratio (z) = 0.40462 -0.35618
#
# Static dielectric constant tensor:
#      x y z
#    x 1.684520 0.000000 0.027660 
#    y 0.000000 1.675560 0.000000 
#    z 0.027660 0.000000 1.668180 
# 
# From -- ./inp_files/56164.got.cif
#   From: 2010.05.17/outbox.cif.g08.bks.cpg/sg14_29_cif.got.tgz:56164.got - 2010.06.03 17:49:19.
