data_PCOD9243080
_publ_section_title
;
Structure prediction by ZEFSAII (Michael W. Deem and Ramdas Pophale) SiO2 
 PCOD9243080
Probable space group: P 21/C
;
_chemical_formula_sum "Si O2"
_cell_formula_units_Z 28
_cell_length_a 18.031803
_cell_length_b 4.935565
_cell_length_c 14.148954
_cell_angle_alpha 90.000000
_cell_angle_beta 124.670823
_cell_angle_gamma 90.000000
_cell_volume 1035.622152
_symmetry_space_group_name_H-M "P 21/C"
_symmetry_group_IT_number 14
_symmetry_cell_setting 'monoclinic'
loop_
_space_group_symop_operation_xyz
x,y,z
-x,1/2+y,1/2-z
-x,-y,-z
x,1/2-y,1/2+z
loop_
_atom_site_type_symbol
_atom_site_label
_atom_site_fract_x
_atom_site_fract_y
_atom_site_fract_z
Si Si1 0.982953 0.892964 0.680565
Si Si2 0.680591 0.189760 0.469242
Si Si3 0.855664 0.292170 0.331530
Si Si4 0.400292 0.191190 0.987634
Si Si5 0.175256 0.462857 0.502576
Si Si6 0.540062 0.195354 0.727964
Si Si7 0.263580 0.272571 0.240163
O O1 0.886911 0.768410 0.584626
O O2 0.013040 0.707661 0.791764
O O3 0.056361 0.813761 0.655749
O O4 0.622231 0.389558 0.493919
O O5 0.777594 0.330265 0.534488
O O6 0.638632 0.214390 0.332741
O O7 0.662723 0.893701 0.495989
O O8 0.877824 0.368299 0.455766
O O9 0.804771 0.560331 0.257163
O O10 0.780162 0.062183 0.275917
O O11 0.362961 0.237851 0.855656
O O12 0.501437 0.260212 0.094883
O O13 0.250733 0.314792 0.622613
O O14 0.521244 0.893962 0.750859
#
# Coordination Sequence:
#
# PCOD9243080 Si02
#       7
#     4   4   4   4   4   4   4
#     4  12  28  43  66  91 115 156 210 257 303 359
#     4  10  21  35  62  93 120 155 209 251 293 353
#     4  10  24  44  59  85 125 157 196 243 315 359
#     4  10  20  36  62  89 121 162 204 248 295 351
#     4  10  27  39  65  86 128 157 199 247 315 357
#     4   8  16  33  54  86 123 156 194 249 299 341
#     4  10  23  39  63  85 121 163 199 238 310 358
#
# _framework density 27.036887
#
# number of rings (size 3 to 8) (size 9 to 14) (size 15 to 20)
#    0.857    1.143    0.000    2.143   10.000    0.571 
#    0.000    0.714    0.000    0.857    0.000    0.000 
#    0.000    0.000    0.000    0.000    0.000    0.000 
#
# Total GULP energy -156859.449866 kJ/mol
# GULP energy per Si atom -5602.123210 kJ/mol
# Density = 2.697535 g / cm^3
# Si number density = 27.036887 Si / 1000 Ang^3
#
#
#
# Elastic Constant Matrix: (Units=GPa)
#
#
# Indices 1 2 3 4 5 6 
#
# 1 77.6103 10.7969 17.2287 0.0000 2.1134 0.0000
# 2 10.7969 92.9734 27.6074 0.0000 -1.6781 0.0000
# 3 17.2287 27.6074 148.8438 0.0000 -3.9721 0.0000
# 4 0.0000 0.0000 0.0000 29.7946 0.0000 10.4929
# 5 2.1134 -1.6781 -3.9721 0.0000 20.4654 0.0000
# 6 0.0000 0.0000 0.0000 10.4929 0.0000 27.1761
#
#
#
# Elastic Compliance Matrix: (Units=1/GPa)
#
#
# Indices 1 2 3 4 5 6 
#
# 1 0.013403 -0.001178 -0.001379 0.000000 -0.001748 0.000000
# 2 -0.001178 0.011492 -0.001977 0.000000 0.000680 0.000000
# 3 -0.001379 -0.001977 0.007282 0.000000 0.001394 0.000000
# 4 0.000000 0.000000 0.000000 0.038845 0.000000 -0.014998
# 5 -0.001748 0.000680 0.001394 0.000000 0.049370 0.000000
# 6 0.000000 0.000000 0.000000 -0.014998 0.000000 0.042588
#
#
# Mechanical properties :
#
#
# Convention : Reuss Voigt Hill
#
# Bulk Modulus (GPa) = 43.27693 47.85483 45.56588
# Shear Modulus (GPa) = 27.81618 33.07352 30.44485
#
# Velocity S-wave (km/s) = 3.21101 3.50133 3.35931
# Velocity P-wave (km/s) = 5.45791 5.83815 5.65123
#
# Compressibility (1/GPa) = 0.02310700
#
# Stress axis : x y z
#
# Youngs Moduli (GPa) = 74.61209 87.01765 137.32492
#
# Poissons Ratio (x) = 0.10254 0.18943
# Poissons Ratio (y) = 0.08792 0.27149
# Poissons Ratio (z) = 0.10292 0.17203
#
# Static dielectric constant tensor:
#      x y z
#    x 2.055260 0.000000 -0.008900 
#    y 0.000000 2.039860 0.000000 
#    z -0.008900 0.000000 2.189310 
# 
# From -- ./inp_files/61554.got.cif
#   From: 2010.05.17/outbox.cif.g08.bks.cpg/sg14_31_cif.got.tgz:61554.got - 2010.06.03 17:49:19.
