data_PCOD9243767
_publ_section_title
;
Structure prediction by ZEFSAII (Michael W. Deem and Ramdas Pophale) SiO2 
 PCOD9243767
Probable space group: P 21/C
;
_chemical_formula_sum "Si O2"
_cell_formula_units_Z 32
_cell_length_a 31.176327
_cell_length_b 7.436061
_cell_length_c 12.360286
_cell_angle_alpha 90.000000
_cell_angle_beta 150.765544
_cell_angle_gamma 90.000000
_cell_volume 1399.452950
_symmetry_space_group_name_H-M "P 21/C"
_symmetry_group_IT_number 14
_symmetry_cell_setting 'monoclinic'
loop_
_space_group_symop_operation_xyz
x,y,z
-x,1/2+y,1/2-z
-x,-y,-z
x,1/2-y,1/2+z
loop_
_atom_site_type_symbol
_atom_site_label
_atom_site_fract_x
_atom_site_fract_y
_atom_site_fract_z
Si Si1 0.379856 0.348516 0.282564
Si Si2 0.899189 0.562322 0.264374
Si Si3 0.293682 0.514259 0.883895
Si Si4 0.529765 0.168950 0.263399
Si Si5 0.021867 0.401500 0.158336
Si Si6 0.751666 0.632450 0.809151
Si Si7 0.590743 0.553143 0.319582
Si Si8 0.118110 0.625638 0.554688
O O1 0.464131 0.424460 0.532411
O O2 0.302855 0.335691 0.200871
O O3 0.401340 0.154295 0.276575
O O4 0.342220 0.469955 0.103619
O O5 0.907349 0.761019 0.233080
O O6 0.866064 0.514444 0.310478
O O7 0.000000 0.500000 0.500000
O O8 0.831605 0.500789 0.022481
O O9 0.244743 0.334143 0.734147
O O10 0.215691 0.656393 0.726128
O O11 0.377896 0.578511 0.001132
O O12 0.551707 0.357345 0.254418
O O13 0.468588 0.182412 0.234448
O O14 0.059076 0.531478 0.332486
O O15 0.938718 0.291081 0.023315
O O16 0.000000 0.500000 0.000000
O O17 0.687843 0.540758 0.582738
#
# Coordination Sequence:
#
# PCOD9243767 Si02
#       8
#     4   4   4   4   4   4   4   4
#     4  10  20  38  65  85 126 171 208 262 329 390
#     4  10  21  41  69  94 130 173 220 270 334 401
#     4  11  22  39  62  97 128 165 218 266 324 391
#     4  11  22  40  58  91 123 167 214 268 323 389
#     4  11  24  46  69 100 132 177 222 276 336 404
#     4  10  20  40  63  94 129 167 211 268 323 387
#     4  10  22  39  61  88 127 166 214 267 329 389
#     4  11  23  45  69  98 136 177 222 275 339 404
#
# _framework density 22.866077000000001
#
# number of rings (size 3 to 8) (size 9 to 14) (size 15 to 20)
#    0.000    1.500    2.500    3.750    0.000    1.000 
#   11.250    0.000    0.000    0.000    0.000    0.000 
#    0.000    0.000    0.000    0.000    0.000    0.000 
#
# Total GULP energy -178304.846113 kJ/mol
# GULP energy per Si atom -5572.026441 kJ/mol
# Density = 2.281403 g / cm^3
# Si number density = 22.866077 Si / 1000 Ang^3
#
#
#
# Elastic Constant Matrix: (Units=GPa)
#
#
# Indices 1 2 3 4 5 6 
#
# 1 40.6691 15.3345 36.5303 0.0000 0.2218 0.0000
# 2 15.3345 63.3751 41.8105 0.0000 -0.7626 0.0000
# 3 36.5303 41.8105 178.1510 0.0000 -8.8136 0.0000
# 4 0.0000 0.0000 0.0000 26.9036 0.0000 -0.8718
# 5 0.2218 -0.7626 -8.8136 0.0000 36.7958 0.0000
# 6 0.0000 0.0000 0.0000 -0.8718 0.0000 37.1638
#
#
#
# Elastic Compliance Matrix: (Units=1/GPa)
#
#
# Indices 1 2 3 4 5 6 
#
# 1 0.031028 -0.003878 -0.005531 0.000000 -0.001592 0.000000
# 2 -0.003878 0.019171 -0.003727 0.000000 -0.000472 0.000000
# 3 -0.005531 -0.003727 0.007711 0.000000 0.001803 0.000000
# 4 0.000000 0.000000 0.000000 0.037198 0.000000 0.000873
# 5 -0.001592 -0.000472 0.001803 0.000000 0.027609 0.000000
# 6 0.000000 0.000000 0.000000 0.000873 0.000000 0.026928
#
#
# Mechanical properties :
#
#
# Convention : Reuss Voigt Hill
#
# Bulk Modulus (GPa) = 31.60818 52.17176 41.88997
# Shear Modulus (GPa) = 26.81497 32.74063 29.77780
#
# Velocity S-wave (km/s) = 3.42818 3.78808 3.61261
# Velocity P-wave (km/s) = 5.43351 6.48062 5.98003
#
# Compressibility (1/GPa) = 0.03163738
#
# Stress axis : x y z
#
# Youngs Moduli (GPa) = 32.22936 52.16278 129.67886
#
# Poissons Ratio (x) = 0.20228 0.71725
# Poissons Ratio (y) = 0.12498 0.48337
# Poissons Ratio (z) = 0.17826 0.19443
#
# Static dielectric constant tensor:
#      x y z
#    x 1.877030 0.000000 0.095460 
#    y 0.000000 1.454960 0.000000 
#    z 0.095460 0.000000 1.821060 
# 
# From -- ./inp_files/36496.got.cif
#   From: 2010.05.17/outbox.cif.g08.bks.cpg/sg14_19_cif.got.tgz:36496.got - 2010.06.03 17:49:19.
