data_PCOD9243689
_publ_section_title
;
Structure prediction by ZEFSAII (Michael W. Deem and Ramdas Pophale) SiO2 
 PCOD9243689
Probable space group: P 21/C
;
_chemical_formula_sum "Si O2"
_cell_formula_units_Z 28
_cell_length_a 9.343232
_cell_length_b 9.727451
_cell_length_c 13.252532
_cell_angle_alpha 90.000000
_cell_angle_beta 71.641421
_cell_angle_gamma 90.000000
_cell_volume 1143.164765
_symmetry_space_group_name_H-M "P 21/C"
_symmetry_group_IT_number 14
_symmetry_cell_setting 'monoclinic'
loop_
_space_group_symop_operation_xyz
x,y,z
-x,1/2+y,1/2-z
-x,-y,-z
x,1/2-y,1/2+z
loop_
_atom_site_type_symbol
_atom_site_label
_atom_site_fract_x
_atom_site_fract_y
_atom_site_fract_z
Si Si1 0.958454 0.992165 0.232078
Si Si2 0.096790 0.723365 0.112060
Si Si3 0.415965 0.079805 0.366641
Si Si4 0.206973 0.692766 0.382698
Si Si5 0.328900 0.378987 0.098450
Si Si6 0.462215 0.409054 0.626793
Si Si7 0.639072 0.309264 0.339404
O O1 0.998087 0.105311 0.310126
O O2 0.892603 0.081840 0.154732
O O3 0.824158 0.902889 0.308840
O O4 0.068241 0.876656 0.163451
O O5 0.269819 0.704275 0.108768
O O6 0.106006 0.735855 0.990566
O O7 0.304838 0.079959 0.486465
O O8 0.388712 0.062888 0.254955
O O9 0.483956 0.233368 0.350567
O O10 0.542102 0.969399 0.374375
O O11 0.360537 0.621463 0.390824
O O12 0.266612 0.799614 0.285640
O O13 0.386066 0.223212 0.095008
O O14 0.406518 0.552998 0.593255
#
# Coordination Sequence:
#
# PCOD9243689 Si02
#       7
#     4   4   4   4   4   4   4
#     4  11  25  45  63  96 122 173 221 260 305 379
#     4  11  24  45  67  84 132 172 213 267 309 366
#     4  10  20  38  63  87 128 164 200 256 333 370
#     4  10  22  42  69  90 130 169 203 263 330 368
#     4  11  22  38  61  92 126 166 205 261 316 378
#     4  11  22  36  64  99 130 155 209 264 317 393
#     4  10  22  40  60  99 124 161 211 259 315 386
#
# _framework density 24.493407000000001
#
# number of rings (size 3 to 8) (size 9 to 14) (size 15 to 20)
#    0.000    1.429    4.286    3.000    6.000    2.286 
#    0.000    5.714    0.000    0.000    0.000    0.000 
#    0.000    0.000    0.000    0.000    0.000    0.000 
#
# Total GULP energy -156352.946080 kJ/mol
# GULP energy per Si atom -5584.033789 kJ/mol
# Density = 2.443766 g / cm^3
# Si number density = 24.493407 Si / 1000 Ang^3
#
#
#
# Elastic Constant Matrix: (Units=GPa)
#
#
# Indices 1 2 3 4 5 6 
#
# 1 20.1921 2.6270 2.2402 0.0000 -4.1830 0.0000
# 2 2.6270 131.6673 10.6131 0.0000 -17.3337 0.0000
# 3 2.2402 10.6131 120.1195 0.0000 7.9747 0.0000
# 4 0.0000 0.0000 0.0000 -1.9807 0.0000 21.7778
# 5 -4.1830 -17.3337 7.9747 0.0000 14.1572 0.0000
# 6 0.0000 0.0000 0.0000 21.7778 0.0000 15.2162
#
#
#
# Elastic Compliance Matrix: (Units=1/GPa)
#
#
# Indices 1 2 3 4 5 6 
#
# 1 0.053558 0.001656 -0.002421 0.000000 0.019217 0.000000
# 2 0.001656 0.009410 -0.001724 0.000000 0.012982 0.000000
# 3 -0.002421 -0.001724 0.009049 0.000000 -0.007923 0.000000
# 4 0.000000 0.000000 0.000000 -0.030166 0.000000 0.043175
# 5 0.019217 0.012982 -0.007923 0.000000 0.096672 0.000000
# 6 0.000000 0.000000 0.000000 0.043175 0.000000 0.003927
#
#
# Mechanical properties :
#
#
# Convention : Reuss Voigt Hill
#
# Bulk Modulus (GPa) = 14.91662 33.65994 24.28828
# Shear Modulus (GPa) = 29.45114 22.57844 26.01479
#
# Velocity S-wave (km/s) = 3.47134 3.03944 3.26254
# Velocity P-wave (km/s) = 4.70853 5.10782 4.91223
#
# Compressibility (1/GPa) = 0.06703931
#
# Stress axis : x y z
#
# Youngs Moduli (GPa) = 18.67121 106.27142 110.51475
#
# Poissons Ratio (x) = -0.17603 0.26756
# Poissons Ratio (y) = -0.03093 0.19055
# Poissons Ratio (z) = 0.04520 0.18323
#
# Static dielectric constant tensor:
#      x y z
#    x 1.988670 0.000000 0.025950 
#    y 0.000000 2.106180 0.000000 
#    z 0.025950 0.000000 2.035080 
# 
# From -- ./inp_files/43626.got.cif
#   From: 2010.05.17/outbox.cif.g08.bks.cpg/sg14_22_cif.got.tgz:43626.got - 2010.06.03 17:49:19.
