data_PCOD9243637
_publ_section_title
;
Structure prediction by ZEFSAII (Michael W. Deem and Ramdas Pophale) SiO2 
 PCOD9243637
Probable space group: P 21/C
;
_chemical_formula_sum "Si O2"
_cell_formula_units_Z 32
_cell_length_a 21.985973
_cell_length_b 14.124291
_cell_length_c 15.110998
_cell_angle_alpha 90.000000
_cell_angle_beta 160.223194
_cell_angle_gamma 90.000000
_cell_volume 1587.744721
_symmetry_space_group_name_H-M "P 21/C"
_symmetry_group_IT_number 14
_symmetry_cell_setting 'monoclinic'
loop_
_space_group_symop_operation_xyz
x,y,z
-x,1/2+y,1/2-z
-x,-y,-z
x,1/2-y,1/2+z
loop_
_atom_site_type_symbol
_atom_site_label
_atom_site_fract_x
_atom_site_fract_y
_atom_site_fract_z
Si Si1 0.175455 0.396755 0.115335
Si Si2 0.082804 0.988467 0.017396
Si Si3 0.528670 0.708677 0.788306
Si Si4 0.760752 0.414592 0.533805
Si Si5 0.397124 0.599324 0.871338
Si Si6 0.276324 0.316076 0.754259
Si Si7 0.435419 0.074131 0.135740
Si Si8 0.282881 0.059007 0.572747
O O1 0.176498 0.282728 0.105263
O O2 0.282101 0.419789 0.350455
O O3 0.280301 0.440199 0.175032
O O4 0.969843 0.429894 0.836741
O O5 0.153165 0.090688 0.079874
O O6 0.923784 0.949326 0.739212
O O7 0.253940 0.917954 0.252245
O O8 0.000000 0.000000 0.000000
O O9 0.329827 0.665610 0.528759
O O10 0.526732 0.820928 0.778787
O O11 0.629018 0.653597 0.847551
O O12 0.635084 0.683570 0.025792
O O13 0.723397 0.386733 0.381539
O O14 0.642818 0.507164 0.395036
O O15 0.500000 0.500000 0.000000
O O16 0.556197 0.675174 0.084542
O O17 0.605691 0.025111 0.321651
#
# Coordination Sequence:
#
# PCOD9243637 Si02
#       8
#     4   4   4   4   4   4   4   4
#     4  11  22  40  59  88 126 159 205 243 292 367
#     4  11  20  36  62  91 120 149 200 257 307 346
#     4   9  20  39  57  85 117 154 198 249 299 358
#     4  10  20  38  62  86 117 159 201 245 294 360
#     4   9  19  36  59  87 116 149 193 247 304 349
#     4   9  20  37  58  84 121 155 190 249 305 349
#     4  10  23  40  62  82 124 166 198 244 308 359
#     4  11  22  39  61  90 121 157 204 251 297 365
#
# _framework density 20.154375000000002
#
# number of rings (size 3 to 8) (size 9 to 14) (size 15 to 20)
#    0.000    2.000    2.500    0.750    3.500    2.000 
#    0.000    0.000    2.750    0.000    0.000    0.000 
#    0.000    0.000    0.000    0.000    0.000    0.000 
#
# Total GULP energy -178683.691859 kJ/mol
# GULP energy per Si atom -5583.865371 kJ/mol
# Density = 2.010850 g / cm^3
# Si number density = 20.154375 Si / 1000 Ang^3
#
#
#
# Elastic Constant Matrix: (Units=GPa)
#
#
# Indices 1 2 3 4 5 6 
#
# 1 83.4780 17.2488 21.3184 0.0000 23.2769 0.0000
# 2 17.2488 87.3201 13.3967 0.0000 18.7855 0.0000
# 3 21.3184 13.3967 71.1433 0.0000 26.6580 0.0000
# 4 0.0000 0.0000 0.0000 18.8990 0.0000 -5.4225
# 5 23.2769 18.7855 26.6580 0.0000 36.4992 0.0000
# 6 0.0000 0.0000 0.0000 -5.4225 0.0000 16.8707
#
#
#
# Elastic Compliance Matrix: (Units=1/GPa)
#
#
# Indices 1 2 3 4 5 6 
#
# 1 0.014725 -0.001004 -0.001237 0.000000 -0.007971 0.000000
# 2 -0.001004 0.012947 0.000165 0.000000 -0.006144 0.000000
# 3 -0.001237 0.000165 0.019457 0.000000 -0.013507 0.000000
# 4 0.000000 0.000000 0.000000 0.058288 0.000000 0.018735
# 5 -0.007971 -0.006144 -0.013507 0.000000 0.045508 0.000000
# 6 0.000000 0.000000 0.000000 0.018735 0.000000 0.065296
#
#
# Mechanical properties :
#
#
# Convention : Reuss Voigt Hill
#
# Bulk Modulus (GPa) = 23.26829 38.42990 30.84909
# Shear Modulus (GPa) = 21.30397 27.11896 24.21146
#
# Velocity S-wave (km/s) = 3.25474 3.67217 3.46974
# Velocity P-wave (km/s) = 5.06898 6.09007 5.60283
#
# Compressibility (1/GPa) = 0.04297695
#
# Stress axis : x y z
#
# Youngs Moduli (GPa) = 67.91156 77.23878 51.39590
#
# Poissons Ratio (x) = 0.07757 0.06356
# Poissons Ratio (y) = 0.06820 -0.00848
# Poissons Ratio (z) = 0.08398 -0.01275
#
# Static dielectric constant tensor:
#      x y z
#    x 1.756050 0.000000 -0.012720 
#    y 0.000000 1.704560 0.000000 
#    z -0.012720 0.000000 1.696070 
# 
# From -- ./inp_files/45101.got.cif
#   From: 2010.05.17/outbox.cif.g08.bks.cpg/sg14_23_cif.got.tgz:45101.got - 2010.06.03 17:49:19.
