data_PCOD9243844
_publ_section_title
;
Structure prediction by ZEFSAII (Michael W. Deem and Ramdas Pophale) SiO2 
 PCOD9243844
Probable space group: P 21/C
;
_chemical_formula_sum "Si O2"
_cell_formula_units_Z 30
_cell_length_a 15.201501
_cell_length_b 16.003538
_cell_length_c 11.349788
_cell_angle_alpha 90.000000
_cell_angle_beta 153.936028
_cell_angle_gamma 90.000000
_cell_volume 1213.179249
_symmetry_space_group_name_H-M "P 21/C"
_symmetry_group_IT_number 14
_symmetry_cell_setting 'monoclinic'
loop_
_space_group_symop_operation_xyz
x,y,z
-x,1/2+y,1/2-z
-x,-y,-z
x,1/2-y,1/2+z
loop_
_atom_site_type_symbol
_atom_site_label
_atom_site_fract_x
_atom_site_fract_y
_atom_site_fract_z
Si Si1 0.743675 0.421604 0.266383
Si Si2 0.644481 0.073341 0.249308
Si Si3 0.412633 0.395739 0.254707
Si Si4 0.184246 0.641044 0.380891
Si Si5 0.000000 0.500000 0.000000
Si Si6 0.881646 0.678524 0.286844
Si Si7 0.962722 0.304078 0.195614
Si Si8 0.314143 0.113308 0.242142
O O1 0.757064 0.389198 0.417192
O O2 0.723522 0.521317 0.248679
O O3 0.945992 0.383854 0.457627
O O4 0.539351 0.386273 0.966840
O O5 0.756299 0.147201 0.447759
O O6 0.814014 0.038715 0.362107
O O7 0.585209 0.996372 0.262042
O O8 0.454396 0.105992 0.945482
O O9 0.606345 0.350914 0.434437
O O10 0.224961 0.359180 0.958603
O O11 0.066642 0.727704 0.250020
O O12 0.054624 0.569202 0.165247
O O13 0.716825 0.679609 0.189898
O O14 0.986591 0.762635 0.369623
O O15 0.147165 0.364210 0.446559
#
# Coordination Sequence:
#
# PCOD9243844 Si02
#       8
#     4   4   4   4   2   4   4   4
#     4  10  22  43  67  96 132 175 238 268 340 431
#     4  10  22  41  68  99 132 184 239 292 339 428
#     4  10  21  42  66  95 133 183 236 275 352 420
#     4  10  21  41  65  98 139 180 229 294 342 424
#     4  10  20  38  70  90 132 188 236 274 346 418
#     4  11  23  41  67  93 138 178 216 291 347 411
#     4  11  25  42  65 104 143 176 236 294 360 403
#     4  11  23  42  67  98 133 184 224 283 345 413
#
# _framework density 24.728414999999998
#
# number of rings (size 3 to 8) (size 9 to 14) (size 15 to 20)
#    0.000    1.600    1.333    3.600    3.733    2.133 
#    0.000    2.667    0.000    0.000    0.000    0.000 
#    0.000    0.000    0.000    0.000    0.000    0.000 
#
# Total GULP energy -167301.669930 kJ/mol
# GULP energy per Si atom -5576.722331 kJ/mol
# Density = 2.467213 g / cm^3
# Si number density = 24.728415 Si / 1000 Ang^3
#
#
#
# Elastic Constant Matrix: (Units=GPa)
#
#
# Indices 1 2 3 4 5 6 
#
# 1 40.5071 5.6681 -3.0503 0.0000 13.0093 0.0000
# 2 5.6681 61.3709 40.2537 0.0000 2.5346 0.0000
# 3 -3.0503 40.2537 131.9289 0.0000 5.0710 0.0000
# 4 0.0000 0.0000 0.0000 23.7067 0.0000 0.0455
# 5 13.0093 2.5346 5.0710 0.0000 28.2509 0.0000
# 6 0.0000 0.0000 0.0000 0.0455 0.0000 25.3148
#
#
#
# Elastic Compliance Matrix: (Units=1/GPa)
#
#
# Indices 1 2 3 4 5 6 
#
# 1 0.029826 -0.003731 0.002359 0.000000 -0.013824 0.000000
# 2 -0.003731 0.020852 -0.006488 0.000000 0.001012 0.000000
# 3 0.002359 -0.006488 0.009700 0.000000 -0.002246 0.000000
# 4 0.000000 0.000000 0.000000 0.042182 0.000000 -0.000076
# 5 -0.013824 0.001012 -0.002246 0.000000 0.042075 0.000000
# 6 0.000000 0.000000 0.000000 -0.000076 0.000000 0.039503
#
#
# Mechanical properties :
#
#
# Convention : Reuss Voigt Hill
#
# Bulk Modulus (GPa) = 22.39139 35.50554 28.94846
# Shear Modulus (GPa) = 23.28343 28.18350 25.73347
#
# Velocity S-wave (km/s) = 3.07182 3.37964 3.22940
# Velocity P-wave (km/s) = 4.65361 5.44230 5.06333
#
# Compressibility (1/GPa) = 0.04466002
#
# Stress axis : x y z
#
# Youngs Moduli (GPa) = 33.52729 47.95594 103.09085
#
# Poissons Ratio (x) = 0.17894 -0.24324
# Poissons Ratio (y) = 0.12510 0.66881
# Poissons Ratio (z) = -0.07911 0.31112
#
# Static dielectric constant tensor:
#      x y z
#    x 2.001860 0.000000 -0.007110 
#    y 0.000000 1.941520 0.000000 
#    z -0.007110 0.000000 1.960630 
# 
# From -- ./inp_files/50638.got.cif
#   From: 2010.05.17/outbox.cif.g08.bks.cpg/sg14_26_cif.got.tgz:50638.got - 2010.06.03 17:49:19.
