data_PCOD9243219
_publ_section_title
;
Structure prediction by ZEFSAII (Michael W. Deem and Ramdas Pophale) SiO2 
 PCOD9243219
Probable space group: P 21/C
;
_chemical_formula_sum "Si O2"
_cell_formula_units_Z 28
_cell_length_a 5.251024
_cell_length_b 15.520018
_cell_length_c 19.107661
_cell_angle_alpha 90.000000
_cell_angle_beta 125.231196
_cell_angle_gamma 90.000000
_cell_volume 1271.967232
_symmetry_space_group_name_H-M "P 21/C"
_symmetry_group_IT_number 14
_symmetry_cell_setting 'monoclinic'
loop_
_space_group_symop_operation_xyz
x,y,z
-x,1/2+y,1/2-z
-x,-y,-z
x,1/2-y,1/2+z
loop_
_atom_site_type_symbol
_atom_site_label
_atom_site_fract_x
_atom_site_fract_y
_atom_site_fract_z
Si Si1 0.931862 0.258879 0.988006
Si Si2 0.481982 0.655072 0.471294
Si Si3 0.298206 0.835637 0.787367
Si Si4 0.287603 0.249786 0.312747
Si Si5 0.739555 0.934875 0.130082
Si Si6 0.300523 0.331810 0.165119
Si Si7 0.420112 0.503729 0.719151
O O1 0.787898 0.189362 0.020030
O O2 0.238167 0.223065 0.998138
O O3 0.055090 0.330708 0.062393
O O4 0.646777 0.272493 0.888601
O O5 0.345453 0.634020 0.374280
O O6 0.632636 0.574640 0.533688
O O7 0.429203 0.737505 0.810998
O O8 0.941703 0.828383 0.708096
O O9 0.475206 0.904250 0.766578
O O10 0.202272 0.333537 0.344382
O O11 0.205883 0.283700 0.222052
O O12 0.497984 0.962346 0.152427
O O13 0.063158 0.984616 0.183311
O O14 0.400166 0.427899 0.202550
#
# Coordination Sequence:
#
# PCOD9243219 Si02
#       7
#     4   4   4   4   4   4   4
#     4  10  21  34  64  87 117 160 209 238 307 357
#     4  10  20  37  58  91 118 159 197 249 302 374
#     4  11  23  37  63  89 123 158 211 243 306 357
#     4  10  20  38  62  87 117 164 200 252 297 359
#     4  10  21  39  58  87 125 155 199 247 309 359
#     4  10  21  42  60  87 126 159 201 252 302 358
#     4  11  24  37  62  90 121 165 199 250 300 359
#
# _framework density 22.013145999999999
#
# number of rings (size 3 to 8) (size 9 to 14) (size 15 to 20)
#    0.000    1.714    2.857    2.571    4.000    1.143 
#    0.000    0.714    0.000    0.857    0.000    0.000 
#    0.000    0.000    0.000    0.000    0.000    0.000 
#
# Total GULP energy -156127.379357 kJ/mol
# GULP energy per Si atom -5575.977834 kJ/mol
# Density = 2.196304 g / cm^3
# Si number density = 22.013146 Si / 1000 Ang^3
#
#
#
# Elastic Constant Matrix: (Units=GPa)
#
#
# Indices 1 2 3 4 5 6 
#
# 1 72.0591 0.5380 24.3451 0.0000 0.7960 0.0000
# 2 0.5380 56.2668 12.7481 0.0000 -2.8438 0.0000
# 3 24.3451 12.7481 91.9780 0.0000 19.1296 0.0000
# 4 0.0000 0.0000 0.0000 -13.4380 0.0000 8.2260
# 5 0.7960 -2.8438 19.1296 0.0000 41.2643 0.0000
# 6 0.0000 0.0000 0.0000 8.2260 0.0000 34.9865
#
#
#
# Elastic Compliance Matrix: (Units=1/GPa)
#
#
# Indices 1 2 3 4 5 6 
#
# 1 0.015408 0.000994 -0.004613 0.000000 0.001910 0.000000
# 2 0.000994 0.018690 -0.003450 0.000000 0.002868 0.000000
# 3 -0.004613 -0.003450 0.013947 0.000000 -0.006614 0.000000
# 4 0.000000 0.000000 0.000000 -0.065053 0.000000 0.015295
# 5 0.001910 0.002868 -0.006614 0.000000 0.027461 0.000000
# 6 0.000000 0.000000 0.000000 0.015295 0.000000 0.024986
#
#
# Mechanical properties :
#
#
# Convention : Reuss Voigt Hill
#
# Bulk Modulus (GPa) = 29.49294 32.84070 31.16682
# Shear Modulus (GPa) = 82.13084 24.74075 53.43579
#
# Velocity S-wave (km/s) = 6.11481 3.35611 4.93226
# Velocity P-wave (km/s) = 7.95497 5.47440 6.82827
#
# Compressibility (1/GPa) = 0.03390642
#
# Stress axis : x y z
#
# Youngs Moduli (GPa) = 64.90335 53.50564 71.69974
#
# Poissons Ratio (x) = -0.05321 0.33076
# Poissons Ratio (y) = -0.06454 0.24737
# Poissons Ratio (z) = 0.29941 0.18460
#
# Static dielectric constant tensor:
#      x y z
#    x 1.869660 0.000000 -0.009300 
#    y 0.000000 1.852810 0.000000 
#    z -0.009300 0.000000 1.886030 
# 
# From -- ./inp_files/63865.got.cif
#   From: 2010.05.17/outbox.cif.g08.bks.cpg/sg14_32_cif.got.tgz:63865.got - 2010.06.03 17:49:19.
