data_PCOD9243108
_publ_section_title
;
Structure prediction by ZEFSAII (Michael W. Deem and Ramdas Pophale) SiO2 
 PCOD9243108
Probable space group: P 21/C
;
_chemical_formula_sum "Si O2"
_cell_formula_units_Z 28
_cell_length_a 15.811449
_cell_length_b 5.486385
_cell_length_c 18.675418
_cell_angle_alpha 90.000000
_cell_angle_beta 121.512065
_cell_angle_gamma 90.000000
_cell_volume 1381.140992
_symmetry_space_group_name_H-M "P 21/C"
_symmetry_group_IT_number 14
_symmetry_cell_setting 'monoclinic'
loop_
_space_group_symop_operation_xyz
x,y,z
-x,1/2+y,1/2-z
-x,-y,-z
x,1/2-y,1/2+z
loop_
_atom_site_type_symbol
_atom_site_label
_atom_site_fract_x
_atom_site_fract_y
_atom_site_fract_z
Si Si1 0.408740 0.812019 0.648813
Si Si2 0.883775 0.906098 0.531508
Si Si3 0.389530 0.084258 0.781607
Si Si4 0.695620 0.972587 0.525691
Si Si5 0.618598 0.026757 0.062943
Si Si6 0.929675 0.197185 0.930025
Si Si7 0.748205 0.577131 0.372404
O O1 0.514072 0.749515 0.661648
O O2 0.356222 0.011528 0.575797
O O3 0.333026 0.587747 0.623517
O O4 0.425797 0.894851 0.737680
O O5 0.817564 0.700396 0.462892
O O6 0.995802 0.815275 0.594696
O O7 0.813869 0.990071 0.564867
O O8 0.898465 0.110962 0.477339
O O9 0.358446 0.970691 0.842395
O O10 0.304879 0.235811 0.703987
O O11 0.656023 0.218548 0.546073
O O12 0.666399 0.718698 0.550104
O O13 0.500000 0.000000 0.000000
O O14 0.826007 0.082959 0.860559
O O15 0.000000 0.000000 0.000000
#
# Coordination Sequence:
#
# PCOD9243108 Si02
#       7
#     4   4   4   4   4   4   4
#     4  12  24  37  68  92 131 175 230 279 324 396
#     4  10  20  36  64 102 122 168 218 285 341 396
#     4  12  26  38  62  96 133 183 229 274 340 403
#     4  12  25  45  66  95 137 182 225 276 335 408
#     4  12  29  43  63  94 144 185 223 272 339 410
#     4   9  19  34  62 101 129 153 213 294 341 383
#     4  11  20  38  61  98 131 167 216 287 336 393
#
# _framework density 20.273094
#
# number of rings (size 3 to 8) (size 9 to 14) (size 15 to 20)
#    0.000    0.857    5.714    1.286    6.000    0.000 
#    0.000    0.000    0.000    0.000   14.857    0.000 
#    0.000    0.000    0.000    0.000    0.000    0.000 
#
# Total GULP energy -156330.563072 kJ/mol
# GULP energy per Si atom -5583.234395 kJ/mol
# Density = 2.022695 g / cm^3
# Si number density = 20.273094 Si / 1000 Ang^3
#
#
#
# Elastic Constant Matrix: (Units=GPa)
#
#
# Indices 1 2 3 4 5 6 
#
# 1 136.3611 38.1018 9.3839 0.0000 -3.0577 0.0000
# 2 38.1018 68.5913 1.2257 0.0000 -7.6421 0.0000
# 3 9.3839 1.2257 52.6301 0.0000 -17.7767 0.0000
# 4 0.0000 0.0000 0.0000 27.6914 0.0000 -1.8688
# 5 -3.0577 -7.6421 -17.7767 0.0000 29.5729 0.0000
# 6 0.0000 0.0000 0.0000 -1.8688 0.0000 49.8963
#
#
#
# Elastic Compliance Matrix: (Units=1/GPa)
#
#
# Indices 1 2 3 4 5 6 
#
# 1 0.008848 -0.005057 -0.001998 0.000000 -0.001593 0.000000
# 2 -0.005057 0.017963 0.002352 0.000000 0.005533 0.000000
# 3 -0.001998 0.002352 0.024389 0.000000 0.015062 0.000000
# 4 0.000000 0.000000 0.000000 0.036204 0.000000 0.001356
# 5 -0.001593 0.005533 0.015062 0.000000 0.044134 0.000000
# 6 0.000000 0.000000 0.000000 0.001356 0.000000 0.020092
#
#
# Mechanical properties :
#
#
# Convention : Reuss Voigt Hill
#
# Bulk Modulus (GPa) = 23.92631 39.44502 31.68567
# Shear Modulus (GPa) = 28.57679 35.35686 31.96683
#
# Velocity S-wave (km/s) = 3.75853 4.18069 3.97522
# Velocity P-wave (km/s) = 5.53742 6.54242 6.06079
#
# Compressibility (1/GPa) = 0.04179499
#
# Stress axis : x y z
#
# Youngs Moduli (GPa) = 113.01695 55.67128 41.00134
#
# Poissons Ratio (x) = 0.28152 0.08192
# Poissons Ratio (y) = 0.57151 -0.09644
# Poissons Ratio (z) = 0.22580 -0.13095
#
# Static dielectric constant tensor:
#      x y z
#    x 1.810840 0.000000 0.000210 
#    y 0.000000 1.825270 0.000000 
#    z 0.000210 0.000000 1.714620 
# 
# From -- ./inp_files/58394.got.cif
#   From: 2010.05.17/outbox.cif.g08.bks.cpg/sg14_30_cif.got.tgz:58394.got - 2010.06.03 17:49:19.
