data_PCOD9243932
_publ_section_title
;
Structure prediction by ZEFSAII (Michael W. Deem and Ramdas Pophale) SiO2 
 PCOD9243932
Probable space group: P 21/C
;
_chemical_formula_sum "Si O2"
_cell_formula_units_Z 20
_cell_length_a 9.804669
_cell_length_b 8.318150
_cell_length_c 30.775579
_cell_angle_alpha 90.000000
_cell_angle_beta 157.949835
_cell_angle_gamma 90.000000
_cell_volume 942.282849
_symmetry_space_group_name_H-M "P 21/C"
_symmetry_group_IT_number 14
_symmetry_cell_setting 'monoclinic'
loop_
_space_group_symop_operation_xyz
x,y,z
-x,1/2+y,1/2-z
-x,-y,-z
x,1/2-y,1/2+z
loop_
_atom_site_type_symbol
_atom_site_label
_atom_site_fract_x
_atom_site_fract_y
_atom_site_fract_z
Si Si1 0.594769 0.680430 0.540007
Si Si2 0.762171 0.700688 0.998666
Si Si3 0.306734 0.609459 0.613496
Si Si4 0.181839 0.847323 0.760780
Si Si5 0.583546 0.358433 0.930829
O O1 0.500000 0.500000 0.500000
O O2 0.588487 0.787331 0.494941
O O3 0.348292 0.747355 0.506536
O O4 0.000039 0.706600 0.678789
O O5 0.478632 0.777632 0.880969
O O6 0.823819 0.517049 0.003397
O O7 0.124251 0.808660 0.101350
O O8 0.646956 0.489899 0.717300
O O9 0.389122 0.751572 0.603737
O O10 0.000000 0.500000 0.500000
O O11 0.836185 0.912814 0.685843
#
# Coordination Sequence:
#
# PCOD9243932 Si02
#       5
#     4   4   4   4   4
#     4  10  22  38  64  94 126 168 218 263 314 388
#     4  11  21  38  64  94 130 167 213 267 321 369
#     4  10  20  39  62  87 128 163 209 266 317 370
#     4   9  22  38  64  88 128 171 216 253 319 377
#     4  10  21  38  64  91 127 168 214 255 317 386
#
# _framework density 21.225051000000001
#
# number of rings (size 3 to 8) (size 9 to 14) (size 15 to 20)
#    1.200    0.800    0.000    4.800    2.800    0.000 
#    0.000    6.000    0.000    0.000    0.000    0.000 
#    0.000    0.000    0.000    0.000    0.000    0.000 
#
# Total GULP energy -111505.374236 kJ/mol
# GULP energy per Si atom -5575.268712 kJ/mol
# Density = 2.117674 g / cm^3
# Si number density = 21.225051 Si / 1000 Ang^3
#
#
#
# Elastic Constant Matrix: (Units=GPa)
#
#
# Indices 1 2 3 4 5 6 
#
# 1 49.5982 10.0760 7.3501 0.0000 -5.4026 0.0000
# 2 10.0760 43.4669 4.9223 0.0000 14.3078 0.0000
# 3 7.3501 4.9223 43.9669 0.0001 2.5291 0.0002
# 4 0.0000 0.0000 0.0001 32.4338 0.0000 -7.5731
# 5 -5.4026 14.3078 2.5291 0.0000 30.9786 0.0000
# 6 0.0000 0.0000 0.0002 -7.5731 0.0000 14.8288
#
#
#
# Elastic Compliance Matrix: (Units=1/GPa)
#
#
# Indices 1 2 3 4 5 6 
#
# 1 0.023046 -0.007508 -0.003459 0.000000 0.007769 0.000000
# 2 -0.007508 0.029816 -0.001221 0.000000 -0.014980 0.000000
# 3 -0.003459 -0.001221 0.023572 0.000000 -0.001964 0.000000
# 4 0.000000 0.000000 0.000000 0.035006 0.000000 0.017878
# 5 0.007769 -0.014980 -0.001964 0.000000 0.040714 0.000000
# 6 0.000000 0.000000 0.000000 0.017878 0.000000 0.076567
#
#
# Mechanical properties :
#
#
# Convention : Reuss Voigt Hill
#
# Bulk Modulus (GPa) = 19.20939 20.19208 19.70074
# Shear Modulus (GPa) = 18.48766 23.29381 20.89074
#
# Velocity S-wave (km/s) = 2.95452 3.31640 3.14068
# Velocity P-wave (km/s) = 4.55071 4.91921 4.73854
#
# Compressibility (1/GPa) = 0.05205787
#
# Stress axis : x y z
#
# Youngs Moduli (GPa) = 43.39112 33.53932 42.42260
#
# Poissons Ratio (x) = 0.25181 0.14674
# Poissons Ratio (y) = 0.32578 0.05181
# Poissons Ratio (z) = 0.15009 0.04096
#
# Static dielectric constant tensor:
#      x y z
#    x 1.788530 0.000000 -0.029160 
#    y 0.000000 1.689110 0.000000 
#    z -0.029160 0.000000 2.384180 
# 
# From -- ./inp_files/79416.got.cif
#   From: 2010.05.17/outbox.cif.g08.bks.cpg/sg14_40_cif.got.tgz:79416.got - 2010.06.03 17:49:19.
