data_PCOD9243404
_publ_section_title
;
Structure prediction by ZEFSAII (Michael W. Deem and Ramdas Pophale) SiO2 
 PCOD9243404
Probable space group: P 21/C
;
_chemical_formula_sum "Si O2"
_cell_formula_units_Z 28
_cell_length_a 12.349848
_cell_length_b 14.704017
_cell_length_c 8.280855
_cell_angle_alpha 90.000000
_cell_angle_beta 117.870929
_cell_angle_gamma 90.000000
_cell_volume 1329.310687
_symmetry_space_group_name_H-M "P 21/C"
_symmetry_group_IT_number 14
_symmetry_cell_setting 'monoclinic'
loop_
_space_group_symop_operation_xyz
x,y,z
-x,1/2+y,1/2-z
-x,-y,-z
x,1/2-y,1/2+z
loop_
_atom_site_type_symbol
_atom_site_label
_atom_site_fract_x
_atom_site_fract_y
_atom_site_fract_z
Si Si1 0.895639 0.732337 0.206228
Si Si2 0.889514 0.952384 0.527380
Si Si3 0.613906 0.895717 0.242294
Si Si4 0.021497 0.137420 0.935226
Si Si5 0.174493 0.525185 0.655019
Si Si6 0.555917 0.531333 0.209314
Si Si7 0.378789 0.288473 0.575002
O O1 0.900658 0.699655 0.391082
O O2 0.932560 0.645261 0.126089
O O3 0.763984 0.771611 0.067256
O O4 0.986252 0.815220 0.240388
O O5 0.757931 0.928123 0.349255
O O6 0.849711 0.002100 0.670697
O O7 0.000000 0.000000 0.500000
O O8 0.586307 0.815059 0.354366
O O9 0.532804 0.983846 0.223325
O O10 0.579651 0.843813 0.053980
O O11 0.095814 0.044203 0.990672
O O12 0.888432 0.121496 0.914229
O O13 0.311477 0.514757 0.698153
O O14 0.584774 0.638691 0.259384
O O15 0.500000 0.500000 0.000000
#
# Coordination Sequence:
#
# PCOD9243404 Si02
#       7
#     4   4   4   4   4   4   4
#     4  10  20  37  63  93 125 165 219 269 324 393
#     4  10  22  37  61  98 129 169 220 272 331 397
#     4  11  24  41  68  98 131 181 227 285 342 397
#     4  10  21  37  62  93 121 167 210 270 326 378
#     4  10  22  40  61  92 133 171 210 269 338 392
#     4  12  23  44  67  96 138 185 230 277 342 406
#     4  11  23  41  67  99 131 172 239 281 324 413
#
# _framework density 21.063548000000001
#
# number of rings (size 3 to 8) (size 9 to 14) (size 15 to 20)
#    0.000    1.429    2.857    3.000    6.000    1.143 
#    0.000    4.286    0.000    0.000    0.000    0.000 
#    0.000    0.000    0.000    0.000    0.000    0.000 
#
# Total GULP energy -155891.111494 kJ/mol
# GULP energy per Si atom -5567.539696 kJ/mol
# Density = 2.101561 g / cm^3
# Si number density = 21.063548 Si / 1000 Ang^3
#
#
#
# Elastic Constant Matrix: (Units=GPa)
#
#
# Indices 1 2 3 4 5 6 
#
# 1 74.9445 22.9448 4.6230 0.0000 10.0695 0.0000
# 2 22.9448 83.3433 17.6093 0.0000 3.8874 0.0000
# 3 4.6230 17.6093 50.6287 0.0000 -0.4671 0.0000
# 4 0.0000 0.0000 0.0000 26.2051 0.0000 -5.8278
# 5 10.0695 3.8874 -0.4671 0.0000 31.9495 0.0000
# 6 0.0000 0.0000 0.0000 -5.8278 0.0000 41.3914
#
#
#
# Elastic Compliance Matrix: (Units=1/GPa)
#
#
# Indices 1 2 3 4 5 6 
#
# 1 0.015134 -0.003957 -0.000045 0.000000 -0.004289 0.000000
# 2 -0.003957 0.014071 -0.004538 0.000000 -0.000531 0.000000
# 3 -0.000045 -0.004538 0.021342 0.000000 0.000878 0.000000
# 4 0.000000 0.000000 0.000000 0.039394 0.000000 0.005547
# 5 -0.004289 -0.000531 0.000878 0.000000 0.032729 0.000000
# 6 0.000000 0.000000 0.000000 0.005547 0.000000 0.024941
#
#
# Mechanical properties :
#
#
# Convention : Reuss Voigt Hill
#
# Bulk Modulus (GPa) = 29.87962 33.25230 31.56596
# Shear Modulus (GPa) = 28.43397 30.82516 29.62956
#
# Velocity S-wave (km/s) = 3.67810 3.82964 3.75464
# Velocity P-wave (km/s) = 5.67928 5.94775 5.81506
#
# Compressibility (1/GPa) = 0.03346763
#
# Stress axis : x y z
#
# Youngs Moduli (GPa) = 66.07791 71.06592 46.85556
#
# Poissons Ratio (x) = 0.28119 0.00212
# Poissons Ratio (y) = 0.26145 0.21262
# Poissons Ratio (z) = 0.00299 0.32249
#
# Static dielectric constant tensor:
#      x y z
#    x 1.989140 0.000000 0.007220 
#    y 0.000000 1.833640 0.000000 
#    z 0.007220 0.000000 1.954390 
# 
# From -- ./inp_files/13408.got.cif
#   From: 2010.05.17/outbox.cif.g08.bks.cpg/sg14_7_cif.got.tgz:13408.got - 2010.06.03 17:49:19.
