data_PCOD9243392
_publ_section_title
;
Structure prediction by ZEFSAII (Michael W. Deem and Ramdas Pophale) SiO2 
 PCOD9243392
Probable space group: P 21/C
;
_chemical_formula_sum "Si O2"
_cell_formula_units_Z 24
_cell_length_a 9.349228
_cell_length_b 9.010563
_cell_length_c 15.946596
_cell_angle_alpha 90.000000
_cell_angle_beta 52.640627
_cell_angle_gamma 90.000000
_cell_volume 1067.771117
_symmetry_space_group_name_H-M "P 21/C"
_symmetry_group_IT_number 14
_symmetry_cell_setting 'monoclinic'
loop_
_space_group_symop_operation_xyz
x,y,z
-x,1/2+y,1/2-z
-x,-y,-z
x,1/2-y,1/2+z
loop_
_atom_site_type_symbol
_atom_site_label
_atom_site_fract_x
_atom_site_fract_y
_atom_site_fract_z
Si Si1 0.509482 0.550412 0.158599
Si Si2 0.164394 0.140641 0.767214
Si Si3 0.141472 0.373623 0.466669
Si Si4 0.460640 0.599703 0.671474
Si Si5 0.098124 0.433762 0.046009
Si Si6 0.881535 0.958235 0.783255
O O1 0.343663 0.452766 0.185075
O O2 0.558646 0.484778 0.232787
O O3 0.448988 0.722209 0.186367
O O4 0.688389 0.540925 0.039009
O O5 0.180291 0.191582 0.858749
O O6 0.146208 0.282265 0.713661
O O7 0.992055 0.033357 0.818829
O O8 0.334384 0.429257 0.430444
O O9 0.069076 0.242418 0.549465
O O10 0.000000 0.500000 0.500000
O O11 0.308134 0.538520 0.664787
O O12 0.010249 0.502537 0.158678
O O13 0.000000 0.500000 0.000000
#
# Coordination Sequence:
#
# PCOD9243392 Si02
#       6
#     4   4   4   4   4   4
#     4  10  21  39  62  92 123 166 207 253 305 375
#     4  11  25  41  62  92 126 162 210 253 320 369
#     4  10  23  40  65  96 120 160 211 255 307 369
#     4  10  20  37  63  91 124 159 210 249 307 369
#     4  11  21  39  66  92 123 161 210 253 305 372
#     4  12  24  42  64  92 126 166 205 259 318 366
#
# _framework density 22.476728000000001
#
# number of rings (size 3 to 8) (size 9 to 14) (size 15 to 20)
#    0.000    1.333    3.333    3.000    7.000    2.000 
#    0.000    0.833    0.000    0.000    0.000    0.000 
#    0.000    0.000    0.000    0.000    0.000    0.000 
#
# Total GULP energy -134313.705549 kJ/mol
# GULP energy per Si atom -5596.404398 kJ/mol
# Density = 2.242557 g / cm^3
# Si number density = 22.476728 Si / 1000 Ang^3
#
#
#
# Elastic Constant Matrix: (Units=GPa)
#
#
# Indices 1 2 3 4 5 6 
#
# 1 132.9186 52.7481 22.8888 0.0000 -27.0410 0.0000
# 2 52.7481 155.2667 45.9986 0.0000 -33.6848 0.0000
# 3 22.8888 45.9986 39.1097 0.0000 -13.0027 0.0000
# 4 0.0000 0.0000 0.0000 34.3492 0.0000 -10.7227
# 5 -27.0410 -33.6848 -13.0027 0.0000 44.0522 0.0000
# 6 0.0000 0.0000 0.0000 -10.7227 0.0000 38.6950
#
#
#
# Elastic Compliance Matrix: (Units=1/GPa)
#
#
# Indices 1 2 3 4 5 6 
#
# 1 0.009349 -0.001698 -0.002215 0.000000 0.003786 0.000000
# 2 -0.001698 0.011102 -0.010631 0.000000 0.004309 0.000000
# 3 -0.002215 -0.010631 0.040154 0.000000 0.002364 0.000000
# 4 0.000000 0.000000 0.000000 0.031870 0.000000 0.008831
# 5 0.003786 0.004309 0.002364 0.000000 0.029017 0.000000
# 6 0.000000 0.000000 0.000000 0.008831 0.000000 0.028290
#
#
# Mechanical properties :
#
#
# Convention : Reuss Voigt Hill
#
# Bulk Modulus (GPa) = 31.72900 63.39623 47.56262
# Shear Modulus (GPa) = 26.40249 37.12993 31.76621
#
# Velocity S-wave (km/s) = 3.43105 4.06880 3.76346
# Velocity P-wave (km/s) = 5.46289 7.09507 6.33179
#
# Compressibility (1/GPa) = 0.03151691
#
# Stress axis : x y z
#
# Youngs Moduli (GPa) = 106.96139 90.07659 24.90383
#
# Poissons Ratio (x) = 0.15299 0.05516
# Poissons Ratio (y) = 0.18167 0.26474
# Poissons Ratio (z) = 0.23693 0.95757
#
# Static dielectric constant tensor:
#      x y z
#    x 1.835570 0.000000 0.031000 
#    y 0.000000 1.797540 0.000000 
#    z 0.031000 0.000000 1.842910 
# 
# From -- ./inp_files/54472.got.cif
#   From: 2010.05.17/outbox.cif.g08.bks.cpg/sg14_28_cif.got.tgz:54472.got - 2010.06.03 17:49:19.
