data_PCOD9243174
_publ_section_title
;
Structure prediction by ZEFSAII (Michael W. Deem and Ramdas Pophale) SiO2 
 PCOD9243174
Probable space group: P 21/C
;
_chemical_formula_sum "Si O2"
_cell_formula_units_Z 28
_cell_length_a 12.724471
_cell_length_b 22.658179
_cell_length_c 4.975552
_cell_angle_alpha 90.000000
_cell_angle_beta 78.744360
_cell_angle_gamma 90.000000
_cell_volume 1406.926607
_symmetry_space_group_name_H-M "P 21/C"
_symmetry_group_IT_number 14
_symmetry_cell_setting 'monoclinic'
loop_
_space_group_symop_operation_xyz
x,y,z
-x,1/2+y,1/2-z
-x,-y,-z
x,1/2-y,1/2+z
loop_
_atom_site_type_symbol
_atom_site_label
_atom_site_fract_x
_atom_site_fract_y
_atom_site_fract_z
Si Si1 0.695012 0.097962 0.694071
Si Si2 0.576010 0.048345 0.233735
Si Si3 0.339130 0.716941 0.039570
Si Si4 0.638284 0.926067 0.347973
Si Si5 0.102465 0.541265 0.633289
Si Si6 0.404820 0.289818 0.160845
Si Si7 0.874811 0.963983 0.380246
O O1 0.648285 0.062280 0.461792
O O2 0.716409 0.161327 0.560512
O O3 0.800970 0.077472 0.792236
O O4 0.606243 0.090107 0.971292
O O5 0.455038 0.061611 0.385450
O O6 0.607241 0.979845 0.157712
O O7 0.314642 0.772450 0.861043
O O8 0.465732 0.706355 0.929394
O O9 0.630076 0.857314 0.270286
O O10 0.759473 0.935558 0.389624
O O11 0.121030 0.521440 0.318858
O O12 0.984458 0.568246 0.735009
O O13 0.108886 0.482788 0.819719
O O14 0.372005 0.242785 0.403517
#
# Coordination Sequence:
#
# PCOD9243174 Si02
#       7
#     4   4   4   4   4   4   4
#     4  12  20  39  55  86 116 146 182 234 279 340
#     4  11  25  32  58  90 118 148 170 236 304 339
#     4  10  21  36  54  77 110 152 190 225 270 329
#     4  11  22  40  55  87 122 146 187 231 289 344
#     4  10  20  37  56  82 111 146 188 225 276 343
#     4  10  23  37  55  76 111 156 194 223 263 335
#     4  10  21  36  57  80 112 150 183 225 280 337
#
# _framework density 19.901534000000002
#
# number of rings (size 3 to 8) (size 9 to 14) (size 15 to 20)
#    0.000    1.429    4.286    0.857    4.000    5.714 
#    0.000    0.000    0.000    1.714    0.000    0.000 
#    0.000    0.000    0.000    0.000    0.000    0.000 
#
# Total GULP energy -156178.880044 kJ/mol
# GULP energy per Si atom -5577.817144 kJ/mol
# Density = 1.985624 g / cm^3
# Si number density = 19.901534 Si / 1000 Ang^3
#
#
#
# Elastic Constant Matrix: (Units=GPa)
#
#
# Indices 1 2 3 4 5 6 
#
# 1 115.0939 11.0480 7.7139 0.0000 -1.3990 0.0000
# 2 11.0480 73.1876 -3.1431 0.0000 7.2606 0.0000
# 3 7.7139 -3.1431 61.5237 0.0000 13.7612 0.0000
# 4 0.0000 0.0000 0.0000 20.4892 0.0000 9.9830
# 5 -1.3990 7.2606 13.7612 0.0000 20.1930 0.0000
# 6 0.0000 0.0000 0.0000 9.9830 0.0000 17.6081
#
#
#
# Elastic Compliance Matrix: (Units=1/GPa)
#
#
# Indices 1 2 3 4 5 6 
#
# 1 0.008996 -0.001674 -0.001755 0.000000 0.002421 0.000000
# 2 -0.001674 0.014737 0.002565 0.000000 -0.007163 0.000000
# 3 -0.001755 0.002565 0.019867 0.000000 -0.014583 0.000000
# 4 0.000000 0.000000 0.000000 0.067434 0.000000 -0.038232
# 5 0.002421 -0.007163 -0.014583 0.000000 0.062203 0.000000
# 6 0.000000 0.000000 0.000000 -0.038232 0.000000 0.078468
#
#
# Mechanical properties :
#
#
# Convention : Reuss Voigt Hill
#
# Bulk Modulus (GPa) = 23.88214 31.22696 27.55455
# Shear Modulus (GPa) = 18.69930 27.27049 22.98489
#
# Velocity S-wave (km/s) = 3.06860 3.70573 3.40211
# Velocity P-wave (km/s) = 4.95795 5.83393 5.41369
#
# Compressibility (1/GPa) = 0.04187230
#
# Stress axis : x y z
#
# Youngs Moduli (GPa) = 111.15737 67.85704 50.33548
#
# Poissons Ratio (x) = 0.11356 0.08834
# Poissons Ratio (y) = 0.18603 -0.12910
# Poissons Ratio (z) = 0.19508 -0.17404
#
# Static dielectric constant tensor:
#      x y z
#    x 1.739080 0.000000 -0.002520 
#    y 0.000000 1.769510 0.000000 
#    z -0.002520 0.000000 1.732000 
# 
# From -- ./inp_files/2880.got.cif
#   From: 2010.05.17/outbox.cif.g08.bks.cpg/sg14_2_cif.got.tgz:2880.got - 2010.06.03 17:49:19.
