data_PCOD9243429
_publ_section_title
;
Structure prediction by ZEFSAII (Michael W. Deem and Ramdas Pophale) SiO2 
 PCOD9243429
Probable space group: P 21/C
;
_chemical_formula_sum "Si O2"
_cell_formula_units_Z 32
_cell_length_a 12.038293
_cell_length_b 14.094369
_cell_length_c 15.978450
_cell_angle_alpha 90.000000
_cell_angle_beta 31.106081
_cell_angle_gamma 90.000000
_cell_volume 1400.618777
_symmetry_space_group_name_H-M "P 21/C"
_symmetry_group_IT_number 14
_symmetry_cell_setting 'monoclinic'
loop_
_space_group_symop_operation_xyz
x,y,z
-x,1/2+y,1/2-z
-x,-y,-z
x,1/2-y,1/2+z
loop_
_atom_site_type_symbol
_atom_site_label
_atom_site_fract_x
_atom_site_fract_y
_atom_site_fract_z
Si Si1 0.635637 0.738547 0.551310
Si Si2 0.277727 0.482919 0.243741
Si Si3 0.603134 0.348661 0.937720
Si Si4 0.533002 0.912501 0.722029
Si Si5 0.843037 0.026405 0.811573
Si Si6 0.073007 0.642251 0.580977
Si Si7 0.024865 0.674791 0.190843
Si Si8 0.586658 0.056539 0.819688
O O1 0.499897 0.774863 0.558864
O O2 0.660966 0.828891 0.594360
O O3 0.495079 0.650403 0.675199
O O4 0.858525 0.700854 0.371731
O O5 0.243796 0.579665 0.213310
O O6 0.428236 0.514624 0.222795
O O7 0.059948 0.424081 0.396884
O O8 0.414885 0.412474 0.096961
O O9 0.739595 0.306406 0.924662
O O10 0.654610 0.974089 0.712432
O O11 0.322266 0.863107 0.897391
O O12 0.950234 0.094162 0.811624
O O13 0.760562 0.074542 0.779766
O O14 0.989550 0.935636 0.694505
O O15 0.628431 0.983687 0.994923
O O16 0.989677 0.749596 0.639881
#
# Coordination Sequence:
#
# PCOD9243429 Si02
#       8
#     4   4   4   4   4   4   4   4
#     4  10  21  40  60  91 125 165 206 253 313 370
#     4  10  20  38  61  88 123 158 208 258 308 359
#     4  10  20  37  64  93 116 158 214 264 299 359
#     4  10  23  38  60  89 133 164 200 248 316 376
#     4   9  19  36  61  85 117 157 208 251 301 358
#     4  11  20  38  61  92 121 162 205 258 307 369
#     4  11  21  36  65  94 119 154 214 261 304 363
#     4   9  19  39  58  84 122 165 197 249 305 365
#
# _framework density 22.847044
#
# number of rings (size 3 to 8) (size 9 to 14) (size 15 to 20)
#    0.000    2.000    2.500    1.125    0.000    2.000 
#    2.250    0.000    0.000    4.500    0.000    0.000 
#    0.000    0.000    0.000    0.000    0.000    0.000 
#
# Total GULP energy -178796.077186 kJ/mol
# GULP energy per Si atom -5587.377412 kJ/mol
# Density = 2.279504 g / cm^3
# Si number density = 22.847044 Si / 1000 Ang^3
#
#
#
# Elastic Constant Matrix: (Units=GPa)
#
#
# Indices 1 2 3 4 5 6 
#
# 1 42.4064 11.2866 -7.0066 0.0000 4.0974 0.0000
# 2 11.2866 70.5241 2.4207 0.0000 4.8580 0.0000
# 3 -7.0066 2.4207 19.7826 0.0000 -2.4490 0.0000
# 4 0.0000 0.0000 0.0000 26.0219 0.0000 5.2060
# 5 4.0974 4.8580 -2.4490 0.0000 24.0615 0.0000
# 6 0.0000 0.0000 0.0000 5.2060 0.0000 22.8214
#
#
#
# Elastic Compliance Matrix: (Units=1/GPa)
#
#
# Indices 1 2 3 4 5 6 
#
# 1 0.026602 -0.004405 0.009632 0.000000 -0.002660 0.000000
# 2 -0.004405 0.015199 -0.003754 0.000000 -0.002701 0.000000
# 3 0.009632 -0.003754 0.055004 0.000000 0.004716 0.000000
# 4 0.000000 0.000000 0.000000 0.040267 0.000000 -0.009186
# 5 -0.002660 -0.002701 0.004716 0.000000 0.043039 0.000000
# 6 0.000000 0.000000 0.000000 -0.009186 0.000000 0.045914
#
#
# Mechanical properties :
#
#
# Convention : Reuss Voigt Hill
#
# Bulk Modulus (GPa) = 10.02499 16.23495 13.12997
# Shear Modulus (GPa) = 19.50609 22.98177 21.24393
#
# Velocity S-wave (km/s) = 2.92510 3.17503 3.05262
# Velocity P-wave (km/s) = 3.97564 4.53458 4.26428
#
# Compressibility (1/GPa) = 0.09975075
#
# Stress axis : x y z
#
# Youngs Moduli (GPa) = 37.59102 65.79221 18.18045
#
# Poissons Ratio (x) = 0.28979 -0.17511
# Poissons Ratio (y) = 0.16558 0.06825
# Poissons Ratio (z) = -0.36206 0.24700
#
# Static dielectric constant tensor:
#      x y z
#    x 1.843170 0.000000 -0.004940 
#    y 0.000000 1.844250 0.000000 
#    z -0.004940 0.000000 1.879390 
# 
# From -- ./inp_files/45090.got.cif
#   From: 2010.05.17/outbox.cif.g08.bks.cpg/sg14_23_cif.got.tgz:45090.got - 2010.06.03 17:49:19.
