data_PCOD9243930
_publ_section_title
;
Structure prediction by ZEFSAII (Michael W. Deem and Ramdas Pophale) SiO2 
 PCOD9243930
Probable space group: P 21/C
;
_chemical_formula_sum "Si O2"
_cell_formula_units_Z 20
_cell_length_a 7.325503
_cell_length_b 13.216640
_cell_length_c 9.186112
_cell_angle_alpha 90.000000
_cell_angle_beta 80.735719
_cell_angle_gamma 90.000000
_cell_volume 877.785006
_symmetry_space_group_name_H-M "P 21/C"
_symmetry_group_IT_number 14
_symmetry_cell_setting 'monoclinic'
loop_
_space_group_symop_operation_xyz
x,y,z
-x,1/2+y,1/2-z
-x,-y,-z
x,1/2-y,1/2+z
loop_
_atom_site_type_symbol
_atom_site_label
_atom_site_fract_x
_atom_site_fract_y
_atom_site_fract_z
Si Si1 0.370266 0.405681 0.834423
Si Si2 0.710055 0.103374 0.478349
Si Si3 0.111781 0.453318 0.273422
Si Si4 0.053321 0.209142 0.547085
Si Si5 0.220621 0.427170 0.557337
O O1 0.540166 0.358785 0.902773
O O2 0.372924 0.404644 0.659671
O O3 0.357891 0.522052 0.892612
O O4 0.188830 0.345771 0.913440
O O5 0.843145 0.186272 0.529790
O O6 0.831861 0.034691 0.354147
O O7 0.096074 0.347483 0.193240
O O8 0.260036 0.453430 0.384982
O O9 0.913916 0.486541 0.361779
O O10 0.099338 0.325626 0.556196
#
# Coordination Sequence:
#
# PCOD9243930 Si02
#       5
#     4   4   4   4   4
#     4  10  20  39  62  87 114 162 200 243 298 355
#     4  10  20  39  65  82 116 162 200 239 301 359
#     4  10  21  37  60  90 119 155 198 243 298 349
#     4  11  20  40  62  85 121 160 199 237 298 358
#     4  11  21  36  62  90 122 155 194 250 295 344
#
# _framework density 22.784623
#
# number of rings (size 3 to 8) (size 9 to 14) (size 15 to 20)
#    0.000    1.600    4.000    2.400    0.000    0.800 
#    3.600    0.000    4.400    0.000    0.000    0.000 
#    0.000    0.000    0.000    0.000    0.000    0.000 
#
# Total GULP energy -111811.884261 kJ/mol
# GULP energy per Si atom -5590.594213 kJ/mol
# Density = 2.273276 g / cm^3
# Si number density = 22.784623 Si / 1000 Ang^3
#
#
#
# Elastic Constant Matrix: (Units=GPa)
#
#
# Indices 1 2 3 4 5 6 
#
# 1 77.4079 1.9687 12.5110 0.0000 39.2953 0.0000
# 2 1.9687 64.1186 7.4160 0.0000 5.6922 0.0000
# 3 12.5110 7.4160 126.0063 0.0000 42.1613 0.0000
# 4 0.0000 0.0000 0.0000 21.4887 0.0000 6.2988
# 5 39.2953 5.6922 42.1613 0.0000 37.3032 0.0000
# 6 0.0000 0.0000 0.0000 6.2988 0.0000 17.1588
#
#
#
# Elastic Compliance Matrix: (Units=1/GPa)
#
#
# Indices 1 2 3 4 5 6 
#
# 1 0.043826 0.002514 0.017812 0.000000 -0.066682 0.000000
# 2 0.002514 0.015958 0.000823 0.000000 -0.006014 0.000000
# 3 0.017812 0.000823 0.020004 0.000000 -0.041499 0.000000
# 4 0.000000 0.000000 0.000000 0.052147 0.000000 -0.019143
# 5 -0.066682 -0.006014 -0.041499 0.000000 0.144872 0.000000
# 6 0.000000 0.000000 0.000000 -0.019143 0.000000 0.065306
#
#
# Mechanical properties :
#
#
# Convention : Reuss Voigt Hill
#
# Bulk Modulus (GPa) = 8.19081 34.59158 21.39120
# Shear Modulus (GPa) = 14.68384 31.56593 23.12489
#
# Velocity S-wave (km/s) = 2.54138 3.72614 3.18926
# Velocity P-wave (km/s) = 3.49488 5.80750 4.79277
#
# Compressibility (1/GPa) = 0.12208800
#
# Stress axis : x y z
#
# Youngs Moduli (GPa) = 22.81731 62.66616 49.98879
#
# Poissons Ratio (x) = -0.15754 -0.89042
# Poissons Ratio (y) = -0.05736 -0.04116
# Poissons Ratio (z) = -0.40643 -0.05160
#
# Static dielectric constant tensor:
#      x y z
#    x 1.877940 0.000000 0.017890 
#    y 0.000000 1.801910 0.000000 
#    z 0.017890 0.000000 1.903730 
# 
# From -- ./inp_files/8186.got.cif
#   From: 2010.05.17/outbox.cif.g08.bks.cpg/sg14_5_cif.got.tgz:8186.got - 2010.06.03 17:49:19.
