data_PCOD9243272
_publ_section_title
;
Structure prediction by ZEFSAII (Michael W. Deem and Ramdas Pophale) SiO2 
 PCOD9243272
Probable space group: P 21/C
;
_chemical_formula_sum "Si O2"
_cell_formula_units_Z 24
_cell_length_a 13.742675
_cell_length_b 12.415118
_cell_length_c 10.143854
_cell_angle_alpha 90.000000
_cell_angle_beta 33.466469
_cell_angle_gamma 90.000000
_cell_volume 954.399879
_symmetry_space_group_name_H-M "P 21/C"
_symmetry_group_IT_number 14
_symmetry_cell_setting 'monoclinic'
loop_
_space_group_symop_operation_xyz
x,y,z
-x,1/2+y,1/2-z
-x,-y,-z
x,1/2-y,1/2+z
loop_
_atom_site_type_symbol
_atom_site_label
_atom_site_fract_x
_atom_site_fract_y
_atom_site_fract_z
Si Si1 0.079912 0.375933 0.340546
Si Si2 0.829575 0.414228 0.381048
Si Si3 0.570117 0.794618 0.292580
Si Si4 0.907800 0.639836 0.260313
Si Si5 0.541031 0.626602 0.106066
Si Si6 0.802356 0.165818 0.367753
O O1 0.115981 0.245793 0.300265
O O2 0.989187 0.404088 0.304432
O O3 0.932573 0.390345 0.617229
O O4 0.272427 0.427751 0.134892
O O5 0.861238 0.521503 0.260749
O O6 0.646405 0.429628 0.668120
O O7 0.815229 0.296501 0.331815
O O8 0.570145 0.682345 0.214699
O O9 0.524048 0.793957 0.498820
O O10 0.404911 0.856965 0.411623
O O11 0.762862 0.841668 0.041238
O O12 0.104498 0.644505 0.097700
#
# Coordination Sequence:
#
# PCOD9243272 Si02
#       6
#     4   4   4   4   4   4
#     4  10  20  38  60  80 116 156 191 237 293 344
#     4  10  22  37  57  87 116 150 196 242 287 344
#     4  10  20  37  60  83 115 157 192 234 291 347
#     4  10  22  37  57  87 116 150 196 242 287 344
#     4  10  20  37  60  83 115 157 192 234 291 347
#     4  10  20  38  60  80 116 156 191 237 293 344
#
# _framework density 25.146695000000001
#
# number of rings (size 3 to 8) (size 9 to 14) (size 15 to 20)
#    0.000    2.000    3.333    0.000    0.000    3.333 
#    0.000    0.000    0.000    4.000    0.000    0.000 
#    0.000    0.000    0.000    0.000    0.000    0.000 
#
# Total GULP energy -134001.878528 kJ/mol
# GULP energy per Si atom -5583.411605 kJ/mol
# Density = 2.508946 g / cm^3
# Si number density = 25.146695 Si / 1000 Ang^3
#
#
#
# Elastic Constant Matrix: (Units=GPa)
#
#
# Indices 1 2 3 4 5 6 
#
# 1 52.2467 9.3668 18.7068 0.0000 -26.7315 0.0000
# 2 9.3668 113.3774 24.6292 0.0000 7.8804 0.0000
# 3 18.7068 24.6292 133.5130 0.0000 -28.8888 0.0000
# 4 0.0000 0.0000 0.0000 38.6950 0.0000 -1.8569
# 5 -26.7315 7.8804 -28.8888 0.0000 50.8683 0.0000
# 6 0.0000 0.0000 0.0000 -1.8569 0.0000 7.7233
#
#
#
# Elastic Compliance Matrix: (Units=1/GPa)
#
#
# Indices 1 2 3 4 5 6 
#
# 1 0.027343 -0.003292 -0.000005 0.000000 0.014876 0.000000
# 2 -0.003292 0.009927 -0.002368 0.000000 -0.004613 0.000000
# 3 -0.000005 -0.002368 0.009128 0.000000 0.005548 0.000000
# 4 0.000000 0.000000 0.000000 0.026145 0.000000 0.006286
# 5 0.014876 -0.004613 0.005548 0.000000 0.031341 0.000000
# 6 0.000000 0.000000 0.000000 0.006286 0.000000 0.130989
#
#
# Mechanical properties :
#
#
# Convention : Reuss Voigt Hill
#
# Bulk Modulus (GPa) = 28.51590 44.94918 36.73254
# Shear Modulus (GPa) = 19.38788 35.88628 27.63708
#
# Velocity S-wave (km/s) = 2.77968 3.78177 3.31877
# Velocity P-wave (km/s) = 4.65474 6.08133 5.41522
#
# Compressibility (1/GPa) = 0.03506815
#
# Stress axis : x y z
#
# Youngs Moduli (GPa) = 36.57228 100.73450 109.55403
#
# Poissons Ratio (x) = 0.33160 0.00055
# Poissons Ratio (y) = 0.12039 0.25943
# Poissons Ratio (z) = 0.00018 0.23855
#
# Static dielectric constant tensor:
#      x y z
#    x 1.959670 0.000000 0.007600 
#    y 0.000000 2.121380 0.000000 
#    z 0.007600 0.000000 1.984160 
# 
# From -- ./inp_files/32639.got.cif
#   From: 2010.05.17/outbox.cif.g08.bks.cpg/sg14_17_cif.got.tgz:32639.got - 2010.06.03 17:49:19.
