data_PCOD9243603
_publ_section_title
;
Structure prediction by ZEFSAII (Michael W. Deem and Ramdas Pophale) SiO2 
 PCOD9243603
Probable space group: P 21/C
;
_chemical_formula_sum "Si O2"
_cell_formula_units_Z 18
_cell_length_a 6.982809
_cell_length_b 7.661579
_cell_length_c 13.533480
_cell_angle_alpha 90.000000
_cell_angle_beta 119.646061
_cell_angle_gamma 90.000000
_cell_volume 629.254693
_symmetry_space_group_name_H-M "P 21/C"
_symmetry_group_IT_number 14
_symmetry_cell_setting 'monoclinic'
loop_
_space_group_symop_operation_xyz
x,y,z
-x,1/2+y,1/2-z
-x,-y,-z
x,1/2-y,1/2+z
loop_
_atom_site_type_symbol
_atom_site_label
_atom_site_fract_x
_atom_site_fract_y
_atom_site_fract_z
Si Si1 0.991036 0.051429 0.687477
Si Si2 0.563469 0.647016 0.651144
Si Si3 0.376853 0.281514 0.555379
Si Si4 0.500000 0.000000 0.500000
Si Si5 0.910438 0.322097 0.376961
O O1 0.210914 0.169814 0.732364
O O2 0.951983 0.049581 0.795657
O O3 0.061299 0.866078 0.664509
O O4 0.761357 0.087277 0.576952
O O5 0.536658 0.442329 0.614408
O O6 0.595506 0.764765 0.559030
O O7 0.331206 0.677730 0.640870
O O8 0.125033 0.338146 0.502802
O O9 0.440855 0.087563 0.598967
#
# Coordination Sequence:
#
# PCOD9243603 Si02
#       5
#     4   4   4   2   4
#     4  10  22  38  60  87 120 159 200 246 297 353
#     4  10  20  38  61  87 119 159 196 237 299 361
#     4   9  20  38  61  87 118 153 195 243 296 358
#     4  10  20  40  58  84 124 154 194 256 294 336
#     4  10  21  39  60  88 120 156 199 246 296 354
#
# _framework density 28.605267999999999
#
# number of rings (size 3 to 8) (size 9 to 14) (size 15 to 20)
#    0.000    2.222    0.000    2.000    0.000    5.333 
#    0.000   14.444    0.000    0.000    0.000    0.000 
#    0.000    0.000    0.000    0.000    0.000    0.000 
#
# Total GULP energy -100435.275874 kJ/mol
# GULP energy per Si atom -5579.737549 kJ/mol
# Density = 2.854016 g / cm^3
# Si number density = 28.605268 Si / 1000 Ang^3
#
#
#
# Elastic Constant Matrix: (Units=GPa)
#
#
# Indices 1 2 3 4 5 6 
#
# 1 217.3136 16.2484 60.8625 0.0000 57.9633 0.0000
# 2 16.2484 97.2367 26.5398 0.0000 17.1539 0.0000
# 3 60.8625 26.5398 150.4570 0.0000 56.7596 0.0000
# 4 0.0000 0.0000 0.0000 34.6594 0.0000 7.7353
# 5 57.9633 17.1539 56.7596 0.0000 70.5286 0.0000
# 6 0.0000 0.0000 0.0000 7.7353 0.0000 46.4188
#
#
#
# Elastic Compliance Matrix: (Units=1/GPa)
#
#
# Indices 1 2 3 4 5 6 
#
# 1 0.005961 -0.000028 -0.000805 0.000000 -0.004244 0.000000
# 2 -0.000028 0.010927 -0.001324 0.000000 -0.001569 0.000000
# 3 -0.000805 -0.001324 0.009814 0.000000 -0.006914 0.000000
# 4 0.000000 0.000000 0.000000 0.029967 0.000000 -0.004994
# 5 -0.004244 -0.001569 -0.006914 0.000000 0.023613 0.000000
# 6 0.000000 0.000000 0.000000 -0.004994 0.000000 0.022375
#
#
# Mechanical properties :
#
#
# Convention : Reuss Voigt Hill
#
# Bulk Modulus (GPa) = 44.66671 74.70095 59.68383
# Shear Modulus (GPa) = 43.69304 54.41181 49.05243
#
# Velocity S-wave (km/s) = 3.91250 4.36611 4.14551
# Velocity P-wave (km/s) = 6.00491 7.18250 6.61994
#
# Compressibility (1/GPa) = 0.02238804
#
# Stress axis : x y z
#
# Youngs Moduli (GPa) = 167.74654 91.51568 101.89325
#
# Poissons Ratio (x) = 0.00252 0.08207
# Poissons Ratio (y) = 0.00462 0.13494
# Poissons Ratio (z) = 0.13511 0.12120
#
# Static dielectric constant tensor:
#      x y z
#    x 2.298480 0.000000 -0.074960 
#    y 0.000000 2.634870 0.000000 
#    z -0.074960 0.000000 2.352370 
# 
# From -- ./inp_files/52745.got.cif
#   From: 2010.05.17/outbox.cif.g08.bks.cpg/sg14_27_cif.got.tgz:52745.got - 2010.06.03 17:49:19.
