data_PCOD9243989
_publ_section_title
;
Structure prediction by ZEFSAII (Michael W. Deem and Ramdas Pophale) SiO2 
 PCOD9243989
Probable space group: P 21/C
;
_chemical_formula_sum "Si O2"
_cell_formula_units_Z 32
_cell_length_a 12.194927
_cell_length_b 19.306629
_cell_length_c 9.321143
_cell_angle_alpha 90.000000
_cell_angle_beta 49.515962
_cell_angle_gamma 90.000000
_cell_volume 1669.181829
_symmetry_space_group_name_H-M "P 21/C"
_symmetry_group_IT_number 14
_symmetry_cell_setting 'monoclinic'
loop_
_space_group_symop_operation_xyz
x,y,z
-x,1/2+y,1/2-z
-x,-y,-z
x,1/2-y,1/2+z
loop_
_atom_site_type_symbol
_atom_site_label
_atom_site_fract_x
_atom_site_fract_y
_atom_site_fract_z
Si Si1 0.921309 0.584691 0.927567
Si Si2 0.082820 0.095498 0.911493
Si Si3 0.209274 0.557188 0.838355
Si Si4 0.588989 0.447415 0.597624
Si Si5 0.215834 0.947967 0.813889
Si Si6 0.357916 0.315211 0.162805
Si Si7 0.358067 0.329653 0.817829
Si Si8 0.575543 0.075606 0.618160
O O1 0.939970 0.586941 0.740412
O O2 0.071989 0.592989 0.881658
O O3 0.853710 0.510214 0.027375
O O4 0.802992 0.641521 0.068417
O O5 0.197254 0.156294 0.835983
O O6 0.155400 0.024090 0.902939
O O7 0.922574 0.097733 0.112283
O O8 0.319348 0.534627 0.620033
O O9 0.305877 0.600663 0.867193
O O10 0.701146 0.418764 0.620097
O O11 0.468626 0.389366 0.675771
O O12 0.514931 0.514820 0.729518
O O13 0.331189 0.955995 0.590463
O O14 0.379803 0.239715 0.209695
O O15 0.471080 0.367161 0.141138
O O16 0.375143 0.318126 0.975407
#
# Coordination Sequence:
#
# PCOD9243989 Si02
#       8
#     4   4   4   4   4   4   4   4
#     4  10  21  40  60  92 131 161 203 260 312 370
#     4  10  20  39  63  93 123 163 210 255 311 377
#     4  11  23  37  64  98 129 159 205 264 314 362
#     4  12  22  39  65  97 128 165 208 263 314 369
#     4  11  20  37  66  95 121 157 212 262 309 365
#     4  11  25  43  64  89 126 168 210 258 315 383
#     4  11  25  44  63  89 127 169 211 256 315 379
#     4  12  22  40  63  98 126 162 209 261 317 371
#
# _framework density 19.171068999999999
#
# number of rings (size 3 to 8) (size 9 to 14) (size 15 to 20)
#    0.000    1.000    6.250    1.500    1.750    0.000 
#    2.250    2.500    0.000    0.000    0.000    0.000 
#    0.000    0.000    0.000    0.000    0.000    0.000 
#
# Total GULP energy -178766.426763 kJ/mol
# GULP energy per Si atom -5586.450836 kJ/mol
# Density = 1.912743 g / cm^3
# Si number density = 19.171069 Si / 1000 Ang^3
#
#
#
# Elastic Constant Matrix: (Units=GPa)
#
#
# Indices 1 2 3 4 5 6 
#
# 1 136.0747 42.9011 35.9018 0.0000 -12.3661 0.0000
# 2 42.9011 72.7826 6.9113 0.0000 -8.8375 0.0000
# 3 35.9018 6.9113 55.5982 0.0000 -12.6806 0.0000
# 4 0.0000 0.0000 0.0000 20.2617 0.0000 1.5944
# 5 -12.3661 -8.8375 -12.6806 0.0000 27.2747 0.0000
# 6 0.0000 0.0000 0.0000 1.5944 0.0000 28.0861
#
#
#
# Elastic Compliance Matrix: (Units=1/GPa)
#
#
# Indices 1 2 3 4 5 6 
#
# 1 0.010829 -0.005774 -0.006244 0.000000 0.000136 0.000000
# 2 -0.005774 0.017413 0.002521 0.000000 0.004196 0.000000
# 3 -0.006244 0.002521 0.023765 0.000000 0.009035 0.000000
# 4 0.000000 0.000000 0.000000 0.049576 0.000000 -0.002814
# 5 0.000136 0.004196 0.009035 0.000000 0.042286 0.000000
# 6 0.000000 0.000000 0.000000 -0.002814 0.000000 0.035765
#
#
# Mechanical properties :
#
#
# Convention : Reuss Voigt Hill
#
# Bulk Modulus (GPa) = 30.29035 48.43153 39.36094
# Shear Modulus (GPa) = 23.85136 27.04058 25.44597
#
# Velocity S-wave (km/s) = 3.53105 3.75972 3.64718
# Velocity P-wave (km/s) = 5.69726 6.64568 6.18966
#
# Compressibility (1/GPa) = 0.03301381
#
# Stress axis : x y z
#
# Youngs Moduli (GPa) = 92.34525 57.42864 42.07789
#
# Poissons Ratio (x) = 0.33157 0.26273
# Poissons Ratio (y) = 0.53316 -0.10607
# Poissons Ratio (z) = 0.57660 -0.14476
#
# Static dielectric constant tensor:
#      x y z
#    x 1.712420 0.000000 0.001080 
#    y 0.000000 1.635850 0.000000 
#    z 0.001080 0.000000 1.682040 
# 
# From -- ./inp_files/14293.got.cif
#   From: 2010.05.17/outbox.cif.g08.bks.cpg/sg14_8_cif.got.tgz:14293.got - 2010.06.03 17:49:19.
