data_PCOD9243660
_publ_section_title
;
Structure prediction by ZEFSAII (Michael W. Deem and Ramdas Pophale) SiO2 
 PCOD9243660
Probable space group: P 21/C
;
_chemical_formula_sum "Si O2"
_cell_formula_units_Z 32
_cell_length_a 21.519423
_cell_length_b 10.760818
_cell_length_c 13.671833
_cell_angle_alpha 90.000000
_cell_angle_beta 150.856213
_cell_angle_gamma 90.000000
_cell_volume 1541.822180
_symmetry_space_group_name_H-M "P 21/C"
_symmetry_group_IT_number 14
_symmetry_cell_setting 'monoclinic'
loop_
_space_group_symop_operation_xyz
x,y,z
-x,1/2+y,1/2-z
-x,-y,-z
x,1/2-y,1/2+z
loop_
_atom_site_type_symbol
_atom_site_label
_atom_site_fract_x
_atom_site_fract_y
_atom_site_fract_z
Si Si1 0.060507 0.105594 0.185406
Si Si2 0.284552 0.353779 0.848350
Si Si3 0.672854 0.215367 0.363595
Si Si4 0.455377 0.527555 0.831291
Si Si5 0.164087 0.292644 0.027405
Si Si6 0.409162 0.109426 0.089947
Si Si7 0.646066 0.477603 0.665933
Si Si8 0.060875 0.824755 0.169313
O O1 0.175893 0.089827 0.266174
O O2 0.107620 0.188095 0.340986
O O3 0.026675 0.963163 0.165319
O O4 0.954583 0.166920 0.969441
O O5 0.246154 0.325194 0.682516
O O6 0.413610 0.428405 0.039756
O O7 0.312506 0.217313 0.928682
O O8 0.640579 0.358147 0.301379
O O9 0.548656 0.154043 0.245117
O O10 0.689316 0.144630 0.282566
O O11 0.797756 0.201828 0.600213
O O12 0.405818 0.414843 0.699401
O O13 0.500000 0.500000 0.000000
O O14 0.257850 0.411402 0.170378
O O15 0.039615 0.275433 0.925949
O O16 0.367126 0.988101 0.969548
O O17 0.500000 0.500000 0.500000
#
# Coordination Sequence:
#
# PCOD9243660 Si02
#       8
#     4   4   4   4   4   4   4   4
#     4  10  20  39  66  84 125 168 210 263 303 381
#     4   9  21  38  63  88 119 168 210 252 327 382
#     4  10  20  40  60  88 128 163 210 254 314 395
#     4  11  24  38  55  97 129 155 206 275 323 369
#     4  10  20  38  62  91 120 158 218 255 298 379
#     4   9  20  38  60  89 120 160 207 258 322 377
#     4   9  18  36  66  88 114 162 209 252 304 376
#     4  10  21  39  59  96 119 163 217 248 318 371
#
# _framework density 20.754662
#
# number of rings (size 3 to 8) (size 9 to 14) (size 15 to 20)
#    0.000    2.250    1.250    1.500    3.500    2.000 
#   11.250    0.000    0.000    3.750    0.000    0.000 
#    0.000    0.000    0.000    0.000    0.000    0.000 
#
# Total GULP energy -178304.847535 kJ/mol
# GULP energy per Si atom -5572.026485 kJ/mol
# Density = 2.070742 g / cm^3
# Si number density = 20.754662 Si / 1000 Ang^3
#
#
#
# Elastic Constant Matrix: (Units=GPa)
#
#
# Indices 1 2 3 4 5 6 
#
# 1 48.1341 23.4974 25.3063 0.0000 -13.7283 0.0000
# 2 23.4974 41.0330 24.4724 0.0000 1.2594 0.0000
# 3 25.3063 24.4724 150.1100 0.0000 -12.6492 0.0000
# 4 0.0000 0.0000 0.0000 19.0331 0.0000 -5.4542
# 5 -13.7283 1.2594 -12.6492 0.0000 40.9553 0.0000
# 6 0.0000 0.0000 0.0000 -5.4542 0.0000 16.0429
#
#
#
# Elastic Compliance Matrix: (Units=1/GPa)
#
#
# Indices 1 2 3 4 5 6 
#
# 1 0.034191 -0.018913 -0.001711 0.000000 0.011514 0.000000
# 2 -0.018913 0.037660 -0.003679 0.000000 -0.008634 0.000000
# 3 -0.001711 -0.003679 0.007712 0.000000 0.001922 0.000000
# 4 0.000000 0.000000 0.000000 0.058211 0.000000 0.019791
# 5 0.011514 -0.008634 0.001922 0.000000 0.029135 0.000000
# 6 0.000000 0.000000 0.000000 0.019791 0.000000 0.069061
#
#
# Mechanical properties :
#
#
# Convention : Reuss Voigt Hill
#
# Bulk Modulus (GPa) = 32.30093 42.86991 37.58542
# Shear Modulus (GPa) = 16.95520 26.27299 21.61410
#
# Velocity S-wave (km/s) = 2.86131 3.56179 3.23059
# Velocity P-wave (km/s) = 5.14909 6.13315 5.66253
#
# Compressibility (1/GPa) = 0.03095886
#
# Stress axis : x y z
#
# Youngs Moduli (GPa) = 29.24743 26.55336 129.67079
#
# Poissons Ratio (x) = 0.50219 0.22180
# Poissons Ratio (y) = 0.55315 0.47704
# Poissons Ratio (z) = 0.05003 0.09769
#
# Static dielectric constant tensor:
#      x y z
#    x 1.765600 0.000000 -0.008520 
#    y 0.000000 1.777780 0.000000 
#    z -0.008520 0.000000 1.784210 
# 
# From -- ./inp_files/35285.got.cif
#   From: 2010.05.17/outbox.cif.g08.bks.cpg/sg14_18_cif.got.tgz:35285.got - 2010.06.03 17:49:19.
