data_PCOD9243178
_publ_section_title
;
Structure prediction by ZEFSAII (Michael W. Deem and Ramdas Pophale) SiO2 
 PCOD9243178
Probable space group: P 21/C
;
_chemical_formula_sum "Si O2"
_cell_formula_units_Z 32
_cell_length_a 16.082744
_cell_length_b 8.206197
_cell_length_c 15.630489
_cell_angle_alpha 90.000000
_cell_angle_beta 146.324952
_cell_angle_gamma 90.000000
_cell_volume 1143.831769
_symmetry_space_group_name_H-M "P 21/C"
_symmetry_group_IT_number 14
_symmetry_cell_setting 'monoclinic'
loop_
_space_group_symop_operation_xyz
x,y,z
-x,1/2+y,1/2-z
-x,-y,-z
x,1/2-y,1/2+z
loop_
_atom_site_type_symbol
_atom_site_label
_atom_site_fract_x
_atom_site_fract_y
_atom_site_fract_z
Si Si1 0.127358 0.464559 0.438063
Si Si2 0.355789 0.527627 0.975531
Si Si3 0.039192 0.258725 0.130121
Si Si4 0.279307 0.035090 0.882839
Si Si5 0.535164 0.852278 0.172776
Si Si6 0.886753 0.284655 0.319684
Si Si7 0.219751 0.971200 0.548408
Si Si8 0.609239 0.360179 0.262692
O O1 0.021241 0.623567 0.356203
O O2 0.207931 0.455241 0.416733
O O3 0.260968 0.503153 0.619705
O O4 0.017327 0.315310 0.362081
O O5 0.259855 0.515728 0.982366
O O6 0.479940 0.385433 0.082097
O O7 0.464455 0.684684 0.080937
O O8 0.237211 0.573054 0.800895
O O9 0.974758 0.208291 0.983513
O O10 0.950410 0.424933 0.079339
O O11 0.213703 0.302633 0.283782
O O12 0.207097 0.879151 0.773747
O O13 0.451812 0.992375 0.046995
O O14 0.710325 0.883132 0.336507
O O15 0.476233 0.872370 0.219724
O O16 0.308002 0.811995 0.660500
#
# Coordination Sequence:
#
# PCOD9243178 Si02
#       8
#     4   4   4   4   4   4   4   4
#     4  10  20  37  57  78 104 141 184 225 264 315
#     4   9  17  33  53  75 102 136 175 218 262 313
#     4  11  22  36  53  80 113 143 175 221 272 320
#     4  10  20  37  57  78 104 141 184 225 264 315
#     4   8  16  30  51  75  99 128 174 224 260 302
#     4  11  22  36  53  80 113 143 175 221 272 320
#     4   9  17  33  53  75 102 136 175 218 262 313
#     4   8  16  30  51  75  99 128 174 224 260 302
#
# _framework density 27.976140999999998
#
# number of rings (size 3 to 8) (size 9 to 14) (size 15 to 20)
#    0.000    2.500    0.000    4.500    0.000    2.000 
#    0.000   11.250    0.000    0.000    0.000    0.000 
#    0.000    0.000    0.000    0.000    0.000    0.000 
#
# Total GULP energy -179267.316422 kJ/mol
# GULP energy per Si atom -5602.103638 kJ/mol
# Density = 2.791247 g / cm^3
# Si number density = 27.976141 Si / 1000 Ang^3
#
#
#
# Elastic Constant Matrix: (Units=GPa)
#
#
# Indices 1 2 3 4 5 6 
#
# 1 80.6851 2.8262 13.6187 0.0000 -20.0598 0.0000
# 2 2.8262 48.5166 12.9732 0.0000 -6.5162 0.0000
# 3 13.6187 12.9732 153.0260 0.0000 -8.1417 0.0000
# 4 0.0000 0.0000 0.0000 32.9678 0.0000 14.7620
# 5 -20.0598 -6.5162 -8.1417 0.0000 31.7713 0.0000
# 6 0.0000 0.0000 0.0000 14.7620 0.0000 15.4567
#
#
#
# Elastic Compliance Matrix: (Units=1/GPa)
#
#
# Indices 1 2 3 4 5 6 
#
# 1 0.014823 0.000615 -0.000879 0.000000 0.009260 0.000000
# 2 0.000615 0.021608 -0.001653 0.000000 0.004397 0.000000
# 3 -0.000879 -0.001653 0.006798 0.000000 0.000848 0.000000
# 4 0.000000 0.000000 0.000000 0.052996 0.000000 -0.050614
# 5 0.009260 0.004397 0.000848 0.000000 0.038441 0.000000
# 6 0.000000 0.000000 0.000000 -0.050614 0.000000 0.113036
#
#
# Mechanical properties :
#
#
# Convention : Reuss Voigt Hill
#
# Bulk Modulus (GPa) = 25.38277 37.89598 31.63937
# Shear Modulus (GPa) = 18.89168 32.89314 25.89241
#
# Velocity S-wave (km/s) = 2.60143 3.43265 3.04553
# Velocity P-wave (km/s) = 4.25628 5.41166 4.86837
#
# Compressibility (1/GPa) = 0.03939680
#
# Stress axis : x y z
#
# Youngs Moduli (GPa) = 67.46364 46.27898 147.09590
#
# Poissons Ratio (x) = -0.02847 0.12925
# Poissons Ratio (y) = -0.04150 0.24311
# Poissons Ratio (z) = 0.05928 0.07649
#
# Static dielectric constant tensor:
#      x y z
#    x 2.165390 0.000000 0.005300 
#    y 0.000000 2.235600 0.000000 
#    z 0.005300 0.000000 2.131250 
# 
# From -- ./inp_files/61168.got.cif
#   From: 2010.05.17/outbox.cif.g08.bks.cpg/sg14_31_cif.got.tgz:61168.got - 2010.06.03 17:49:19.
