data_PCOD9243920
_publ_section_title
;
Structure prediction by ZEFSAII (Michael W. Deem and Ramdas Pophale) SiO2 
 PCOD9243920
Probable space group: P 21/C
;
_chemical_formula_sum "Si O2"
_cell_formula_units_Z 32
_cell_length_a 5.207605
_cell_length_b 11.143881
_cell_length_c 23.585535
_cell_angle_alpha 90.000000
_cell_angle_beta 106.958272
_cell_angle_gamma 90.000000
_cell_volume 1309.221484
_symmetry_space_group_name_H-M "P 21/C"
_symmetry_group_IT_number 14
_symmetry_cell_setting 'monoclinic'
loop_
_space_group_symop_operation_xyz
x,y,z
-x,1/2+y,1/2-z
-x,-y,-z
x,1/2-y,1/2+z
loop_
_atom_site_type_symbol
_atom_site_label
_atom_site_fract_x
_atom_site_fract_y
_atom_site_fract_z
Si Si1 0.249756 0.150483 0.202611
Si Si2 0.627156 0.502513 0.944403
Si Si3 0.066357 0.073195 0.947961
Si Si4 0.749232 0.146823 0.085638
Si Si5 0.041249 0.798548 0.505018
Si Si6 0.027148 0.291788 0.276442
Si Si7 0.408623 0.667002 0.838879
Si Si8 0.397436 0.898345 0.170798
O O1 0.123122 0.164875 0.256901
O O2 0.403064 0.274957 0.197599
O O3 0.014204 0.142694 0.141529
O O4 0.408430 0.026353 0.205040
O O5 0.749277 0.371155 0.943152
O O6 0.459181 0.550535 0.880382
O O7 0.500000 0.500000 0.000000
O O8 0.865761 0.599947 0.963628
O O9 0.139404 0.207311 0.970615
O O10 0.787425 0.080098 0.895918
O O11 0.290183 0.992091 0.931699
O O12 0.000000 0.000000 0.000000
O O13 0.558728 0.223915 0.113059
O O14 0.808248 0.223175 0.033492
O O15 0.297695 0.355132 0.315775
O O16 0.876571 0.345445 0.210856
O O17 0.797239 0.304773 0.308453
#
# Coordination Sequence:
#
# PCOD9243920 Si02
#       8
#     4   4   4   4   4   4   4   4
#     4  10  22  42  70  96 128 181 232 282 345 419
#     4  11  22  38  60  92 137 182 225 288 346 423
#     4   9  21  44  67 103 136 180 226 288 366 420
#     4   9  18  36  67  92 131 169 229 282 332 430
#     4  10  20  39  61  94 137 175 222 280 355 410
#     4  11  25  45  68 101 136 178 233 292 341 414
#     4  11  21  41  67 100 131 188 243 276 348 422
#     4  11  25  46  71 104 140 179 233 296 353 418
#
# _framework density 24.442007
#
# number of rings (size 3 to 8) (size 9 to 14) (size 15 to 20)
#    0.000    1.750    3.750    0.000    5.250    0.000 
#    4.500    2.500    0.000    0.000    0.000    0.000 
#    0.000    0.000    0.000    0.000    0.000    0.000 
#
# Total GULP energy -178570.828903 kJ/mol
# GULP energy per Si atom -5580.338403 kJ/mol
# Density = 2.438638 g / cm^3
# Si number density = 24.442007 Si / 1000 Ang^3
#
#
#
# Elastic Constant Matrix: (Units=GPa)
#
#
# Indices 1 2 3 4 5 6 
#
# 1 70.3973 0.6937 12.7813 0.0000 -6.9586 0.0000
# 2 0.6937 80.9757 13.6800 0.0000 -10.0251 0.0000
# 3 12.7813 13.6800 85.8116 0.0000 7.4033 0.0000
# 4 0.0000 0.0000 0.0000 25.4541 0.0000 -2.2694
# 5 -6.9586 -10.0251 7.4033 0.0000 27.2616 0.0000
# 6 0.0000 0.0000 0.0000 -2.2694 0.0000 23.3756
#
#
#
# Elastic Compliance Matrix: (Units=1/GPa)
#
#
# Indices 1 2 3 4 5 6 
#
# 1 0.015209 0.000973 -0.002853 0.000000 0.005015 0.000000
# 2 0.000973 0.013561 -0.002825 0.000000 0.006002 0.000000
# 3 -0.002853 -0.002825 0.012985 0.000000 -0.005293 0.000000
# 4 0.000000 0.000000 0.000000 0.039629 0.000000 0.003847
# 5 0.005015 0.006002 -0.005293 0.000000 0.041606 0.000000
# 6 0.000000 0.000000 0.000000 0.003847 0.000000 0.043153
#
#
# Mechanical properties :
#
#
# Convention : Reuss Voigt Hill
#
# Bulk Modulus (GPa) = 30.91605 32.38827 31.65216
# Shear Modulus (GPa) = 26.83309 29.22022 28.02665
#
# Velocity S-wave (km/s) = 3.31694 3.46134 3.38991
# Velocity P-wave (km/s) = 5.22931 5.40873 5.31977
#
# Compressibility (1/GPa) = 0.03234566
#
# Stress axis : x y z
#
# Youngs Moduli (GPa) = 65.74974 73.73890 77.00982
#
# Poissons Ratio (x) = -0.07171 0.21971
# Poissons Ratio (y) = -0.06394 0.21752
# Poissons Ratio (z) = 0.18758 0.20829
#
# Static dielectric constant tensor:
#      x y z
#    x 2.002580 0.000000 -0.060990 
#    y 0.000000 1.982750 0.000000 
#    z -0.060990 0.000000 2.048480 
# 
# From -- ./inp_files/71267.got.cif
#   From: 2010.05.17/outbox.cif.g08.bks.cpg/sg14_36_cif.got.tgz:71267.got - 2010.06.03 17:49:19.
