data_PCOD9243159
_publ_section_title
;
Structure prediction by ZEFSAII (Michael W. Deem and Ramdas Pophale) SiO2 
 PCOD9243159
Probable space group: P 21/C
;
_chemical_formula_sum "Si O2"
_cell_formula_units_Z 20
_cell_length_a 8.462301
_cell_length_b 4.923685
_cell_length_c 18.417110
_cell_angle_alpha 90.000000
_cell_angle_beta 94.273666
_cell_angle_gamma 90.000000
_cell_volume 765.228205
_symmetry_space_group_name_H-M "P 21/C"
_symmetry_group_IT_number 14
_symmetry_cell_setting 'monoclinic'
loop_
_space_group_symop_operation_xyz
x,y,z
-x,1/2+y,1/2-z
-x,-y,-z
x,1/2-y,1/2+z
loop_
_atom_site_type_symbol
_atom_site_label
_atom_site_fract_x
_atom_site_fract_y
_atom_site_fract_z
Si Si1 0.422014 0.225891 0.283748
Si Si2 0.084954 0.303955 0.128971
Si Si3 0.384367 0.969771 0.582665
Si Si4 0.113214 0.166959 0.845979
Si Si5 0.248810 0.063519 0.004346
O O1 0.533085 0.483402 0.269465
O O2 0.465589 0.111750 0.365659
O O3 0.240488 0.309835 0.287227
O O4 0.261899 0.421832 0.140478
O O5 0.104015 0.193264 0.046345
O O6 0.962182 0.545730 0.135573
O O7 0.026422 0.047890 0.173038
O O8 0.297509 0.718775 0.541670
O O9 0.390012 0.220339 0.526824
O O10 0.204121 0.048772 0.919611
#
# Coordination Sequence:
#
# PCOD9243159 Si02
#       5
#     4   4   4   4   4
#     4  12  28  48  63  85 130 182 227 265 308 375
#     4  10  20  38  64 104 128 157 202 265 333 392
#     4  10  22  40  66  91 136 161 203 270 330 370
#     4  12  22  38  69  98 126 170 209 255 329 388
#     4  10  20  36  69 100 134 151 204 265 336 392
#
# _framework density 26.135995999999999
#
# number of rings (size 3 to 8) (size 9 to 14) (size 15 to 20)
#    1.200    0.000    2.000    4.800    0.000    1.600 
#    0.000    4.000    0.000    0.000    0.000    0.000 
#    0.000    0.000    0.000    0.000    0.000    0.000 
#
# Total GULP energy -112021.178884 kJ/mol
# GULP energy per Si atom -5601.058944 kJ/mol
# Density = 2.607651 g / cm^3
# Si number density = 26.135996 Si / 1000 Ang^3
#
#
#
# Elastic Constant Matrix: (Units=GPa)
#
#
# Indices 1 2 3 4 5 6 
#
# 1 65.8559 24.2780 27.3022 0.0000 -32.2670 0.0000
# 2 24.2780 170.3230 24.3664 0.0000 -13.4196 0.0000
# 3 27.3022 24.3664 107.5393 0.0000 -2.5358 0.0000
# 4 0.0000 0.0000 0.0000 16.4338 0.0000 2.2123
# 5 -32.2670 -13.4196 -2.5358 0.0000 32.3036 0.0000
# 6 0.0000 0.0000 0.0000 2.2123 0.0000 44.0824
#
#
#
# Elastic Compliance Matrix: (Units=1/GPa)
#
#
# Indices 1 2 3 4 5 6 
#
# 1 0.036074 -0.001241 -0.008055 0.000000 0.034885 0.000000
# 2 -0.001241 0.006305 -0.001083 0.000000 0.001294 0.000000
# 3 -0.008055 -0.001083 0.011410 0.000000 -0.007600 0.000000
# 4 0.000000 0.000000 0.000000 0.061264 0.000000 -0.003075
# 5 0.034885 0.001294 -0.007600 0.000000 0.065743 0.000000
# 6 0.000000 0.000000 0.000000 -0.003075 0.000000 0.022839
#
#
# Mechanical properties :
#
#
# Convention : Reuss Voigt Hill
#
# Bulk Modulus (GPa) = 30.27413 55.06794 42.67103
# Shear Modulus (GPa) = 21.24012 36.41541 28.82777
#
# Velocity S-wave (km/s) = 2.85384 3.73675 3.32473
# Velocity P-wave (km/s) = 4.74001 6.30343 5.57678
#
# Compressibility (1/GPa) = 0.03303150
#
# Stress axis : x y z
#
# Youngs Moduli (GPa) = 27.72074 158.60341 87.64214
#
# Poissons Ratio (x) = 0.19685 0.70593
# Poissons Ratio (y) = 0.03441 0.09491
# Poissons Ratio (z) = 0.22328 0.17176
#
# Static dielectric constant tensor:
#      x y z
#    x 2.078060 0.000000 -0.010340 
#    y 0.000000 1.992800 0.000000 
#    z -0.010340 0.000000 2.088510 
# 
# From -- ./inp_files/64011.got.cif
#   From: 2010.05.17/outbox.cif.g08.bks.cpg/sg14_33_cif.got.tgz:64011.got - 2010.06.03 17:49:19.
