data_PCOD9243246
_publ_section_title
;
Structure prediction by ZEFSAII (Michael W. Deem and Ramdas Pophale) SiO2 
 PCOD9243246
Probable space group: P 21/C
;
_chemical_formula_sum "Si O2"
_cell_formula_units_Z 32
_cell_length_a 21.613851
_cell_length_b 13.608645
_cell_length_c 16.159660
_cell_angle_alpha 90.000000
_cell_angle_beta 162.120243
_cell_angle_gamma 90.000000
_cell_volume 1459.306381
_symmetry_space_group_name_H-M "P 21/C"
_symmetry_group_IT_number 14
_symmetry_cell_setting 'monoclinic'
loop_
_space_group_symop_operation_xyz
x,y,z
-x,1/2+y,1/2-z
-x,-y,-z
x,1/2-y,1/2+z
loop_
_atom_site_type_symbol
_atom_site_label
_atom_site_fract_x
_atom_site_fract_y
_atom_site_fract_z
Si Si1 0.242380 0.485093 0.806423
Si Si2 0.827368 0.876350 0.435138
Si Si3 0.245471 0.012640 0.817979
Si Si4 0.777548 0.190683 0.151199
Si Si5 0.217717 0.824292 0.194500
Si Si6 0.394949 0.202160 0.413074
Si Si7 0.197415 0.378636 0.912266
Si Si8 0.410503 0.200065 0.112193
O O1 0.325105 0.589948 0.884480
O O2 0.313052 0.406465 0.828021
O O3 0.296042 0.445442 0.965770
O O4 0.000000 0.500000 0.500000
O O5 0.716134 0.942496 0.224270
O O6 0.740243 0.766399 0.319546
O O7 0.798427 0.917348 0.489624
O O8 0.057963 0.856751 0.700338
O O9 0.325463 0.090628 0.988208
O O10 0.000000 0.000000 0.500000
O O11 0.331762 0.904985 0.948664
O O12 0.637750 0.270058 0.927435
O O13 0.864623 0.246585 0.342895
O O14 0.383011 0.788422 0.340969
O O15 0.034639 0.868072 0.910145
O O16 0.381740 0.252280 0.485477
O O17 0.283692 0.268173 0.013330
#
# Coordination Sequence:
#
# PCOD9243246 Si02
#       8
#     4   4   4   4   4   4   4   4
#     4   9  19  36  57  82 116 153 195 250 309 369
#     4  10  20  39  63  89 122 162 211 262 315 377
#     4   9  20  41  65  88 121 166 210 255 310 376
#     4  11  22  39  61  90 124 165 210 263 319 378
#     4  11  21  37  58  86 122 165 207 258 319 380
#     4  10  20  37  59  85 118 158 204 258 318 382
#     4  10  20  37  59  87 121 160 208 264 316 373
#     4  10  21  38  60  89 121 159 209 264 315 377
#
# _framework density 21.928227
#
# number of rings (size 3 to 8) (size 9 to 14) (size 15 to 20)
#    0.000    2.000    0.000    5.625    0.000    2.000 
#    0.000   24.375    0.000    0.000    0.000    0.000 
#    0.000    0.000    0.000    0.000    0.000    0.000 
#
# Total GULP energy -178413.228669 kJ/mol
# GULP energy per Si atom -5575.413396 kJ/mol
# Density = 2.187832 g / cm^3
# Si number density = 21.928227 Si / 1000 Ang^3
#
#
#
# Elastic Constant Matrix: (Units=GPa)
#
#
# Indices 1 2 3 4 5 6 
#
# 1 93.6833 3.5171 4.1977 0.0000 -10.0753 0.0000
# 2 3.5171 68.3023 -6.7475 0.0000 -15.4851 0.0000
# 3 4.1977 -6.7475 54.3721 0.0000 -4.2503 0.0000
# 4 0.0000 0.0000 0.0000 29.0033 0.0000 -3.6604
# 5 -10.0753 -15.4851 -4.2503 0.0000 29.4008 0.0000
# 6 0.0000 0.0000 0.0000 -3.6604 0.0000 -32.9058
#
#
#
# Elastic Compliance Matrix: (Units=1/GPa)
#
#
# Indices 1 2 3 4 5 6 
#
# 1 0.011104 0.000252 -0.000524 0.000000 0.003862 0.000000
# 2 0.000252 0.017058 0.002838 0.000000 0.009481 0.000000
# 3 -0.000524 0.002838 0.019103 0.000000 0.004077 0.000000
# 4 0.000000 0.000000 0.000000 0.034001 0.000000 -0.003782
# 5 0.003862 0.009481 0.004077 0.000000 0.040919 0.000000
# 6 0.000000 0.000000 0.000000 -0.003782 0.000000 -0.029969
#
#
# Mechanical properties :
#
#
# Convention : Reuss Voigt Hill
#
# Bulk Modulus (GPa) = 19.08490 24.25471 21.66980
# Shear Modulus (GPa) = 47.82460 19.45902 33.64181
#
# Velocity S-wave (km/s) = 4.67514 2.98215 3.92111
# Velocity P-wave (km/s) = 6.15344 4.78984 5.51396
#
# Compressibility (1/GPa) = 0.05239746
#
# Stress axis : x y z
#
# Youngs Moduli (GPa) = 90.06064 58.62472 52.34724
#
# Poissons Ratio (x) = -0.01478 0.02743
# Poissons Ratio (y) = -0.02270 -0.14859
# Poissons Ratio (z) = 0.04720 -0.16641
#
# Static dielectric constant tensor:
#      x y z
#    x 1.826370 0.000000 0.002280 
#    y 0.000000 1.815160 0.000000 
#    z 0.002280 0.000000 1.863360 
# 
# From -- ./inp_files/50713.got.cif
#   From: 2010.05.17/outbox.cif.g08.bks.cpg/sg14_26_cif.got.tgz:50713.got - 2010.06.03 17:49:19.
