data_PCOD9243986
_publ_section_title
;
Structure prediction by ZEFSAII (Michael W. Deem and Ramdas Pophale) SiO2 
 PCOD9243986
Probable space group: P 21/C
;
_chemical_formula_sum "Si O2"
_cell_formula_units_Z 20
_cell_length_a 8.768915
_cell_length_b 17.846501
_cell_length_c 5.359449
_cell_angle_alpha 90.000000
_cell_angle_beta 63.206585
_cell_angle_gamma 90.000000
_cell_volume 748.676628
_symmetry_space_group_name_H-M "P 21/C"
_symmetry_group_IT_number 14
_symmetry_cell_setting 'monoclinic'
loop_
_space_group_symop_operation_xyz
x,y,z
-x,1/2+y,1/2-z
-x,-y,-z
x,1/2-y,1/2+z
loop_
_atom_site_type_symbol
_atom_site_label
_atom_site_fract_x
_atom_site_fract_y
_atom_site_fract_z
Si Si1 0.677296 0.780909 0.102433
Si Si2 0.333118 0.947296 0.619895
Si Si3 0.932483 0.415269 0.040885
Si Si4 0.704142 0.218450 0.153862
Si Si5 0.121269 0.089627 0.900518
O O1 0.748742 0.729065 0.271854
O O2 0.479311 0.760153 0.224621
O O3 0.706501 0.862367 0.194605
O O4 0.267042 0.923314 0.390273
O O5 0.334435 0.869531 0.772646
O O6 0.500000 0.000000 0.500000
O O7 0.185892 0.003763 0.836856
O O8 0.016861 0.386928 0.722297
O O9 0.000000 0.500000 0.000000
O O10 0.014441 0.386060 0.236213
O O11 0.790315 0.257087 0.330792
#
# Coordination Sequence:
#
# PCOD9243986 Si02
#       5
#     4   4   4   4   4
#     4  10  20  39  63  92 127 170 218 266 320 387
#     4  11  23  43  72 101 130 173 221 274 329 384
#     4  10  23  43  66  98 134 168 219 275 325 388
#     4  10  23  41  60  93 134 165 207 269 326 384
#     4  11  23  44  69  94 131 178 222 268 324 395
#
# _framework density 26.713804
#
# number of rings (size 3 to 8) (size 9 to 14) (size 15 to 20)
#    0.000    1.600    0.000    6.000    0.000    9.600 
#    0.000   22.000    0.000    0.000    0.000    0.000 
#    0.000    0.000    0.000    0.000    0.000    0.000 
#
# Total GULP energy -111732.839157 kJ/mol
# GULP energy per Si atom -5586.641958 kJ/mol
# Density = 2.665300 g / cm^3
# Si number density = 26.713804 Si / 1000 Ang^3
#
#
#
# Elastic Constant Matrix: (Units=GPa)
#
#
# Indices 1 2 3 4 5 6 
#
# 1 135.7311 70.9046 62.7166 0.0000 16.0028 0.0000
# 2 70.9046 162.0704 18.9522 0.0000 14.8795 0.0000
# 3 62.7166 18.9522 189.2385 0.0000 54.3258 0.0000
# 4 0.0000 0.0000 0.0000 21.9601 0.0000 5.5890
# 5 16.0028 14.8795 54.3258 0.0000 41.1502 0.0000
# 6 0.0000 0.0000 0.0000 5.5890 0.0000 65.3887
#
#
#
# Elastic Compliance Matrix: (Units=1/GPa)
#
#
# Indices 1 2 3 4 5 6 
#
# 1 0.011426 -0.004766 -0.004072 0.000000 0.002655 0.000000
# 2 -0.004766 0.008370 0.001736 0.000000 -0.003465 0.000000
# 3 -0.004072 0.001736 0.009960 0.000000 -0.012194 0.000000
# 4 0.000000 0.000000 0.000000 0.046550 0.000000 -0.003979
# 5 0.002655 -0.003465 -0.012194 0.000000 0.040620 0.000000
# 6 0.000000 0.000000 0.000000 -0.003979 0.000000 0.015633
#
#
# Mechanical properties :
#
#
# Convention : Reuss Voigt Hill
#
# Bulk Modulus (GPa) = 64.29667 88.02075 76.15871
# Shear Modulus (GPa) = 32.90614 47.99758 40.45186
#
# Velocity S-wave (km/s) = 3.51351 4.24339 3.89558
# Velocity P-wave (km/s) = 6.37029 7.55179 6.98606
#
# Compressibility (1/GPa) = 0.01555290
#
# Stress axis : x y z
#
# Youngs Moduli (GPa) = 87.52243 119.46730 100.39692
#
# Poissons Ratio (x) = 0.56942 0.40878
# Poissons Ratio (y) = 0.41716 -0.17429
# Poissons Ratio (z) = 0.35636 -0.20740
#
# Static dielectric constant tensor:
#      x y z
#    x 2.169610 0.000000 -0.036340 
#    y 0.000000 2.187980 0.000000 
#    z -0.036340 0.000000 2.295270 
# 
# From -- ./inp_files/1143.got.cif
#   From: 2010.05.17/outbox.cif.g08.bks.cpg/sg14_1_cif.got.tgz:1143.got - 2010.06.03 17:49:19.
