data_PCOD9243787
_publ_section_title
;
Structure prediction by ZEFSAII (Michael W. Deem and Ramdas Pophale) SiO2 
 PCOD9243787
Probable space group: P 21/C
;
_chemical_formula_sum "Si O2"
_cell_formula_units_Z 28
_cell_length_a 6.579206
_cell_length_b 20.199079
_cell_length_c 11.876187
_cell_angle_alpha 90.000000
_cell_angle_beta 123.640487
_cell_angle_gamma 90.000000
_cell_volume 1313.959460
_symmetry_space_group_name_H-M "P 21/C"
_symmetry_group_IT_number 14
_symmetry_cell_setting 'monoclinic'
loop_
_space_group_symop_operation_xyz
x,y,z
-x,1/2+y,1/2-z
-x,-y,-z
x,1/2-y,1/2+z
loop_
_atom_site_type_symbol
_atom_site_label
_atom_site_fract_x
_atom_site_fract_y
_atom_site_fract_z
Si Si1 0.604154 0.620307 0.720488
Si Si2 0.053715 0.931829 0.080778
Si Si3 0.120633 0.500000 0.250001
Si Si4 0.805527 0.823115 0.492807
Si Si5 0.663177 0.379693 0.779511
Si Si6 0.607842 0.931830 0.580779
Si Si7 0.319912 0.176886 0.007194
O O1 0.331668 0.592734 0.659508
O O2 0.780646 0.556738 0.802916
O O3 0.712535 0.675746 0.835851
O O4 0.609569 0.647372 0.593799
O O5 0.880431 0.870959 0.995781
O O6 0.958853 0.953027 0.173486
O O7 0.000000 0.000000 0.000000
O O8 0.325184 0.556739 0.302918
O O9 0.888119 0.546972 0.173487
O O10 0.611134 0.870959 0.495784
O O11 0.787101 0.750000 0.537099
O O12 0.078030 0.852628 0.593799
O O13 0.512652 0.407267 0.840491
O O14 0.540834 0.324253 0.664149
O O15 0.500000 0.000000 0.500000
#
# Coordination Sequence:
#
# PCOD9243787 Si02
#       7
#     4   4   4   4   4   4   4
#     4  11  24  45  69 100 141 178 228 293 341 422
#     4  11  22  40  69 102 134 182 225 286 346 414
#     4  10  20  38  66 102 130 168 224 276 340 406
#     4  11  27  44  66  99 136 184 233 282 355 421
#     4  11  24  45  69 100 141 178 228 293 341 422
#     4  11  22  40  69 102 134 182 225 286 346 414
#     4  11  27  44  66  99 136 184 233 282 355 421
#
# _framework density 21.309639000000001
#
# number of rings (size 3 to 8) (size 9 to 14) (size 15 to 20)
#    0.000    1.143    0.000    6.000    4.000    6.857 
#    0.000    0.000    0.000    0.000    0.000    0.000 
#    0.000    0.000    0.000    0.000    0.000    0.000 
#
# Total GULP energy -155916.669634 kJ/mol
# GULP energy per Si atom -5568.452487 kJ/mol
# Density = 2.126114 g / cm^3
# Si number density = 21.309639 Si / 1000 Ang^3
#
#
#
# Elastic Constant Matrix: (Units=GPa)
#
#
# Indices 1 2 3 4 5 6 
#
# 1 96.1764 27.9301 51.6500 0.0000 -1.1221 0.0000
# 2 27.9301 102.9331 22.9612 0.0000 -0.4686 0.0000
# 3 51.6500 22.9612 94.5810 0.0000 0.9720 0.0000
# 4 0.0000 0.0000 0.0000 24.9901 0.0000 -0.3811
# 5 -1.1221 -0.4686 0.9720 0.0000 16.5069 0.0000
# 6 0.0000 0.0000 0.0000 -0.3811 0.0000 29.0342
#
#
#
# Elastic Compliance Matrix: (Units=1/GPa)
#
#
# Indices 1 2 3 4 5 6 
#
# 1 0.015292 -0.002407 -0.007781 0.000000 0.001429 0.000000
# 2 -0.002407 0.010653 -0.001274 0.000000 0.000214 0.000000
# 3 -0.007781 -0.001274 0.015146 0.000000 -0.001457 0.000000
# 4 0.000000 0.000000 0.000000 0.040024 0.000000 0.000525
# 5 0.001429 0.000214 -0.001457 0.000000 0.060770 0.000000
# 6 0.000000 0.000000 0.000000 0.000525 0.000000 0.034449
#
#
# Mechanical properties :
#
#
# Convention : Reuss Voigt Hill
#
# Bulk Modulus (GPa) = 55.04406 55.41926 55.23166
# Shear Modulus (GPa) = 24.35282 26.84951 25.60116
#
# Velocity S-wave (km/s) = 3.38421 3.55346 3.46987
# Velocity P-wave (km/s) = 6.41539 6.54975 6.48292
#
# Compressibility (1/GPa) = 0.01816727
#
# Stress axis : x y z
#
# Youngs Moduli (GPa) = 65.39342 93.86706 66.02201
#
# Poissons Ratio (x) = 0.22595 0.51373
# Poissons Ratio (y) = 0.15741 0.08411
# Poissons Ratio (z) = 0.50884 0.11958
#
# Static dielectric constant tensor:
#      x y z
#    x 1.486800 0.000000 0.027810 
#    y 0.000000 1.793520 0.000000 
#    z 0.027810 0.000000 1.781940 
# 
# From -- ./inp_files/21828.got.cif
#   From: 2010.05.17/outbox.cif.g08.bks.cpg/sg14_11_cif.got.tgz:21828.got - 2010.06.03 17:49:19.
