data_PCOD9243290
_publ_section_title
;
Structure prediction by ZEFSAII (Michael W. Deem and Ramdas Pophale) SiO2 
 PCOD9243290
Probable space group: P 21/C
;
_chemical_formula_sum "Si O2"
_cell_formula_units_Z 32
_cell_length_a 7.964769
_cell_length_b 12.537868
_cell_length_c 16.195111
_cell_angle_alpha 90.000000
_cell_angle_beta 84.030508
_cell_angle_gamma 90.000000
_cell_volume 1608.493827
_symmetry_space_group_name_H-M "P 21/C"
_symmetry_group_IT_number 14
_symmetry_cell_setting 'monoclinic'
loop_
_space_group_symop_operation_xyz
x,y,z
-x,1/2+y,1/2-z
-x,-y,-z
x,1/2-y,1/2+z
loop_
_atom_site_type_symbol
_atom_site_label
_atom_site_fract_x
_atom_site_fract_y
_atom_site_fract_z
Si Si1 0.117907 0.969111 0.569629
Si Si2 0.821009 0.389521 0.757475
Si Si3 0.442429 0.622554 0.995143
Si Si4 0.906928 0.117507 0.919413
Si Si5 0.579902 0.230369 0.858391
Si Si6 0.041945 0.366452 0.589881
Si Si7 0.714377 0.690270 0.877994
Si Si8 0.747157 0.873469 0.197018
O O1 0.079206 0.915111 0.661075
O O2 0.244968 0.886265 0.519795
O O3 0.201520 0.081189 0.592781
O O4 0.000000 0.000000 0.500000
O O5 0.667976 0.310226 0.787989
O O6 0.754403 0.503212 0.726454
O O7 0.937695 0.344887 0.678843
O O8 0.504046 0.692811 0.068617
O O9 0.500000 0.500000 0.000000
O O10 0.517810 0.674454 0.909650
O O11 0.739593 0.166929 0.888117
O O12 0.083682 0.147368 0.864771
O O13 0.899384 0.989187 0.912918
O O14 0.928681 0.147157 0.014206
O O15 0.430546 0.153893 0.836180
O O16 0.200693 0.288403 0.580509
O O17 0.748948 0.696421 0.779799
#
# Coordination Sequence:
#
# PCOD9243290 Si02
#       8
#     4   4   4   4   4   4   4   4
#     4   9  19  37  63  92 120 160 203 262 320 377
#     4   9  21  40  60  94 128 155 217 266 307 387
#     4   9  20  39  57  90 123 151 208 258 306 377
#     4  10  23  41  62  86 121 169 220 254 313 382
#     4  11  22  40  67  88 121 175 206 257 331 374
#     4  10  21  40  60  89 127 162 212 269 304 387
#     4  10  20  37  60  87 125 162 200 258 328 368
#     4  10  22  42  60  91 133 159 205 271 310 381
#
# _framework density 19.894387999999999
#
# number of rings (size 3 to 8) (size 9 to 14) (size 15 to 20)
#    0.000    2.250    0.000    2.250    3.500    2.000 
#   11.250    8.750    0.000    0.000    0.000    0.000 
#    0.000    0.000    0.000    0.000    0.000    0.000 
#
# Total GULP energy -178331.795942 kJ/mol
# GULP energy per Si atom -5572.868623 kJ/mol
# Density = 1.984911 g / cm^3
# Si number density = 19.894388 Si / 1000 Ang^3
#
#
#
# Elastic Constant Matrix: (Units=GPa)
#
#
# Indices 1 2 3 4 5 6 
#
# 1 92.6608 39.9141 66.6414 0.0000 12.1775 0.0000
# 2 39.9141 66.6239 29.7541 0.0000 0.9394 0.0000
# 3 66.6414 29.7541 121.7511 0.0000 -12.1468 0.0000
# 4 0.0000 0.0000 0.0000 17.5747 0.0000 2.5991
# 5 12.1775 0.9394 -12.1468 0.0000 31.2629 0.0000
# 6 0.0000 0.0000 0.0000 2.5991 0.0000 32.7597
#
#
#
# Elastic Compliance Matrix: (Units=1/GPa)
#
#
# Indices 1 2 3 4 5 6 
#
# 1 0.027198 -0.009790 -0.014068 0.000000 -0.015766 0.000000
# 2 -0.009790 0.020518 0.000690 0.000000 0.003465 0.000000
# 3 -0.014068 0.000690 0.016947 0.000000 0.012043 0.000000
# 4 0.000000 0.000000 0.000000 0.057576 0.000000 -0.004568
# 5 -0.015766 0.003465 0.012043 0.000000 0.042703 0.000000
# 6 0.000000 0.000000 0.000000 -0.004568 0.000000 0.030888
#
#
# Mechanical properties :
#
#
# Convention : Reuss Voigt Hill
#
# Bulk Modulus (GPa) = 54.56252 61.51722 58.03987
# Shear Modulus (GPa) = 20.13913 25.96788 23.05351
#
# Velocity S-wave (km/s) = 3.18512 3.61679 3.40780
# Velocity P-wave (km/s) = 6.40408 6.95921 6.68741
#
# Compressibility (1/GPa) = 0.01832760
#
# Stress axis : x y z
#
# Youngs Moduli (GPa) = 36.76686 48.73880 59.00915
#
# Poissons Ratio (x) = 0.47713 0.83013
# Poissons Ratio (y) = 0.35993 -0.04071
# Poissons Ratio (z) = 0.51723 -0.03362
#
# Static dielectric constant tensor:
#      x y z
#    x 1.653390 0.000000 -0.012490 
#    y 0.000000 1.723330 0.000000 
#    z -0.012490 0.000000 1.748690 
# 
# From -- ./inp_files/40343.got.cif
#   From: 2010.05.17/outbox.cif.g08.bks.cpg/sg14_21_cif.got.tgz:40343.got - 2010.06.03 17:49:19.
