data_PCOD9243580
_publ_section_title
;
Structure prediction by ZEFSAII (Michael W. Deem and Ramdas Pophale) SiO2 
 PCOD9243580
Probable space group: P 21/C
;
_chemical_formula_sum "Si O2"
_cell_formula_units_Z 32
_cell_length_a 9.203433
_cell_length_b 10.914992
_cell_length_c 14.433883
_cell_angle_alpha 90.000000
_cell_angle_beta 67.218460
_cell_angle_gamma 90.000000
_cell_volume 1336.846999
_symmetry_space_group_name_H-M "P 21/C"
_symmetry_group_IT_number 14
_symmetry_cell_setting 'monoclinic'
loop_
_space_group_symop_operation_xyz
x,y,z
-x,1/2+y,1/2-z
-x,-y,-z
x,1/2-y,1/2+z
loop_
_atom_site_type_symbol
_atom_site_label
_atom_site_fract_x
_atom_site_fract_y
_atom_site_fract_z
Si Si1 0.562280 0.334036 0.422999
Si Si2 0.555569 0.893806 0.848213
Si Si3 0.773872 0.383286 0.881900
Si Si4 0.409409 0.021095 0.717129
Si Si5 0.244114 0.189295 0.458364
Si Si6 0.836502 0.722639 0.704765
Si Si7 0.273093 0.912339 0.395091
Si Si8 0.986946 0.896230 0.326358
O O1 0.537420 0.340921 0.540480
O O2 0.595300 0.468034 0.373873
O O3 0.703538 0.243579 0.362306
O O4 0.394332 0.277426 0.431232
O O5 0.711990 0.817335 0.782666
O O6 0.449756 0.918419 0.783254
O O7 0.637346 0.472876 0.873177
O O8 0.932013 0.462290 0.821167
O O9 0.774017 0.368010 0.992279
O O10 0.257565 0.096042 0.785310
O O11 0.551082 0.119988 0.678564
O O12 0.126328 0.234931 0.407569
O O13 0.151219 0.162230 0.575131
O O14 0.296649 0.057687 0.407198
O O15 0.977862 0.685569 0.736892
O O16 0.141874 0.893455 0.350476
#
# Coordination Sequence:
#
# PCOD9243580 Si02
#       8
#     4   4   4   4   4   4   4   4
#     4  11  21  36  62  91 125 160 194 260 319 371
#     4  11  22  36  57  94 126 157 199 250 325 370
#     4  10  20  38  60  93 117 151 206 257 306 353
#     4  11  21  35  65  95 120 153 211 265 308 362
#     4  11  19  36  63  88 123 162 202 253 316 355
#     4  11  21  39  65  90 125 162 204 262 308 365
#     4  11  21  38  62  92 122 156 204 258 305 361
#     4  10  24  39  64  91 123 168 209 250 307 372
#
# _framework density 23.936921000000002
#
# number of rings (size 3 to 8) (size 9 to 14) (size 15 to 20)
#    0.000    1.250    5.000    2.625    1.750    0.000 
#    0.000    2.500    2.750    0.750    0.000    0.000 
#    0.000    0.000    0.000    0.000    0.000    0.000 
#
# Total GULP energy -178776.699677 kJ/mol
# GULP energy per Si atom -5586.771865 kJ/mol
# Density = 2.388244 g / cm^3
# Si number density = 23.936921 Si / 1000 Ang^3
#
#
#
# Elastic Constant Matrix: (Units=GPa)
#
#
# Indices 1 2 3 4 5 6 
#
# 1 151.2526 31.6482 38.2789 0.0000 31.8443 0.0000
# 2 31.6482 88.3918 13.1811 0.0000 13.6091 0.0000
# 3 38.2789 13.1811 78.9535 0.0000 28.6055 0.0000
# 4 0.0000 0.0000 0.0000 33.6670 0.0000 16.6234
# 5 31.8443 13.6091 28.6055 0.0000 38.6157 0.0000
# 6 0.0000 0.0000 0.0000 16.6234 0.0000 10.6684
#
#
#
# Elastic Compliance Matrix: (Units=1/GPa)
#
#
# Indices 1 2 3 4 5 6 
#
# 1 0.008574 -0.002018 -0.002072 0.000000 -0.004824 0.000000
# 2 -0.002018 0.012461 -0.000156 0.000000 -0.002612 0.000000
# 3 -0.002072 -0.000156 0.017847 0.000000 -0.011457 0.000000
# 4 0.000000 0.000000 0.000000 0.128790 0.000000 -0.200680
# 5 -0.004824 -0.002612 -0.011457 0.000000 0.039282 0.000000
# 6 0.000000 0.000000 0.000000 -0.200680 0.000000 0.406434
#
#
# Mechanical properties :
#
#
# Convention : Reuss Voigt Hill
#
# Bulk Modulus (GPa) = 32.90445 53.86825 43.38635
# Shear Modulus (GPa) = 7.91126 32.28953 20.10040
#
# Velocity S-wave (km/s) = 1.81995 3.67678 2.90094
# Velocity P-wave (km/s) = 4.26526 6.37009 5.42082
#
# Compressibility (1/GPa) = 0.03039102
#
# Stress axis : x y z
#
# Youngs Moduli (GPa) = 116.63455 80.24902 56.03091
#
# Poissons Ratio (x) = 0.16195 0.11610
# Poissons Ratio (y) = 0.23538 0.00871
# Poissons Ratio (z) = 0.24167 0.01248
#
# Static dielectric constant tensor:
#      x y z
#    x 1.955550 0.000000 -0.022530 
#    y 0.000000 1.963850 0.000000 
#    z -0.022530 0.000000 1.934380 
# 
# From -- ./inp_files/40090.got.cif
#   From: 2010.05.17/outbox.cif.g08.bks.cpg/sg14_21_cif.got.tgz:40090.got - 2010.06.03 17:49:19.
