data_PCOD9243367
_publ_section_title
;
Structure prediction by ZEFSAII (Michael W. Deem and Ramdas Pophale) SiO2 
 PCOD9243367
Probable space group: P 21/C
;
_chemical_formula_sum "Si O2"
_cell_formula_units_Z 28
_cell_length_a 18.974498
_cell_length_b 15.539104
_cell_length_c 9.064999
_cell_angle_alpha 90.000000
_cell_angle_beta 32.295902
_cell_angle_gamma 90.000000
_cell_volume 1428.047365
_symmetry_space_group_name_H-M "P 21/C"
_symmetry_group_IT_number 14
_symmetry_cell_setting 'monoclinic'
loop_
_space_group_symop_operation_xyz
x,y,z
-x,1/2+y,1/2-z
-x,-y,-z
x,1/2-y,1/2+z
loop_
_atom_site_type_symbol
_atom_site_label
_atom_site_fract_x
_atom_site_fract_y
_atom_site_fract_z
Si Si1 0.310878 0.823593 0.921982
Si Si2 0.382987 0.152898 0.684570
Si Si3 0.948503 0.827319 0.251336
Si Si4 0.047093 0.516805 0.157635
Si Si5 0.771413 0.737746 0.803073
Si Si6 0.205657 0.495305 0.578295
Si Si7 0.827281 0.194148 0.535081
O O1 0.463056 0.834125 0.613603
O O2 0.245483 0.739080 0.970509
O O3 0.281619 0.824206 0.147039
O O4 0.232344 0.905370 0.995992
O O5 0.306433 0.174272 0.667957
O O6 0.328859 0.216155 0.907561
O O7 0.336607 0.059362 0.821364
O O8 0.843436 0.804640 0.566660
O O9 0.881964 0.803458 0.213422
O O10 0.974707 0.929439 0.212770
O O11 0.067753 0.761581 0.079029
O O12 0.909840 0.540699 0.321023
O O13 0.147467 0.493291 0.846195
O O14 0.104372 0.603707 0.126446
#
# Coordination Sequence:
#
# PCOD9243367 Si02
#       7
#     4   4   4   4   4   4   4
#     4  11  23  40  60  84 126 160 204 243 293 370
#     4  11  21  40  59  88 119 166 206 237 294 367
#     4  11  20  40  60  94 122 151 199 261 307 361
#     4  10  20  37  63  90 127 151 197 260 316 352
#     4  10  22  35  64  87 119 156 201 251 303 351
#     4  10  20  37  62  90 116 162 200 248 304 362
#     4  11  23  39  62  91 120 162 195 254 315 350
#
# _framework density 19.607192000000001
#
# number of rings (size 3 to 8) (size 9 to 14) (size 15 to 20)
#    0.000    1.429    2.857    3.857    2.000    0.000 
#    2.571    2.143    0.000    3.429    0.000    0.000 
#    0.000    0.000    0.000    0.000    0.000    0.000 
#
# Total GULP energy -156369.103398 kJ/mol
# GULP energy per Si atom -5584.610836 kJ/mol
# Density = 1.956257 g / cm^3
# Si number density = 19.607192 Si / 1000 Ang^3
#
#
#
# Elastic Constant Matrix: (Units=GPa)
#
#
# Indices 1 2 3 4 5 6 
#
# 1 57.1953 14.8653 10.4767 0.0000 5.9573 0.0000
# 2 14.8653 106.4545 12.0529 0.0000 -1.7113 0.0000
# 3 10.4767 12.0529 96.4445 0.0000 -1.8962 0.0000
# 4 0.0000 0.0000 0.0000 -19.6436 0.0000 -19.4297
# 5 5.9573 -1.7113 -1.8962 0.0000 24.7539 0.0000
# 6 0.0000 0.0000 0.0000 -19.4297 0.0000 20.2458
#
#
#
# Elastic Compliance Matrix: (Units=1/GPa)
#
#
# Indices 1 2 3 4 5 6 
#
# 1 0.018986 -0.002521 -0.001843 0.000000 -0.004885 0.000000
# 2 -0.002521 0.009871 -0.000936 0.000000 0.001217 0.000000
# 3 -0.001843 -0.000936 0.010709 0.000000 0.001199 0.000000
# 4 0.000000 0.000000 0.000000 -0.026116 0.000000 -0.025064
# 5 -0.004885 0.001217 0.001199 0.000000 0.041749 0.000000
# 6 0.000000 0.000000 0.000000 -0.025064 0.000000 0.025340
#
#
# Mechanical properties :
#
#
# Convention : Reuss Voigt Hill
#
# Bulk Modulus (GPa) = 34.52337 37.20935 35.86636
# Shear Modulus (GPa) = 49.60599 19.91786 34.76193
#
# Velocity S-wave (km/s) = 5.03536 3.19069 4.21517
# Velocity P-wave (km/s) = 7.17302 5.70899 6.48247
#
# Compressibility (1/GPa) = 0.02896589
#
# Stress axis : x y z
#
# Youngs Moduli (GPa) = 52.67155 101.30440 93.37561
#
# Poissons Ratio (x) = 0.25538 0.17213
# Poissons Ratio (y) = 0.13278 0.08739
# Poissons Ratio (z) = 0.09709 0.09481
#
# Static dielectric constant tensor:
#      x y z
#    x 1.662970 0.000000 0.007580 
#    y 0.000000 1.703050 0.000000 
#    z 0.007580 0.000000 1.678170 
# 
# From -- ./inp_files/13013.got.cif
#   From: 2010.05.17/outbox.cif.g08.bks.cpg/sg14_7_cif.got.tgz:13013.got - 2010.06.03 17:49:19.
