data_PCOD9243157
_publ_section_title
;
Structure prediction by ZEFSAII (Michael W. Deem and Ramdas Pophale) SiO2 
 PCOD9243157
Probable space group: P 21/C
;
_chemical_formula_sum "Si O2"
_cell_formula_units_Z 24
_cell_length_a 18.766274
_cell_length_b 11.121493
_cell_length_c 9.171771
_cell_angle_alpha 90.000000
_cell_angle_beta 31.301340
_cell_angle_gamma 90.000000
_cell_volume 994.517850
_symmetry_space_group_name_H-M "P 21/C"
_symmetry_group_IT_number 14
_symmetry_cell_setting 'monoclinic'
loop_
_space_group_symop_operation_xyz
x,y,z
-x,1/2+y,1/2-z
-x,-y,-z
x,1/2-y,1/2+z
loop_
_atom_site_type_symbol
_atom_site_label
_atom_site_fract_x
_atom_site_fract_y
_atom_site_fract_z
Si Si1 0.854955 0.954160 0.411867
Si Si2 0.570147 0.829928 0.895938
Si Si3 0.992572 0.616875 0.150731
Si Si4 0.470249 0.994007 0.299917
Si Si5 0.056387 0.687858 0.344573
Si Si6 0.320823 0.065782 0.831110
O O1 0.717315 0.885349 0.683653
O O2 0.941692 0.995527 0.400311
O O3 0.943707 0.877134 0.143467
O O4 0.829229 0.085377 0.380842
O O5 0.593387 0.690074 0.833308
O O6 0.533317 0.897489 0.810040
O O7 0.474676 0.873879 0.194361
O O8 0.991807 0.700592 0.297255
O O9 0.837822 0.596044 0.372001
O O10 0.083954 0.686545 0.873048
O O11 0.605741 0.001141 0.164364
O O12 0.345996 0.000613 0.632262
#
# Coordination Sequence:
#
# PCOD9243157 Si02
#       6
#     4   4   4   4   4   4
#     4   9  20  37  65  93 129 160 207 254 318 384
#     4  11  21  44  69  83 132 177 209 257 328 374
#     4  10  20  36  68  97 121 167 202 255 320 383
#     4  10  25  38  63 100 117 169 228 265 294 376
#     4   9  19  36  59  99 126 159 202 250 319 369
#     4  11  22  41  68  93 129 165 219 261 315 382
#
# _framework density 24.132296
#
# number of rings (size 3 to 8) (size 9 to 14) (size 15 to 20)
#    1.000    1.000    1.667    2.000    2.333    0.000 
#    0.000   10.000    3.667    0.000    0.000    0.000 
#    0.000    0.000    0.000    0.000    0.000    0.000 
#
# Total GULP energy -134126.188603 kJ/mol
# GULP energy per Si atom -5588.591192 kJ/mol
# Density = 2.407737 g / cm^3
# Si number density = 24.132296 Si / 1000 Ang^3
#
#
#
# Elastic Constant Matrix: (Units=GPa)
#
#
# Indices 1 2 3 4 5 6 
#
# 1 80.5435 36.5450 2.8325 0.0000 15.5401 0.0000
# 2 36.5450 69.7971 10.7678 0.0000 4.7292 0.0000
# 3 2.8325 10.7678 42.8620 0.0000 19.0700 0.0000
# 4 0.0000 0.0000 0.0000 37.9094 0.0000 8.7102
# 5 15.5401 4.7292 19.0700 0.0000 37.9160 0.0000
# 6 0.0000 0.0000 0.0000 8.7102 0.0000 37.0436
#
#
#
# Elastic Compliance Matrix: (Units=1/GPa)
#
#
# Indices 1 2 3 4 5 6 
#
# 1 0.018431 -0.009852 0.005245 0.000000 -0.008963 0.000000
# 2 -0.009852 0.020171 -0.006562 0.000000 0.004822 0.000000
# 3 0.005245 -0.006562 0.032497 0.000000 -0.017675 0.000000
# 4 0.000000 0.000000 0.000000 0.027885 0.000000 -0.006557
# 5 -0.008963 0.004822 -0.017675 0.000000 0.038336 0.000000
# 6 0.000000 0.000000 0.000000 -0.006557 0.000000 0.028537
#
#
# Mechanical properties :
#
#
# Convention : Reuss Voigt Hill
#
# Bulk Modulus (GPa) = 20.50839 32.61034 26.55937
# Shear Modulus (GPa) = 24.45610 32.11096 28.28353
#
# Velocity S-wave (km/s) = 3.18688 3.65173 3.42719
# Velocity P-wave (km/s) = 4.69663 5.59666 5.16628
#
# Compressibility (1/GPa) = 0.04876053
#
# Stress axis : x y z
#
# Youngs Moduli (GPa) = 54.25753 49.57572 30.77242
#
# Poissons Ratio (x) = 0.48842 -0.16139
# Poissons Ratio (y) = 0.53454 0.20192
# Poissons Ratio (z) = -0.28457 0.32531
#
# Static dielectric constant tensor:
#      x y z
#    x 1.913640 0.000000 0.036090 
#    y 0.000000 2.002410 0.000000 
#    z 0.036090 0.000000 1.907930 
# 
# From -- ./inp_files/18837.got.cif
#   From: 2010.05.17/outbox.cif.g08.bks.cpg/sg14_10_cif.got.tgz:18837.got - 2010.06.03 17:49:19.
