data_PCOD9243511
_publ_section_title
;
Structure prediction by ZEFSAII (Michael W. Deem and Ramdas Pophale) SiO2 
 PCOD9243511
Probable space group: P 21/C
;
_chemical_formula_sum "Si O2"
_cell_formula_units_Z 28
_cell_length_a 22.476396
_cell_length_b 8.938781
_cell_length_c 11.771279
_cell_angle_alpha 90.000000
_cell_angle_beta 31.954642
_cell_angle_gamma 90.000000
_cell_volume 1251.663653
_symmetry_space_group_name_H-M "P 21/C"
_symmetry_group_IT_number 14
_symmetry_cell_setting 'monoclinic'
loop_
_space_group_symop_operation_xyz
x,y,z
-x,1/2+y,1/2-z
-x,-y,-z
x,1/2-y,1/2+z
loop_
_atom_site_type_symbol
_atom_site_label
_atom_site_fract_x
_atom_site_fract_y
_atom_site_fract_z
Si Si1 0.933905 0.787366 0.902755
Si Si2 0.747954 0.667616 0.351234
Si Si3 0.650713 0.424650 0.654450
Si Si4 0.196125 0.808634 0.458480
Si Si5 0.184566 0.097606 0.585503
Si Si6 0.803491 0.439639 0.708686
Si Si7 0.396419 0.112201 0.544865
O O1 0.906883 0.697895 0.831069
O O2 0.065161 0.804296 0.704592
O O3 0.873202 0.691672 0.100056
O O4 0.869932 0.948475 0.013623
O O5 0.716584 0.507831 0.448362
O O6 0.666553 0.735371 0.386589
O O7 0.739093 0.782341 0.472711
O O8 0.672675 0.009905 0.417421
O O9 0.724465 0.295081 0.592312
O O10 0.624292 0.548080 0.795523
O O11 0.528236 0.373663 0.811342
O O12 0.232675 0.980011 0.416095
O O13 0.194221 0.727926 0.339090
O O14 0.148388 0.988497 0.748101
#
# Coordination Sequence:
#
# PCOD9243511 Si02
#       7
#     4   4   4   4   4   4   4
#     4  10  21  37  56  81 113 151 192 230 277 342
#     4  10  21  37  60  85 111 149 191 231 286 340
#     4  10  20  38  59  80 115 151 184 236 286 331
#     4  11  22  34  55  86 115 148 190 230 281 342
#     4  10  21  38  58  81 115 150 187 237 281 331
#     4   9  21  40  60  82 112 153 191 230 287 338
#     4   8  18  37  60  79 105 148 191 225 276 339
#
# _framework density 22.370227
#
# number of rings (size 3 to 8) (size 9 to 14) (size 15 to 20)
#    0.000    2.571    0.000    3.429    0.000    9.143 
#    0.000    2.857    0.000   15.429    0.000    0.000 
#    0.000    0.000    0.000    0.000    0.000    0.000 
#
# Total GULP energy -156140.144590 kJ/mol
# GULP energy per Si atom -5576.433735 kJ/mol
# Density = 2.231931 g / cm^3
# Si number density = 22.370227 Si / 1000 Ang^3
#
#
#
# Elastic Constant Matrix: (Units=GPa)
#
#
# Indices 1 2 3 4 5 6 
#
# 1 99.5727 54.5079 33.1516 0.0000 -9.4282 0.0000
# 2 54.5079 104.6523 41.1970 0.0000 -3.6711 0.0000
# 3 33.1516 41.1970 57.4967 0.0000 -23.8448 0.0000
# 4 0.0000 0.0000 0.0000 25.4905 0.0000 11.5828
# 5 -9.4282 -3.6711 -23.8448 0.0000 31.1986 0.0000
# 6 0.0000 0.0000 0.0000 11.5828 0.0000 32.9277
#
#
#
# Elastic Compliance Matrix: (Units=1/GPa)
#
#
# Indices 1 2 3 4 5 6 
#
# 1 0.014750 -0.006200 -0.003683 0.000000 0.000913 0.000000
# 2 -0.006200 0.017601 -0.013110 0.000000 -0.009822 0.000000
# 3 -0.003683 -0.013110 0.040712 0.000000 0.028460 0.000000
# 4 0.000000 0.000000 0.000000 0.046694 0.000000 -0.016425
# 5 0.000913 -0.009822 0.028460 0.000000 0.052924 0.000000
# 6 0.000000 0.000000 0.000000 -0.016425 0.000000 0.036147
#
#
# Mechanical properties :
#
#
# Convention : Reuss Voigt Hill
#
# Bulk Modulus (GPa) = 36.93301 57.71496 47.32398
# Shear Modulus (GPa) = 18.95077 26.78104 22.86591
#
# Velocity S-wave (km/s) = 2.91373 3.46377 3.20059
# Velocity P-wave (km/s) = 5.27878 6.46938 5.90417
#
# Compressibility (1/GPa) = 0.02707605
#
# Stress axis : x y z
#
# Youngs Moduli (GPa) = 67.79704 56.81452 24.56271
#
# Poissons Ratio (x) = 0.35228 0.09047
# Poissons Ratio (y) = 0.42037 0.32201
# Poissons Ratio (z) = 0.24972 0.74482
#
# Static dielectric constant tensor:
#      x y z
#    x 1.872850 0.000000 0.066090 
#    y 0.000000 1.849150 0.000000 
#    z 0.066090 0.000000 1.846230 
# 
# From -- ./inp_files/51779.got.cif
#   From: 2010.05.17/outbox.cif.g08.bks.cpg/sg14_26_cif.got.tgz:51779.got - 2010.06.03 17:49:19.
