data_PCOD9243202
_publ_section_title
;
Structure prediction by ZEFSAII (Michael W. Deem and Ramdas Pophale) SiO2 
 PCOD9243202
Probable space group: P 21/C
;
_chemical_formula_sum "Si O2"
_cell_formula_units_Z 32
_cell_length_a 23.129259
_cell_length_b 7.921639
_cell_length_c 14.118917
_cell_angle_alpha 90.000000
_cell_angle_beta 31.374941
_cell_angle_gamma 90.000000
_cell_volume 1346.829352
_symmetry_space_group_name_H-M "P 21/C"
_symmetry_group_IT_number 14
_symmetry_cell_setting 'monoclinic'
loop_
_space_group_symop_operation_xyz
x,y,z
-x,1/2+y,1/2-z
-x,-y,-z
x,1/2-y,1/2+z
loop_
_atom_site_type_symbol
_atom_site_label
_atom_site_fract_x
_atom_site_fract_y
_atom_site_fract_z
Si Si1 0.566415 0.066823 0.589464
Si Si2 0.034782 0.622236 0.838060
Si Si3 0.945926 0.989321 0.898263
Si Si4 0.201263 0.028520 0.332583
Si Si5 0.737209 0.259334 0.981236
Si Si6 0.720166 0.156206 0.216776
Si Si7 0.828752 0.627792 0.911083
Si Si8 0.342377 0.298400 0.476791
O O1 0.636402 0.204572 0.552781
O O2 0.608352 0.101331 0.424858
O O3 0.438960 0.097514 0.790901
O O4 0.606116 0.881918 0.565405
O O5 0.054138 0.512500 0.715222
O O6 0.157048 0.659621 0.707928
O O7 0.992800 0.810605 0.865474
O O8 0.922480 0.545943 0.037998
O O9 0.040533 0.124108 0.796989
O O10 0.821880 0.032486 0.103566
O O11 0.191588 0.126292 0.447753
O O12 0.237118 0.839720 0.309177
O O13 0.292570 0.111614 0.138182
O O14 0.706633 0.172331 0.123172
O O15 0.781979 0.446175 0.943759
O O16 0.758150 0.764477 0.954798
#
# Coordination Sequence:
#
# PCOD9243202 Si02
#       8
#     4   4   4   4   4   4   4   4
#     4  11  23  40  57  78 106 143 187 230 268 318
#     4   9  16  31  55  84 112 143 178 217 264 324
#     4   9  16  31  55  84 112 143 178 217 264 324
#     4  10  20  37  58  83 111 144 179 220 270 324
#     4   8  18  36  58  79 109 148 180 210 267 335
#     4  10  20  37  58  83 111 144 179 220 270 324
#     4   8  18  36  58  79 109 148 180 210 267 335
#     4  11  23  40  57  78 106 143 187 230 268 318
#
# _framework density 23.759506999999999
#
# number of rings (size 3 to 8) (size 9 to 14) (size 15 to 20)
#    0.000    2.500    0.000    3.750    0.000    2.000 
#    0.000   25.000    0.000    0.000    0.000    0.000 
#    0.000    0.000    0.000    0.000    0.000    0.000 
#
# Total GULP energy -179040.285558 kJ/mol
# GULP energy per Si atom -5595.008924 kJ/mol
# Density = 2.370543 g / cm^3
# Si number density = 23.759507 Si / 1000 Ang^3
#
#
#
# Elastic Constant Matrix: (Units=GPa)
#
#
# Indices 1 2 3 4 5 6 
#
# 1 50.9947 23.1772 16.7694 0.0000 -1.6760 0.0000
# 2 23.1772 99.0420 31.9861 0.0000 8.3702 0.0000
# 3 16.7694 31.9861 142.3596 0.0000 17.7939 0.0000
# 4 0.0000 0.0000 0.0000 44.5311 0.0000 -3.0892
# 5 -1.6760 8.3702 17.7939 0.0000 21.7747 0.0000
# 6 0.0000 0.0000 0.0000 -3.0892 0.0000 27.6063
#
#
#
# Elastic Compliance Matrix: (Units=1/GPa)
#
#
# Indices 1 2 3 4 5 6 
#
# 1 0.022843 -0.005091 -0.002240 0.000000 0.005546 0.000000
# 2 -0.005091 0.012138 -0.001666 0.000000 -0.003697 0.000000
# 3 -0.002240 -0.001666 0.008469 0.000000 -0.006453 0.000000
# 4 0.000000 0.000000 0.000000 0.022632 0.000000 0.002533
# 5 0.005546 -0.003697 -0.006453 0.000000 0.053046 0.000000
# 6 0.000000 0.000000 0.000000 0.002533 0.000000 0.036507
#
#
# Mechanical properties :
#
#
# Convention : Reuss Voigt Hill
#
# Bulk Modulus (GPa) = 39.28153 48.47353 43.87753
# Shear Modulus (GPa) = 27.45539 33.47999 30.46769
#
# Velocity S-wave (km/s) = 3.40303 3.75790 3.58486
# Velocity P-wave (km/s) = 5.65771 6.26698 5.97012
#
# Compressibility (1/GPa) = 0.02545726
#
# Stress axis : x y z
#
# Youngs Moduli (GPa) = 43.77799 82.38357 118.07556
#
# Poissons Ratio (x) = 0.41939 0.26450
# Poissons Ratio (y) = 0.22286 0.19666
# Poissons Ratio (z) = 0.09807 0.13722
#
# Static dielectric constant tensor:
#      x y z
#    x 1.929220 0.000000 0.012740 
#    y 0.000000 1.914520 0.000000 
#    z 0.012740 0.000000 1.869600 
# 
# From -- ./inp_files/51339.got.cif
#   From: 2010.05.17/outbox.cif.g08.bks.cpg/sg14_26_cif.got.tgz:51339.got - 2010.06.03 17:49:19.
