data_PCOD9243126
_publ_section_title
;
Structure prediction by ZEFSAII (Michael W. Deem and Ramdas Pophale) SiO2 
 PCOD9243126
Probable space group: P 21/C
;
_chemical_formula_sum "Si O2"
_cell_formula_units_Z 30
_cell_length_a 14.550831
_cell_length_b 7.756883
_cell_length_c 13.895080
_cell_angle_alpha 90.000000
_cell_angle_beta 134.637982
_cell_angle_gamma 90.000000
_cell_volume 1115.958064
_symmetry_space_group_name_H-M "P 21/C"
_symmetry_group_IT_number 14
_symmetry_cell_setting 'monoclinic'
loop_
_space_group_symop_operation_xyz
x,y,z
-x,1/2+y,1/2-z
-x,-y,-z
x,1/2-y,1/2+z
loop_
_atom_site_type_symbol
_atom_site_label
_atom_site_fract_x
_atom_site_fract_y
_atom_site_fract_z
Si Si1 0.729034 0.538266 0.273185
Si Si2 0.573174 0.415177 0.682822
Si Si3 0.182800 0.735074 0.534053
Si Si4 0.762648 0.912374 0.199993
Si Si5 0.853976 0.368619 0.196257
Si Si6 0.393132 0.250050 0.179256
Si Si7 0.000000 0.000000 0.500000
Si Si8 0.872832 0.733893 0.105702
O O1 0.824782 0.453711 0.423118
O O2 0.750979 0.722184 0.238783
O O3 0.746238 0.405020 0.197780
O O4 0.605638 0.585192 0.248115
O O5 0.686458 0.316723 0.825631
O O6 0.633284 0.477338 0.625712
O O7 0.545657 0.593001 0.718808
O O8 0.451716 0.293622 0.617837
O O9 0.192377 0.751667 0.426212
O O10 0.058336 0.845472 0.471686
O O11 0.816774 0.878271 0.134778
O O12 0.869242 0.007128 0.340964
O O13 0.887522 0.555619 0.174886
O O14 0.989131 0.289888 0.333548
O O15 0.241245 0.298548 0.054135
#
# Coordination Sequence:
#
# PCOD9243126 Si02
#       8
#     4   4   4   4   4   4   2   4
#     4  10  25  40  65  96 135 174 228 270 343 398
#     4  10  22  42  70  92 131 175 231 269 340 392
#     4  11  22  42  67  94 134 180 218 281 340 395
#     4   9  21  41  63 100 135 177 219 284 332 407
#     4  11  25  44  64 103 137 175 219 286 335 415
#     4  11  23  44  68  96 130 184 223 284 327 407
#     4  10  20  36  64  96 132 176 216 274 338 398
#     4  11  24  41  66  97 143 170 224 273 343 400
#
# _framework density 26.882732000000001
#
# number of rings (size 3 to 8) (size 9 to 14) (size 15 to 20)
#    0.000    1.600    2.667    0.800    3.733    1.600 
#    0.000    0.667    8.800    0.000    0.000    0.000 
#    0.000    0.000    0.000    0.000    0.000    0.000 
#
# Total GULP energy -167292.538921 kJ/mol
# GULP energy per Si atom -5576.417964 kJ/mol
# Density = 2.682155 g / cm^3
# Si number density = 26.882732 Si / 1000 Ang^3
#
#
#
# Elastic Constant Matrix: (Units=GPa)
#
#
# Indices 1 2 3 4 5 6 
#
# 1 104.3846 44.6720 -0.4139 0.0000 -13.9381 0.0000
# 2 44.6720 126.0264 0.4585 0.0000 0.6158 0.0000
# 3 -0.4139 0.4585 50.1813 0.0000 7.2630 0.0000
# 4 0.0000 0.0000 0.0000 20.7720 0.0000 -17.5702
# 5 -13.9381 0.6158 7.2630 0.0000 45.7456 0.0000
# 6 0.0000 0.0000 0.0000 -17.5702 0.0000 34.6300
#
#
#
# Elastic Compliance Matrix: (Units=1/GPa)
#
#
# Indices 1 2 3 4 5 6 
#
# 1 0.011889 -0.004231 -0.000405 0.000000 0.003744 0.000000
# 2 -0.004231 0.009441 0.000086 0.000000 -0.001430 0.000000
# 3 -0.000405 0.000086 0.020411 0.000000 -0.003365 0.000000
# 4 0.000000 0.000000 0.000000 0.084335 0.000000 0.042789
# 5 0.003744 -0.001430 -0.003365 0.000000 0.023554 0.000000
# 6 0.000000 0.000000 0.000000 0.042789 0.000000 0.050587
#
#
# Mechanical properties :
#
#
# Convention : Reuss Voigt Hill
#
# Bulk Modulus (GPa) = 30.63714 41.11395 35.87554
# Shear Modulus (GPa) = 22.70687 35.95458 29.33073
#
# Velocity S-wave (km/s) = 2.90946 3.66110 3.30671
# Velocity P-wave (km/s) = 4.76529 5.76182 5.28708
#
# Compressibility (1/GPa) = 0.03264012
#
# Stress axis : x y z
#
# Youngs Moduli (GPa) = 84.11188 105.91792 48.99402
#
# Poissons Ratio (x) = 0.44814 0.01985
# Poissons Ratio (y) = 0.35588 -0.00420
# Poissons Ratio (z) = 0.03408 -0.00909
#
# Static dielectric constant tensor:
#      x y z
#    x 2.156180 0.000000 -0.041170 
#    y 0.000000 2.165170 0.000000 
#    z -0.041170 0.000000 2.046400 
# 
# From -- ./inp_files/46591.got.cif
#   From: 2010.05.17/outbox.cif.g08.bks.cpg/sg14_24_cif.got.tgz:46591.got - 2010.06.03 17:49:19.
