data_PCOD9243748
_publ_section_title
;
Structure prediction by ZEFSAII (Michael W. Deem and Ramdas Pophale) SiO2 
 PCOD9243748
Probable space group: P 21/C
;
_chemical_formula_sum "Si O2"
_cell_formula_units_Z 22
_cell_length_a 22.289776
_cell_length_b 4.468643
_cell_length_c 8.005049
_cell_angle_alpha 90.000000
_cell_angle_beta 104.624076
_cell_angle_gamma 90.000000
_cell_volume 771.511917
_symmetry_space_group_name_H-M "P 21/C"
_symmetry_group_IT_number 14
_symmetry_cell_setting 'monoclinic'
loop_
_space_group_symop_operation_xyz
x,y,z
-x,1/2+y,1/2-z
-x,-y,-z
x,1/2-y,1/2+z
loop_
_atom_site_type_symbol
_atom_site_label
_atom_site_fract_x
_atom_site_fract_y
_atom_site_fract_z
Si Si1 0.000000 0.000000 0.500000
Si Si2 0.814409 0.442004 0.420024
Si Si3 0.455036 0.065057 0.219813
Si Si4 0.905739 0.416776 0.224497
Si Si5 0.273361 0.531688 0.368077
Si Si6 0.364731 0.038869 0.430595
O O1 0.047174 0.075378 0.369161
O O2 0.051798 0.779869 0.621348
O O3 0.859919 0.599396 0.317377
O O4 0.860058 0.275234 0.579325
O O5 0.771910 0.206803 0.288885
O O6 0.767762 0.607681 0.511846
O O7 0.503408 0.305086 0.330561
O O8 0.410862 0.912167 0.324310
O O9 0.409142 0.263596 0.077276
O O10 0.315363 0.273544 0.320984
O O11 0.322148 0.776459 0.472257
#
# Coordination Sequence:
#
# PCOD9243748 Si02
#       6
#     2   4   4   4   4   4
#     4  10  20  38  64  92 132 180 224 280 344 424
#     4   9  20  40  60  87 133 176 222 284 344 410
#     4  12  24  41  62  91 127 166 216 272 336 406
#     4   9  20  40  63  95 136 174 225 284 348 414
#     4  11  22  41  64  92 131 170 225 278 342 412
#     4  12  24  41  65  93 125 172 218 274 338 408
#
# _framework density 28.515440000000002
#
# number of rings (size 3 to 8) (size 9 to 14) (size 15 to 20)
#    0.000    1.455    0.000    5.455    0.000    2.909 
#    0.000   27.273    0.000    0.000    0.000    0.000 
#    0.000    0.000    0.000    0.000    0.000    0.000 
#
# Total GULP energy -122809.610302 kJ/mol
# GULP energy per Si atom -5582.255014 kJ/mol
# Density = 2.845054 g / cm^3
# Si number density = 28.515440 Si / 1000 Ang^3
#
#
#
# Elastic Constant Matrix: (Units=GPa)
#
#
# Indices 1 2 3 4 5 6 
#
# 1 237.3508 52.2835 57.6797 0.0000 -31.0695 0.0000
# 2 52.2835 87.2545 30.2815 0.0000 24.7399 0.0000
# 3 57.6797 30.2815 113.6556 0.0000 35.1397 0.0000
# 4 0.0000 0.0000 0.0000 50.6397 0.0000 30.5493
# 5 -31.0695 24.7399 35.1397 0.0000 68.2398 0.0000
# 6 0.0000 0.0000 0.0000 30.5493 0.0000 19.0441
#
#
#
# Elastic Compliance Matrix: (Units=1/GPa)
#
#
# Indices 1 2 3 4 5 6 
#
# 1 0.007515 -0.005008 -0.004875 0.000000 0.007748 0.000000
# 2 -0.005008 0.016659 0.000803 0.000000 -0.008733 0.000000
# 3 -0.004875 0.000803 0.014076 0.000000 -0.009759 0.000000
# 4 0.000000 0.000000 0.000000 0.611827 0.000000 -0.981453
# 5 0.007748 -0.008733 -0.009759 0.000000 0.026373 0.000000
# 6 0.000000 0.000000 0.000000 -0.981453 0.000000 1.626893
#
#
# Mechanical properties :
#
#
# Convention : Reuss Voigt Hill
#
# Bulk Modulus (GPa) = 49.77505 79.86114 64.81809
# Shear Modulus (GPa) = 2.14758 47.45250 24.80004
#
# Velocity S-wave (km/s) = 0.86877 4.08376 2.95228
# Velocity P-wave (km/s) = 4.30113 7.09248 5.86528
#
# Compressibility (1/GPa) = 0.02009039
#
# Stress axis : x y z
#
# Youngs Moduli (GPa) = 133.06329 60.02741 71.04375
#
# Poissons Ratio (x) = 0.30062 0.34634
# Poissons Ratio (y) = 0.66639 -0.05706
# Poissons Ratio (z) = 0.64869 -0.04821
#
# Static dielectric constant tensor:
#      x y z
#    x 2.111060 0.000000 -0.023010 
#    y 0.000000 2.146120 0.000000 
#    z -0.023010 0.000000 2.209920 
# 
# From -- ./inp_files/18357.got.cif
#   From: 2010.05.17/outbox.cif.g08.bks.cpg/sg14_10_cif.got.tgz:18357.got - 2010.06.03 17:49:19.
