data_PCOD9243352
_publ_section_title
;
Structure prediction by ZEFSAII (Michael W. Deem and Ramdas Pophale) SiO2 
 PCOD9243352
Probable space group: P 21/C
;
_chemical_formula_sum "Si O2"
_cell_formula_units_Z 20
_cell_length_a 10.719797
_cell_length_b 7.660338
_cell_length_c 18.090386
_cell_angle_alpha 90.000000
_cell_angle_beta 151.561950
_cell_angle_gamma 90.000000
_cell_volume 707.423149
_symmetry_space_group_name_H-M "P 21/C"
_symmetry_group_IT_number 14
_symmetry_cell_setting 'monoclinic'
loop_
_space_group_symop_operation_xyz
x,y,z
-x,1/2+y,1/2-z
-x,-y,-z
x,1/2-y,1/2+z
loop_
_atom_site_type_symbol
_atom_site_label
_atom_site_fract_x
_atom_site_fract_y
_atom_site_fract_z
Si Si1 0.873003 0.528640 0.813037
Si Si2 0.282352 0.241116 0.050368
Si Si3 0.733903 0.888143 0.719384
Si Si4 0.579946 0.032670 0.797815
Si Si5 0.632628 0.241881 0.594601
O O1 0.939377 0.728661 0.829466
O O2 0.642240 0.539300 0.753288
O O3 0.785392 0.417841 0.694904
O O4 0.093846 0.404403 0.962600
O O5 0.187405 0.055383 0.031526
O O6 0.531712 0.277564 0.235070
O O7 0.384242 0.245348 0.020989
O O8 0.625120 0.938071 0.742396
O O9 0.492146 0.798012 0.548575
O O10 0.786489 0.068766 0.702762
#
# Coordination Sequence:
#
# PCOD9243352 Si02
#       5
#     4   4   4   4   4
#     4  11  21  40  66  89 120 166 206 245 313 368
#     4  10  21  40  59  91 121 158 209 248 301 371
#     4  10  20  41  64  85 127 163 191 261 308 353
#     4  10  20  37  62  86 121 157 199 255 298 355
#     4   9  22  42  60  91 125 156 207 254 303 365
#
# _framework density 28.271622000000001
#
# number of rings (size 3 to 8) (size 9 to 14) (size 15 to 20)
#    0.000    2.000    2.000    1.200    0.000    0.000 
#   14.400    3.000    0.000    0.000    0.000    0.000 
#    0.000    0.000    0.000    0.000    0.000    0.000 
#
# Total GULP energy -111630.261835 kJ/mol
# GULP energy per Si atom -5581.513092 kJ/mol
# Density = 2.820727 g / cm^3
# Si number density = 28.271622 Si / 1000 Ang^3
#
#
#
# Elastic Constant Matrix: (Units=GPa)
#
#
# Indices 1 2 3 4 5 6 
#
# 1 105.0812 31.0522 37.5635 0.0000 -8.6261 0.0000
# 2 31.0522 153.2074 0.6665 0.0000 15.3370 0.0000
# 3 37.5635 0.6665 50.9381 0.0000 -12.0830 0.0000
# 4 0.0000 0.0000 0.0000 59.8359 0.0000 -13.2282
# 5 -8.6261 15.3370 -12.0830 0.0000 30.2619 0.0000
# 6 0.0000 0.0000 0.0000 -13.2282 0.0000 41.3653
#
#
#
# Elastic Compliance Matrix: (Units=1/GPa)
#
#
# Indices 1 2 3 4 5 6 
#
# 1 0.014089 -0.002965 -0.009987 0.000000 0.001531 0.000000
# 2 -0.002965 0.007548 0.001083 0.000000 -0.004238 0.000000
# 3 -0.009987 0.001083 0.028916 0.000000 0.008150 0.000000
# 4 0.000000 0.000000 0.000000 0.017984 0.000000 0.005751
# 5 0.001531 -0.004238 0.008150 0.000000 0.038883 0.000000
# 6 0.000000 0.000000 0.000000 0.005751 0.000000 0.026014
#
#
# Mechanical properties :
#
#
# Convention : Reuss Voigt Hill
#
# Bulk Modulus (GPa) = 37.29698 49.75457 43.52577
# Shear Modulus (GPa) = 30.10039 42.28893 36.19466
#
# Velocity S-wave (km/s) = 3.26649 3.87176 3.58194
# Velocity P-wave (km/s) = 5.23905 6.13387 5.70403
#
# Compressibility (1/GPa) = 0.02681182
#
# Stress axis : x y z
#
# Youngs Moduli (GPa) = 70.97919 132.49114 34.58311
#
# Poissons Ratio (x) = 0.39288 0.34540
# Poissons Ratio (y) = 0.21048 -0.03744
# Poissons Ratio (z) = 0.70890 -0.14344
#
# Static dielectric constant tensor:
#      x y z
#    x 2.075700 0.000000 0.124160 
#    y 0.000000 2.431840 0.000000 
#    z 0.124160 0.000000 2.426460 
# 
# From -- ./inp_files/23120.got.cif
#   From: 2010.05.17/outbox.cif.g08.bks.cpg/sg14_12_cif.got.tgz:23120.got - 2010.06.03 17:49:19.
