data_PCOD9243837
_publ_section_title
;
Structure prediction by ZEFSAII (Michael W. Deem and Ramdas Pophale) SiO2 
 PCOD9243837
Probable space group: P 21/C
;
_chemical_formula_sum "Si O2"
_cell_formula_units_Z 20
_cell_length_a 8.895601
_cell_length_b 7.825396
_cell_length_c 12.454361
_cell_angle_alpha 90.000000
_cell_angle_beta 117.434064
_cell_angle_gamma 90.000000
_cell_volume 769.470190
_symmetry_space_group_name_H-M "P 21/C"
_symmetry_group_IT_number 14
_symmetry_cell_setting 'monoclinic'
loop_
_space_group_symop_operation_xyz
x,y,z
-x,1/2+y,1/2-z
-x,-y,-z
x,1/2-y,1/2+z
loop_
_atom_site_type_symbol
_atom_site_label
_atom_site_fract_x
_atom_site_fract_y
_atom_site_fract_z
Si Si1 0.748556 0.946565 0.404525
Si Si2 0.319719 0.001239 0.995957
Si Si3 0.514754 0.653823 0.251288
Si Si4 0.000638 0.654694 0.411391
Si Si5 0.244852 0.148971 0.362515
O O1 0.772849 0.662137 0.591048
O O2 0.580869 0.829753 0.325715
O O3 0.757512 0.967899 0.534130
O O4 0.907922 0.829484 0.420493
O O5 0.197617 0.841543 0.946107
O O6 0.685141 0.110335 0.316074
O O7 0.500000 0.000000 0.000000
O O8 0.585255 0.650942 0.153257
O O9 0.630157 0.531793 0.364206
O O10 0.000000 0.500000 0.500000
O O11 0.899545 0.608725 0.270448
#
# Coordination Sequence:
#
# PCOD9243837 Si02
#       5
#     4   4   4   4   4
#     4  10  21  39  70 104 143 188 234 292 364 426
#     4  11  22  41  69 104 139 193 234 289 363 428
#     4  10  20  39  67 102 143 178 238 291 348 428
#     4  11  20  43  69  95 142 188 232 296 350 426
#     4  10  20  38  69 101 137 182 236 290 360 417
#
# _framework density 25.991909
#
# number of rings (size 3 to 8) (size 9 to 14) (size 15 to 20)
#    0.000    1.600    6.000    3.000    0.000    0.000 
#    0.000   18.000    0.000   21.600    0.000    0.000 
#    0.000    0.000    0.000    0.000    0.000    0.000 
#
# Total GULP energy -111696.331495 kJ/mol
# GULP energy per Si atom -5584.816575 kJ/mol
# Density = 2.593275 g / cm^3
# Si number density = 25.991909 Si / 1000 Ang^3
#
#
#
# Elastic Constant Matrix: (Units=GPa)
#
#
# Indices 1 2 3 4 5 6 
#
# 1 115.5068 47.0511 66.6216 0.0000 -0.1106 0.0000
# 2 47.0511 109.0345 55.5887 0.0000 12.1168 0.0000
# 3 66.6216 55.5887 188.7733 0.0000 -0.2629 0.0000
# 4 0.0000 0.0000 0.0000 50.8720 0.0000 17.3969
# 5 -0.1106 12.1168 -0.2629 0.0000 31.7254 0.0000
# 6 0.0000 0.0000 0.0000 17.3969 0.0000 35.4802
#
#
#
# Elastic Compliance Matrix: (Units=1/GPa)
#
#
# Indices 1 2 3 4 5 6 
#
# 1 0.011985 -0.003738 -0.003127 0.000000 0.001444 0.000000
# 2 -0.003738 0.012532 -0.002378 0.000000 -0.004819 0.000000
# 3 -0.003127 -0.002378 0.007103 0.000000 0.000956 0.000000
# 4 0.000000 0.000000 0.000000 0.023617 0.000000 -0.011580
# 5 0.001444 -0.004819 0.000956 0.000000 0.033374 0.000000
# 6 0.000000 0.000000 0.000000 -0.011580 0.000000 0.033863
#
#
# Mechanical properties :
#
#
# Convention : Reuss Voigt Hill
#
# Bulk Modulus (GPa) = 76.13825 83.53749 79.83787
# Shear Modulus (GPa) = 34.40255 39.88576 37.14415
#
# Velocity S-wave (km/s) = 3.64206 3.92158 3.78440
# Velocity P-wave (km/s) = 6.85877 7.26048 7.06248
#
# Compressibility (1/GPa) = 0.01313400
#
# Stress axis : x y z
#
# Youngs Moduli (GPa) = 83.43665 79.79351 140.79545
#
# Poissons Ratio (x) = 0.29827 0.44027
# Poissons Ratio (y) = 0.31189 0.33480
# Poissons Ratio (z) = 0.26091 0.18974
#
# Static dielectric constant tensor:
#      x y z
#    x 2.240830 0.000000 -0.002280 
#    y 0.000000 2.425990 0.000000 
#    z -0.002280 0.000000 2.005260 
# 
# From -- ./inp_files/23948.got.cif
#   From: 2010.05.17/outbox.cif.g08.bks.cpg/sg14_12_cif.got.tgz:23948.got - 2010.06.03 17:49:19.
