data_PCOD9243596
_publ_section_title
;
Structure prediction by ZEFSAII (Michael W. Deem and Ramdas Pophale) SiO2 
 PCOD9243596
Probable space group: P 21/C
;
_chemical_formula_sum "Si O2"
_cell_formula_units_Z 32
_cell_length_a 8.570243
_cell_length_b 12.500602
_cell_length_c 17.681667
_cell_angle_alpha 90.000000
_cell_angle_beta 117.397343
_cell_angle_gamma 90.000000
_cell_volume 1681.823347
_symmetry_space_group_name_H-M "P 21/C"
_symmetry_group_IT_number 14
_symmetry_cell_setting 'monoclinic'
loop_
_space_group_symop_operation_xyz
x,y,z
-x,1/2+y,1/2-z
-x,-y,-z
x,1/2-y,1/2+z
loop_
_atom_site_type_symbol
_atom_site_label
_atom_site_fract_x
_atom_site_fract_y
_atom_site_fract_z
Si Si1 0.804985 0.767841 0.135700
Si Si2 0.789566 0.759731 0.810638
Si Si3 0.476188 0.405480 0.185980
Si Si4 0.474842 0.904285 0.773747
Si Si5 0.647159 0.494285 0.596773
Si Si6 0.198025 0.784389 0.227269
Si Si7 0.488073 0.372322 0.012418
Si Si8 0.181950 0.735854 0.397229
O O1 0.800088 0.729475 0.222129
O O2 0.005797 0.768896 0.150660
O O3 0.744219 0.891689 0.119327
O O4 0.675820 0.688737 0.061819
O O5 0.678922 0.653514 0.804255
O O6 0.666018 0.851432 0.817407
O O7 0.986448 0.758329 0.886843
O O8 0.452694 0.530159 0.191953
O O9 0.670954 0.381232 0.263121
O O10 0.470938 0.364145 0.099514
O O11 0.439511 0.973839 0.840531
O O12 0.325386 0.814862 0.741230
O O13 0.500000 0.500000 0.500000
O O14 0.762062 0.387931 0.603360
O O15 0.166344 0.788924 0.310423
O O16 0.663264 0.304527 0.029265
O O17 0.500000 0.500000 0.000000
#
# Coordination Sequence:
#
# PCOD9243596 Si02
#       8
#     4   4   4   4   4   4   4   4
#     4  11  21  39  62  89 113 159 203 238 291 358
#     4  10  21  38  62  86 115 150 200 244 288 350
#     4  10  20  39  59  87 118 151 193 247 295 343
#     4  10  20  38  61  86 118 154 195 246 295 341
#     4  11  21  38  63  85 121 155 196 246 296 352
#     4   8  20  36  59  85 114 151 200 235 281 362
#     4  11  23  40  61  85 121 158 196 243 300 356
#     4   9  20  39  58  86 114 156 198 238 290 354
#
# _framework density 19.026969999999999
#
# number of rings (size 3 to 8) (size 9 to 14) (size 15 to 20)
#    0.000    2.000    2.500    1.500    1.750    1.000 
#    6.750    6.875    0.000    0.000    0.000    0.000 
#    0.000    0.000    0.000    0.000    0.000    0.000 
#
# Total GULP energy -178282.908994 kJ/mol
# GULP energy per Si atom -5571.340906 kJ/mol
# Density = 1.898366 g / cm^3
# Si number density = 19.026970 Si / 1000 Ang^3
#
#
#
# Elastic Constant Matrix: (Units=GPa)
#
#
# Indices 1 2 3 4 5 6 
#
# 1 136.5547 33.3534 36.9481 0.0000 31.2998 0.0000
# 2 33.3534 71.3514 14.6388 0.0000 6.0814 0.0000
# 3 36.9481 14.6388 62.4037 0.0000 21.9541 0.0000
# 4 0.0000 0.0000 0.0000 24.9212 0.0000 -10.4085
# 5 31.2998 6.0814 21.9541 0.0000 25.9671 0.0000
# 6 0.0000 0.0000 0.0000 -10.4085 0.0000 -2.8357
#
#
#
# Elastic Compliance Matrix: (Units=1/GPa)
#
#
# Indices 1 2 3 4 5 6 
#
# 1 0.011363 -0.003976 -0.001856 0.000000 -0.011196 0.000000
# 2 -0.003976 0.016126 -0.002542 0.000000 0.003166 0.000000
# 3 -0.001856 -0.002542 0.023804 0.000000 -0.017292 0.000000
# 4 0.000000 0.000000 0.000000 0.015841 0.000000 -0.058146
# 5 -0.011196 0.003166 -0.017292 0.000000 0.065884 0.000000
# 6 0.000000 0.000000 0.000000 -0.058146 0.000000 -0.139219
#
#
# Mechanical properties :
#
#
# Convention : Reuss Voigt Hill
#
# Bulk Modulus (GPa) = 28.94997 48.91005 38.93001
# Shear Modulus (GPa) = 226.63946 21.96848 124.30397
#
# Velocity S-wave (km/s) = 10.92582 3.40162 8.09149
# Velocity P-wave (km/s) = 13.20655 6.41790 10.38273
#
# Compressibility (1/GPa) = 0.03454235
#
# Stress axis : x y z
#
# Youngs Moduli (GPa) = 88.00722 62.01287 42.01058
#
# Poissons Ratio (x) = 0.24659 0.07798
# Poissons Ratio (y) = 0.34996 0.10680
# Poissons Ratio (z) = 0.16335 0.15765
#
# Static dielectric constant tensor:
#      x y z
#    x 1.690400 0.000000 -0.006810 
#    y 0.000000 1.682830 0.000000 
#    z -0.006810 0.000000 1.676240 
# 
# From -- ./inp_files/55621.got.cif
#   From: 2010.05.17/outbox.cif.g08.bks.cpg/sg14_28_cif.got.tgz:55621.got - 2010.06.03 17:49:19.
