data_PCOD9243842
_publ_section_title
;
Structure prediction by ZEFSAII (Michael W. Deem and Ramdas Pophale) SiO2 
 PCOD9243842
Probable space group: P 21/C
;
_chemical_formula_sum "Si O2"
_cell_formula_units_Z 32
_cell_length_a 5.346602
_cell_length_b 28.903014
_cell_length_c 8.891986
_cell_angle_alpha 90.000000
_cell_angle_beta 84.354667
_cell_angle_gamma 90.000000
_cell_volume 1367.439922
_symmetry_space_group_name_H-M "P 21/C"
_symmetry_group_IT_number 14
_symmetry_cell_setting 'monoclinic'
loop_
_space_group_symop_operation_xyz
x,y,z
-x,1/2+y,1/2-z
-x,-y,-z
x,1/2-y,1/2+z
loop_
_atom_site_type_symbol
_atom_site_label
_atom_site_fract_x
_atom_site_fract_y
_atom_site_fract_z
Si Si1 0.778518 0.384002 0.787573
Si Si2 0.459627 0.296009 0.787696
Si Si3 0.244931 0.750903 0.487526
Si Si4 0.603363 0.630680 0.729820
Si Si5 0.109002 0.178147 0.049868
Si Si6 0.952077 0.051340 0.071741
Si Si7 0.526114 0.553632 0.540335
Si Si8 0.071642 0.651531 0.912505
O O1 0.535379 0.350066 0.810700
O O2 0.788787 0.437175 0.730501
O O3 0.933563 0.359223 0.643639
O O4 0.909114 0.380124 0.940422
O O5 0.669105 0.269948 0.675557
O O6 0.226770 0.295854 0.688136
O O7 0.506640 0.267502 0.937438
O O8 0.080511 0.796600 0.476590
O O9 0.059755 0.710067 0.550172
O O10 0.674283 0.656313 0.568372
O O11 0.608252 0.575570 0.693250
O O12 0.331719 0.645024 0.806127
O O13 0.824028 0.642471 0.832065
O O14 0.755404 0.072832 0.963765
O O15 0.237882 0.068020 0.076959
O O16 0.000000 0.000000 0.000000
O O17 0.500000 0.500000 0.500000
#
# Coordination Sequence:
#
# PCOD9243842 Si02
#       8
#     4   4   4   4   4   4   4   4
#     4  10  23  43  63 102 130 183 226 282 344 418
#     4  10  23  38  65  87 132 172 235 279 344 394
#     4  10  24  42  56  98 131 183 228 290 339 399
#     4  12  25  44  69 104 133 185 231 289 346 418
#     4  11  24  40  73  92 128 184 252 277 332 418
#     4  10  20  38  70 102 127 168 224 279 333 406
#     4  10  21  39  70 103 129 165 227 287 340 408
#     4  11  28  42  65  96 150 179 222 286 363 405
#
# _framework density 23.401395000000001
#
# number of rings (size 3 to 8) (size 9 to 14) (size 15 to 20)
#    0.000    1.500    1.250    2.250   10.500    2.000 
#    0.000    0.000    0.000   18.000    0.000    0.000 
#    0.000    0.000    0.000    0.000    0.000    0.000 
#
# Total GULP energy -178188.557541 kJ/mol
# GULP energy per Si atom -5568.392423 kJ/mol
# Density = 2.334813 g / cm^3
# Si number density = 23.401395 Si / 1000 Ang^3
#
#
#
# Elastic Constant Matrix: (Units=GPa)
#
#
# Indices 1 2 3 4 5 6 
#
# 1 124.3016 17.9161 32.3331 0.0000 17.4178 0.0000
# 2 17.9161 79.6984 35.3483 0.0000 2.0712 0.0000
# 3 32.3331 35.3483 90.5184 0.0000 9.4786 0.0000
# 4 0.0000 0.0000 0.0000 29.2925 0.0000 -0.6882
# 5 17.4178 2.0712 9.4786 0.0000 42.6114 0.0000
# 6 0.0000 0.0000 0.0000 -0.6882 0.0000 26.9492
#
#
#
# Elastic Compliance Matrix: (Units=1/GPa)
#
#
# Indices 1 2 3 4 5 6 
#
# 1 0.009302 -0.000825 -0.002669 0.000000 -0.003169 0.000000
# 2 -0.000825 0.015264 -0.005758 0.000000 0.000876 0.000000
# 3 -0.002669 -0.005758 0.014442 0.000000 -0.001842 0.000000
# 4 0.000000 0.000000 0.000000 0.034159 0.000000 0.000872
# 5 -0.003169 0.000876 -0.001842 0.000000 0.025130 0.000000
# 6 0.000000 0.000000 0.000000 0.000872 0.000000 0.037129
#
#
# Mechanical properties :
#
#
# Convention : Reuss Voigt Hill
#
# Bulk Modulus (GPa) = 48.76884 51.74594 50.25739
# Shear Modulus (GPa) = 31.10151 33.69866 32.40008
#
# Velocity S-wave (km/s) = 3.64956 3.79889 3.72497
# Velocity P-wave (km/s) = 6.21647 6.43447 6.32641
#
# Compressibility (1/GPa) = 0.02050489
#
# Stress axis : x y z
#
# Youngs Moduli (GPa) = 107.50325 65.51497 69.24243
#
# Poissons Ratio (x) = 0.05406 0.18479
# Poissons Ratio (y) = 0.08870 0.39867
# Poissons Ratio (z) = 0.28689 0.37721
#
# Static dielectric constant tensor:
#      x y z
#    x 1.992670 0.000000 -0.018040 
#    y 0.000000 2.172860 0.000000 
#    z -0.018040 0.000000 1.886820 
# 
# From -- ./inp_files/6973.got.cif
#   From: 2010.05.17/outbox.cif.g08.bks.cpg/sg14_4_cif.got.tgz:6973.got - 2010.06.03 17:49:19.
