data_PCOD9243738
_publ_section_title
;
Structure prediction by ZEFSAII (Michael W. Deem and Ramdas Pophale) SiO2 
 PCOD9243738
Probable space group: P 21/C
;
_chemical_formula_sum "Si O2"
_cell_formula_units_Z 28
_cell_length_a 5.293672
_cell_length_b 15.764308
_cell_length_c 16.518448
_cell_angle_alpha 90.000000
_cell_angle_beta 70.112205
_cell_angle_gamma 90.000000
_cell_volume 1296.270420
_symmetry_space_group_name_H-M "P 21/C"
_symmetry_group_IT_number 14
_symmetry_cell_setting 'monoclinic'
loop_
_space_group_symop_operation_xyz
x,y,z
-x,1/2+y,1/2-z
-x,-y,-z
x,1/2-y,1/2+z
loop_
_atom_site_type_symbol
_atom_site_label
_atom_site_fract_x
_atom_site_fract_y
_atom_site_fract_z
Si Si1 0.378035 0.668704 0.064072
Si Si2 0.750193 0.910055 0.997677
Si Si3 0.275844 0.004422 0.664444
Si Si4 0.253216 0.890361 0.321148
Si Si5 0.283509 0.839061 0.142756
Si Si6 0.982566 0.727782 0.965954
Si Si7 0.078071 0.482898 0.357112
O O1 0.351529 0.574821 0.101263
O O2 0.296801 0.738401 0.140749
O O3 0.683867 0.688194 0.004648
O O4 0.165834 0.689417 0.016896
O O5 0.463992 0.868088 0.046845
O O6 0.783006 0.972276 0.071273
O O7 0.949276 0.828945 0.977315
O O8 0.815724 0.961371 0.909444
O O9 0.521907 0.070521 0.644725
O O10 0.999470 0.046146 0.662676
O O11 0.225094 0.978158 0.764052
O O12 0.378069 0.873927 0.219088
O O13 0.127260 0.803949 0.369140
O O14 0.005190 0.887532 0.159691
#
# Coordination Sequence:
#
# PCOD9243738 Si02
#       7
#     4   4   4   4   4   4   4
#     4  11  24  41  65  89 131 160 216 249 321 361
#     4  10  20  38  64  91 123 161 208 257 315 371
#     4  11  24  42  63  97 120 175 202 264 303 380
#     4  11  24  41  65  89 131 161 216 248 323 361
#     4  10  21  40  62  90 131 166 196 271 312 375
#     4  11  24  42  63  97 120 174 203 263 302 380
#     4  10  20  38  64  91 125 159 209 256 316 369
#
# _framework density 21.600429999999999
#
# number of rings (size 3 to 8) (size 9 to 14) (size 15 to 20)
#    0.000    1.429    2.857    2.143    2.000    3.429 
#    0.000    0.000    0.000    0.000    0.000    0.000 
#    0.000    0.000    0.000    0.000    0.000    0.000 
#
# Total GULP energy -156266.597825 kJ/mol
# GULP energy per Si atom -5580.949922 kJ/mol
# Density = 2.155127 g / cm^3
# Si number density = 21.600430 Si / 1000 Ang^3
#
#
#
# Elastic Constant Matrix: (Units=GPa)
#
#
# Indices 1 2 3 4 5 6 
#
# 1 101.2909 11.2270 17.6853 0.0000 -14.2472 0.0000
# 2 11.2270 61.5626 36.3639 0.0000 -8.7234 0.0000
# 3 17.6853 36.3639 60.8010 0.0000 -13.9814 0.0000
# 4 0.0000 0.0000 0.0000 32.4675 0.0000 -1.5119
# 5 -14.2472 -8.7234 -13.9814 0.0000 20.6077 0.0000
# 6 0.0000 0.0000 0.0000 -1.5119 0.0000 29.3909
#
#
#
# Elastic Compliance Matrix: (Units=1/GPa)
#
#
# Indices 1 2 3 4 5 6 
#
# 1 0.011089 -0.000122 -0.001660 0.000000 0.006488 0.000000
# 2 -0.000122 0.025123 -0.014886 0.000000 0.000450 0.000000
# 3 -0.001660 -0.014886 0.028579 0.000000 0.011940 0.000000
# 4 0.000000 0.000000 0.000000 0.030874 0.000000 0.001588
# 5 0.006488 0.000450 0.011940 0.000000 0.061303 0.000000
# 6 0.000000 0.000000 0.000000 0.001588 0.000000 0.034106
#
#
# Mechanical properties :
#
#
# Convention : Reuss Voigt Hill
#
# Bulk Modulus (GPa) = 31.79380 39.35633 35.57506
# Shear Modulus (GPa) = 21.28609 27.05176 24.16892
#
# Velocity S-wave (km/s) = 3.14259 3.54272 3.34864
# Velocity P-wave (km/s) = 5.28383 5.91559 5.60861
#
# Compressibility (1/GPa) = 0.03145268
#
# Stress axis : x y z
#
# Youngs Moduli (GPa) = 90.18300 39.80434 34.99063
#
# Poissons Ratio (x) = 0.00486 0.05810
# Poissons Ratio (y) = 0.01101 0.52089
# Poissons Ratio (z) = 0.14974 0.59254
#
# Static dielectric constant tensor:
#      x y z
#    x 1.818410 0.000000 -0.012960 
#    y 0.000000 1.801530 0.000000 
#    z -0.012960 0.000000 1.810940 
# 
# From -- ./inp_files/53232.got.cif
#   From: 2010.05.17/outbox.cif.g08.bks.cpg/sg14_27_cif.got.tgz:53232.got - 2010.06.03 17:49:19.
