data_PCOD9243006
_publ_section_title
;
Structure prediction by ZEFSAII (Michael W. Deem and Ramdas Pophale) SiO2 
 PCOD9243006
Probable space group: P 21/C
;
_chemical_formula_sum "Si O2"
_cell_formula_units_Z 24
_cell_length_a 10.384655
_cell_length_b 13.871007
_cell_length_c 8.444641
_cell_angle_alpha 90.000000
_cell_angle_beta 132.620893
_cell_angle_gamma 90.000000
_cell_volume 895.098184
_symmetry_space_group_name_H-M "P 21/C"
_symmetry_group_IT_number 14
_symmetry_cell_setting 'monoclinic'
loop_
_space_group_symop_operation_xyz
x,y,z
-x,1/2+y,1/2-z
-x,-y,-z
x,1/2-y,1/2+z
loop_
_atom_site_type_symbol
_atom_site_label
_atom_site_fract_x
_atom_site_fract_y
_atom_site_fract_z
Si Si1 0.605756 0.372092 0.813551
Si Si2 0.708142 0.002057 0.951497
Si Si3 0.065710 0.656109 0.260559
Si Si4 0.089858 0.334923 0.216474
Si Si5 0.760237 0.533057 0.125275
Si Si6 0.549891 0.711682 0.994903
O O1 0.468828 0.451958 0.638704
O O2 0.604465 0.278665 0.701514
O O3 0.509781 0.326849 0.886530
O O4 0.756295 0.442162 0.004591
O O5 0.853985 0.928509 0.140650
O O6 0.749197 0.105821 0.058453
O O7 0.720965 0.001484 0.771071
O O8 0.039221 0.765005 0.293259
O O9 0.938092 0.592911 0.266668
O O10 0.992092 0.645300 0.022861
O O11 0.272899 0.275266 0.346144
O O12 0.613562 0.614398 0.957716
#
# Coordination Sequence:
#
# PCOD9243006 Si02
#       6
#     4   4   4   4   4   4
#     4  10  20  37  59  81 109 147 188 230 277 329
#     4  10  20  37  60  84 110 147 190 230 272 328
#     4  11  21  37  59  85 112 146 188 230 274 330
#     4  10  20  36  60  83 112 152 188 220 272 341
#     4  10  20  37  58  82 111 149 186 229 277 329
#     4   9  17  34  57  79 105 147 189 219 269 343
#
# _framework density 26.8127
#
# number of rings (size 3 to 8) (size 9 to 14) (size 15 to 20)
#    0.000    2.000    0.000    8.000    0.000    0.000 
#    0.000   15.833    0.000    0.000    0.000    0.000 
#    0.000    0.000    0.000    0.000    0.000    0.000 
#
# Total GULP energy -134496.219714 kJ/mol
# GULP energy per Si atom -5604.009155 kJ/mol
# Density = 2.675167 g / cm^3
# Si number density = 26.812700 Si / 1000 Ang^3
#
#
#
# Elastic Constant Matrix: (Units=GPa)
#
#
# Indices 1 2 3 4 5 6 
#
# 1 43.1860 22.0927 -1.2255 0.0000 -4.3102 0.0000
# 2 22.0927 121.9479 36.5114 0.0000 -9.6704 0.0000
# 3 -1.2255 36.5114 103.1289 0.0000 -0.0899 0.0000
# 4 0.0000 0.0000 0.0000 73.6508 0.0000 2.4962
# 5 -4.3102 -9.6704 -0.0899 0.0000 30.9324 0.0000
# 6 0.0000 0.0000 0.0000 2.4962 0.0000 35.6910
#
#
#
# Elastic Compliance Matrix: (Units=1/GPa)
#
#
# Indices 1 2 3 4 5 6 
#
# 1 0.026084 -0.005212 0.002157 0.000000 0.002011 0.000000
# 2 -0.005212 0.010474 -0.003768 0.000000 0.002537 0.000000
# 3 0.002157 -0.003768 0.011055 0.000000 -0.000845 0.000000
# 4 0.000000 0.000000 0.000000 0.013610 0.000000 -0.000952
# 5 0.002011 0.002537 -0.000845 0.000000 0.033400 0.000000
# 6 0.000000 0.000000 0.000000 -0.000952 0.000000 0.028085
#
#
# Mechanical properties :
#
#
# Convention : Reuss Voigt Hill
#
# Bulk Modulus (GPa) = 29.43981 42.55776 35.99879
# Shear Modulus (GPa) = 33.85810 42.11377 37.98594
#
# Velocity S-wave (km/s) = 3.55739 3.96746 3.76801
# Velocity P-wave (km/s) = 5.27987 6.07407 5.69084
#
# Compressibility (1/GPa) = 0.03396761
#
# Stress axis : x y z
#
# Youngs Moduli (GPa) = 38.33796 95.47731 90.45324
#
# Poissons Ratio (x) = 0.49760 -0.19510
# Poissons Ratio (y) = 0.19981 0.34081
# Poissons Ratio (z) = -0.08269 0.35974
#
# Static dielectric constant tensor:
#      x y z
#    x 2.131960 0.000000 0.091700 
#    y 0.000000 2.037270 0.000000 
#    z 0.091700 0.000000 2.089020 
# 
# From -- ./inp_files/16325.got.cif
#   From: 2010.05.17/outbox.cif.g08.bks.cpg/sg14_9_cif.got.tgz:16325.got - 2010.06.03 17:49:19.
