data_PCOD9243616
_publ_section_title
;
Structure prediction by ZEFSAII (Michael W. Deem and Ramdas Pophale) SiO2 
 PCOD9243616
Probable space group: P 21/C
;
_chemical_formula_sum "Si O2"
_cell_formula_units_Z 24
_cell_length_a 21.154765
_cell_length_b 4.901195
_cell_length_c 13.967779
_cell_angle_alpha 90.000000
_cell_angle_beta 40.141136
_cell_angle_gamma 90.000000
_cell_volume 933.634271
_symmetry_space_group_name_H-M "P 21/C"
_symmetry_group_IT_number 14
_symmetry_cell_setting 'monoclinic'
loop_
_space_group_symop_operation_xyz
x,y,z
-x,1/2+y,1/2-z
-x,-y,-z
x,1/2-y,1/2+z
loop_
_atom_site_type_symbol
_atom_site_label
_atom_site_fract_x
_atom_site_fract_y
_atom_site_fract_z
Si Si1 0.788410 0.462243 0.849196
Si Si2 0.315103 0.244671 0.694898
Si Si3 0.062846 0.443143 0.170175
Si Si4 0.546334 0.608275 0.318179
Si Si5 0.185208 0.766363 0.874294
Si Si6 0.628963 0.104960 0.114872
O O1 0.705461 0.632521 0.887411
O O2 0.854434 0.620707 0.847335
O O3 0.853834 0.350393 0.685327
O O4 0.735244 0.219112 0.967065
O O5 0.423402 0.284424 0.611947
O O6 0.266862 0.538124 0.760058
O O7 0.246570 0.033745 0.835396
O O8 0.012762 0.162940 0.197328
O O9 0.109690 0.619234 0.030389
O O10 0.581876 0.306687 0.249237
O O11 0.437131 0.639561 0.404827
O O12 0.612011 0.804864 0.174256
#
# Coordination Sequence:
#
# PCOD9243616 Si02
#       6
#     4   4   4   4   4   4
#     4  10  26  41  67  93 126 165 210 252 320 366
#     4  10  21  39  63  91 128 165 198 256 300 365
#     4  12  27  44  68  92 122 164 206 261 320 378
#     4  10  20  38  61  94 128 169 210 251 297 357
#     4  10  24  43  64  94 124 162 201 263 307 375
#     4  10  22  37  64  91 128 168 210 253 299 367
#
# _framework density 25.705994
#
# number of rings (size 3 to 8) (size 9 to 14) (size 15 to 20)
#    1.000    0.667    0.000    4.000    4.667    2.000 
#    0.000    0.833    0.000    0.000    0.000    0.000 
#    0.000    0.000    0.000    0.000    0.000    0.000 
#
# Total GULP energy -134265.567854 kJ/mol
# GULP energy per Si atom -5594.398661 kJ/mol
# Density = 2.564749 g / cm^3
# Si number density = 25.705994 Si / 1000 Ang^3
#
#
#
# Elastic Constant Matrix: (Units=GPa)
#
#
# Indices 1 2 3 4 5 6 
#
# 1 90.9592 21.1580 23.6347 0.0000 11.0240 0.0000
# 2 21.1580 94.5128 3.0792 0.0000 1.1826 0.0000
# 3 23.6347 3.0792 56.7918 0.0000 9.0621 0.0000
# 4 0.0000 0.0000 0.0000 34.8769 0.0000 -5.8767
# 5 11.0240 1.1826 9.0621 0.0000 19.8417 0.0000
# 6 0.0000 0.0000 0.0000 -5.8767 0.0000 28.3942
#
#
#
# Elastic Compliance Matrix: (Units=1/GPa)
#
#
# Indices 1 2 3 4 5 6 
#
# 1 0.013479 -0.002802 -0.004626 0.000000 -0.005209 0.000000
# 2 -0.002802 0.011185 0.000450 0.000000 0.000684 0.000000
# 3 -0.004626 0.000450 0.020605 0.000000 -0.006867 0.000000
# 4 0.000000 0.000000 0.000000 0.029708 0.000000 0.006149
# 5 -0.005209 0.000684 -0.006867 0.000000 0.056389 0.000000
# 6 0.000000 0.000000 0.000000 0.006149 0.000000 0.036491
#
#
# Mechanical properties :
#
#
# Convention : Reuss Voigt Hill
#
# Bulk Modulus (GPa) = 31.93553 37.55640 34.74596
# Shear Modulus (GPa) = 26.00790 29.58203 27.79497
#
# Velocity S-wave (km/s) = 3.18424 3.39600 3.29183
# Velocity P-wave (km/s) = 5.09603 5.47894 5.29095
#
# Compressibility (1/GPa) = 0.03131309
#
# Stress axis : x y z
#
# Youngs Moduli (GPa) = 74.18930 89.40936 48.53229
#
# Poissons Ratio (x) = 0.25049 0.22453
# Poissons Ratio (y) = 0.20785 -0.02186
# Poissons Ratio (z) = 0.34323 -0.04026
#
# Static dielectric constant tensor:
#      x y z
#    x 2.053850 0.000000 0.053020 
#    y 0.000000 1.971550 0.000000 
#    z 0.053020 0.000000 2.082840 
# 
# From -- ./inp_files/49598.got.cif
#   From: 2010.05.17/outbox.cif.g08.bks.cpg/sg14_25_cif.got.tgz:49598.got - 2010.06.03 17:49:19.
