data_PCOD9243110
_publ_section_title
;
Structure prediction by ZEFSAII (Michael W. Deem and Ramdas Pophale) SiO2 
 PCOD9243110
Probable space group: P 21/C
;
_chemical_formula_sum "Si O2"
_cell_formula_units_Z 32
_cell_length_a 5.857331
_cell_length_b 32.349007
_cell_length_c 8.729052
_cell_angle_alpha 90.000000
_cell_angle_beta 66.129612
_cell_angle_gamma 90.000000
_cell_volume 1512.495338
_symmetry_space_group_name_H-M "P 21/C"
_symmetry_group_IT_number 14
_symmetry_cell_setting 'monoclinic'
loop_
_space_group_symop_operation_xyz
x,y,z
-x,1/2+y,1/2-z
-x,-y,-z
x,1/2-y,1/2+z
loop_
_atom_site_type_symbol
_atom_site_label
_atom_site_fract_x
_atom_site_fract_y
_atom_site_fract_z
Si Si1 0.084787 0.124380 0.533355
Si Si2 0.234534 0.080560 0.761725
Si Si3 0.430083 0.860254 0.154155
Si Si4 0.715189 0.408648 0.583548
Si Si5 0.375499 0.289363 0.583355
Si Si6 0.310595 0.998546 0.902370
Si Si7 0.552860 0.797946 0.578025
Si Si8 0.089549 0.846101 0.721973
O O1 0.204365 0.085494 0.587864
O O2 0.258283 0.164452 0.494571
O O3 0.018257 0.122060 0.373272
O O4 0.835095 0.133308 0.696001
O O5 0.372495 0.122167 0.779593
O O6 0.633282 0.961186 0.216057
O O7 0.968759 0.082530 0.919694
O O8 0.466068 0.889845 0.995516
O O9 0.452760 0.814342 0.082669
O O10 0.637489 0.452446 0.674266
O O11 0.769619 0.373172 0.690404
O O12 0.353506 0.242833 0.531649
O O13 0.124090 0.316889 0.651552
O O14 0.468985 0.289667 0.733299
O O15 0.500000 0.000000 0.000000
O O16 0.000000 0.000000 0.000000
O O17 0.286897 0.814716 0.591947
#
# Coordination Sequence:
#
# PCOD9243110 Si02
#       8
#     4   4   4   4   4   4   4   4
#     4  10  25  40  62  89 129 174 214 263 332 394
#     4  10  20  38  64  96 128 168 219 270 327 388
#     4  11  20  39  65  89 124 166 216 263 321 390
#     4  10  20  37  65  95 125 173 212 272 326 396
#     4  11  26  39  64  91 121 165 218 264 330 389
#     4  10  20  36  64 105 138 168 226 285 335 398
#     4  11  26  42  60  92 126 166 211 275 324 396
#     4  11  23  44  61  90 130 173 212 267 334 399
#
# _framework density 21.157088000000002
#
# number of rings (size 3 to 8) (size 9 to 14) (size 15 to 20)
#    0.000    1.500    3.750    0.750    5.250    1.000 
#    0.000    0.625    0.000    3.000    0.000    0.000 
#    0.000    0.000    0.000    0.000    0.000    0.000 
#
# Total GULP energy -178474.505749 kJ/mol
# GULP energy per Si atom -5577.328305 kJ/mol
# Density = 2.110893 g / cm^3
# Si number density = 21.157088 Si / 1000 Ang^3
#
#
#
# Elastic Constant Matrix: (Units=GPa)
#
#
# Indices 1 2 3 4 5 6 
#
# 1 60.9359 5.4478 14.8532 0.0000 16.5849 0.0000
# 2 5.4478 64.9930 15.8785 0.0000 10.7627 0.0000
# 3 14.8532 15.8785 45.9304 0.0000 8.7056 0.0000
# 4 0.0000 0.0000 0.0000 21.5615 0.0000 5.8922
# 5 16.5849 10.7627 8.7056 0.0000 24.9193 0.0000
# 6 0.0000 0.0000 0.0000 5.8922 0.0000 19.5251
#
#
#
# Elastic Compliance Matrix: (Units=1/GPa)
#
#
# Indices 1 2 3 4 5 6 
#
# 1 0.020981 0.001576 -0.004877 0.000000 -0.012940 0.000000
# 2 0.001576 0.017687 -0.005330 0.000000 -0.006826 0.000000
# 3 -0.004877 -0.005330 0.025852 0.000000 -0.003484 0.000000
# 4 0.000000 0.000000 0.000000 0.050548 0.000000 -0.015254
# 5 -0.012940 -0.006826 -0.003484 0.000000 0.052907 0.000000
# 6 0.000000 0.000000 0.000000 -0.015254 0.000000 0.055819
#
#
# Mechanical properties :
#
#
# Convention : Reuss Voigt Hill
#
# Bulk Modulus (GPa) = 21.16109 27.13539 24.14824
# Shear Modulus (GPa) = 19.46977 22.24649 20.85813
#
# Velocity S-wave (km/s) = 3.03685 3.24619 3.14326
# Velocity P-wave (km/s) = 4.72443 5.18689 4.96105
#
# Compressibility (1/GPa) = 0.04725654
#
# Stress axis : x y z
#
# Youngs Moduli (GPa) = 47.66331 56.53950 38.68149
#
# Poissons Ratio (x) = -0.08909 0.18864
# Poissons Ratio (y) = -0.07510 0.20618
# Poissons Ratio (z) = 0.23245 0.30137
#
# Static dielectric constant tensor:
#      x y z
#    x 1.842660 0.000000 -0.011570 
#    y 0.000000 1.760770 0.000000 
#    z -0.011570 0.000000 1.774830 
# 
# From -- ./inp_files/6946.got.cif
#   From: 2010.05.17/outbox.cif.g08.bks.cpg/sg14_4_cif.got.tgz:6946.got - 2010.06.03 17:49:19.
