data_PCOD9243516
_publ_section_title
;
Structure prediction by ZEFSAII (Michael W. Deem and Ramdas Pophale) SiO2 
 PCOD9243516
Probable space group: P 21/C
;
_chemical_formula_sum "Si O2"
_cell_formula_units_Z 32
_cell_length_a 6.532288
_cell_length_b 21.358743
_cell_length_c 11.654649
_cell_angle_alpha 90.000000
_cell_angle_beta 99.892682
_cell_angle_gamma 90.000000
_cell_volume 1601.896013
_symmetry_space_group_name_H-M "P 21/C"
_symmetry_group_IT_number 14
_symmetry_cell_setting 'monoclinic'
loop_
_space_group_symop_operation_xyz
x,y,z
-x,1/2+y,1/2-z
-x,-y,-z
x,1/2-y,1/2+z
loop_
_atom_site_type_symbol
_atom_site_label
_atom_site_fract_x
_atom_site_fract_y
_atom_site_fract_z
Si Si1 0.671012 0.935149 0.126108
Si Si2 0.990275 0.701760 0.033236
Si Si3 0.711780 0.393918 0.813572
Si Si4 0.016602 0.653129 0.590698
Si Si5 0.824980 0.372221 0.150106
Si Si6 0.748052 0.068547 0.058370
Si Si7 0.395388 0.115780 0.473692
Si Si8 0.177466 0.031401 0.623442
O O1 0.663210 0.946963 0.260944
O O2 0.795904 0.872438 0.112962
O O3 0.797812 0.995940 0.090925
O O4 0.452822 0.933540 0.042322
O O5 0.151018 0.664347 0.130950
O O6 0.007996 0.775011 0.054985
O O7 0.761528 0.674035 0.034590
O O8 0.054758 0.681424 0.910736
O O9 0.696273 0.400309 0.675923
O O10 0.825031 0.456966 0.869834
O O11 0.490086 0.392774 0.856393
O O12 0.167120 0.642070 0.714552
O O13 0.084147 0.609535 0.491560
O O14 0.597873 0.376093 0.073439
O O15 0.962773 0.434388 0.137129
O O16 0.267191 0.057627 0.513369
#
# Coordination Sequence:
#
# PCOD9243516 Si02
#       8
#     4   4   4   4   4   4   4   4
#     4   9  20  38  61  95 116 145 200 243 293 354
#     4  10  24  39  54  84 119 151 201 238 280 349
#     4  10  22  37  56  89 124 152 190 243 290 343
#     4  11  22  39  63  80 116 161 188 240 297 343
#     4   9  21  39  59  86 110 151 199 239 288 349
#     4  10  21  38  62  90 120 149 192 247 295 351
#     4  10  20  38  59  85 116 156 194 240 289 345
#     4   9  18  36  62  88 119 150 192 243 292 346
#
# _framework density 19.976327000000001
#
# number of rings (size 3 to 8) (size 9 to 14) (size 15 to 20)
#    0.000    2.250    0.000    1.500    1.750    8.500 
#    0.000    2.500    0.000    0.000    0.000    0.000 
#    0.000    0.000    0.000    0.000    0.000    0.000 
#
# Total GULP energy -178685.800997 kJ/mol
# GULP energy per Si atom -5583.931281 kJ/mol
# Density = 1.993086 g / cm^3
# Si number density = 19.976327 Si / 1000 Ang^3
#
#
#
# Elastic Constant Matrix: (Units=GPa)
#
#
# Indices 1 2 3 4 5 6 
#
# 1 53.5027 12.1573 18.5423 0.0000 -4.7278 0.0000
# 2 12.1573 103.6281 1.9498 0.0000 -15.9709 0.0000
# 3 18.5423 1.9498 96.2620 0.0000 -13.7634 0.0000
# 4 0.0000 0.0000 0.0000 24.4572 0.0000 4.1161
# 5 -4.7278 -15.9709 -13.7634 0.0000 28.6139 0.0000
# 6 0.0000 0.0000 0.0000 4.1161 0.0000 12.2483
#
#
#
# Elastic Compliance Matrix: (Units=1/GPa)
#
#
# Indices 1 2 3 4 5 6 
#
# 1 0.020581 -0.002303 -0.003882 0.000000 0.000248 0.000000
# 2 -0.002303 0.010857 0.001112 0.000000 0.006214 0.000000
# 3 -0.003882 0.001112 0.011931 0.000000 0.005718 0.000000
# 4 0.000000 0.000000 0.000000 0.043339 0.000000 -0.014564
# 5 0.000248 0.006214 0.005718 0.000000 0.041208 0.000000
# 6 0.000000 0.000000 0.000000 -0.014564 0.000000 0.086538
#
#
# Mechanical properties :
#
#
# Convention : Reuss Voigt Hill
#
# Bulk Modulus (GPa) = 30.09999 35.41017 32.75508
# Shear Modulus (GPa) = 21.21556 27.78010 24.49783
#
# Velocity S-wave (km/s) = 3.26242 3.73319 3.50572
# Velocity P-wave (km/s) = 5.41219 6.02883 5.72881
#
# Compressibility (1/GPa) = 0.03322261
#
# Stress axis : x y z
#
# Youngs Moduli (GPa) = 48.58754 92.10716 83.81369
#
# Poissons Ratio (x) = 0.21215 0.32540
# Poissons Ratio (y) = 0.11191 -0.09322
# Poissons Ratio (z) = 0.18864 -0.10245
#
# Static dielectric constant tensor:
#      x y z
#    x 1.711160 0.000000 -0.000900 
#    y 0.000000 1.679470 0.000000 
#    z -0.000900 0.000000 1.723540 
# 
# From -- ./inp_files/21786.got.cif
#   From: 2010.05.17/outbox.cif.g08.bks.cpg/sg14_11_cif.got.tgz:21786.got - 2010.06.03 17:49:19.
