data_PCOD9243819
_publ_section_title
;
Structure prediction by ZEFSAII (Michael W. Deem and Ramdas Pophale) SiO2 
 PCOD9243819
Probable space group: P 21/C
;
_chemical_formula_sum "Si O2"
_cell_formula_units_Z 24
_cell_length_a 5.349648
_cell_length_b 23.810085
_cell_length_c 7.343536
_cell_angle_alpha 90.000000
_cell_angle_beta 106.149384
_cell_angle_gamma 90.000000
_cell_volume 898.476525
_symmetry_space_group_name_H-M "P 21/C"
_symmetry_group_IT_number 14
_symmetry_cell_setting 'monoclinic'
loop_
_space_group_symop_operation_xyz
x,y,z
-x,1/2+y,1/2-z
-x,-y,-z
x,1/2-y,1/2+z
loop_
_atom_site_type_symbol
_atom_site_label
_atom_site_fract_x
_atom_site_fract_y
_atom_site_fract_z
Si Si1 0.389074 0.324451 0.514531
Si Si2 0.603538 0.417418 0.045582
Si Si3 0.938785 0.178777 0.667663
Si Si4 0.230197 0.474739 0.717157
Si Si5 0.825949 0.713584 0.155883
Si Si6 0.705409 0.423060 0.656950
O O1 0.938166 0.457311 0.620120
O O2 0.647801 0.361414 0.565832
O O3 0.158374 0.349169 0.341661
O O4 0.391487 0.259672 0.449533
O O5 0.669833 0.354768 0.123772
O O6 0.707755 0.462107 0.210712
O O7 0.325509 0.438938 0.917878
O O8 0.756659 0.421673 0.884731
O O9 0.060681 0.181252 0.491438
O O10 0.946044 0.243743 0.731296
O O11 0.424347 0.452689 0.601586
O O12 0.714142 0.677792 0.298559
#
# Coordination Sequence:
#
# PCOD9243819 Si02
#       6
#     4   4   4   4   4   4
#     4   9  18  36  68  96 132 176 223 278 338 399
#     4   9  20  35  67  93 137 178 224 269 347 398
#     4   9  17  37  66 101 133 176 226 275 339 402
#     4   9  21  38  65  99 134 179 220 278 340 404
#     4   8  18  36  67  98 137 175 222 278 339 401
#     4  10  20  38  67  93 135 174 220 273 339 400
#
# _framework density 26.711886
#
# number of rings (size 3 to 8) (size 9 to 14) (size 15 to 20)
#    2.000    1.000    0.000    0.500    2.333    0.000 
#    0.000    3.333    7.333    2.000    0.000    2.333 
#    0.000    0.000    0.000    0.000    0.000    0.000 
#
# Total GULP energy -134181.606315 kJ/mol
# GULP energy per Si atom -5590.900263 kJ/mol
# Density = 2.665109 g / cm^3
# Si number density = 26.711886 Si / 1000 Ang^3
#
#
#
# Elastic Constant Matrix: (Units=GPa)
#
#
# Indices 1 2 3 4 5 6 
#
# 1 114.3607 47.9820 24.7943 0.0000 21.2137 0.0000
# 2 47.9820 128.8518 15.6673 0.0000 7.4581 0.0000
# 3 24.7943 15.6673 113.3006 0.0000 -10.6470 0.0000
# 4 0.0000 0.0000 0.0000 20.6928 0.0000 14.9766
# 5 21.2137 7.4581 -10.6470 0.0000 30.6021 0.0000
# 6 0.0000 0.0000 0.0000 14.9766 0.0000 46.6936
#
#
#
# Elastic Compliance Matrix: (Units=1/GPa)
#
#
# Indices 1 2 3 4 5 6 
#
# 1 0.012675 -0.003828 -0.003083 0.000000 -0.008926 0.000000
# 2 -0.003828 0.009221 -0.000413 0.000000 0.000263 0.000000
# 3 -0.003083 -0.000413 0.010098 0.000000 0.005751 0.000000
# 4 0.000000 0.000000 0.000000 0.062936 0.000000 -0.020186
# 5 -0.008926 0.000263 0.005751 0.000000 0.040802 0.000000
# 6 0.000000 0.000000 0.000000 -0.020186 0.000000 0.027891
#
#
# Mechanical properties :
#
#
# Convention : Reuss Voigt Hill
#
# Bulk Modulus (GPa) = 57.64931 59.26671 58.45801
# Shear Modulus (GPa) = 27.16608 37.46900 32.31754
#
# Velocity S-wave (km/s) = 3.19251 3.74934 3.48207
# Velocity P-wave (km/s) = 5.93449 6.40148 6.17241
#
# Compressibility (1/GPa) = 0.01734626
#
# Stress axis : x y z
#
# Youngs Moduli (GPa) = 78.89763 108.44338 99.02685
#
# Poissons Ratio (x) = 0.41515 0.30531
# Poissons Ratio (y) = 0.30204 0.04087
# Poissons Ratio (z) = 0.24325 0.04475
#
# Static dielectric constant tensor:
#      x y z
#    x 2.027960 0.000000 0.062790 
#    y 0.000000 2.132290 0.000000 
#    z 0.062790 0.000000 2.143250 
# 
# From -- ./inp_files/10579.got.cif
#   From: 2010.05.17/outbox.cif.g08.bks.cpg/sg14_6_cif.got.tgz:10579.got - 2010.06.03 17:49:19.
