data_PCOD9243884
_publ_section_title
;
Structure prediction by ZEFSAII (Michael W. Deem and Ramdas Pophale) SiO2 
 PCOD9243884
Probable space group: P 21/C
;
_chemical_formula_sum "Si O2"
_cell_formula_units_Z 20
_cell_length_a 8.864759
_cell_length_b 8.291278
_cell_length_c 23.521468
_cell_angle_alpha 90.000000
_cell_angle_beta 33.060709
_cell_angle_gamma 90.000000
_cell_volume 943.125247
_symmetry_space_group_name_H-M "P 21/C"
_symmetry_group_IT_number 14
_symmetry_cell_setting 'monoclinic'
loop_
_space_group_symop_operation_xyz
x,y,z
-x,1/2+y,1/2-z
-x,-y,-z
x,1/2-y,1/2+z
loop_
_atom_site_type_symbol
_atom_site_label
_atom_site_fract_x
_atom_site_fract_y
_atom_site_fract_z
Si Si1 0.783884 0.750076 0.764714
Si Si2 0.773441 0.693823 0.142573
Si Si3 0.770345 0.522360 0.874361
Si Si4 0.811966 0.344198 0.564381
Si Si5 0.769562 0.337193 0.193418
O O1 0.800595 0.703811 0.692687
O O2 0.732570 0.607501 0.825370
O O3 0.505889 0.859903 0.854383
O O4 0.057947 0.856311 0.688595
O O5 0.728126 0.511387 0.176744
O O6 0.514464 0.768797 0.191048
O O7 0.047882 0.709846 0.019640
O O8 0.980670 0.638258 0.842606
O O9 0.500000 0.500000 0.000000
O O10 0.826395 0.284882 0.624282
O O11 0.000000 0.500000 0.500000
#
# Coordination Sequence:
#
# PCOD9243884 Si02
#       5
#     4   4   4   4   4
#     4  10  23  40  61  87 121 161 204 250 304 371
#     4  10  20  39  60  87 117 155 205 257 303 358
#     4  11  24  42  60  90 129 165 203 253 312 369
#     4  11  22  39  62  88 117 155 206 256 305 361
#     4  10  22  38  61  88 118 156 201 252 305 367
#
# _framework density 21.20609
#
# number of rings (size 3 to 8) (size 9 to 14) (size 15 to 20)
#    0.000    1.600    0.000    6.600    0.000    9.600 
#    0.000    3.000    0.000    0.000    0.000    0.000 
#    0.000    0.000    0.000    0.000    0.000    0.000 
#
# Total GULP energy -111646.104846 kJ/mol
# GULP energy per Si atom -5582.305242 kJ/mol
# Density = 2.115782 g / cm^3
# Si number density = 21.206090 Si / 1000 Ang^3
#
#
#
# Elastic Constant Matrix: (Units=GPa)
#
#
# Indices 1 2 3 4 5 6 
#
# 1 53.8830 -3.7517 2.9763 0.0000 -7.1870 0.0000
# 2 -3.7517 35.8430 4.3828 0.0000 -3.8315 0.0000
# 3 2.9763 4.3828 119.4633 0.0000 -10.9784 0.0000
# 4 0.0000 0.0000 0.0000 41.1569 0.0000 0.6308
# 5 -7.1870 -3.8315 -10.9784 0.0000 30.9035 0.0000
# 6 0.0000 0.0000 0.0000 0.6308 0.0000 37.8239
#
#
#
# Elastic Compliance Matrix: (Units=1/GPa)
#
#
# Indices 1 2 3 4 5 6 
#
# 1 0.019381 0.002556 -0.000138 0.000000 0.004775 0.000000
# 2 0.002556 0.028675 -0.000759 0.000000 0.003880 0.000000
# 3 -0.000138 -0.000759 0.008674 0.000000 0.002955 0.000000
# 4 0.000000 0.000000 0.000000 0.024304 0.000000 -0.000405
# 5 0.004775 0.003880 0.002955 0.000000 0.035000 0.000000
# 6 0.000000 0.000000 0.000000 -0.000405 0.000000 0.026445
#
#
# Mechanical properties :
#
#
# Convention : Reuss Voigt Hill
#
# Bulk Modulus (GPa) = 16.65350 24.04491 20.34920
# Shear Modulus (GPa) = 31.41179 35.68230 33.54704
#
# Velocity S-wave (km/s) = 3.85289 4.10645 3.98169
# Velocity P-wave (km/s) = 5.25959 5.81784 5.54574
#
# Compressibility (1/GPa) = 0.06004745
#
# Stress axis : x y z
#
# Youngs Moduli (GPa) = 51.59633 34.87415 115.29207
#
# Poissons Ratio (x) = -0.08914 0.01589
# Poissons Ratio (y) = -0.13188 0.08752
# Poissons Ratio (z) = 0.00711 0.02647
#
# Static dielectric constant tensor:
#      x y z
#    x 1.786920 0.000000 -0.005160 
#    y 0.000000 1.798940 0.000000 
#    z -0.005160 0.000000 1.816090 
# 
# From -- ./inp_files/23075.got.cif
#   From: 2010.05.17/outbox.cif.g08.bks.cpg/sg14_12_cif.got.tgz:23075.got - 2010.06.03 17:49:19.
