data_PCOD9243863
_publ_section_title
;
Structure prediction by ZEFSAII (Michael W. Deem and Ramdas Pophale) SiO2 
 PCOD9243863
Probable space group: P 21/C
;
_chemical_formula_sum "Si O2"
_cell_formula_units_Z 28
_cell_length_a 17.450047
_cell_length_b 7.432393
_cell_length_c 25.163235
_cell_angle_alpha 90.000000
_cell_angle_beta 24.957215
_cell_angle_gamma 90.000000
_cell_volume 1377.031412
_symmetry_space_group_name_H-M "P 21/C"
_symmetry_group_IT_number 14
_symmetry_cell_setting 'monoclinic'
loop_
_space_group_symop_operation_xyz
x,y,z
-x,1/2+y,1/2-z
-x,-y,-z
x,1/2-y,1/2+z
loop_
_atom_site_type_symbol
_atom_site_label
_atom_site_fract_x
_atom_site_fract_y
_atom_site_fract_z
Si Si1 0.289125 0.273213 0.119060
Si Si2 0.378981 0.640244 0.015075
Si Si3 0.284471 0.504083 0.525669
Si Si4 0.307578 0.474515 0.258389
Si Si5 0.994223 0.598702 0.629058
Si Si6 0.605453 0.617320 0.246414
Si Si7 0.297121 0.748803 0.861604
O O1 0.476070 0.270477 0.035276
O O2 0.120804 0.255602 0.264850
O O3 0.706893 0.640242 0.433003
O O4 0.274596 0.479258 0.108405
O O5 0.500659 0.548204 0.892376
O O6 0.258211 0.798272 0.067738
O O7 0.471795 0.526731 0.374555
O O8 0.121084 0.478273 0.587163
O O9 0.154231 0.511286 0.311123
O O10 0.275603 0.274765 0.302508
O O11 0.308368 0.620618 0.303779
O O12 0.129408 0.694590 0.503379
O O13 0.709701 0.456249 0.152795
O O14 0.475441 0.716416 0.285505
#
# Coordination Sequence:
#
# PCOD9243863 Si02
#       7
#     4   4   4   4   4   4   4
#     4  10  20  39  58  85 115 152 192 236 284 336
#     4   9  20  37  64  84 109 152 198 234 279 336
#     4  10  21  38  57  84 114 150 192 238 280 340
#     4  10  20  40  60  85 121 146 189 246 278 346
#     4  10  24  37  55  90 122 150 189 236 294 337
#     4  10  21  36  62  85 106 152 199 228 287 339
#     4  11  20  39  60  86 114 152 189 239 285 343
#
# _framework density 20.333596
#
# number of rings (size 3 to 8) (size 9 to 14) (size 15 to 20)
#    0.000    2.000    1.429    1.714    2.000    0.571 
#    0.000    2.857    0.000    0.000    0.000    0.000 
#    0.000    0.000    0.000    0.000    0.000    0.000 
#
# Total GULP energy -156402.535272 kJ/mol
# GULP energy per Si atom -5585.804831 kJ/mol
# Density = 2.028732 g / cm^3
# Si number density = 20.333596 Si / 1000 Ang^3
#
#
#
# Elastic Constant Matrix: (Units=GPa)
#
#
# Indices 1 2 3 4 5 6 
#
# 1 104.6342 30.2015 20.7571 0.0000 6.9795 0.0000
# 2 30.2015 49.5291 14.8002 0.0000 3.6856 0.0000
# 3 20.7571 14.8002 23.9192 0.0000 -0.8720 0.0000
# 4 0.0000 0.0000 0.0000 7.6172 0.0000 10.1172
# 5 6.9795 3.6856 -0.8720 0.0000 21.2013 0.0000
# 6 0.0000 0.0000 0.0000 10.1172 0.0000 31.8830
#
#
#
# Elastic Compliance Matrix: (Units=1/GPa)
#
#
# Indices 1 2 3 4 5 6 
#
# 1 0.012909 -0.005164 -0.008141 0.000000 -0.003687 0.000000
# 2 -0.005164 0.027364 -0.012581 0.000000 -0.003574 0.000000
# 3 -0.008141 -0.012581 0.056920 0.000000 0.007208 0.000000
# 4 0.000000 0.000000 0.000000 0.226922 0.000000 -0.072007
# 5 -0.003687 -0.003574 0.007208 0.000000 0.049299 0.000000
# 6 0.000000 0.000000 0.000000 -0.072007 0.000000 0.054214
#
#
# Mechanical properties :
#
#
# Convention : Reuss Voigt Hill
#
# Bulk Modulus (GPa) = 22.01651 34.40001 28.20826
# Shear Modulus (GPa) = 10.11042 19.62853 14.86948
#
# Velocity S-wave (km/s) = 2.23228 3.11034 2.70715
# Velocity P-wave (km/s) = 4.18273 5.46383 4.86563
#
# Compressibility (1/GPa) = 0.04542046
#
# Stress axis : x y z
#
# Youngs Moduli (GPa) = 77.46742 36.54371 17.56867
#
# Poissons Ratio (x) = 0.18872 0.14303
# Poissons Ratio (y) = 0.40007 0.22103
# Poissons Ratio (z) = 0.63067 0.45974
#
# Static dielectric constant tensor:
#      x y z
#    x 1.753360 0.000000 0.010780 
#    y 0.000000 1.678910 0.000000 
#    z 0.010780 0.000000 1.728650 
# 
# From -- ./inp_files/80496.got.cif
#   From: 2010.05.17/outbox.cif.g08.bks.cpg/sg14_41_cif.got.tgz:80496.got - 2010.06.03 17:49:19.
