data_PCOD9243049
_publ_section_title
;
Structure prediction by ZEFSAII (Michael W. Deem and Ramdas Pophale) SiO2 
 PCOD9243049
Probable space group: P 21/C
;
_chemical_formula_sum "Si O2"
_cell_formula_units_Z 28
_cell_length_a 13.210519
_cell_length_b 5.836910
_cell_length_c 18.312107
_cell_angle_alpha 90.000000
_cell_angle_beta 110.515136
_cell_angle_gamma 90.000000
_cell_volume 1322.470239
_symmetry_space_group_name_H-M "P 21/C"
_symmetry_group_IT_number 14
_symmetry_cell_setting 'monoclinic'
loop_
_space_group_symop_operation_xyz
x,y,z
-x,1/2+y,1/2-z
-x,-y,-z
x,1/2-y,1/2+z
loop_
_atom_site_type_symbol
_atom_site_label
_atom_site_fract_x
_atom_site_fract_y
_atom_site_fract_z
Si Si1 0.995331 0.638819 0.792842
Si Si2 0.591529 0.039758 0.244829
Si Si3 0.226816 0.174106 0.227777
Si Si4 0.215000 0.009482 0.391357
Si Si5 0.642531 0.651747 0.502557
Si Si6 0.349179 0.897891 0.145418
Si Si7 0.585435 0.272874 0.593212
O O1 0.099436 0.607329 0.871232
O O2 0.986072 0.386304 0.747389
O O3 0.883213 0.680063 0.806915
O O4 0.465141 0.989020 0.205638
O O5 0.634277 0.131334 0.332853
O O6 0.609869 0.224755 0.185105
O O7 0.667392 0.830541 0.244410
O O8 0.215165 0.071827 0.305588
O O9 0.251065 0.996840 0.168882
O O10 0.246306 0.223959 0.449239
O O11 0.321221 0.856544 0.425358
O O12 0.658430 0.478735 0.439233
O O13 0.599528 0.530074 0.565492
O O14 0.537656 0.799517 0.451485
#
# Coordination Sequence:
#
# PCOD9243049 Si02
#       7
#     4   4   4   4   4   4   4
#     4  10  24  41  68 101 125 166 234 287 319 380
#     4  11  20  37  59  87 124 168 210 265 318 394
#     4  11  22  38  65  92 122 166 222 270 323 381
#     4  11  21  39  66  88 124 167 219 272 328 379
#     4  10  23  37  56  96 132 163 209 264 334 391
#     4  11  23  36  59  93 131 164 210 260 334 393
#     4  10  20  36  61  88 122 169 215 263 319 392
#
# _framework density 21.172499999999999
#
# number of rings (size 3 to 8) (size 9 to 14) (size 15 to 20)
#    0.000    1.429    4.286    1.286    4.000    1.143 
#    0.000    0.714    0.000    1.714    0.000    0.000 
#    0.000    0.000    0.000    0.000    0.000    0.000 
#
# Total GULP energy -155914.783352 kJ/mol
# GULP energy per Si atom -5568.385120 kJ/mol
# Density = 2.112431 g / cm^3
# Si number density = 21.172500 Si / 1000 Ang^3
#
#
#
# Elastic Constant Matrix: (Units=GPa)
#
#
# Indices 1 2 3 4 5 6 
#
# 1 101.0149 19.0385 25.8375 0.0000 11.9009 0.0000
# 2 19.0385 33.6475 12.6641 0.0000 0.9364 0.0000
# 3 25.8375 12.6641 63.5878 0.0000 -2.0314 0.0000
# 4 0.0000 0.0000 0.0000 23.5877 0.0000 0.6821
# 5 11.9009 0.9364 -2.0314 0.0000 25.5988 0.0000
# 6 0.0000 0.0000 0.0000 0.6821 0.0000 34.7329
#
#
#
# Elastic Compliance Matrix: (Units=1/GPa)
#
#
# Indices 1 2 3 4 5 6 
#
# 1 0.012732 -0.005422 -0.004287 0.000000 -0.006061 0.000000
# 2 -0.005422 0.034510 -0.004641 0.000000 0.000890 0.000000
# 3 -0.004287 -0.004641 0.018509 0.000000 0.003632 0.000000
# 4 0.000000 0.000000 0.000000 0.042419 0.000000 -0.000833
# 5 -0.006061 0.000890 0.003632 0.000000 0.042138 0.000000
# 6 0.000000 0.000000 0.000000 -0.000833 0.000000 0.028808
#
#
# Mechanical properties :
#
#
# Convention : Reuss Voigt Hill
#
# Bulk Modulus (GPa) = 26.99084 34.81447 30.90265
# Shear Modulus (GPa) = 22.71018 26.16456 24.43737
#
# Velocity S-wave (km/s) = 3.27865 3.51918 3.40104
# Velocity P-wave (km/s) = 5.20658 5.74385 5.48180
#
# Compressibility (1/GPa) = 0.03704960
#
# Stress axis : x y z
#
# Youngs Moduli (GPa) = 78.54215 28.97730 54.02868
#
# Poissons Ratio (x) = 0.15711 0.23163
# Poissons Ratio (y) = 0.42584 0.25077
# Poissons Ratio (z) = 0.33673 0.13450
#
# Static dielectric constant tensor:
#      x y z
#    x 1.764430 0.000000 -0.002030 
#    y 0.000000 1.938880 0.000000 
#    z -0.002030 0.000000 1.757090 
# 
# From -- ./inp_files/66328.got.cif
#   From: 2010.05.17/outbox.cif.g08.bks.cpg/sg14_34_cif.got.tgz:66328.got - 2010.06.03 17:49:19.
