data_PCOD9243552
_publ_section_title
;
Structure prediction by ZEFSAII (Michael W. Deem and Ramdas Pophale) SiO2 
 PCOD9243552
Probable space group: P 21/C
;
_chemical_formula_sum "Si O2"
_cell_formula_units_Z 28
_cell_length_a 9.232535
_cell_length_b 8.314200
_cell_length_c 21.416289
_cell_angle_alpha 90.000000
_cell_angle_beta 56.471149
_cell_angle_gamma 90.000000
_cell_volume 1370.400202
_symmetry_space_group_name_H-M "P 21/C"
_symmetry_group_IT_number 14
_symmetry_cell_setting 'monoclinic'
loop_
_space_group_symop_operation_xyz
x,y,z
-x,1/2+y,1/2-z
-x,-y,-z
x,1/2-y,1/2+z
loop_
_atom_site_type_symbol
_atom_site_label
_atom_site_fract_x
_atom_site_fract_y
_atom_site_fract_z
Si Si1 0.556148 0.547446 0.581386
Si Si2 0.499870 0.075127 0.429743
Si Si3 0.168509 0.889472 0.463317
Si Si4 0.817912 0.376748 0.765450
Si Si5 0.156350 0.619120 0.561016
Si Si6 0.823249 0.463808 0.304537
Si Si7 0.186428 0.571376 0.376992
O O1 0.533349 0.732137 0.565641
O O2 0.660447 0.453928 0.503419
O O3 0.370234 0.467374 0.641544
O O4 0.677233 0.528243 0.613777
O O5 0.680111 0.057435 0.348621
O O6 0.500000 0.000000 0.500000
O O7 0.344586 0.990140 0.428627
O O8 0.144424 0.790532 0.532862
O O9 0.182394 0.752061 0.406480
O O10 0.000000 0.000000 0.500000
O O11 0.810326 0.183416 0.760305
O O12 0.776912 0.438692 0.705535
O O13 0.013129 0.420900 0.740939
O O14 0.141452 0.623459 0.637921
O O15 0.005308 0.504416 0.570995
#
# Coordination Sequence:
#
# PCOD9243552 Si02
#       7
#     4   4   4   4   4   4   4
#     4  10  20  39  61  87 118 157 197 236 290 358
#     4  11  24  40  60  88 119 150 197 256 298 345
#     4  11  21  36  61  91 117 151 196 248 294 339
#     4  10  24  42  57  85 120 155 197 242 300 355
#     4  10  20  38  60  86 117 155 196 234 288 357
#     4  10  22  38  60  83 115 153 193 241 288 347
#     4  10  22  39  60  86 122 161 194 237 297 365
#
# _framework density 20.431988
#
# number of rings (size 3 to 8) (size 9 to 14) (size 15 to 20)
#    0.000    1.714    0.000    5.571    0.000   10.286 
#    0.000    2.857    0.000    0.000    0.000    0.000 
#    0.000    0.000    0.000    0.000    0.000    0.000 
#
# Total GULP energy -156289.924874 kJ/mol
# GULP energy per Si atom -5581.783031 kJ/mol
# Density = 2.038548 g / cm^3
# Si number density = 20.431988 Si / 1000 Ang^3
#
#
#
# Elastic Constant Matrix: (Units=GPa)
#
#
# Indices 1 2 3 4 5 6 
#
# 1 115.4201 35.2145 42.9610 0.0000 -21.6287 0.0000
# 2 35.2145 66.3580 21.9622 0.0000 -18.3124 0.0000
# 3 42.9610 21.9622 89.4913 0.0000 -18.1003 0.0000
# 4 0.0000 0.0000 0.0000 18.6958 0.0000 -4.4375
# 5 -21.6287 -18.3124 -18.1003 0.0000 41.2824 0.0000
# 6 0.0000 0.0000 0.0000 -4.4375 0.0000 43.3592
#
#
#
# Elastic Compliance Matrix: (Units=1/GPa)
#
#
# Indices 1 2 3 4 5 6 
#
# 1 0.012011 -0.004280 -0.004199 0.000000 0.002553 0.000000
# 2 -0.004280 0.019428 -0.001562 0.000000 0.005691 0.000000
# 3 -0.004199 -0.001562 0.014252 0.000000 0.003356 0.000000
# 4 0.000000 0.000000 0.000000 0.054820 0.000000 0.005610
# 5 0.002553 0.005691 0.003356 0.000000 0.029557 0.000000
# 6 0.000000 0.000000 0.000000 0.005610 0.000000 0.023637
#
#
# Mechanical properties :
#
#
# Convention : Reuss Voigt Hill
#
# Bulk Modulus (GPa) = 39.04846 52.39384 45.72115
# Shear Modulus (GPa) = 27.42352 32.07627 29.74989
#
# Velocity S-wave (km/s) = 3.66756 3.96650 3.81996
# Velocity P-wave (km/s) = 6.08996 6.83200 6.47162
#
# Compressibility (1/GPa) = 0.02560921
#
# Stress axis : x y z
#
# Youngs Moduli (GPa) = 83.25531 51.47083 70.16367
#
# Poissons Ratio (x) = 0.22027 0.29465
# Poissons Ratio (y) = 0.35630 0.10963
# Poissons Ratio (z) = 0.34962 0.08042
#
# Static dielectric constant tensor:
#      x y z
#    x 1.776520 0.000000 0.006950 
#    y 0.000000 1.759920 0.000000 
#    z 0.006950 0.000000 1.725090 
# 
# From -- ./inp_files/64949.got.cif
#   From: 2010.05.17/outbox.cif.g08.bks.cpg/sg14_33_cif.got.tgz:64949.got - 2010.06.03 17:49:19.
