data_PCOD9243368
_publ_section_title
;
Structure prediction by ZEFSAII (Michael W. Deem and Ramdas Pophale) SiO2 
 PCOD9243368
Probable space group: P 21/C
;
_chemical_formula_sum "Si O2"
_cell_formula_units_Z 20
_cell_length_a 9.426090
_cell_length_b 7.771486
_cell_length_c 21.773904
_cell_angle_alpha 90.000000
_cell_angle_beta 28.989176
_cell_angle_gamma 90.000000
_cell_volume 773.027847
_symmetry_space_group_name_H-M "P 21/C"
_symmetry_group_IT_number 14
_symmetry_cell_setting 'monoclinic'
loop_
_space_group_symop_operation_xyz
x,y,z
-x,1/2+y,1/2-z
-x,-y,-z
x,1/2-y,1/2+z
loop_
_atom_site_type_symbol
_atom_site_label
_atom_site_fract_x
_atom_site_fract_y
_atom_site_fract_z
Si Si1 0.044796 0.916884 0.240334
Si Si2 0.852141 0.626582 0.406953
Si Si3 0.648835 0.971024 0.219952
Si Si4 0.206593 0.412508 0.794126
Si Si5 0.572583 0.561480 0.066758
O O1 0.176797 0.951750 0.122123
O O2 0.205533 0.059485 0.221824
O O3 0.699415 0.962333 0.360890
O O4 0.025048 0.751272 0.292873
O O5 0.052312 0.579496 0.389745
O O6 0.597444 0.746771 0.529144
O O7 0.457407 0.976699 0.231861
O O8 0.724528 0.778425 0.210558
O O9 0.465954 0.051975 0.345662
O O10 0.882616 0.471339 0.935954
#
# Coordination Sequence:
#
# PCOD9243368 Si02
#       5
#     4   4   4   4   4
#     4  10  20  37  62  90 121 158 198 246 298 353
#     4  10  20  39  61  88 120 157 200 244 296 355
#     4  11  24  41  62  89 122 161 201 249 300 357
#     4  11  21  39  62  88 121 159 201 247 298 356
#     4  10  22  42  63  87 123 161 195 248 306 353
#
# _framework density 25.872291000000001
#
# number of rings (size 3 to 8) (size 9 to 14) (size 15 to 20)
#    0.000    1.600    0.000    7.800    0.000    0.000 
#    0.000   28.000    0.000    0.000    0.000    0.000 
#    0.000    0.000    0.000    0.000    0.000    0.000 
#
# Total GULP energy -111898.459534 kJ/mol
# GULP energy per Si atom -5594.922977 kJ/mol
# Density = 2.581340 g / cm^3
# Si number density = 25.872291 Si / 1000 Ang^3
#
#
#
# Elastic Constant Matrix: (Units=GPa)
#
#
# Indices 1 2 3 4 5 6 
#
# 1 161.6703 9.0852 22.0646 0.0000 -44.0383 0.0000
# 2 9.0852 100.1794 8.0574 0.0000 -19.0717 0.0000
# 3 22.0646 8.0574 48.3831 0.0000 -2.3723 0.0000
# 4 0.0000 0.0000 0.0000 32.3676 0.0000 -4.0636
# 5 -44.0383 -19.0717 -2.3723 0.0000 35.5540 0.0000
# 6 0.0000 0.0000 0.0000 -4.0636 0.0000 55.1595
#
#
#
# Elastic Compliance Matrix: (Units=1/GPa)
#
#
# Indices 1 2 3 4 5 6 
#
# 1 0.010395 0.002012 -0.004406 0.000000 0.013661 0.000000
# 2 0.002012 0.011626 -0.002434 0.000000 0.008567 0.000000
# 3 -0.004406 -0.002434 0.022826 0.000000 -0.005240 0.000000
# 4 0.000000 0.000000 0.000000 0.031184 0.000000 0.002297
# 5 0.013661 0.008567 -0.005240 0.000000 0.049292 0.000000
# 6 0.000000 0.000000 0.000000 0.002297 0.000000 0.018298
#
#
# Mechanical properties :
#
#
# Convention : Reuss Voigt Hill
#
# Bulk Modulus (GPa) = 28.41515 43.18301 35.79908
# Shear Modulus (GPa) = 30.30180 42.68460 36.49320
#
# Velocity S-wave (km/s) = 3.42600 4.06620 3.75975
# Velocity P-wave (km/s) = 5.16301 6.22675 5.71966
#
# Compressibility (1/GPa) = 0.03519249
#
# Stress axis : x y z
#
# Youngs Moduli (GPa) = 96.20234 86.01245 43.80972
#
# Poissons Ratio (x) = -0.17309 0.19301
# Poissons Ratio (y) = -0.19359 0.10663
# Poissons Ratio (z) = 0.42384 0.20934
#
# Static dielectric constant tensor:
#      x y z
#    x 1.990670 0.000000 -0.026170 
#    y 0.000000 2.158550 0.000000 
#    z -0.026170 0.000000 2.090180 
# 
# From -- ./inp_files/36402.got.cif
#   From: 2010.05.17/outbox.cif.g08.bks.cpg/sg14_19_cif.got.tgz:36402.got - 2010.06.03 17:49:19.
