data_PCOD9243391
_publ_section_title
;
Structure prediction by ZEFSAII (Michael W. Deem and Ramdas Pophale) SiO2 
 PCOD9243391
Probable space group: P 21/C
;
_chemical_formula_sum "Si O2"
_cell_formula_units_Z 24
_cell_length_a 9.403265
_cell_length_b 14.635040
_cell_length_c 15.940448
_cell_angle_alpha 90.000000
_cell_angle_beta 36.234425
_cell_angle_gamma 90.000000
_cell_volume 1296.662715
_symmetry_space_group_name_H-M "P 21/C"
_symmetry_group_IT_number 14
_symmetry_cell_setting 'monoclinic'
loop_
_space_group_symop_operation_xyz
x,y,z
-x,1/2+y,1/2-z
-x,-y,-z
x,1/2-y,1/2+z
loop_
_atom_site_type_symbol
_atom_site_label
_atom_site_fract_x
_atom_site_fract_y
_atom_site_fract_z
Si Si1 0.644492 0.432099 0.871182
Si Si2 0.219498 0.051707 0.851140
Si Si3 0.482367 0.441228 0.394594
Si Si4 0.953215 0.690887 0.702400
Si Si5 0.894399 0.491641 0.295911
Si Si6 0.522234 0.260856 0.489623
O O1 0.668720 0.482027 0.770325
O O2 0.912307 0.430298 0.782977
O O3 0.500000 0.500000 0.000000
O O4 0.543681 0.330771 0.923738
O O5 0.405285 0.074227 0.836626
O O6 0.120229 0.140384 0.849205
O O7 0.000000 0.000000 0.000000
O O8 0.734242 0.492627 0.289471
O O9 0.284640 0.500544 0.539162
O O10 0.502633 0.348075 0.438282
O O11 0.723700 0.751323 0.839574
O O12 0.972680 0.605190 0.758092
O O13 0.225475 0.731153 0.577847
#
# Coordination Sequence:
#
# PCOD9243391 Si02
#       6
#     4   4   4   4   4   4
#     4  11  20  39  64  85 124 168 206 252 316 376
#     4  11  21  41  63  91 124 166 210 258 318 380
#     4  10  20  37  63  91 123 162 212 257 307 380
#     4  10  21  38  64  90 124 165 215 255 316 378
#     4   9  18  37  61  86 118 166 207 240 317 388
#     4  11  22  40  63  93 124 168 215 262 312 381
#
# _framework density 18.509053000000002
#
# number of rings (size 3 to 8) (size 9 to 14) (size 15 to 20)
#    0.000    1.667    6.667    1.000    0.000    0.000 
#    3.000    0.833    0.000    0.000    0.000    0.000 
#    0.000    0.000    0.000    0.000    0.000    0.000 
#
# Total GULP energy -133671.453425 kJ/mol
# GULP energy per Si atom -5569.643893 kJ/mol
# Density = 1.846693 g / cm^3
# Si number density = 18.509053 Si / 1000 Ang^3
#
#
#
# Elastic Constant Matrix: (Units=GPa)
#
#
# Indices 1 2 3 4 5 6 
#
# 1 167.3569 30.2274 52.1434 0.0000 -0.7731 0.0000
# 2 30.2274 69.6037 22.5268 0.0000 5.2567 0.0000
# 3 52.1434 22.5268 84.2006 0.0000 -2.9335 0.0000
# 4 0.0000 0.0000 0.0000 34.6349 0.0000 -5.1760
# 5 -0.7731 5.2567 -2.9335 0.0000 31.7058 0.0000
# 6 0.0000 0.0000 0.0000 -5.1760 0.0000 30.4445
#
#
#
# Elastic Compliance Matrix: (Units=1/GPa)
#
#
# Indices 1 2 3 4 5 6 
#
# 1 0.007640 -0.001968 -0.004200 0.000000 0.000124 0.000000
# 2 -0.001968 0.016527 -0.003311 0.000000 -0.003094 0.000000
# 3 -0.004200 -0.003311 0.015429 0.000000 0.001874 0.000000
# 4 0.000000 0.000000 0.000000 0.029625 0.000000 0.005037
# 5 0.000124 -0.003094 0.001874 0.000000 0.032229 0.000000
# 6 0.000000 0.000000 0.000000 0.005037 0.000000 0.033703
#
#
# Mechanical properties :
#
#
# Convention : Reuss Voigt Hill
#
# Bulk Modulus (GPa) = 48.45556 58.99518 53.72537
# Shear Modulus (GPa) = 31.05775 33.77461 32.41618
#
# Velocity S-wave (km/s) = 4.10075 4.27636 4.18948
# Velocity P-wave (km/s) = 6.97551 7.50506 7.24512
#
# Compressibility (1/GPa) = 0.02063747
#
# Stress axis : x y z
#
# Youngs Moduli (GPa) = 130.89028 60.50775 64.81431
#
# Poissons Ratio (x) = 0.11907 0.27225
# Poissons Ratio (y) = 0.25756 0.21458
# Poissons Ratio (z) = 0.54980 0.20033
#
# Static dielectric constant tensor:
#      x y z
#    x 1.664630 0.000000 -0.054090 
#    y 0.000000 1.659090 0.000000 
#    z -0.054090 0.000000 1.652050 
# 
# From -- ./inp_files/41532.got.cif
#   From: 2010.05.17/outbox.cif.g08.bks.cpg/sg14_21_cif.got.tgz:41532.got - 2010.06.03 17:49:19.
