data_PCOD9243664
_publ_section_title
;
Structure prediction by ZEFSAII (Michael W. Deem and Ramdas Pophale) SiO2 
 PCOD9243664
Probable space group: P 21/C
;
_chemical_formula_sum "Si O2"
_cell_formula_units_Z 22
_cell_length_a 16.065849
_cell_length_b 7.715748
_cell_length_c 13.971837
_cell_angle_alpha 90.000000
_cell_angle_beta 147.394559
_cell_angle_gamma 90.000000
_cell_volume 933.262350
_symmetry_space_group_name_H-M "P 21/C"
_symmetry_group_IT_number 14
_symmetry_cell_setting 'monoclinic'
loop_
_space_group_symop_operation_xyz
x,y,z
-x,1/2+y,1/2-z
-x,-y,-z
x,1/2-y,1/2+z
loop_
_atom_site_type_symbol
_atom_site_label
_atom_site_fract_x
_atom_site_fract_y
_atom_site_fract_z
Si Si1 0.129274 0.495256 0.804966
Si Si2 0.854900 0.593079 0.654536
Si Si3 0.455252 0.880323 0.101584
Si Si4 0.000000 0.000000 0.500000
Si Si5 0.352742 0.812593 0.665304
Si Si6 0.257806 0.693137 0.760396
O O1 0.165169 0.298930 0.866062
O O2 0.186422 0.537644 0.753347
O O3 0.950945 0.534084 0.654547
O O4 0.221100 0.625969 0.964312
O O5 0.696401 0.491322 0.517174
O O6 0.958862 0.549614 0.848127
O O7 0.483132 0.758853 0.220114
O O8 0.592273 0.016847 0.223735
O O9 0.311202 0.669940 0.703571
O O10 0.125713 0.839247 0.627758
O O11 0.405371 0.733654 0.462938
#
# Coordination Sequence:
#
# PCOD9243664 Si02
#       6
#     4   4   4   2   4   4
#     4  11  23  40  65  90 132 163 213 261 315 370
#     4  11  22  42  60  95 126 167 209 264 308 381
#     4  10  23  40  63  89 126 164 211 258 321 362
#     4  10  20  38  62  92 124 162 206 252 318 352
#     4  11  21  43  63  92 123 171 203 264 314 381
#     4  10  22  39  63  94 122 165 212 259 310 380
#
# _framework density 23.573219999999999
#
# number of rings (size 3 to 8) (size 9 to 14) (size 15 to 20)
#    0.000    1.455    1.818    4.909    0.000    0.727 
#    3.273   10.000    0.000    0.000    0.000    0.000 
#    0.000    0.000    0.000    0.000    0.000    0.000 
#
# Total GULP energy -122496.002588 kJ/mol
# GULP energy per Si atom -5568.000118 kJ/mol
# Density = 2.351957 g / cm^3
# Si number density = 23.573220 Si / 1000 Ang^3
#
#
#
# Elastic Constant Matrix: (Units=GPa)
#
#
# Indices 1 2 3 4 5 6 
#
# 1 46.0439 -2.4827 10.9321 0.0000 -28.6176 0.0000
# 2 -2.4827 46.3238 1.9285 0.0000 -5.9360 0.0000
# 3 10.9321 1.9285 60.4221 0.0000 -12.8863 0.0000
# 4 0.0000 0.0000 0.0000 20.5679 0.0000 -0.4188
# 5 -28.6176 -5.9360 -12.8863 0.0000 33.1795 0.0000
# 6 0.0000 0.0000 0.0000 -0.4188 0.0000 29.0853
#
#
#
# Elastic Compliance Matrix: (Units=1/GPa)
#
#
# Indices 1 2 3 4 5 6 
#
# 1 0.049794 0.008366 0.000221 0.000000 0.044530 0.000000
# 2 0.008366 0.023500 0.000187 0.000000 0.011493 0.000000
# 3 0.000221 0.000187 0.018047 0.000000 0.007233 0.000000
# 4 0.000000 0.000000 0.000000 0.048634 0.000000 0.000700
# 5 0.044530 0.011493 0.007233 0.000000 0.073412 0.000000
# 6 0.000000 0.000000 0.000000 0.000700 0.000000 0.034392
#
#
# Mechanical properties :
#
#
# Convention : Reuss Voigt Hill
#
# Bulk Modulus (GPa) = 9.18370 19.28285 14.23327
# Shear Modulus (GPa) = 18.75984 26.06066 22.41025
#
# Velocity S-wave (km/s) = 2.82407 3.32854 3.08663
# Velocity P-wave (km/s) = 3.81289 4.79270 4.33060
#
# Compressibility (1/GPa) = 0.10888863
#
# Stress axis : x y z
#
# Youngs Moduli (GPa) = 20.08290 42.55245 55.41111
#
# Poissons Ratio (x) = -0.35598 -0.01224
# Poissons Ratio (y) = -0.16800 -0.01038
# Poissons Ratio (z) = -0.00444 -0.00797
#
# Static dielectric constant tensor:
#      x y z
#    x 1.934130 0.000000 0.005960 
#    y 0.000000 1.868960 0.000000 
#    z 0.005960 0.000000 1.893620 
# 
# From -- ./inp_files/49895.got.cif
#   From: 2010.05.17/outbox.cif.g08.bks.cpg/sg14_25_cif.got.tgz:49895.got - 2010.06.03 17:49:19.
