data_PCOD9243418
_publ_section_title
;
Structure prediction by ZEFSAII (Michael W. Deem and Ramdas Pophale) SiO2 
 PCOD9243418
Probable space group: P 21/C
;
_chemical_formula_sum "Si O2"
_cell_formula_units_Z 28
_cell_length_a 9.476341
_cell_length_b 11.957353
_cell_length_c 14.944799
_cell_angle_alpha 90.000000
_cell_angle_beta 54.521447
_cell_angle_gamma 90.000000
_cell_volume 1379.011072
_symmetry_space_group_name_H-M "P 21/C"
_symmetry_group_IT_number 14
_symmetry_cell_setting 'monoclinic'
loop_
_space_group_symop_operation_xyz
x,y,z
-x,1/2+y,1/2-z
-x,-y,-z
x,1/2-y,1/2+z
loop_
_atom_site_type_symbol
_atom_site_label
_atom_site_fract_x
_atom_site_fract_y
_atom_site_fract_z
Si Si1 0.197349 0.992459 0.800158
Si Si2 0.424527 0.573023 0.888006
Si Si3 0.699231 0.233048 0.191689
Si Si4 0.151000 0.582379 0.122796
Si Si5 0.904741 0.721181 0.681848
Si Si6 0.944210 0.834870 0.373209
Si Si7 0.329164 0.171980 0.375748
O O1 0.244374 0.894570 0.851732
O O2 0.132729 0.926863 0.735957
O O3 0.373346 0.053476 0.702028
O O4 0.076532 0.097242 0.867829
O O5 0.361000 0.685540 0.864571
O O6 0.340414 0.462506 0.873923
O O7 0.349000 0.576436 0.016105
O O8 0.525118 0.216883 0.315603
O O9 0.864388 0.291561 0.175862
O O10 0.059808 0.469835 0.120856
O O11 0.063665 0.693071 0.116252
O O12 0.886135 0.699943 0.794945
O O13 0.748632 0.782572 0.688166
O O14 0.804775 0.793078 0.497354
#
# Coordination Sequence:
#
# PCOD9243418 Si02
#       7
#     4   4   4   4   4   4   4
#     4  10  21  36  59  92 124 156 199 258 305 378
#     4  10  20  37  64  88 114 158 212 260 305 357
#     4  11  20  39  61  88 125 158 201 254 311 359
#     4  10  20  37  64  88 114 158 212 260 305 357
#     4  11  20  39  61  88 125 158 201 254 311 359
#     4  10  22  39  62  90 121 160 210 258 301 366
#     4  10  22  39  62  90 121 160 210 258 301 366
#
# _framework density 20.304406
#
# number of rings (size 3 to 8) (size 9 to 14) (size 15 to 20)
#    0.000    1.714    2.857    2.143    0.000    3.429 
#    0.000    2.857    0.000    3.429    0.000    0.000 
#    0.000    0.000    0.000    0.000    0.000    0.000 
#
# Total GULP energy -156092.559238 kJ/mol
# GULP energy per Si atom -5574.734259 kJ/mol
# Density = 2.025819 g / cm^3
# Si number density = 20.304406 Si / 1000 Ang^3
#
#
#
# Elastic Constant Matrix: (Units=GPa)
#
#
# Indices 1 2 3 4 5 6 
#
# 1 82.8098 27.8171 30.9405 0.0000 -18.2197 0.0000
# 2 27.8171 109.1142 31.9550 0.0000 -11.0580 0.0000
# 3 30.9405 31.9550 52.4910 0.0000 -13.6750 0.0000
# 4 0.0000 0.0000 0.0000 21.1044 0.0000 -0.3079
# 5 -18.2197 -11.0580 -13.6750 0.0000 17.8342 0.0000
# 6 0.0000 0.0000 0.0000 -0.3079 0.0000 45.8274
#
#
#
# Elastic Compliance Matrix: (Units=1/GPa)
#
#
# Indices 1 2 3 4 5 6 
#
# 1 0.017610 -0.001390 -0.006338 0.000000 0.012269 0.000000
# 2 -0.001390 0.011328 -0.005770 0.000000 0.001180 0.000000
# 3 -0.006338 -0.005770 0.029591 0.000000 0.012638 0.000000
# 4 0.000000 0.000000 0.000000 0.047388 0.000000 0.000318
# 5 0.012269 0.001180 0.012638 0.000000 0.079029 0.000000
# 6 0.000000 0.000000 0.000000 0.000318 0.000000 0.021823
#
#
# Mechanical properties :
#
#
# Convention : Reuss Voigt Hill
#
# Bulk Modulus (GPa) = 31.71027 47.31558 39.51292
# Shear Modulus (GPa) = 20.46859 27.20002 23.83431
#
# Velocity S-wave (km/s) = 3.17848 3.66404 3.42986
# Velocity P-wave (km/s) = 5.39645 6.42292 5.93193
#
# Compressibility (1/GPa) = 0.03153552
#
# Stress axis : x y z
#
# Youngs Moduli (GPa) = 56.78515 88.27416 33.79361
#
# Poissons Ratio (x) = 0.12270 0.21417
# Poissons Ratio (y) = 0.07893 0.19498
# Poissons Ratio (z) = 0.35988 0.50931
#
# Static dielectric constant tensor:
#      x y z
#    x 1.723660 0.000000 -0.014980 
#    y 0.000000 1.757510 0.000000 
#    z -0.014980 0.000000 1.720680 
# 
# From -- ./inp_files/40220.got.cif
#   From: 2010.05.17/outbox.cif.g08.bks.cpg/sg14_21_cif.got.tgz:40220.got - 2010.06.03 17:49:19.
