data_PCOD9243493
_publ_section_title
;
Structure prediction by ZEFSAII (Michael W. Deem and Ramdas Pophale) SiO2 
 PCOD9243493
Probable space group: P 21/C
;
_chemical_formula_sum "Si O2"
_cell_formula_units_Z 32
_cell_length_a 15.488150
_cell_length_b 13.749765
_cell_length_c 16.303862
_cell_angle_alpha 90.000000
_cell_angle_beta 26.143054
_cell_angle_gamma 90.000000
_cell_volume 1529.831013
_symmetry_space_group_name_H-M "P 21/C"
_symmetry_group_IT_number 14
_symmetry_cell_setting 'monoclinic'
loop_
_space_group_symop_operation_xyz
x,y,z
-x,1/2+y,1/2-z
-x,-y,-z
x,1/2-y,1/2+z
loop_
_atom_site_type_symbol
_atom_site_label
_atom_site_fract_x
_atom_site_fract_y
_atom_site_fract_z
Si Si1 0.588011 0.766276 0.719214
Si Si2 0.413664 0.643780 0.634912
Si Si3 0.190551 0.754442 0.463680
Si Si4 0.590288 0.437547 0.538443
Si Si5 0.411763 0.086262 0.686852
Si Si6 0.232899 0.224860 0.609256
Si Si7 0.797210 0.033102 0.018077
Si Si8 0.783538 0.508097 0.805193
O O1 0.373019 0.730227 0.870281
O O2 0.557529 0.872998 0.781208
O O3 0.646246 0.695135 0.742726
O O4 0.725597 0.762676 0.522686
O O5 0.239916 0.684148 0.840629
O O6 0.497731 0.541306 0.596394
O O7 0.362357 0.621783 0.584482
O O8 0.589500 0.721500 0.495426
O O9 0.200791 0.637887 0.439560
O O10 0.976029 0.768429 0.684933
O O11 0.776336 0.450807 0.439135
O O12 0.270288 0.036195 0.741528
O O13 0.628190 0.070590 0.467908
O O14 0.385370 0.027441 0.793612
O O15 0.239080 0.110299 0.626266
O O16 0.994366 0.977293 0.872049
#
# Coordination Sequence:
#
# PCOD9243493 Si02
#       8
#     4   4   4   4   4   4   4   4
#     4  10  21  36  56  83 115 149 188 232 279 335
#     4  10  20  38  60  82 114 151 191 235 279 337
#     4   9  20  37  58  83 112 148 186 230 282 332
#     4  10  21  38  58  83 116 152 189 236 286 331
#     4  11  21  36  59  84 110 147 186 226 280 337
#     4  10  20  38  59  83 116 149 187 233 281 335
#     4  10  20  38  57  83 116 143 182 231 280 334
#     4  10  22  37  57  84 114 144 181 231 284 334
#
# _framework density 20.917341
#
# number of rings (size 3 to 8) (size 9 to 14) (size 15 to 20)
#    0.000    2.000    0.000    4.875    0.000    3.000 
#    0.000   18.750    0.000    0.000    0.000    0.000 
#    0.000    0.000    0.000    0.000    0.000    0.000 
#
# Total GULP energy -178702.090217 kJ/mol
# GULP energy per Si atom -5584.440319 kJ/mol
# Density = 2.086973 g / cm^3
# Si number density = 20.917341 Si / 1000 Ang^3
#
#
#
# Elastic Constant Matrix: (Units=GPa)
#
#
# Indices 1 2 3 4 5 6 
#
# 1 39.5078 -0.4007 27.4853 0.0000 18.8234 0.0000
# 2 -0.4007 35.7509 8.4535 0.0000 8.1210 0.0000
# 3 27.4853 8.4535 99.5872 0.0000 7.6542 0.0000
# 4 0.0000 0.0000 0.0000 22.1665 0.0000 10.8244
# 5 18.8234 8.1210 7.6542 0.0000 19.3010 0.0000
# 6 0.0000 0.0000 0.0000 10.8244 0.0000 28.2781
#
#
#
# Elastic Compliance Matrix: (Units=1/GPa)
#
#
# Indices 1 2 3 4 5 6 
#
# 1 0.070232 0.020611 -0.015680 0.000000 -0.070948 0.000000
# 2 0.020611 0.037250 -0.006293 0.000000 -0.033278 0.000000
# 3 -0.015680 -0.006293 0.013950 0.000000 0.012408 0.000000
# 4 0.000000 0.000000 0.000000 0.055484 0.000000 -0.021238
# 5 -0.070948 -0.033278 0.012408 0.000000 0.130085 0.000000
# 6 0.000000 0.000000 0.000000 -0.021238 0.000000 0.043493
#
#
# Mechanical properties :
#
#
# Convention : Reuss Voigt Hill
#
# Bulk Modulus (GPa) = 8.42405 27.32467 17.87436
# Shear Modulus (GPa) = 12.72958 23.23631 17.98295
#
# Velocity S-wave (km/s) = 2.46959 3.33658 2.93527
# Velocity P-wave (km/s) = 3.48825 5.28538 4.47789
#
# Compressibility (1/GPa) = 0.11870781
#
# Stress axis : x y z
#
# Youngs Moduli (GPa) = 14.23851 26.84589 71.68707
#
# Poissons Ratio (x) = -0.55332 1.12406
# Poissons Ratio (y) = -0.29347 0.45110
# Poissons Ratio (z) = 0.22326 0.16893
#
# Static dielectric constant tensor:
#      x y z
#    x 1.782560 0.000000 -0.001410 
#    y 0.000000 1.758240 0.000000 
#    z -0.001410 0.000000 1.738160 
# 
# From -- ./inp_files/47403.got.cif
#   From: 2010.05.17/outbox.cif.g08.bks.cpg/sg14_24_cif.got.tgz:47403.got - 2010.06.03 17:49:19.
