data_PCOD9243032
_publ_section_title
;
Structure prediction by ZEFSAII (Michael W. Deem and Ramdas Pophale) SiO2 
 PCOD9243032
Probable space group: P 21/C
;
_chemical_formula_sum "Si O2"
_cell_formula_units_Z 28
_cell_length_a 8.010216
_cell_length_b 14.098723
_cell_length_c 13.581648
_cell_angle_alpha 90.000000
_cell_angle_beta 130.022305
_cell_angle_gamma 90.000000
_cell_volume 1174.596008
_symmetry_space_group_name_H-M "P 21/C"
_symmetry_group_IT_number 14
_symmetry_cell_setting 'monoclinic'
loop_
_space_group_symop_operation_xyz
x,y,z
-x,1/2+y,1/2-z
-x,-y,-z
x,1/2-y,1/2+z
loop_
_atom_site_type_symbol
_atom_site_label
_atom_site_fract_x
_atom_site_fract_y
_atom_site_fract_z
Si Si1 0.634783 0.664850 0.447464
Si Si2 0.872929 0.013482 0.684030
Si Si3 0.940885 0.688108 0.853089
Si Si4 0.478831 0.126327 0.521416
Si Si5 0.186139 0.640658 0.347725
Si Si6 0.492004 0.207859 0.314003
Si Si7 0.068317 0.749761 0.605050
O O1 0.575540 0.773642 0.452554
O O2 0.441989 0.614407 0.436529
O O3 0.590650 0.650038 0.314002
O O4 0.896401 0.665690 0.564871
O O5 0.681334 0.079475 0.655031
O O6 0.012989 0.086306 0.673588
O O7 0.726438 0.942878 0.561885
O O8 0.029160 0.948093 0.808427
O O9 0.707651 0.726018 0.730434
O O10 0.112518 0.769949 0.885163
O O11 0.952532 0.690400 0.974662
O O12 0.538878 0.143901 0.427791
O O13 0.119052 0.682985 0.215761
O O14 0.694627 0.269374 0.351675
#
# Coordination Sequence:
#
# PCOD9243032 Si02
#       7
#     4   4   4   4   4   4   4
#     4  10  20  36  60  92 121 165 191 250 310 356
#     4  11  22  35  64  96 118 156 205 262 296 351
#     4  11  21  38  62  92 124 158 198 254 311 356
#     4  11  20  40  62  95 122 153 208 258 294 357
#     4  11  21  38  62  92 124 158 198 254 311 356
#     4  10  20  36  60  92 121 165 191 250 310 356
#     4  10  20  37  60  87 120 162 204 243 302 359
#
# _framework density 23.837982
#
# number of rings (size 3 to 8) (size 9 to 14) (size 15 to 20)
#    0.000    1.429    5.714    0.000    0.000    0.571 
#    0.000    0.000    0.000    9.429    0.000    0.000 
#    0.000    0.000    0.000    0.000    0.000    0.000 
#
# Total GULP energy -156255.381661 kJ/mol
# GULP energy per Si atom -5580.549345 kJ/mol
# Density = 2.378373 g / cm^3
# Si number density = 23.837982 Si / 1000 Ang^3
#
#
#
# Elastic Constant Matrix: (Units=GPa)
#
#
# Indices 1 2 3 4 5 6 
#
# 1 123.3754 18.7306 21.8060 0.0000 28.8606 0.0000
# 2 18.7306 61.6994 5.6284 0.0000 -2.6564 0.0000
# 3 21.8060 5.6284 54.9707 0.0000 8.0625 0.0000
# 4 0.0000 0.0000 0.0000 25.6637 0.0000 20.0667
# 5 28.8606 -2.6564 8.0625 0.0000 58.2132 0.0000
# 6 0.0000 0.0000 0.0000 20.0667 0.0000 31.3225
#
#
#
# Elastic Compliance Matrix: (Units=1/GPa)
#
#
# Indices 1 2 3 4 5 6 
#
# 1 0.010223 -0.003032 -0.003043 0.000000 -0.004785 0.000000
# 2 -0.003032 0.017317 -0.000926 0.000000 0.002422 0.000000
# 3 -0.003043 -0.000926 0.019678 0.000000 -0.001259 0.000000
# 4 0.000000 0.000000 0.000000 0.078076 0.000000 -0.050020
# 5 -0.004785 0.002422 -0.001259 0.000000 0.019835 0.000000
# 6 0.000000 0.000000 0.000000 -0.050020 0.000000 0.063971
#
#
# Mechanical properties :
#
#
# Convention : Reuss Voigt Hill
#
# Bulk Modulus (GPa) = 30.10518 36.93061 33.51789
# Shear Modulus (GPa) = 21.35170 35.96525 28.65847
#
# Velocity S-wave (km/s) = 2.99607 3.88846 3.47106
# Velocity P-wave (km/s) = 4.96237 5.97379 5.49141
#
# Compressibility (1/GPa) = 0.03321687
#
# Stress axis : x y z
#
# Youngs Moduli (GPa) = 97.82027 57.74773 50.81809
#
# Poissons Ratio (x) = 0.17508 0.15464
# Poissons Ratio (y) = 0.29658 0.04703
# Poissons Ratio (z) = 0.29766 0.05345
#
# Static dielectric constant tensor:
#      x y z
#    x 2.012810 0.000000 0.050450 
#    y 0.000000 1.880620 0.000000 
#    z 0.050450 0.000000 2.000010 
# 
# From -- ./inp_files/41272.got.cif
#   From: 2010.05.17/outbox.cif.g08.bks.cpg/sg14_21_cif.got.tgz:41272.got - 2010.06.03 17:49:19.
