data_PCOD9243046
_publ_section_title
;
Structure prediction by ZEFSAII (Michael W. Deem and Ramdas Pophale) SiO2 
 PCOD9243046
Probable space group: P 21/C
;
_chemical_formula_sum "Si O2"
_cell_formula_units_Z 28
_cell_length_a 8.788124
_cell_length_b 17.663060
_cell_length_c 15.820344
_cell_angle_alpha 90.000000
_cell_angle_beta 32.987511
_cell_angle_gamma 90.000000
_cell_volume 1337.029537
_symmetry_space_group_name_H-M "P 21/C"
_symmetry_group_IT_number 14
_symmetry_cell_setting 'monoclinic'
loop_
_space_group_symop_operation_xyz
x,y,z
-x,1/2+y,1/2-z
-x,-y,-z
x,1/2-y,1/2+z
loop_
_atom_site_type_symbol
_atom_site_label
_atom_site_fract_x
_atom_site_fract_y
_atom_site_fract_z
Si Si1 0.245774 0.129668 0.711136
Si Si2 0.925516 0.507957 0.349125
Si Si3 0.667413 0.159601 0.657685
Si Si4 0.354183 0.923585 0.168525
Si Si5 0.089634 0.766921 0.232978
Si Si6 0.233891 0.278727 0.941711
Si Si7 0.433562 0.879812 0.600529
O O1 0.512219 0.133715 0.646216
O O2 0.340724 0.098373 0.575053
O O3 0.011988 0.071346 0.852616
O O4 0.107811 0.210256 0.752774
O O5 0.812095 0.486126 0.308305
O O6 0.676106 0.553458 0.509234
O O7 0.201654 0.557878 0.221016
O O8 0.714628 0.090984 0.701707
O O9 0.443834 0.217373 0.805492
O O10 0.966590 0.200280 0.509541
O O11 0.275098 0.842260 0.163585
O O12 0.281039 0.694626 0.133992
O O13 0.904927 0.753936 0.403758
O O14 0.414029 0.351981 0.885541
#
# Coordination Sequence:
#
# PCOD9243046 Si02
#       7
#     4   4   4   4   4   4   4
#     4  10  24  36  55  87 129 147 197 248 302 353
#     4  10  21  39  61  88 113 166 197 245 293 363
#     4  11  22  39  58  88 125 154 193 255 300 357
#     4   9  19  38  63  85 119 150 206 240 293 359
#     4   9  19  37  60  90 107 155 200 252 283 347
#     4  10  20  36  61  88 112 156 201 244 297 349
#     4  11  20  37  63  86 115 158 207 245 289 353
#
# _framework density 20.941945
#
# number of rings (size 3 to 8) (size 9 to 14) (size 15 to 20)
#    0.000    2.000    2.857    2.143    4.000    0.571 
#    0.000    2.857    0.000    0.000    0.000    0.000 
#    0.000    0.000    0.000    0.000    0.000    0.000 
#
# Total GULP energy -156232.516072 kJ/mol
# GULP energy per Si atom -5579.732717 kJ/mol
# Density = 2.089428 g / cm^3
# Si number density = 20.941945 Si / 1000 Ang^3
#
#
#
# Elastic Constant Matrix: (Units=GPa)
#
#
# Indices 1 2 3 4 5 6 
#
# 1 81.9507 -0.4859 -4.0685 0.0000 -18.6229 0.0000
# 2 -0.4859 37.1784 10.5828 0.0000 -9.4804 0.0000
# 3 -4.0685 10.5828 50.9442 0.0000 -24.9919 0.0000
# 4 0.0000 0.0000 0.0000 34.8387 0.0000 -20.5020
# 5 -18.6229 -9.4804 -24.9919 0.0000 30.4925 0.0000
# 6 0.0000 0.0000 0.0000 -20.5020 0.0000 20.7073
#
#
#
# Elastic Compliance Matrix: (Units=1/GPa)
#
#
# Indices 1 2 3 4 5 6 
#
# 1 0.017327 0.002290 0.010785 0.000000 0.020134 0.000000
# 2 0.002290 0.029739 -0.001292 0.000000 0.009586 0.000000
# 3 0.010785 -0.001292 0.039793 0.000000 0.038800 0.000000
# 4 0.000000 0.000000 0.000000 0.068776 0.000000 0.068094
# 5 0.020134 0.009586 0.038800 0.000000 0.079872 0.000000
# 6 0.000000 0.000000 0.000000 0.068094 0.000000 0.115711
#
#
# Mechanical properties :
#
#
# Convention : Reuss Voigt Hill
#
# Bulk Modulus (GPa) = 9.05589 20.23669 14.64629
# Shear Modulus (GPa) = 13.71891 28.14403 20.93147
#
# Velocity S-wave (km/s) = 2.56225 3.66991 3.16492
# Velocity P-wave (km/s) = 3.61762 5.25755 4.51271
#
# Compressibility (1/GPa) = 0.11042540
#
# Stress axis : x y z
#
# Youngs Moduli (GPa) = 57.71435 33.62532 25.12995
#
# Poissons Ratio (x) = -0.07702 -0.27102
# Poissons Ratio (y) = -0.13219 0.03248
# Poissons Ratio (z) = -0.62245 0.04346
#
# Static dielectric constant tensor:
#      x y z
#    x 1.787530 0.000000 -0.016420 
#    y 0.000000 1.759390 0.000000 
#    z -0.016420 0.000000 1.756780 
# 
# From -- ./inp_files/42098.got.cif
#   From: 2010.05.17/outbox.cif.g08.bks.cpg/sg14_22_cif.got.tgz:42098.got - 2010.06.03 17:49:19.
