data_PCOD9243436
_publ_section_title
;
Structure prediction by ZEFSAII (Michael W. Deem and Ramdas Pophale) SiO2 
 PCOD9243436
Probable space group: P 21/C
;
_chemical_formula_sum "Si O2"
_cell_formula_units_Z 28
_cell_length_a 11.915026
_cell_length_b 17.011185
_cell_length_c 13.206981
_cell_angle_alpha 90.000000
_cell_angle_beta 28.532656
_cell_angle_gamma 90.000000
_cell_volume 1278.649748
_symmetry_space_group_name_H-M "P 21/C"
_symmetry_group_IT_number 14
_symmetry_cell_setting 'monoclinic'
loop_
_space_group_symop_operation_xyz
x,y,z
-x,1/2+y,1/2-z
-x,-y,-z
x,1/2-y,1/2+z
loop_
_atom_site_type_symbol
_atom_site_label
_atom_site_fract_x
_atom_site_fract_y
_atom_site_fract_z
Si Si1 0.757788 0.793363 0.714411
Si Si2 0.523934 0.687005 0.048933
Si Si3 0.373941 0.918155 0.085787
Si Si4 0.131803 0.114299 0.572500
Si Si5 0.268972 0.673321 0.867102
Si Si6 0.342487 0.539035 0.960736
Si Si7 0.779648 0.034682 0.230243
O O1 0.610372 0.718346 0.871080
O O2 0.829865 0.817460 0.542811
O O3 0.001033 0.796563 0.584541
O O4 0.578373 0.861378 0.887085
O O5 0.434708 0.757016 0.193743
O O6 0.315027 0.623365 0.211483
O O7 0.748889 0.646599 0.921134
O O8 0.277982 0.890043 0.269975
O O9 0.141104 0.908773 0.202415
O O10 0.500000 0.000000 0.000000
O O11 0.275818 0.032895 0.438439
O O12 0.341867 0.622672 0.906582
O O13 0.573576 0.518765 0.843134
O O14 0.160277 0.533508 0.197981
O O15 0.000000 0.000000 0.000000
#
# Coordination Sequence:
#
# PCOD9243436 Si02
#       7
#     4   4   4   4   4   4   4
#     4  10  22  40  60  94 134 169 218 280 335 405
#     4  10  24  42  63  97 133 181 225 275 346 399
#     4  10  20  37  64  95 129 167 215 277 333 397
#     4  10  22  40  65  95 131 175 224 279 337 407
#     4  10  22  40  62  97 130 172 223 276 335 404
#     4  10  22  41  65  97 125 176 228 268 338 402
#     4  10  24  44  65  94 133 177 228 280 326 400
#
# _framework density 21.898098999999998
#
# number of rings (size 3 to 8) (size 9 to 14) (size 15 to 20)
#    0.000    2.000    0.000    1.714    2.000   12.571 
#   10.286    0.000    0.000    0.000    0.000    0.000 
#    0.000    0.000    0.000    0.000    0.000    0.000 
#
# Total GULP energy -156044.310843 kJ/mol
# GULP energy per Si atom -5573.011102 kJ/mol
# Density = 2.184826 g / cm^3
# Si number density = 21.898099 Si / 1000 Ang^3
#
#
#
# Elastic Constant Matrix: (Units=GPa)
#
#
# Indices 1 2 3 4 5 6 
#
# 1 61.6705 43.6243 14.3624 0.0000 -7.8938 0.0000
# 2 43.6243 123.1745 32.0260 0.0000 -3.7199 0.0000
# 3 14.3624 32.0260 86.7111 0.0000 -11.3351 0.0000
# 4 0.0000 0.0000 0.0000 32.7065 0.0000 8.2535
# 5 -7.8938 -3.7199 -11.3351 0.0000 31.1382 0.0000
# 6 0.0000 0.0000 0.0000 8.2535 0.0000 32.7999
#
#
#
# Elastic Compliance Matrix: (Units=1/GPa)
#
#
# Indices 1 2 3 4 5 6 
#
# 1 0.022313 -0.007698 -0.000245 0.000000 0.004648 0.000000
# 2 -0.007698 0.011638 -0.003251 0.000000 -0.001745 0.000000
# 3 -0.000245 -0.003251 0.013350 0.000000 0.004409 0.000000
# 4 0.000000 0.000000 0.000000 0.032648 0.000000 -0.008215
# 5 0.004648 -0.001745 0.004409 0.000000 0.034690 0.000000
# 6 0.000000 0.000000 0.000000 -0.008215 0.000000 0.032555
#
#
# Mechanical properties :
#
#
# Convention : Reuss Voigt Hill
#
# Bulk Modulus (GPa) = 40.14170 50.17573 45.15872
# Shear Modulus (GPa) = 28.10771 31.43179 29.76975
#
# Velocity S-wave (km/s) = 3.58658 3.79273 3.69110
# Velocity P-wave (km/s) = 5.96006 6.49175 6.23158
#
# Compressibility (1/GPa) = 0.02491175
#
# Stress axis : x y z
#
# Youngs Moduli (GPa) = 44.81722 85.92730 74.90448
#
# Poissons Ratio (x) = 0.66151 0.01834
# Poissons Ratio (y) = 0.34502 0.24353
# Poissons Ratio (z) = 0.01098 0.27937
#
# Static dielectric constant tensor:
#      x y z
#    x 1.843570 0.000000 0.048900 
#    y 0.000000 1.865270 0.000000 
#    z 0.048900 0.000000 1.905800 
# 
# From -- ./inp_files/45292.got.cif
#   From: 2010.05.17/outbox.cif.g08.bks.cpg/sg14_23_cif.got.tgz:45292.got - 2010.06.03 17:49:19.
