data_PCOD9243398
_publ_section_title
;
Structure prediction by ZEFSAII (Michael W. Deem and Ramdas Pophale) SiO2 
 PCOD9243398
Probable space group: P 21/C
;
_chemical_formula_sum "Si O2"
_cell_formula_units_Z 32
_cell_length_a 10.994538
_cell_length_b 12.061261
_cell_length_c 13.124822
_cell_angle_alpha 90.000000
_cell_angle_beta 62.084817
_cell_angle_gamma 90.000000
_cell_volume 1537.939587
_symmetry_space_group_name_H-M "P 21/C"
_symmetry_group_IT_number 14
_symmetry_cell_setting 'monoclinic'
loop_
_space_group_symop_operation_xyz
x,y,z
-x,1/2+y,1/2-z
-x,-y,-z
x,1/2-y,1/2+z
loop_
_atom_site_type_symbol
_atom_site_label
_atom_site_fract_x
_atom_site_fract_y
_atom_site_fract_z
Si Si1 0.894853 0.178360 0.372652
Si Si2 0.350131 0.825956 0.388308
Si Si3 0.617365 0.947615 0.222482
Si Si4 0.505459 0.805876 0.002068
Si Si5 0.324931 0.007057 0.033593
Si Si6 0.333661 0.820631 0.704123
Si Si7 0.106115 0.154116 0.902154
Si Si8 0.030112 0.053545 0.138635
O O1 0.787422 0.132988 0.500053
O O2 0.781744 0.217163 0.331980
O O3 0.005236 0.260613 0.383195
O O4 0.979854 0.096024 0.266942
O O5 0.459085 0.913704 0.302021
O O6 0.446328 0.757274 0.428863
O O7 0.302631 0.740336 0.321069
O O8 0.728305 0.845545 0.182312
O O9 0.654256 0.047921 0.284838
O O10 0.634750 0.993427 0.101076
O O11 0.649944 0.867667 0.936142
O O12 0.480140 0.724454 0.105607
O O13 0.410246 0.914142 0.057547
O O14 0.166203 0.982023 0.101805
O O15 0.068448 0.146330 0.037762
O O16 0.074290 0.030332 0.873361
#
# Coordination Sequence:
#
# PCOD9243398 Si02
#       8
#     4   4   4   4   4   4   4   4
#     4  11  23  37  63  89 122 163 201 250 312 366
#     4  11  23  38  62  93 126 160 204 256 309 368
#     4  11  22  40  65  93 126 158 208 262 309 360
#     4  10  21  36  62  92 122 162 206 254 305 366
#     4  10  20  37  63  92 117 163 216 254 297 365
#     4  11  21  40  62  92 125 163 204 254 312 365
#     4  10  22  40  65  89 117 162 212 253 301 367
#     4  10  20  39  62  87 118 158 205 257 296 367
#
# _framework density 20.807058999999999
#
# number of rings (size 3 to 8) (size 9 to 14) (size 15 to 20)
#    0.000    1.500    3.750    2.250    3.500    2.000 
#    0.000    0.000    0.000    3.750    0.000    0.000 
#    0.000    0.000    0.000    0.000    0.000    0.000 
#
# Total GULP energy -178177.975985 kJ/mol
# GULP energy per Si atom -5568.061750 kJ/mol
# Density = 2.075970 g / cm^3
# Si number density = 20.807059 Si / 1000 Ang^3
#
#
#
# Elastic Constant Matrix: (Units=GPa)
#
#
# Indices 1 2 3 4 5 6 
#
# 1 64.5247 21.3759 27.9000 0.0000 -7.5960 0.0000
# 2 21.3759 31.4648 10.1690 0.0000 -20.9093 0.0000
# 3 27.9000 10.1690 87.0770 0.0000 -25.0746 0.0000
# 4 0.0000 0.0000 0.0000 20.0082 0.0000 5.1777
# 5 -7.5960 -20.9093 -25.0746 0.0000 30.4002 0.0000
# 6 0.0000 0.0000 0.0000 5.1777 0.0000 29.4084
#
#
#
# Elastic Compliance Matrix: (Units=1/GPa)
#
#
# Indices 1 2 3 4 5 6 
#
# 1 0.028807 -0.032563 -0.012858 0.000000 -0.025804 0.000000
# 2 -0.032563 0.098049 0.021062 0.000000 0.076674 0.000000
# 3 -0.012858 0.021062 0.021496 0.000000 0.029004 0.000000
# 4 0.000000 0.000000 0.000000 0.052365 0.000000 -0.009220
# 5 -0.025804 0.076674 0.029004 0.000000 0.103107 0.000000
# 6 0.000000 0.000000 0.000000 -0.009220 0.000000 0.035627
#
#
# Mechanical properties :
#
#
# Convention : Reuss Voigt Hill
#
# Bulk Modulus (GPa) = 10.03662 33.55072 21.79367
# Shear Modulus (GPa) = 11.86578 24.20480 18.03529
#
# Velocity S-wave (km/s) = 2.39064 3.41441 2.94732
# Velocity P-wave (km/s) = 3.52907 5.63063 4.69885
#
# Compressibility (1/GPa) = 0.09963516
#
# Stress axis : x y z
#
# Youngs Moduli (GPa) = 34.71349 10.19902 46.51998
#
# Poissons Ratio (x) = 0.33211 0.59814
# Poissons Ratio (y) = 1.13036 -0.97980
# Poissons Ratio (z) = 0.44634 -0.21481
#
# Static dielectric constant tensor:
#      x y z
#    x 1.832810 0.000000 -0.040780 
#    y 0.000000 1.780400 0.000000 
#    z -0.040780 0.000000 1.788700 
# 
# From -- ./inp_files/29369.got.cif
#   From: 2010.05.17/outbox.cif.g08.bks.cpg/sg14_15_cif.got.tgz:29369.got - 2010.06.03 17:49:19.
