data_PCOD9243211
_publ_section_title
;
Structure prediction by ZEFSAII (Michael W. Deem and Ramdas Pophale) SiO2 
 PCOD9243211
Probable space group: P 21/C
;
_chemical_formula_sum "Si O2"
_cell_formula_units_Z 32
_cell_length_a 10.823249
_cell_length_b 9.883711
_cell_length_c 19.387924
_cell_angle_alpha 90.000000
_cell_angle_beta 145.349045
_cell_angle_gamma 90.000000
_cell_volume 1179.226381
_symmetry_space_group_name_H-M "P 21/C"
_symmetry_group_IT_number 14
_symmetry_cell_setting 'monoclinic'
loop_
_space_group_symop_operation_xyz
x,y,z
-x,1/2+y,1/2-z
-x,-y,-z
x,1/2-y,1/2+z
loop_
_atom_site_type_symbol
_atom_site_label
_atom_site_fract_x
_atom_site_fract_y
_atom_site_fract_z
Si Si1 0.668568 0.673629 0.328736
Si Si2 0.249337 0.709072 0.207115
Si Si3 0.486017 0.735246 0.615146
Si Si4 0.159387 0.980275 0.292241
Si Si5 0.566626 0.700750 0.999335
Si Si6 0.124825 0.466263 0.219096
Si Si7 0.905458 0.158253 0.500392
Si Si8 0.142687 0.086885 0.955346
O O1 0.483632 0.752111 0.287951
O O2 0.588537 0.647703 0.213209
O O3 0.744075 0.560292 0.418501
O O4 0.867504 0.773896 0.411044
O O5 0.210575 0.619412 0.256990
O O6 0.195445 0.607747 0.117257
O O7 0.063850 0.818848 0.121763
O O8 0.457799 0.752189 0.521001
O O9 0.658960 0.616354 0.699304
O O10 0.253315 0.726874 0.542789
O O11 0.372490 0.887400 0.373823
O O12 0.984904 0.909117 0.262793
O O13 0.992234 0.019086 0.153898
O O14 0.253163 0.099282 0.384183
O O15 0.686975 0.819361 0.011163
O O16 0.936260 0.446651 0.075834
#
# Coordination Sequence:
#
# PCOD9243211 Si02
#       8
#     4   4   4   4   4   4   4   4
#     4   9  21  39  58  83 118 155 195 237 302 352
#     4  10  20  37  58  87 117 154 198 243 293 354
#     4  10  20  38  62  89 119 155 196 248 295 350
#     4  11  23  37  60  91 117 158 204 239 297 348
#     4  11  22  39  62  90 121 152 202 251 290 349
#     4  11  19  35  59  90 116 150 202 241 293 354
#     4   9  19  37  60  83 117 157 196 243 294 348
#     4  11  21  40  61  84 124 160 192 246 298 355
#
# _framework density 27.136434000000001
#
# number of rings (size 3 to 8) (size 9 to 14) (size 15 to 20)
#    0.000    1.750    3.750    1.125    0.000    0.000 
#    0.000   13.125    0.000    0.000    0.000    0.000 
#    0.000    0.000    0.000    0.000    0.000    0.000 
#
# Total GULP energy -178391.033429 kJ/mol
# GULP energy per Si atom -5574.719795 kJ/mol
# Density = 2.707467 g / cm^3
# Si number density = 27.136434 Si / 1000 Ang^3
#
#
#
# Elastic Constant Matrix: (Units=GPa)
#
#
# Indices 1 2 3 4 5 6 
#
# 1 104.4497 10.8783 27.2633 0.0000 31.1421 0.0000
# 2 10.8783 42.0608 8.6407 0.0000 8.0693 0.0000
# 3 27.2633 8.6407 118.1433 0.0000 -10.3841 0.0000
# 4 0.0000 0.0000 0.0000 32.0043 0.0000 7.9969
# 5 31.1421 8.0693 -10.3841 0.0000 68.4569 0.0000
# 6 0.0000 0.0000 0.0000 7.9969 0.0000 14.5663
#
#
#
# Elastic Compliance Matrix: (Units=1/GPa)
#
#
# Indices 1 2 3 4 5 6 
#
# 1 0.012345 -0.001380 -0.003271 0.000000 -0.005950 0.000000
# 2 -0.001380 0.024984 -0.001736 0.000000 -0.002581 0.000000
# 3 -0.003271 -0.001736 0.009623 0.000000 0.003152 0.000000
# 4 0.000000 0.000000 0.000000 0.036214 0.000000 -0.019881
# 5 -0.005950 -0.002581 0.003152 0.000000 0.018097 0.000000
# 6 0.000000 0.000000 0.000000 -0.019881 0.000000 0.079566
#
#
# Mechanical properties :
#
#
# Convention : Reuss Voigt Hill
#
# Bulk Modulus (GPa) = 29.25710 39.80204 34.52957
# Shear Modulus (GPa) = 24.39093 37.53025 30.96059
#
# Velocity S-wave (km/s) = 3.00129 3.72293 3.38142
# Velocity P-wave (km/s) = 4.77653 5.76017 5.29126
#
# Compressibility (1/GPa) = 0.03417974
#
# Stress axis : x y z
#
# Youngs Moduli (GPa) = 81.00217 40.02631 103.91634
#
# Poissons Ratio (x) = 0.05522 0.33990
# Poissons Ratio (y) = 0.11174 0.18037
# Poissons Ratio (z) = 0.26495 0.06947
#
# Static dielectric constant tensor:
#      x y z
#    x 2.203810 0.000000 -0.104860 
#    y 0.000000 2.205660 0.000000 
#    z -0.104860 0.000000 2.260390 
# 
# From -- ./inp_files/29811.got.cif
#   From: 2010.05.17/outbox.cif.g08.bks.cpg/sg14_15_cif.got.tgz:29811.got - 2010.06.03 17:49:19.
