data_PCOD9243777
_publ_section_title
;
Structure prediction by ZEFSAII (Michael W. Deem and Ramdas Pophale) SiO2 
 PCOD9243777
Probable space group: P 21/C
;
_chemical_formula_sum "Si O2"
_cell_formula_units_Z 26
_cell_length_a 15.434233
_cell_length_b 5.129737
_cell_length_c 13.173894
_cell_angle_alpha 90.000000
_cell_angle_beta 78.869858
_cell_angle_gamma 90.000000
_cell_volume 1023.406054
_symmetry_space_group_name_H-M "P 21/C"
_symmetry_group_IT_number 14
_symmetry_cell_setting 'monoclinic'
loop_
_space_group_symop_operation_xyz
x,y,z
-x,1/2+y,1/2-z
-x,-y,-z
x,1/2-y,1/2+z
loop_
_atom_site_type_symbol
_atom_site_label
_atom_site_fract_x
_atom_site_fract_y
_atom_site_fract_z
Si Si1 0.324423 0.804660 0.925230
Si Si2 0.632413 0.802749 0.455128
Si Si3 0.157103 0.723590 0.354682
Si Si4 0.500000 0.000000 0.000000
Si Si5 0.981095 0.881554 0.819979
Si Si6 0.548142 0.309950 0.274574
Si Si7 0.197141 0.226234 0.212531
O O1 0.337126 0.544188 0.986383
O O2 0.220096 0.843470 0.934498
O O3 0.363561 0.777836 0.803740
O O4 0.378210 0.044323 0.965648
O O5 0.534268 0.776558 0.437713
O O6 0.706874 0.729505 0.358036
O O7 0.051510 0.691362 0.390862
O O8 0.179291 0.507239 0.264796
O O9 0.181666 0.006185 0.302477
O O10 0.448801 0.838434 0.106706
O O11 0.006497 0.675938 0.723487
O O12 0.877524 0.829282 0.855829
O O13 0.477244 0.089031 0.265087
#
# Coordination Sequence:
#
# PCOD9243777 Si02
#       7
#     4   4   4   2   4   4   4
#     4  12  24  44  61  95 134 165 214 280 331 390
#     4  12  26  41  64  94 130 172 218 275 333 398
#     4  10  20  38  65  91 125 171 213 271 334 383
#     4  12  26  46  72  92 128 180 220 270 350 376
#     4   8  16  32  59  89 123 160 215 267 316 390
#     4  12  25  46  67  96 127 168 221 274 328 393
#     4  10  20  39  62  95 122 169 224 264 321 406
#
# _framework density 25.405358
#
# number of rings (size 3 to 8) (size 9 to 14) (size 15 to 20)
#    0.000    1.231    3.077    2.769    0.000    3.692 
#    0.000    1.538    0.000    0.000    0.000    0.000 
#    0.000    0.000    0.000    0.000    0.000    0.000 
#
# Total GULP energy -145120.545324 kJ/mol
# GULP energy per Si atom -5581.559436 kJ/mol
# Density = 2.534753 g / cm^3
# Si number density = 25.405358 Si / 1000 Ang^3
#
#
#
# Elastic Constant Matrix: (Units=GPa)
#
#
# Indices 1 2 3 4 5 6 
#
# 1 84.4162 0.0991 11.4400 0.0000 21.5035 0.0000
# 2 0.0991 122.4833 23.5190 0.0000 6.3743 0.0000
# 3 11.4400 23.5190 78.7846 0.0000 12.5609 0.0000
# 4 0.0000 0.0000 0.0000 37.6110 0.0000 4.1057
# 5 21.5035 6.3743 12.5609 0.0000 29.0972 0.0000
# 6 0.0000 0.0000 0.0000 4.1057 0.0000 29.8040
#
#
#
# Elastic Compliance Matrix: (Units=1/GPa)
#
#
# Indices 1 2 3 4 5 6 
#
# 1 0.014658 0.000664 -0.000619 0.000000 -0.010711 0.000000
# 2 0.000664 0.008710 -0.002485 0.000000 -0.001326 0.000000
# 3 -0.000619 -0.002485 0.014353 0.000000 -0.005194 0.000000
# 4 0.000000 0.000000 0.000000 0.026994 0.000000 -0.003719
# 5 -0.010711 -0.001326 -0.005194 0.000000 0.044816 0.000000
# 6 0.000000 0.000000 0.000000 -0.003719 0.000000 0.034065
#
#
# Mechanical properties :
#
#
# Convention : Reuss Voigt Hill
#
# Bulk Modulus (GPa) = 30.45011 39.53336 34.99174
# Shear Modulus (GPa) = 31.36346 36.01084 33.68715
#
# Velocity S-wave (km/s) = 3.51739 3.76899 3.64536
# Velocity P-wave (km/s) = 5.33926 5.87666 5.61440
#
# Compressibility (1/GPa) = 0.03284060
#
# Stress axis : x y z
#
# Youngs Moduli (GPa) = 68.22442 114.80976 69.67328
#
# Poissons Ratio (x) = -0.07628 0.04313
# Poissons Ratio (y) = -0.04533 0.17315
# Poissons Ratio (z) = 0.04224 0.28532
#
# Static dielectric constant tensor:
#      x y z
#    x 3.321400 0.000000 0.177410 
#    y 0.000000 2.186710 0.000000 
#    z 0.177410 0.000000 1.954250 
# 
# From -- ./inp_files/45848.got.cif
#   From: 2010.05.17/outbox.cif.g08.bks.cpg/sg14_23_cif.got.tgz:45848.got - 2010.06.03 17:49:19.
