data_PCOD9243000
_publ_section_title
;
Structure prediction by ZEFSAII (Michael W. Deem and Ramdas Pophale) SiO2 
 PCOD9243000
Probable space group: P 21/C
;
_chemical_formula_sum "Si O2"
_cell_formula_units_Z 32
_cell_length_a 9.418813
_cell_length_b 7.098027
_cell_length_c 18.705867
_cell_angle_alpha 90.000000
_cell_angle_beta 90.712619
_cell_angle_gamma 90.000000
_cell_volume 1250.483806
_symmetry_space_group_name_H-M "P 21/C"
_symmetry_group_IT_number 14
_symmetry_cell_setting 'monoclinic'
loop_
_space_group_symop_operation_xyz
x,y,z
-x,1/2+y,1/2-z
-x,-y,-z
x,1/2-y,1/2+z
loop_
_atom_site_type_symbol
_atom_site_label
_atom_site_fract_x
_atom_site_fract_y
_atom_site_fract_z
Si Si1 0.205503 0.839698 0.942024
Si Si2 0.594044 0.690254 0.984106
Si Si3 0.732476 0.026497 0.658142
Si Si4 0.400066 0.558845 0.576315
Si Si5 0.066337 0.295124 0.994996
Si Si6 0.274149 0.107591 0.808716
Si Si7 0.685804 0.211610 0.285937
Si Si8 0.987336 0.700766 0.170359
O O1 0.268912 0.638574 0.916147
O O2 0.251755 0.972335 0.876759
O O3 0.035797 0.823719 0.953121
O O4 0.272234 0.899536 0.018606
O O5 0.532327 0.838741 0.040284
O O6 0.500000 0.500000 0.000000
O O7 0.765605 0.681923 0.989669
O O8 0.576522 0.832791 0.914705
O O9 0.673231 0.814809 0.666384
O O10 0.900433 0.994527 0.673432
O O11 0.668539 0.153018 0.718597
O O12 0.147864 0.803923 0.692956
O O13 0.036464 0.239408 0.912680
O O14 0.000000 0.500000 0.000000
O O15 0.351548 0.995521 0.745678
O O16 0.624105 0.177063 0.852569
O O17 0.112684 0.160211 0.784772
#
# Coordination Sequence:
#
# PCOD9243000 Si02
#       8
#     4   4   4   4   4   4   4   4
#     4  11  21  41  72 107 141 180 246 314 362 443
#     4  11  28  46  67 103 154 197 237 311 378 449
#     4   9  22  38  59 102 147 186 230 294 372 443
#     4  11  26  46  72 109 144 193 251 304 379 442
#     4  12  22  41  73 110 139 185 246 307 378 438
#     4   9  22  37  61 104 146 188 230 299 375 437
#     4  11  21  40  65  98 148 186 242 298 361 454
#     4  10  20  36  60 100 144 177 229 302 370 435
#
# _framework density 25.590094000000001
#
# number of rings (size 3 to 8) (size 9 to 14) (size 15 to 20)
#    0.750    0.750    2.500    2.250    1.750    2.000 
#    0.000    0.000    0.000    7.500    0.000    0.000 
#    0.000    0.000    0.000    0.000    0.000    0.000 
#
# Total GULP energy -178458.054290 kJ/mol
# GULP energy per Si atom -5576.814197 kJ/mol
# Density = 2.553185 g / cm^3
# Si number density = 25.590094 Si / 1000 Ang^3
#
#
#
# Elastic Constant Matrix: (Units=GPa)
#
#
# Indices 1 2 3 4 5 6 
#
# 1 153.6714 48.5893 13.4335 0.0000 -20.5950 0.0000
# 2 48.5893 195.2417 64.5818 0.0000 -4.3870 0.0000
# 3 13.4335 64.5818 102.1598 0.0000 -9.8145 0.0000
# 4 0.0000 0.0000 0.0000 46.4210 0.0000 -3.6122
# 5 -20.5950 -4.3870 -9.8145 0.0000 31.1445 0.0000
# 6 0.0000 0.0000 0.0000 -3.6122 0.0000 29.6362
#
#
#
# Elastic Compliance Matrix: (Units=1/GPa)
#
#
# Indices 1 2 3 4 5 6 
#
# 1 0.007780 -0.002080 0.000782 0.000000 0.005098 0.000000
# 2 -0.002080 0.007037 -0.004343 0.000000 -0.001753 0.000000
# 3 0.000782 -0.004343 0.012810 0.000000 0.003942 0.000000
# 4 0.000000 0.000000 0.000000 0.021748 0.000000 0.002651
# 5 0.005098 -0.001753 0.003942 0.000000 0.036475 0.000000
# 6 0.000000 0.000000 0.000000 0.002651 0.000000 0.034066
#
#
# Mechanical properties :
#
#
# Convention : Reuss Voigt Hill
#
# Bulk Modulus (GPa) = 61.18630 78.25356 69.71993
# Shear Modulus (GPa) = 36.59053 43.07154 39.83104
#
# Velocity S-wave (km/s) = 3.78547 4.10705 3.94953
# Velocity P-wave (km/s) = 6.56265 7.28948 6.93559
#
# Compressibility (1/GPa) = 0.01634353
#
# Stress axis : x y z
#
# Youngs Moduli (GPa) = 128.53396 142.10909 78.06286
#
# Poissons Ratio (x) = 0.29562 -0.06103
# Poissons Ratio (y) = 0.26738 0.33905
# Poissons Ratio (z) = -0.10049 0.61723
#
# Static dielectric constant tensor:
#      x y z
#    x 2.081360 0.000000 -0.020090 
#    y 0.000000 2.155800 0.000000 
#    z -0.020090 0.000000 2.075460 
# 
# From -- ./inp_files/79350.got.cif
#   From: 2010.05.17/outbox.cif.g08.bks.cpg/sg14_40_cif.got.tgz:79350.got - 2010.06.03 17:49:19.
