data_PCOD9243532
_publ_section_title
;
Structure prediction by ZEFSAII (Michael W. Deem and Ramdas Pophale) SiO2 
 PCOD9243532
Probable space group: P 21/C
;
_chemical_formula_sum "Si O2"
_cell_formula_units_Z 24
_cell_length_a 7.529861
_cell_length_b 9.913972
_cell_length_c 15.293266
_cell_angle_alpha 90.000000
_cell_angle_beta 63.665488
_cell_angle_gamma 90.000000
_cell_volume 1023.173357
_symmetry_space_group_name_H-M "P 21/C"
_symmetry_group_IT_number 14
_symmetry_cell_setting 'monoclinic'
loop_
_space_group_symop_operation_xyz
x,y,z
-x,1/2+y,1/2-z
-x,-y,-z
x,1/2-y,1/2+z
loop_
_atom_site_type_symbol
_atom_site_label
_atom_site_fract_x
_atom_site_fract_y
_atom_site_fract_z
Si Si1 0.437509 0.953880 0.611567
Si Si2 0.150488 0.376218 0.957868
Si Si3 0.819742 0.801077 0.350154
Si Si4 0.239706 0.831027 0.183365
Si Si5 0.898757 0.377339 0.471851
Si Si6 0.524114 0.937823 0.896459
O O1 0.639428 0.931909 0.621886
O O2 0.330023 0.810268 0.632863
O O3 0.500000 0.000000 0.500000
O O4 0.284284 0.069857 0.672448
O O5 0.034809 0.255138 0.937825
O O6 0.204170 0.314587 0.040574
O O7 0.000000 0.500000 0.000000
O O8 0.698591 0.670109 0.348345
O O9 0.054699 0.802113 0.285124
O O10 0.143958 0.905221 0.120210
O O11 0.415975 0.931352 0.173494
O O12 0.686554 0.362052 0.567646
O O13 0.000000 0.500000 0.500000
O O14 0.500000 0.000000 0.000000
#
# Coordination Sequence:
#
# PCOD9243532 Si02
#       6
#     4   4   4   4   4   4
#     4  10  20  38  60  82 114 158 194 227 285 362
#     4  11  21  37  59  85 112 148 191 236 282 339
#     4  11  22  39  60  85 115 154 196 239 286 343
#     4  11  22  39  60  85 115 154 196 239 286 343
#     4  11  21  37  59  85 112 148 191 236 282 339
#     4  10  20  38  60  82 114 158 194 227 285 362
#
# _framework density 23.456437000000001
#
# number of rings (size 3 to 8) (size 9 to 14) (size 15 to 20)
#    0.000    1.333    0.000   11.000    0.000    0.000 
#    0.000   10.000    0.000    0.000    0.000    0.000 
#    0.000    0.000    0.000    0.000    0.000    0.000 
#
# Total GULP energy -134023.135896 kJ/mol
# GULP energy per Si atom -5584.297329 kJ/mol
# Density = 2.340305 g / cm^3
# Si number density = 23.456437 Si / 1000 Ang^3
#
#
#
# Elastic Constant Matrix: (Units=GPa)
#
#
# Indices 1 2 3 4 5 6 
#
# 1 59.1545 13.6218 5.5133 0.0000 -24.1299 0.0000
# 2 13.6218 121.8082 13.5589 0.0000 -11.3039 0.0000
# 3 5.5133 13.5589 68.1104 0.0000 -33.0721 0.0000
# 4 0.0000 0.0000 0.0000 25.9815 0.0000 -26.4322
# 5 -24.1299 -11.3039 -33.0721 0.0000 36.5619 0.0000
# 6 0.0000 0.0000 0.0000 -26.4322 0.0000 49.1906
#
#
#
# Elastic Compliance Matrix: (Units=1/GPa)
#
#
# Indices 1 2 3 4 5 6 
#
# 1 0.027953 -0.001797 0.012096 0.000000 0.028834 0.000000
# 2 -0.001797 0.008588 -0.001517 0.000000 0.000097 0.000000
# 3 0.012096 -0.001517 0.031480 0.000000 0.035989 0.000000
# 4 0.000000 0.000000 0.000000 0.084902 0.000000 0.045622
# 5 0.028834 0.000097 0.035989 0.000000 0.078965 0.000000
# 6 0.000000 0.000000 0.000000 0.045622 0.000000 0.044844
#
#
# Mechanical properties :
#
#
# Convention : Reuss Voigt Hill
#
# Bulk Modulus (GPa) = 11.68414 34.94011 23.31212
# Shear Modulus (GPa) = 17.37946 36.77207 27.07577
#
# Velocity S-wave (km/s) = 2.72495 3.96368 3.40118
# Velocity P-wave (km/s) = 3.85908 5.98964 5.03827
#
# Compressibility (1/GPa) = 0.08558608
#
# Stress axis : x y z
#
# Youngs Moduli (GPa) = 35.77424 116.43555 31.76617
#
# Poissons Ratio (x) = 0.20918 -0.38424
# Poissons Ratio (y) = 0.06427 0.04819
# Poissons Ratio (z) = -0.43272 0.17663
#
# Static dielectric constant tensor:
#      x y z
#    x 1.990170 0.000000 -0.019760 
#    y 0.000000 1.967840 0.000000 
#    z -0.019760 0.000000 1.929940 
# 
# From -- ./inp_files/64738.got.cif
#   From: 2010.05.17/outbox.cif.g08.bks.cpg/sg14_33_cif.got.tgz:64738.got - 2010.06.03 17:49:19.
