data_PCOD9243875
_publ_section_title
;
Structure prediction by ZEFSAII (Michael W. Deem and Ramdas Pophale) SiO2 
 PCOD9243875
Probable space group: P 21/C
;
_chemical_formula_sum "Si O2"
_cell_formula_units_Z 20
_cell_length_a 5.421494
_cell_length_b 9.900003
_cell_length_c 14.533991
_cell_angle_alpha 90.000000
_cell_angle_beta 85.551302
_cell_angle_gamma 90.000000
_cell_volume 777.729855
_symmetry_space_group_name_H-M "P 21/C"
_symmetry_group_IT_number 14
_symmetry_cell_setting 'monoclinic'
loop_
_space_group_symop_operation_xyz
x,y,z
-x,1/2+y,1/2-z
-x,-y,-z
x,1/2-y,1/2+z
loop_
_atom_site_type_symbol
_atom_site_label
_atom_site_fract_x
_atom_site_fract_y
_atom_site_fract_z
Si Si1 0.103287 0.952317 0.840068
Si Si2 0.095094 0.051737 0.353568
Si Si3 0.319137 0.625378 0.987937
Si Si4 0.583866 0.556530 0.399209
Si Si5 0.608560 0.700400 0.613899
O O1 0.351983 0.872539 0.858679
O O2 0.155390 0.098193 0.886910
O O3 0.060312 0.967781 0.733810
O O4 0.855966 0.886965 0.887297
O O5 0.205132 0.914301 0.392566
O O6 0.309717 0.165147 0.334839
O O7 0.912113 0.115526 0.435562
O O8 0.496726 0.744743 0.020188
O O9 0.500000 0.500000 0.000000
O O10 0.500000 0.500000 0.500000
O O11 0.591889 0.409246 0.343228
#
# Coordination Sequence:
#
# PCOD9243875 Si02
#       5
#     4   4   4   4   4
#     4  10  23  39  65  87 125 155 202 251 291 361
#     4  10  20  39  59  91 119 160 203 246 301 344
#     4   9  19  36  63  83 124 159 196 248 296 361
#     4  10  22  43  61  86 122 161 195 247 306 352
#     4   9  21  36  63  84 124 155 201 245 300 352
#
# _framework density 25.715872999999998
#
# number of rings (size 3 to 8) (size 9 to 14) (size 15 to 20)
#    1.200    1.200    0.000    1.800    5.600    0.000 
#    3.600    4.000    0.000    0.000    0.000    0.000 
#    0.000    0.000    0.000    0.000    0.000    0.000 
#
# Total GULP energy -111360.523939 kJ/mol
# GULP energy per Si atom -5568.026197 kJ/mol
# Density = 2.565734 g / cm^3
# Si number density = 25.715873 Si / 1000 Ang^3
#
#
#
# Elastic Constant Matrix: (Units=GPa)
#
#
# Indices 1 2 3 4 5 6 
#
# 1 134.8523 5.3800 45.6167 0.0000 25.7251 0.0000
# 2 5.3800 92.2468 -11.6226 0.0000 10.4352 0.0000
# 3 45.6167 -11.6226 142.6899 0.0000 47.8456 0.0000
# 4 0.0000 0.0000 0.0000 11.7442 0.0000 4.2015
# 5 25.7251 10.4352 47.8456 0.0000 56.6209 0.0000
# 6 0.0000 0.0000 0.0000 4.2015 0.0000 24.9936
#
#
#
# Elastic Compliance Matrix: (Units=1/GPa)
#
#
# Indices 1 2 3 4 5 6 
#
# 1 0.008529 -0.000535 -0.002099 0.000000 -0.002003 0.000000
# 2 -0.000535 0.011629 0.002450 0.000000 -0.003970 0.000000
# 3 -0.002099 0.002450 0.010759 0.000000 -0.008589 0.000000
# 4 0.000000 0.000000 0.000000 0.090597 0.000000 -0.015230
# 5 -0.002003 -0.003970 -0.008589 0.000000 0.026561 0.000000
# 6 0.000000 0.000000 0.000000 -0.015230 0.000000 0.042570
#
#
# Mechanical properties :
#
#
# Convention : Reuss Voigt Hill
#
# Bulk Modulus (GPa) = 32.73472 49.83746 41.28609
# Shear Modulus (GPa) = 24.85134 40.69942 32.77538
#
# Velocity S-wave (km/s) = 3.11204 3.98258 3.57391
# Velocity P-wave (km/s) = 5.06656 6.36946 5.75500
#
# Compressibility (1/GPa) = 0.03054860
#
# Stress axis : x y z
#
# Youngs Moduli (GPa) = 117.24889 85.98866 92.94789
#
# Poissons Ratio (x) = 0.04602 0.19506
# Poissons Ratio (y) = 0.06276 -0.22768
# Poissons Ratio (z) = 0.24605 -0.21064
#
# Static dielectric constant tensor:
#      x y z
#    x 2.210310 0.000000 -0.094320 
#    y 0.000000 2.251470 0.000000 
#    z -0.094320 0.000000 2.141110 
# 
# From -- ./inp_files/36817.got.cif
#   From: 2010.05.17/outbox.cif.g08.bks.cpg/sg14_19_cif.got.tgz:36817.got - 2010.06.03 17:49:19.
