data_PCOD9243754
_publ_section_title
;
Structure prediction by ZEFSAII (Michael W. Deem and Ramdas Pophale) SiO2 
 PCOD9243754
Probable space group: P 21/C
;
_chemical_formula_sum "Si O2"
_cell_formula_units_Z 28
_cell_length_a 11.124610
_cell_length_b 15.484846
_cell_length_c 19.536286
_cell_angle_alpha 90.000000
_cell_angle_beta 155.556022
_cell_angle_gamma 90.000000
_cell_volume 1392.604048
_symmetry_space_group_name_H-M "P 21/C"
_symmetry_group_IT_number 14
_symmetry_cell_setting 'monoclinic'
loop_
_space_group_symop_operation_xyz
x,y,z
-x,1/2+y,1/2-z
-x,-y,-z
x,1/2-y,1/2+z
loop_
_atom_site_type_symbol
_atom_site_label
_atom_site_fract_x
_atom_site_fract_y
_atom_site_fract_z
Si Si1 0.346606 0.902495 0.698303
Si Si2 0.880361 0.149184 0.631950
Si Si3 0.632215 0.064097 0.625631
Si Si4 0.158243 0.480546 0.975027
Si Si5 0.776974 0.292917 0.412547
Si Si6 0.334785 0.248859 0.285905
Si Si7 0.994966 0.934556 0.060171
O O1 0.272252 0.806672 0.633473
O O2 0.106291 0.932122 0.627526
O O3 0.325832 0.969365 0.623515
O O4 0.663656 0.905330 0.895542
O O5 0.796833 0.136963 0.667640
O O6 0.590143 0.188815 0.446831
O O7 0.156194 0.206453 0.754296
O O8 0.937314 0.057153 0.625530
O O9 0.361914 0.081555 0.535604
O O10 0.870203 0.025940 0.801216
O O11 0.500000 0.000000 0.500000
O O12 0.506532 0.313396 0.322920
O O13 0.083191 0.298235 0.611864
O O14 0.812831 0.353669 0.366050
O O15 0.000000 0.000000 0.000000
#
# Coordination Sequence:
#
# PCOD9243754 Si02
#       7
#     4   4   4   4   4   4   4
#     4  11  22  39  65 102 133 166 223 281 342 394
#     4  10  21  42  61  91 127 182 220 258 329 407
#     4  10  24  44  65  89 136 177 213 269 337 399
#     4  10  20  39  67  95 130 173 216 272 341 393
#     4  11  22  38  64  97 135 165 219 283 336 383
#     4  10  20  38  64  93 128 172 220 267 326 404
#     4  12  25  41  69 103 131 172 228 286 328 397
#
# _framework density 20.106217999999998
#
# number of rings (size 3 to 8) (size 9 to 14) (size 15 to 20)
#    0.000    1.429    5.714    0.000    6.000    0.000 
#    5.143    4.286    0.000    0.000    0.000    0.000 
#    0.000    0.000    0.000    0.000    0.000    0.000 
#
# Total GULP energy -156208.044926 kJ/mol
# GULP energy per Si atom -5578.858747 kJ/mol
# Density = 2.006046 g / cm^3
# Si number density = 20.106218 Si / 1000 Ang^3
#
#
#
# Elastic Constant Matrix: (Units=GPa)
#
#
# Indices 1 2 3 4 5 6 
#
# 1 151.3933 41.0765 52.5406 0.0000 23.9517 0.0000
# 2 41.0765 57.9706 29.9869 0.0000 11.2159 0.0000
# 3 52.5406 29.9869 101.0304 0.0000 2.8946 0.0000
# 4 0.0000 0.0000 0.0000 14.2624 0.0000 0.8828
# 5 23.9517 11.2159 2.8946 0.0000 39.7255 0.0000
# 6 0.0000 0.0000 0.0000 0.8828 0.0000 39.9449
#
#
#
# Elastic Compliance Matrix: (Units=1/GPa)
#
#
# Indices 1 2 3 4 5 6 
#
# 1 0.009703 -0.004106 -0.003701 0.000000 -0.004421 0.000000
# 2 -0.004106 0.023305 -0.004674 0.000000 -0.003764 0.000000
# 3 -0.003701 -0.004674 0.013136 0.000000 0.002594 0.000000
# 4 0.000000 0.000000 0.000000 0.070210 0.000000 -0.001552
# 5 -0.004421 -0.003764 0.002594 0.000000 0.028712 0.000000
# 6 0.000000 0.000000 0.000000 -0.001552 0.000000 0.025069
#
#
# Mechanical properties :
#
#
# Convention : Reuss Voigt Hill
#
# Bulk Modulus (GPa) = 47.20831 61.95582 54.58207
# Shear Modulus (GPa) = 24.73312 31.23926 27.98619
#
# Velocity S-wave (km/s) = 3.51112 3.94599 3.73489
# Velocity P-wave (km/s) = 6.32200 7.18626 6.76794
#
# Compressibility (1/GPa) = 0.02118271
#
# Stress axis : x y z
#
# Youngs Moduli (GPa) = 103.05947 42.90846 76.12844
#
# Poissons Ratio (x) = 0.17616 0.28174
# Poissons Ratio (y) = 0.42312 0.35585
# Poissons Ratio (z) = 0.38141 0.20057
#
# Static dielectric constant tensor:
#      x y z
#    x 1.748370 0.000000 -0.000230 
#    y 0.000000 1.735640 0.000000 
#    z -0.000230 0.000000 1.725260 
# 
# From -- ./inp_files/67556.got.cif
#   From: 2010.05.17/outbox.cif.g08.bks.cpg/sg14_34_cif.got.tgz:67556.got - 2010.06.03 17:49:19.
