data_PCOD9243690
_publ_section_title
;
Structure prediction by ZEFSAII (Michael W. Deem and Ramdas Pophale) SiO2 
 PCOD9243690
Probable space group: P 21/C
;
_chemical_formula_sum "Si O2"
_cell_formula_units_Z 32
_cell_length_a 10.779210
_cell_length_b 8.516474
_cell_length_c 15.257336
_cell_angle_alpha 90.000000
_cell_angle_beta 118.566909
_cell_angle_gamma 90.000000
_cell_volume 1230.122107
_symmetry_space_group_name_H-M "P 21/C"
_symmetry_group_IT_number 14
_symmetry_cell_setting 'monoclinic'
loop_
_space_group_symop_operation_xyz
x,y,z
-x,1/2+y,1/2-z
-x,-y,-z
x,1/2-y,1/2+z
loop_
_atom_site_type_symbol
_atom_site_label
_atom_site_fract_x
_atom_site_fract_y
_atom_site_fract_z
Si Si1 0.380382 0.378054 0.565583
Si Si2 0.961349 0.789333 0.855093
Si Si3 0.196356 0.648281 0.033793
Si Si4 0.295799 0.429235 0.801934
Si Si5 0.358335 0.718803 0.266034
Si Si6 0.138198 0.331943 0.931397
Si Si7 0.889858 0.448696 0.751041
Si Si8 0.450560 0.724983 0.550747
O O1 0.473666 0.303091 0.674191
O O2 0.222962 0.318386 0.493649
O O3 0.401885 0.562956 0.578329
O O4 0.468920 0.317668 0.510872
O O5 0.808430 0.866465 0.809299
O O6 0.933766 0.622844 0.795553
O O7 0.054364 0.903459 0.825238
O O8 0.055873 0.748803 0.970471
O O9 0.288506 0.689090 0.148623
O O10 0.304667 0.682037 0.990300
O O11 0.159095 0.466038 0.011668
O O12 0.322792 0.610540 0.791691
O O13 0.212756 0.391026 0.865300
O O14 0.439883 0.333586 0.860430
O O15 0.275536 0.586391 0.295879
O O16 0.975535 0.332644 0.846368
#
# Coordination Sequence:
#
# PCOD9243690 Si02
#       8
#     4   4   4   4   4   4   4   4
#     4  10  21  38  64  89 112 150 198 252 297 344
#     4  10  21  39  64  88 114 149 195 250 295 344
#     4  11  24  38  55  85 123 159 192 235 293 358
#     4  10  21  39  63  88 114 153 199 246 295 344
#     4  12  24  37  56  85 122 161 194 231 293 359
#     4   9  20  39  63  86 112 151 198 246 295 344
#     4  10  20  38  63  88 114 150 198 247 294 345
#     4  10  21  39  62  89 115 146 200 253 296 345
#
# _framework density 26.013679
#
# number of rings (size 3 to 8) (size 9 to 14) (size 15 to 20)
#    0.000    1.750    0.000    5.250    0.000   11.500 
#    0.000    2.500    0.000    0.000    0.000    0.000 
#    0.000    0.000    0.000    0.000    0.000    0.000 
#
# Total GULP energy -179270.819463 kJ/mol
# GULP energy per Si atom -5602.213108 kJ/mol
# Density = 2.595447 g / cm^3
# Si number density = 26.013679 Si / 1000 Ang^3
#
#
#
# Elastic Constant Matrix: (Units=GPa)
#
#
# Indices 1 2 3 4 5 6 
#
# 1 79.6810 3.5873 4.9267 0.0000 16.9532 0.0000
# 2 3.5873 58.0206 27.4622 0.0000 2.4411 0.0000
# 3 4.9267 27.4622 121.8814 0.0000 11.6200 0.0000
# 4 0.0000 0.0000 0.0000 43.3074 0.0000 13.1133
# 5 16.9532 2.4411 11.6200 0.0000 44.5973 0.0000
# 6 0.0000 0.0000 0.0000 13.1133 0.0000 20.8202
#
#
#
# Elastic Compliance Matrix: (Units=1/GPa)
#
#
# Indices 1 2 3 4 5 6 
#
# 1 0.013678 -0.000671 0.000093 0.000000 -0.005187 0.000000
# 2 -0.000671 0.019326 -0.004359 0.000000 0.000333 0.000000
# 3 0.000093 -0.004359 0.009397 0.000000 -0.002245 0.000000
# 4 0.000000 0.000000 0.000000 0.028532 0.000000 -0.017971
# 5 -0.005187 0.000333 -0.002245 0.000000 0.024961 0.000000
# 6 0.000000 0.000000 0.000000 -0.017971 0.000000 0.059349
#
#
# Mechanical properties :
#
#
# Convention : Reuss Voigt Hill
#
# Bulk Modulus (GPa) = 30.74464 36.83728 33.79096
# Shear Modulus (GPa) = 28.41539 36.65212 32.53375
#
# Velocity S-wave (km/s) = 3.30862 3.75768 3.54028
# Velocity P-wave (km/s) = 5.14201 5.74616 5.45246
#
# Compressibility (1/GPa) = 0.03252600
#
# Stress axis : x y z
#
# Youngs Moduli (GPa) = 73.10939 51.74374 106.41481
#
# Poissons Ratio (x) = 0.03474 -0.00989
# Poissons Ratio (y) = 0.04909 0.46388
# Poissons Ratio (z) = -0.00679 0.22556
#
# Static dielectric constant tensor:
#      x y z
#    x 2.089450 0.000000 -0.084140 
#    y 0.000000 1.990100 0.000000 
#    z -0.084140 0.000000 2.077180 
# 
# From -- ./inp_files/57302.got.cif
#   From: 2010.05.17/outbox.cif.g08.bks.cpg/sg14_29_cif.got.tgz:57302.got - 2010.06.03 17:49:19.
