data_PCOD9243156
_publ_section_title
;
Structure prediction by ZEFSAII (Michael W. Deem and Ramdas Pophale) SiO2 
 PCOD9243156
Probable space group: P 21/C
;
_chemical_formula_sum "Si O2"
_cell_formula_units_Z 28
_cell_length_a 16.179471
_cell_length_b 19.496646
_cell_length_c 9.052506
_cell_angle_alpha 90.000000
_cell_angle_beta 27.054165
_cell_angle_gamma 90.000000
_cell_volume 1298.807077
_symmetry_space_group_name_H-M "P 21/C"
_symmetry_group_IT_number 14
_symmetry_cell_setting 'monoclinic'
loop_
_space_group_symop_operation_xyz
x,y,z
-x,1/2+y,1/2-z
-x,-y,-z
x,1/2-y,1/2+z
loop_
_atom_site_type_symbol
_atom_site_label
_atom_site_fract_x
_atom_site_fract_y
_atom_site_fract_z
Si Si1 0.416904 0.653016 0.182784
Si Si2 0.693362 0.339261 0.175818
Si Si3 0.738049 0.806335 0.621775
Si Si4 0.981451 0.408730 0.171547
Si Si5 0.777909 0.659299 0.714626
Si Si6 0.316630 0.731617 0.080588
Si Si7 0.052662 0.562526 0.118618
O O1 0.451411 0.688187 0.968855
O O2 0.389419 0.712069 0.350480
O O3 0.227087 0.614049 0.470230
O O4 0.594764 0.617199 0.960746
O O5 0.474714 0.328490 0.518168
O O6 0.778749 0.279757 0.146438
O O7 0.770288 0.323311 0.890411
O O8 0.744927 0.411235 0.165317
O O9 0.876494 0.853909 0.492740
O O10 0.770784 0.729197 0.628879
O O11 0.777035 0.817642 0.386135
O O12 0.022091 0.482059 0.180158
O O13 0.997719 0.417273 0.968867
O O14 0.936007 0.608868 0.414397
#
# Coordination Sequence:
#
# PCOD9243156 Si02
#       7
#     4   4   4   4   4   4   4
#     4  11  21  42  64  94 130 163 205 267 321 376
#     4  11  21  42  64  94 130 163 205 267 321 376
#     4  12  24  40  69 100 125 161 213 265 317 377
#     4  11  27  45  63  91 131 175 214 257 316 380
#     4  12  24  40  69 100 125 161 213 265 317 377
#     4  10  20  36  68  96 124 162 206 260 330 368
#     4  11  27  45  63  91 131 175 214 257 316 380
#
# _framework density 21.558244999999999
#
# number of rings (size 3 to 8) (size 9 to 14) (size 15 to 20)
#    0.000    0.857    5.714    0.857    8.000    1.714 
#    0.000    0.000    0.000    0.000    0.000    0.000 
#    0.000    0.000    0.000    0.000    0.000    0.000 
#
# Total GULP energy -156206.060082 kJ/mol
# GULP energy per Si atom -5578.787860 kJ/mol
# Density = 2.150918 g / cm^3
# Si number density = 21.558245 Si / 1000 Ang^3
#
#
#
# Elastic Constant Matrix: (Units=GPa)
#
#
# Indices 1 2 3 4 5 6 
#
# 1 98.5002 21.1558 18.1926 0.0000 13.2159 0.0000
# 2 21.1558 74.2207 25.2894 0.0000 -9.2061 0.0000
# 3 18.1926 25.2894 70.7691 0.0000 -16.2557 0.0000
# 4 0.0000 0.0000 0.0000 17.5338 0.0000 2.5429
# 5 13.2159 -9.2061 -16.2557 0.0000 34.1042 0.0000
# 6 0.0000 0.0000 0.0000 2.5429 0.0000 24.7020
#
#
#
# Elastic Compliance Matrix: (Units=1/GPa)
#
#
# Indices 1 2 3 4 5 6 
#
# 1 0.012562 -0.003218 -0.003815 0.000000 -0.007555 0.000000
# 2 -0.003218 0.016256 -0.004141 0.000000 0.003661 0.000000
# 3 -0.003815 -0.004141 0.018724 0.000000 0.009285 0.000000
# 4 0.000000 0.000000 0.000000 0.057897 0.000000 -0.005960
# 5 -0.007555 0.003661 0.009285 0.000000 0.037663 0.000000
# 6 0.000000 0.000000 0.000000 -0.005960 0.000000 0.041096
#
#
# Mechanical properties :
#
#
# Convention : Reuss Voigt Hill
#
# Bulk Modulus (GPa) = 39.69145 41.41839 40.55492
# Shear Modulus (GPa) = 23.26214 27.19150 25.22682
#
# Velocity S-wave (km/s) = 3.28843 3.55534 3.42449
# Velocity P-wave (km/s) = 5.73320 6.00899 5.87271
#
# Compressibility (1/GPa) = 0.02519434
#
# Stress axis : x y z
#
# Youngs Moduli (GPa) = 79.60804 61.51748 53.40870
#
# Poissons Ratio (x) = 0.19795 0.20373
# Poissons Ratio (y) = 0.25616 0.22115
# Poissons Ratio (z) = 0.30367 0.25473
#
# Static dielectric constant tensor:
#      x y z
#    x 1.804780 0.000000 -0.025060 
#    y 0.000000 1.780540 0.000000 
#    z -0.025060 0.000000 1.866000 
# 
# From -- ./inp_files/16914.got.cif
#   From: 2010.05.17/outbox.cif.g08.bks.cpg/sg14_9_cif.got.tgz:16914.got - 2010.06.03 17:49:19.
