data_PCOD9243208
_publ_section_title
;
Structure prediction by ZEFSAII (Michael W. Deem and Ramdas Pophale) SiO2 
 PCOD9243208
Probable space group: P 21/C
;
_chemical_formula_sum "Si O2"
_cell_formula_units_Z 20
_cell_length_a 7.351405
_cell_length_b 13.744063
_cell_length_c 14.533530
_cell_angle_alpha 90.000000
_cell_angle_beta 148.467062
_cell_angle_gamma 90.000000
_cell_volume 767.978133
_symmetry_space_group_name_H-M "P 21/C"
_symmetry_group_IT_number 14
_symmetry_cell_setting 'monoclinic'
loop_
_space_group_symop_operation_xyz
x,y,z
-x,1/2+y,1/2-z
-x,-y,-z
x,1/2-y,1/2+z
loop_
_atom_site_type_symbol
_atom_site_label
_atom_site_fract_x
_atom_site_fract_y
_atom_site_fract_z
Si Si1 0.236061 0.272546 0.810212
Si Si2 0.500411 0.050616 0.653144
Si Si3 0.273199 0.377998 0.644606
Si Si4 0.886568 0.094227 0.636445
Si Si5 0.000288 0.718961 0.088945
O O1 0.115546 0.332894 0.669876
O O2 0.235337 0.157277 0.789072
O O3 0.602111 0.321666 0.992936
O O4 0.013090 0.286421 0.806752
O O5 0.778250 0.051664 0.688740
O O6 0.323947 0.155023 0.588815
O O7 0.652424 0.990995 0.804304
O O8 0.183156 0.986187 0.470723
O O9 0.060653 0.329512 0.470089
O O10 0.655175 0.330048 0.799887
#
# Coordination Sequence:
#
# PCOD9243208 Si02
#       5
#     4   4   4   4   4
#     4  10  20  37  58  86 117 149 193 239 286 344
#     4   9  19  36  59  86 116 154 200 236 284 354
#     4  11  22  37  62  88 115 156 199 240 290 348
#     4   9  18  36  63  84 114 157 192 238 293 345
#     4  11  22  38  62  86 115 158 197 239 294 346
#
# _framework density 26.042407999999998
#
# number of rings (size 3 to 8) (size 9 to 14) (size 15 to 20)
#    0.000    2.000    0.000    6.600    0.000    0.000 
#    0.000    4.000    0.000   46.800    0.000    0.000 
#    0.000    0.000    0.000    0.000    0.000    0.000 
#
# Total GULP energy -111954.334717 kJ/mol
# GULP energy per Si atom -5597.716736 kJ/mol
# Density = 2.598313 g / cm^3
# Si number density = 26.042408 Si / 1000 Ang^3
#
#
#
# Elastic Constant Matrix: (Units=GPa)
#
#
# Indices 1 2 3 4 5 6 
#
# 1 98.0399 29.2131 18.7641 0.0000 -19.7219 0.0000
# 2 29.2131 142.0602 10.5345 0.0000 2.6627 0.0000
# 3 18.7641 10.5345 52.2520 0.0000 -6.8032 0.0000
# 4 0.0000 0.0000 0.0000 59.9424 0.0000 -6.0632
# 5 -19.7219 2.6627 -6.8032 0.0000 26.3839 0.0000
# 6 0.0000 0.0000 0.0000 -6.0632 0.0000 42.8514
#
#
#
# Elastic Compliance Matrix: (Units=1/GPa)
#
#
# Indices 1 2 3 4 5 6 
#
# 1 0.013532 -0.002736 -0.003058 0.000000 0.009603 0.000000
# 2 -0.002736 0.007732 -0.000977 0.000000 -0.003077 0.000000
# 3 -0.003058 -0.000977 0.020848 0.000000 0.003189 0.000000
# 4 0.000000 0.000000 0.000000 0.016925 0.000000 0.002395
# 5 0.009603 -0.003077 0.003189 0.000000 0.046213 0.000000
# 6 0.000000 0.000000 0.000000 0.002395 0.000000 0.023675
#
#
# Mechanical properties :
#
#
# Convention : Reuss Voigt Hill
#
# Bulk Modulus (GPa) = 35.00036 45.48618 40.24327
# Shear Modulus (GPa) = 32.89681 41.42489 37.16085
#
# Velocity S-wave (km/s) = 3.55801 3.99265 3.78158
# Velocity P-wave (km/s) = 5.50892 6.22568 5.87823
#
# Compressibility (1/GPa) = 0.02857114
#
# Stress axis : x y z
#
# Youngs Moduli (GPa) = 73.89823 129.33222 47.96583
#
# Poissons Ratio (x) = 0.35385 0.14666
# Poissons Ratio (y) = 0.20218 0.04686
# Poissons Ratio (z) = 0.22595 0.12636
#
# Static dielectric constant tensor:
#      x y z
#    x 2.014350 0.000000 0.004380 
#    y 0.000000 2.076680 0.000000 
#    z 0.004380 0.000000 2.136790 
# 
# From -- ./inp_files/8352.got.cif
#   From: 2010.05.17/outbox.cif.g08.bks.cpg/sg14_5_cif.got.tgz:8352.got - 2010.06.03 17:49:19.
