data_PCOD9243342
_publ_section_title
;
Structure prediction by ZEFSAII (Michael W. Deem and Ramdas Pophale) SiO2 
 PCOD9243342
Probable space group: P 21/C
;
_chemical_formula_sum "Si O2"
_cell_formula_units_Z 32
_cell_length_a 13.309531
_cell_length_b 9.585611
_cell_length_c 16.298244
_cell_angle_alpha 90.000000
_cell_angle_beta 145.494389
_cell_angle_gamma 90.000000
_cell_volume 1177.913152
_symmetry_space_group_name_H-M "P 21/C"
_symmetry_group_IT_number 14
_symmetry_cell_setting 'monoclinic'
loop_
_space_group_symop_operation_xyz
x,y,z
-x,1/2+y,1/2-z
-x,-y,-z
x,1/2-y,1/2+z
loop_
_atom_site_type_symbol
_atom_site_label
_atom_site_fract_x
_atom_site_fract_y
_atom_site_fract_z
Si Si1 0.193704 0.552344 0.824337
Si Si2 0.283748 0.600831 0.571322
Si Si3 0.707583 0.743674 0.133353
Si Si4 0.440263 0.232365 0.646810
Si Si5 0.918891 0.390594 0.083208
Si Si6 0.345035 0.641563 0.431081
Si Si7 0.185054 0.872014 0.650983
Si Si8 0.904039 0.854793 0.008235
O O1 0.267079 0.420148 0.822688
O O2 0.136213 0.515285 0.877770
O O3 0.316670 0.688349 0.912021
O O4 0.017519 0.615847 0.666196
O O5 0.470972 0.605428 0.743822
O O6 0.209794 0.755704 0.506909
O O7 0.302792 0.560278 0.487573
O O8 0.155084 0.515191 0.545506
O O9 0.893682 0.816972 0.275310
O O10 0.653187 0.717910 0.002957
O O11 0.557340 0.849855 0.064983
O O12 0.616900 0.319262 0.740257
O O13 0.290500 0.293108 0.605486
O O14 0.876783 0.464556 0.968614
O O15 0.220598 0.594286 0.270997
O O16 0.032588 0.751196 0.548099
#
# Coordination Sequence:
#
# PCOD9243342 Si02
#       8
#     4   4   4   4   4   4   4   4
#     4  10  20  37  64  94 126 179 221 268 341 401
#     4  10  22  40  64  95 131 181 215 271 344 403
#     4  11  20  38  63  92 129 170 224 275 333 395
#     4  10  23  39  61  97 135 170 222 283 333 398
#     4  10  20  37  61  94 133 170 217 273 331 396
#     4   9  21  39  60  95 133 167 219 281 329 397
#     4   9  22  40  62  95 133 171 223 275 333 404
#     4  11  21  41  68  91 131 182 221 277 346 401
#
# _framework density 27.166689999999999
#
# number of rings (size 3 to 8) (size 9 to 14) (size 15 to 20)
#    0.000    2.000    2.500    0.375    1.750    5.000 
#    2.250    2.500    2.750    3.750    0.000    0.000 
#    0.000    0.000    0.000    0.000    0.000    0.000 
#
# Total GULP energy -178508.937738 kJ/mol
# GULP energy per Si atom -5578.404304 kJ/mol
# Density = 2.710486 g / cm^3
# Si number density = 27.166690 Si / 1000 Ang^3
#
#
#
# Elastic Constant Matrix: (Units=GPa)
#
#
# Indices 1 2 3 4 5 6 
#
# 1 -167.4000 -326.1113 5.5613 0.0000 -203.0633 0.0000
# 2 -326.1113 -460.3090 -17.8844 0.0000 -282.1333 0.0000
# 3 5.5613 -17.8844 137.9683 0.0000 -36.7952 0.0000
# 4 0.0000 0.0000 0.0000 3.5990 0.0000 20.2172
# 5 -203.0633 -282.1333 -36.7952 0.0000 -114.2545 0.0000
# 6 0.0000 0.0000 0.0000 20.2172 0.0000 50.3250
#
#
#
# Elastic Compliance Matrix: (Units=1/GPa)
#
#
# Indices 1 2 3 4 5 6 
#
# 1 0.016329 -0.011445 -0.002159 0.000000 -0.000065 0.000000
# 2 -0.011445 0.013001 -0.000912 0.000000 -0.011469 0.000000
# 3 -0.002159 -0.000912 0.008142 0.000000 0.003468 0.000000
# 4 0.000000 0.000000 0.000000 -0.221094 0.000000 0.088821
# 5 -0.000065 -0.011469 0.003468 0.000000 0.018568 0.000000
# 6 0.000000 0.000000 0.000000 0.088821 0.000000 -0.015811
#
#
# Mechanical properties :
#
#
# Convention : Reuss Voigt Hill
#
# Bulk Modulus (GPa) = 118.49038 -129.62327 -5.56644
# Shear Modulus (GPa) = -33.55252 -22.15320 -27.85286
#
# Velocity S-wave (km/s) = -3.51816 -2.85871 -3.20544
# Velocity P-wave (km/s) = 5.21608 7.66250 3.96903
#
# Compressibility (1/GPa) = 0.00843950
#
# Stress axis : x y z
#
# Youngs Moduli (GPa) = 61.23930 76.91638 122.82518
#
# Poissons Ratio (x) = 0.88032 0.26519
# Poissons Ratio (y) = 0.70089 0.11203
# Poissons Ratio (z) = 0.13222 0.07016
#
# Static dielectric constant tensor:
#      x y z
#    x 2.341840 0.000000 0.022190 
#    y 0.000000 2.264690 0.000000 
#    z 0.022190 0.000000 2.111830 
# 
# From -- ./inp_files/59503.got.cif
#   From: 2010.05.17/outbox.cif.g08.bks.cpg/sg14_30_cif.got.tgz:59503.got - 2010.06.03 17:49:19.
