data_PCOD9243569
_publ_section_title
;
Structure prediction by ZEFSAII (Michael W. Deem and Ramdas Pophale) SiO2 
 PCOD9243569
Probable space group: P 21/C
;
_chemical_formula_sum "Si O2"
_cell_formula_units_Z 32
_cell_length_a 5.245800
_cell_length_b 17.589790
_cell_length_c 21.981620
_cell_angle_alpha 90.000000
_cell_angle_beta 129.644349
_cell_angle_gamma 90.000000
_cell_volume 1561.830400
_symmetry_space_group_name_H-M "P 21/C"
_symmetry_group_IT_number 14
_symmetry_cell_setting 'monoclinic'
loop_
_space_group_symop_operation_xyz
x,y,z
-x,1/2+y,1/2-z
-x,-y,-z
x,1/2-y,1/2+z
loop_
_atom_site_type_symbol
_atom_site_label
_atom_site_fract_x
_atom_site_fract_y
_atom_site_fract_z
Si Si1 0.794175 0.559033 0.036265
Si Si2 0.884523 0.519504 0.571022
Si Si3 0.115185 0.590847 0.205041
Si Si4 0.126690 0.125118 0.036135
Si Si5 0.739380 0.496595 0.249899
Si Si6 0.738879 0.292754 0.671115
Si Si7 0.070689 0.235252 0.605823
Si Si8 0.233662 0.085788 0.599360
O O1 0.888441 0.603797 0.111315
O O2 0.103730 0.501174 0.075896
O O3 0.500000 0.500000 0.000000
O O4 0.722486 0.605900 0.964794
O O5 0.500000 0.500000 0.500000
O O6 0.966498 0.595455 0.544671
O O7 0.073553 0.447750 0.570572
O O8 0.001065 0.524807 0.657984
O O9 0.472360 0.556891 0.238223
O O10 0.142334 0.664941 0.250875
O O11 0.933042 0.530956 0.221655
O O12 0.513729 0.146888 0.099015
O O13 0.952339 0.199162 0.040305
O O14 0.530889 0.425928 0.191870
O O15 0.461824 0.232928 0.649816
O O16 0.000544 0.261883 0.663267
O O17 0.969970 0.148099 0.582061
#
# Coordination Sequence:
#
# PCOD9243569 Si02
#       8
#     4   4   4   4   4   4   4   4
#     4  10  21  39  65  94 121 161 217 268 320 363
#     4  11  20  34  60  94 127 157 214 259 311 374
#     4  11  20  38  62  91 124 150 211 258 311 373
#     4   9  20  34  57  84 121 163 205 248 306 375
#     4  11  22  35  61  90 121 159 197 267 316 363
#     4  10  20  38  60  89 118 169 207 249 306 387
#     4  10  22  38  62  83 128 169 210 246 326 382
#     4  10  23  41  61  92 124 165 213 268 324 378
#
# _framework density 20.488782
#
# number of rings (size 3 to 8) (size 9 to 14) (size 15 to 20)
#    0.750    1.000    2.500    3.000    3.500    0.000 
#    0.000    1.250    0.000    0.000    0.000    0.000 
#    0.000    0.000    0.000    0.000    0.000    0.000 
#
# Total GULP energy -178162.566002 kJ/mol
# GULP energy per Si atom -5567.580188 kJ/mol
# Density = 2.044215 g / cm^3
# Si number density = 20.488782 Si / 1000 Ang^3
#
#
#
# Elastic Constant Matrix: (Units=GPa)
#
#
# Indices 1 2 3 4 5 6 
#
# 1 66.9323 14.5136 34.1517 0.0000 -14.8530 0.0000
# 2 14.5136 66.1964 26.1508 0.0000 -13.8893 0.0000
# 3 34.1517 26.1508 147.2857 0.0000 -22.8617 0.0000
# 4 0.0000 0.0000 0.0000 21.2509 0.0000 -4.7560
# 5 -14.8530 -13.8893 -22.8617 0.0000 27.6943 0.0000
# 6 0.0000 0.0000 0.0000 -4.7560 0.0000 22.8469
#
#
#
# Elastic Compliance Matrix: (Units=1/GPa)
#
#
# Indices 1 2 3 4 5 6 
#
# 1 0.018224 -0.001444 -0.002941 0.000000 0.006621 0.000000
# 2 -0.001444 0.017490 -0.001754 0.000000 0.006549 0.000000
# 3 -0.002941 -0.001754 0.008489 0.000000 0.004551 0.000000
# 4 0.000000 0.000000 0.000000 0.049356 0.000000 0.010274
# 5 0.006621 0.006549 0.004551 0.000000 0.046701 0.000000
# 6 0.000000 0.000000 0.000000 0.010274 0.000000 0.045908
#
#
# Mechanical properties :
#
#
# Convention : Reuss Voigt Hill
#
# Bulk Modulus (GPa) = 31.32430 47.78295 39.55362
# Shear Modulus (GPa) = 23.91316 28.06497 25.98906
#
# Velocity S-wave (km/s) = 3.42004 3.70506 3.56540
# Velocity P-wave (km/s) = 5.56033 6.45565 6.02465
#
# Compressibility (1/GPa) = 0.03192410
#
# Stress axis : x y z
#
# Youngs Moduli (GPa) = 54.87321 57.17456 117.79448
#
# Poissons Ratio (x) = 0.08258 0.34649
# Poissons Ratio (y) = 0.07925 0.20661
# Poissons Ratio (z) = 0.16141 0.10028
#
# Static dielectric constant tensor:
#      x y z
#    x 1.823250 0.000000 0.020270 
#    y 0.000000 1.855930 0.000000 
#    z 0.020270 0.000000 1.764870 
# 
# From -- ./inp_files/63907.got.cif
#   From: 2010.05.17/outbox.cif.g08.bks.cpg/sg14_32_cif.got.tgz:63907.got - 2010.06.03 17:49:19.
