data_PCOD9243763
_publ_section_title
;
Structure prediction by ZEFSAII (Michael W. Deem and Ramdas Pophale) SiO2 
 PCOD9243763
Probable space group: P 21/C
;
_chemical_formula_sum "Si O2"
_cell_formula_units_Z 32
_cell_length_a 13.200110
_cell_length_b 5.554784
_cell_length_c 18.252598
_cell_angle_alpha 90.000000
_cell_angle_beta 109.687615
_cell_angle_gamma 90.000000
_cell_volume 1260.113759
_symmetry_space_group_name_H-M "P 21/C"
_symmetry_group_IT_number 14
_symmetry_cell_setting 'monoclinic'
loop_
_space_group_symop_operation_xyz
x,y,z
-x,1/2+y,1/2-z
-x,-y,-z
x,1/2-y,1/2+z
loop_
_atom_site_type_symbol
_atom_site_label
_atom_site_fract_x
_atom_site_fract_y
_atom_site_fract_z
Si Si1 0.276420 0.161986 0.386295
Si Si2 0.972343 0.592760 0.353200
Si Si3 0.446005 0.473200 0.371769
Si Si4 0.252436 0.296537 0.647920
Si Si5 0.624240 0.216874 0.501992
Si Si6 0.825442 0.495662 0.522262
Si Si7 0.135727 0.765849 0.270126
Si Si8 0.665846 0.316510 0.775244
O O1 0.354750 0.267919 0.343906
O O2 0.206284 0.352094 0.413567
O O3 0.364476 0.053770 0.465930
O O4 0.192663 0.982111 0.329111
O O5 0.051997 0.584058 0.440836
O O6 0.046459 0.668305 0.303223
O O7 0.861392 0.733924 0.336475
O O8 0.928322 0.333067 0.319170
O O9 0.551822 0.325573 0.420013
O O10 0.411739 0.635055 0.433776
O O11 0.442509 0.636295 0.298408
O O12 0.210274 0.355631 0.556410
O O13 0.311200 0.546352 0.689171
O O14 0.317323 0.046029 0.667477
O O15 0.746518 0.270248 0.509110
O O16 0.242054 0.643539 0.264781
#
# Coordination Sequence:
#
# PCOD9243763 Si02
#       8
#     4   4   4   4   4   4   4   4
#     4  11  20  38  66  98 133 167 208 281 336 401
#     4  11  21  38  61  95 127 173 215 277 327 394
#     4  10  20  38  65 100 126 157 214 265 353 384
#     4  11  27  43  66  90 132 183 229 266 317 391
#     4  10  21  38  65  95 128 165 205 277 328 406
#     4  11  24  42  58  92 131 180 225 265 321 392
#     4  11  20  37  65 100 130 161 217 271 349 388
#     4  11  23  44  65  97 128 172 216 282 327 393
#
# _framework density 25.394534
#
# number of rings (size 3 to 8) (size 9 to 14) (size 15 to 20)
#    0.000    1.250    2.500    4.500    1.750    1.000 
#    0.000    5.000    0.000    0.000    0.000    0.000 
#    0.000    0.000    0.000    0.000    0.000    0.000 
#
# Total GULP energy -178720.152713 kJ/mol
# GULP energy per Si atom -5585.004772 kJ/mol
# Density = 2.533674 g / cm^3
# Si number density = 25.394534 Si / 1000 Ang^3
#
#
#
# Elastic Constant Matrix: (Units=GPa)
#
#
# Indices 1 2 3 4 5 6 
#
# 1 68.1695 17.8654 11.6426 0.0000 16.4950 0.0000
# 2 17.8654 84.7905 18.0841 0.0000 23.2044 0.0000
# 3 11.6426 18.0841 78.7546 0.0000 33.3983 0.0000
# 4 0.0000 0.0000 0.0000 41.6444 0.0000 9.3365
# 5 16.4950 23.2044 33.3983 0.0000 42.1486 0.0000
# 6 0.0000 0.0000 0.0000 9.3365 0.0000 27.8464
#
#
#
# Elastic Compliance Matrix: (Units=1/GPa)
#
#
# Indices 1 2 3 4 5 6 
#
# 1 0.016500 -0.002011 0.000439 0.000000 -0.005698 0.000000
# 2 -0.002011 0.014131 0.000027 0.000000 -0.007014 0.000000
# 3 0.000439 0.000027 0.019136 0.000000 -0.015350 0.000000
# 4 0.000000 0.000000 0.000000 0.025965 0.000000 -0.008706
# 5 -0.005698 -0.007014 -0.015350 0.000000 0.041981 0.000000
# 6 0.000000 0.000000 0.000000 -0.008706 0.000000 0.038830
#
#
# Mechanical properties :
#
#
# Convention : Reuss Voigt Hill
#
# Bulk Modulus (GPa) = 21.42339 36.32208 28.87274
# Shear Modulus (GPa) = 28.54011 34.60270 31.57140
#
# Velocity S-wave (km/s) = 3.35605 3.69535 3.52978
# Velocity P-wave (km/s) = 4.84479 5.70453 5.29215
#
# Compressibility (1/GPa) = 0.04667795
#
# Stress axis : x y z
#
# Youngs Moduli (GPa) = 60.60564 70.76499 52.25679
#
# Poissons Ratio (x) = 0.14229 -0.02294
# Poissons Ratio (y) = 0.12186 -0.00141
# Poissons Ratio (z) = -0.02660 -0.00191
#
# Static dielectric constant tensor:
#      x y z
#    x 2.014690 0.000000 -0.004070 
#    y 0.000000 2.016330 0.000000 
#    z -0.004070 0.000000 2.081900 
# 
# From -- ./inp_files/67878.got.cif
#   From: 2010.05.17/outbox.cif.g08.bks.cpg/sg14_34_cif.got.tgz:67878.got - 2010.06.03 17:49:19.
