data_PCOD9243969
_publ_section_title
;
Structure prediction by ZEFSAII (Michael W. Deem and Ramdas Pophale) SiO2 
 PCOD9243969
Probable space group: P 21/C
;
_chemical_formula_sum "Si O2"
_cell_formula_units_Z 28
_cell_length_a 9.291514
_cell_length_b 13.308436
_cell_length_c 10.671810
_cell_angle_alpha 90.000000
_cell_angle_beta 122.362334
_cell_angle_gamma 90.000000
_cell_volume 1114.663546
_symmetry_space_group_name_H-M "P 21/C"
_symmetry_group_IT_number 14
_symmetry_cell_setting 'monoclinic'
loop_
_space_group_symop_operation_xyz
x,y,z
-x,1/2+y,1/2-z
-x,-y,-z
x,1/2-y,1/2+z
loop_
_atom_site_type_symbol
_atom_site_label
_atom_site_fract_x
_atom_site_fract_y
_atom_site_fract_z
Si Si1 0.719518 0.450747 0.320871
Si Si2 0.085173 0.418671 0.750116
Si Si3 0.145135 0.563395 0.135761
Si Si4 0.572606 0.904300 0.956555
Si Si5 0.358768 0.081371 0.596569
Si Si6 0.354082 0.724019 0.162646
Si Si7 0.693868 0.742514 0.721279
O O1 0.885973 0.484658 0.323643
O O2 0.681235 0.540828 0.399114
O O3 0.553105 0.439680 0.154507
O O4 0.704236 0.339950 0.372462
O O5 0.146169 0.316350 0.711754
O O6 0.911974 0.418501 0.748611
O O7 0.233013 0.426253 0.923796
O O8 0.311308 0.498822 0.181682
O O9 0.179230 0.663377 0.073502
O O10 0.000000 0.500000 0.000000
O O11 0.435409 0.825532 0.829518
O O12 0.685530 0.836706 0.104011
O O13 0.500000 0.000000 0.000000
O O14 0.321498 0.184536 0.653374
O O15 0.505721 0.704876 0.134169
#
# Coordination Sequence:
#
# PCOD9243969 Si02
#       7
#     4   4   4   4   4   4   4
#     4  11  22  39  66  97 124 158 219 269 320 374
#     4  11  23  37  61  92 127 168 210 259 314 387
#     4  10  22  40  61  86 128 168 209 256 307 383
#     4  12  21  39  66  96 126 160 210 280 327 364
#     4  10  20  39  63  89 122 164 210 267 307 369
#     4  11  22  40  63  95 125 165 215 261 321 379
#     4  11  21  38  68  92 127 164 216 267 323 371
#
# _framework density 25.119688
#
# number of rings (size 3 to 8) (size 9 to 14) (size 15 to 20)
#    0.000    1.143    5.714    2.143    0.000    4.571 
#    0.000    1.429    0.000    2.571    0.000    0.000 
#    0.000    0.000    0.000    0.000    0.000    0.000 
#
# Total GULP energy -156248.840982 kJ/mol
# GULP energy per Si atom -5580.315749 kJ/mol
# Density = 2.506251 g / cm^3
# Si number density = 25.119688 Si / 1000 Ang^3
#
#
#
# Elastic Constant Matrix: (Units=GPa)
#
#
# Indices 1 2 3 4 5 6 
#
# 1 88.5257 40.6805 -20.6375 0.0000 -19.9284 0.0000
# 2 40.6805 122.2227 6.9552 0.0000 -13.5663 0.0000
# 3 -20.6375 6.9552 65.8292 0.0000 4.2953 0.0000
# 4 0.0000 0.0000 0.0000 35.6494 0.0000 -18.6398
# 5 -19.9284 -13.5663 4.2953 0.0000 26.3448 0.0000
# 6 0.0000 0.0000 0.0000 -18.6398 0.0000 32.1279
#
#
#
# Elastic Compliance Matrix: (Units=1/GPa)
#
#
# Indices 1 2 3 4 5 6 
#
# 1 0.016855 -0.004862 0.005184 0.000000 0.009401 0.000000
# 2 -0.004862 0.010178 -0.002731 0.000000 0.002009 0.000000
# 3 0.005184 -0.002731 0.017123 0.000000 -0.000276 0.000000
# 4 0.000000 0.000000 0.000000 0.040266 0.000000 0.023361
# 5 0.009401 0.002009 -0.000276 0.000000 0.046149 0.000000
# 6 0.000000 0.000000 0.000000 0.023361 0.000000 0.044679
#
#
# Mechanical properties :
#
#
# Convention : Reuss Voigt Hill
#
# Bulk Modulus (GPa) = 25.41913 36.73045 31.07479
# Shear Modulus (GPa) = 25.88269 35.46306 30.67288
#
# Velocity S-wave (km/s) = 3.21343 3.76142 3.49817
# Velocity P-wave (km/s) = 4.88972 5.78950 5.35853
#
# Compressibility (1/GPa) = 0.03934045
#
# Stress axis : x y z
#
# Youngs Moduli (GPa) = 59.32902 98.24847 58.40228
#
# Poissons Ratio (x) = 0.47764 -0.30278
# Poissons Ratio (y) = 0.28843 0.15947
# Poissons Ratio (z) = -0.30758 0.26827
#
# Static dielectric constant tensor:
#      x y z
#    x 2.066050 0.000000 0.048490 
#    y 0.000000 2.113340 0.000000 
#    z 0.048490 0.000000 2.054550 
# 
# From -- ./inp_files/24957.got.cif
#   From: 2010.05.17/outbox.cif.g08.bks.cpg/sg14_13_cif.got.tgz:24957.got - 2010.06.03 17:49:19.
