data_PCOD9243380
_publ_section_title
;
Structure prediction by ZEFSAII (Michael W. Deem and Ramdas Pophale) SiO2 
 PCOD9243380
Probable space group: P 21/C
;
_chemical_formula_sum "Si O2"
_cell_formula_units_Z 28
_cell_length_a 7.904387
_cell_length_b 12.866971
_cell_length_c 12.235719
_cell_angle_alpha 90.000000
_cell_angle_beta 83.197860
_cell_angle_gamma 90.000000
_cell_volume 1235.680634
_symmetry_space_group_name_H-M "P 21/C"
_symmetry_group_IT_number 14
_symmetry_cell_setting 'monoclinic'
loop_
_space_group_symop_operation_xyz
x,y,z
-x,1/2+y,1/2-z
-x,-y,-z
x,1/2-y,1/2+z
loop_
_atom_site_type_symbol
_atom_site_label
_atom_site_fract_x
_atom_site_fract_y
_atom_site_fract_z
Si Si1 0.690268 0.624196 0.594345
Si Si2 0.315287 0.849334 0.214365
Si Si3 0.814532 0.598476 0.818866
Si Si4 0.167925 0.933545 0.010797
Si Si5 0.183771 0.646702 0.135914
Si Si6 0.449009 0.897931 0.435565
Si Si7 0.031044 0.262133 0.022291
O O1 0.503274 0.658235 0.644587
O O2 0.808326 0.626214 0.693093
O O3 0.686377 0.505054 0.552852
O O4 0.792757 0.697738 0.503617
O O5 0.234065 0.733886 0.219947
O O6 0.343651 0.902406 0.329973
O O7 0.206430 0.915286 0.135286
O O8 0.821338 0.473069 0.827120
O O9 0.633780 0.638259 0.881466
O O10 0.953941 0.657278 0.880016
O O11 0.118664 0.823585 0.961699
O O12 0.000000 0.000000 0.000000
O O13 0.010094 0.674413 0.085475
O O14 0.330518 0.658712 0.031883
O O15 0.500000 0.000000 0.500000
#
# Coordination Sequence:
#
# PCOD9243380 Si02
#       7
#     4   4   4   4   4   4   4
#     4  10  21  38  58  84 118 155 202 250 302 370
#     4  10  20  37  63  88 118 163 199 250 314 365
#     4  10  21  38  58  84 117 157 201 252 308 364
#     4   9  20  37  57  86 118 153 202 250 302 366
#     4  10  21  36  58  87 118 155 199 247 305 370
#     4   9  20  39  59  85 118 155 204 252 302 370
#     4  10  21  37  56  84 118 156 200 251 304 363
#
# _framework density 22.659576999999999
#
# number of rings (size 3 to 8) (size 9 to 14) (size 15 to 20)
#    0.000    2.286    0.000    1.714    0.000    6.857 
#    0.000   24.286    0.000    0.000    0.000    0.000 
#    0.000    0.000    0.000    0.000    0.000    0.000 
#
# Total GULP energy -156211.213830 kJ/mol
# GULP energy per Si atom -5578.971923 kJ/mol
# Density = 2.260800 g / cm^3
# Si number density = 22.659577 Si / 1000 Ang^3
#
#
#
# Elastic Constant Matrix: (Units=GPa)
#
#
# Indices 1 2 3 4 5 6 
#
# 1 74.4596 29.8372 28.8787 0.0000 18.4650 0.0000
# 2 29.8372 130.0704 72.0300 0.0000 28.2817 0.0000
# 3 28.8787 72.0300 146.2210 0.0000 31.5272 0.0000
# 4 0.0000 0.0000 0.0000 28.0691 0.0000 5.8933
# 5 18.4650 28.2817 31.5272 0.0000 44.3934 0.0000
# 6 0.0000 0.0000 0.0000 5.8933 0.0000 28.2843
#
#
#
# Elastic Compliance Matrix: (Units=1/GPa)
#
#
# Indices 1 2 3 4 5 6 
#
# 1 0.015794 -0.002005 -0.001170 0.000000 -0.004461 0.000000
# 2 -0.002005 0.011333 -0.004499 0.000000 -0.003191 0.000000
# 3 -0.001170 -0.004499 0.010112 0.000000 -0.003828 0.000000
# 4 0.000000 0.000000 0.000000 0.037256 0.000000 -0.007763
# 5 -0.004461 -0.003191 -0.003828 0.000000 0.029133 0.000000
# 6 0.000000 0.000000 0.000000 -0.007763 0.000000 0.036973
#
#
# Mechanical properties :
#
#
# Convention : Reuss Voigt Hill
#
# Bulk Modulus (GPa) = 45.68047 68.02696 56.85372
# Shear Modulus (GPa) = 30.62881 34.81637 32.72259
#
# Velocity S-wave (km/s) = 3.68053 3.92407 3.80425
# Velocity P-wave (km/s) = 6.18587 7.11460 6.66643
#
# Compressibility (1/GPa) = 0.02189119
#
# Stress axis : x y z
#
# Youngs Moduli (GPa) = 63.31700 88.23521 98.89633
#
# Poissons Ratio (x) = 0.17693 0.11566
# Poissons Ratio (y) = 0.12697 0.44492
# Poissons Ratio (z) = 0.07405 0.39696
#
# Static dielectric constant tensor:
#      x y z
#    x 1.900050 0.000000 -0.001130 
#    y 0.000000 1.881480 0.000000 
#    z -0.001130 0.000000 1.929510 
# 
# From -- ./inp_files/24973.got.cif
#   From: 2010.05.17/outbox.cif.g08.bks.cpg/sg14_13_cif.got.tgz:24973.got - 2010.06.03 17:49:19.
