data_PCOD9243982
_publ_section_title
;
Structure prediction by ZEFSAII (Michael W. Deem and Ramdas Pophale) SiO2 
 PCOD9243982
Probable space group: P 21/C
;
_chemical_formula_sum "Si O2"
_cell_formula_units_Z 30
_cell_length_a 22.369975
_cell_length_b 5.443876
_cell_length_c 18.271077
_cell_angle_alpha 90.000000
_cell_angle_beta 33.707047
_cell_angle_gamma 90.000000
_cell_volume 1234.778849
_symmetry_space_group_name_H-M "P 21/C"
_symmetry_group_IT_number 14
_symmetry_cell_setting 'monoclinic'
loop_
_space_group_symop_operation_xyz
x,y,z
-x,1/2+y,1/2-z
-x,-y,-z
x,1/2-y,1/2+z
loop_
_atom_site_type_symbol
_atom_site_label
_atom_site_fract_x
_atom_site_fract_y
_atom_site_fract_z
Si Si1 0.304233 0.284537 0.640239
Si Si2 0.585627 0.962574 0.594672
Si Si3 0.984423 0.455581 0.219280
Si Si4 0.802440 0.039410 0.559950
Si Si5 0.750769 0.332774 0.470757
Si Si6 0.500000 0.500000 0.000000
Si Si7 0.264749 0.704793 0.236368
Si Si8 0.377647 0.206935 0.797209
O O1 0.245909 0.534904 0.717393
O O2 0.350041 0.251061 0.511395
O O3 0.413941 0.230570 0.572843
O O4 0.229801 0.046591 0.733072
O O5 0.661569 0.198793 0.513497
O O6 0.475306 0.041637 0.665288
O O7 0.566344 0.887325 0.698914
O O8 0.860238 0.424022 0.323523
O O9 0.991175 0.722385 0.252210
O O10 0.075853 0.444480 0.063790
O O11 0.703663 0.850539 0.672134
O O12 0.784860 0.118721 0.493728
O O13 0.784568 0.263464 0.632849
O O14 0.696423 0.530170 0.579219
O O15 0.606445 0.320153 0.891359
#
# Coordination Sequence:
#
# PCOD9243982 Si02
#       8
#     4   4   4   4   4   2   4   4
#     4  10  24  38  58  83 121 166 203 247 291 369
#     4  11  24  37  58  85 128 163 203 241 304 373
#     4  10  20  39  63  91 121 155 201 256 315 356
#     4  10  23  37  63  91 122 154 202 267 300 368
#     4  10  22  39  58  90 122 162 198 248 316 367
#     4   8  22  36  54  82 110 162 202 244 288 350
#     4  10  23  38  58  88 118 161 208 247 310 347
#     4  11  22  36  58  90 120 162 198 246 307 370
#
# _framework density 24.295849
#
# number of rings (size 3 to 8) (size 9 to 14) (size 15 to 20)
#    0.800    1.067    2.667    0.400    7.467    0.000 
#    0.000    0.000    0.000    1.600    0.000    0.000 
#    0.000    0.000    0.000    0.000    0.000    0.000 
#
# Total GULP energy -167106.941483 kJ/mol
# GULP energy per Si atom -5570.231383 kJ/mol
# Density = 2.424055 g / cm^3
# Si number density = 24.295849 Si / 1000 Ang^3
#
#
#
# Elastic Constant Matrix: (Units=GPa)
#
#
# Indices 1 2 3 4 5 6 
#
# 1 39.0202 12.3493 24.1321 0.0000 -3.8466 0.0000
# 2 12.3493 122.6079 23.0934 0.0000 -0.5275 0.0000
# 3 24.1321 23.0934 121.0247 0.0000 -16.0425 0.0000
# 4 0.0000 0.0000 0.0000 41.6477 0.0000 9.8090
# 5 -3.8466 -0.5275 -16.0425 0.0000 31.9199 0.0000
# 6 0.0000 0.0000 0.0000 9.8090 0.0000 23.9146
#
#
#
# Elastic Compliance Matrix: (Units=1/GPa)
#
#
# Indices 1 2 3 4 5 6 
#
# 1 0.029692 -0.001963 -0.005438 0.000000 0.000812 0.000000
# 2 -0.001963 0.008605 -0.001353 0.000000 -0.000774 0.000000
# 3 -0.005438 -0.001353 0.010195 0.000000 0.004446 0.000000
# 4 0.000000 0.000000 0.000000 0.026579 0.000000 -0.010902
# 5 0.000812 -0.000774 0.004446 0.000000 0.033648 0.000000
# 6 0.000000 0.000000 0.000000 -0.010902 0.000000 0.046287
#
#
# Mechanical properties :
#
#
# Convention : Reuss Voigt Hill
#
# Bulk Modulus (GPa) = 32.27528 44.64473 38.46001
# Shear Modulus (GPa) = 27.34587 34.36830 30.85708
#
# Velocity S-wave (km/s) = 3.35854 3.76516 3.56765
# Velocity P-wave (km/s) = 5.32474 6.10879 5.73019
#
# Compressibility (1/GPa) = 0.03098346
#
# Stress axis : x y z
#
# Youngs Moduli (GPa) = 33.67855 116.20674 98.08957
#
# Poissons Ratio (x) = 0.22810 0.53345
# Poissons Ratio (y) = 0.06611 0.13275
# Poissons Ratio (z) = 0.18316 0.15726
#
# Static dielectric constant tensor:
#      x y z
#    x 1.991290 0.000000 -0.078430 
#    y 0.000000 1.945210 0.000000 
#    z -0.078430 0.000000 1.804720 
# 
# From -- ./inp_files/70353.got.cif
#   From: 2010.05.17/outbox.cif.g08.bks.cpg/sg14_36_cif.got.tgz:70353.got - 2010.06.03 17:49:19.
