data_PCOD9243169
_publ_section_title
;
Structure prediction by ZEFSAII (Michael W. Deem and Ramdas Pophale) SiO2 
 PCOD9243169
Probable space group: P 21/C
;
_chemical_formula_sum "Si O2"
_cell_formula_units_Z 32
_cell_length_a 10.148428
_cell_length_b 22.869565
_cell_length_c 16.996081
_cell_angle_alpha 90.000000
_cell_angle_beta 25.552773
_cell_angle_gamma 90.000000
_cell_volume 1701.482443
_symmetry_space_group_name_H-M "P 21/C"
_symmetry_group_IT_number 14
_symmetry_cell_setting 'monoclinic'
loop_
_space_group_symop_operation_xyz
x,y,z
-x,1/2+y,1/2-z
-x,-y,-z
x,1/2-y,1/2+z
loop_
_atom_site_type_symbol
_atom_site_label
_atom_site_fract_x
_atom_site_fract_y
_atom_site_fract_z
Si Si1 0.990921 0.246519 0.226734
Si Si2 0.182401 0.940686 0.874007
Si Si3 0.416829 0.173045 0.596376
Si Si4 0.321482 0.953671 0.149599
Si Si5 0.405792 0.126289 0.777054
Si Si6 0.564188 0.327601 0.361406
Si Si7 0.603529 0.554886 0.994873
Si Si8 0.645652 0.007887 0.694945
O O1 0.724387 0.206347 0.405277
O O2 0.845127 0.287428 0.237669
O O3 0.139770 0.286736 0.214412
O O4 0.257372 0.207124 0.046879
O O5 0.344227 0.939805 0.702180
O O6 0.475906 0.947052 0.771364
O O7 0.946666 0.888617 0.011964
O O8 0.000000 0.000000 0.000000
O O9 0.419042 0.160537 0.688285
O O10 0.394167 0.112317 0.560694
O O11 0.417520 0.885847 0.094333
O O12 0.430748 0.970665 0.177650
O O13 0.951465 0.955465 0.339186
O O14 0.500000 0.000000 0.000000
O O15 0.558722 0.155538 0.771754
O O16 0.555903 0.061532 0.685929
O O17 0.500000 0.500000 0.000000
O O18 0.000000 0.000000 0.500000
#
# Coordination Sequence:
#
# PCOD9243169 Si02
#       8
#     4   4   4   4   4   4   4   4
#     4  10  23  43  71  85 128 167 215 269 310 379
#     4  10  21  38  58  87 128 174 202 258 313 383
#     4  11  24  43  65  97 124 168 217 265 320 378
#     4  11  25  37  62  96 132 165 209 262 317 393
#     4  10  23  38  63  88 130 159 215 265 314 381
#     4  10  22  45  62  95 121 168 212 259 322 375
#     4  12  24  38  65  96 129 167 217 255 326 387
#     4  10  20  37  55  86 129 170 210 249 316 375
#
# _framework density 18.807127999999999
#
# number of rings (size 3 to 8) (size 9 to 14) (size 15 to 20)
#    0.000    1.500    2.500    2.250    8.750    1.000 
#    0.000    1.250    0.000    0.000    0.000    0.000 
#    0.000    0.000    0.000    0.000    0.000    0.000 
#
# Total GULP energy -178394.506504 kJ/mol
# GULP energy per Si atom -5574.828328 kJ/mol
# Density = 1.876432 g / cm^3
# Si number density = 18.807128 Si / 1000 Ang^3
#
#
#
# Elastic Constant Matrix: (Units=GPa)
#
#
# Indices 1 2 3 4 5 6 
#
# 1 97.2270 38.4515 24.0168 0.0000 -1.9818 0.0000
# 2 38.4515 84.7621 23.0926 0.0000 -0.4537 0.0000
# 3 24.0168 23.0926 69.3688 0.0000 -5.4096 0.0000
# 4 0.0000 0.0000 0.0000 25.5200 0.0000 -3.9627
# 5 -1.9818 -0.4537 -5.4096 0.0000 35.2634 0.0000
# 6 0.0000 0.0000 0.0000 -3.9627 0.0000 37.3642
#
#
#
# Elastic Compliance Matrix: (Units=1/GPa)
#
#
# Indices 1 2 3 4 5 6 
#
# 1 0.013010 -0.005145 -0.002773 0.000000 0.000240 0.000000
# 2 -0.005145 0.015018 -0.003265 0.000000 -0.000597 0.000000
# 3 -0.002773 -0.003265 0.016646 0.000000 0.002356 0.000000
# 4 0.000000 0.000000 0.000000 0.039841 0.000000 0.004225
# 5 0.000240 -0.000597 0.002356 0.000000 0.028725 0.000000
# 6 0.000000 0.000000 0.000000 0.004225 0.000000 0.027212
#
#
# Mechanical properties :
#
#
# Convention : Reuss Voigt Hill
#
# Bulk Modulus (GPa) = 44.82502 46.94220 45.88361
# Shear Modulus (GPa) = 29.36802 30.68265 30.02534
#
# Velocity S-wave (km/s) = 3.95592 4.04349 3.99994
# Velocity P-wave (km/s) = 6.68966 6.84205 6.76628
#
# Compressibility (1/GPa) = 0.02230897
#
# Stress axis : x y z
#
# Youngs Moduli (GPa) = 76.86515 66.58700 60.07377
#
# Poissons Ratio (x) = 0.34259 0.16657
# Poissons Ratio (y) = 0.39548 0.19612
# Poissons Ratio (z) = 0.21313 0.21738
#
# Static dielectric constant tensor:
#      x y z
#    x 1.712020 0.000000 0.013610 
#    y 0.000000 1.688130 0.000000 
#    z 0.013610 0.000000 1.690580 
# 
# From -- ./inp_files/42236.got.cif
#   From: 2010.05.17/outbox.cif.g08.bks.cpg/sg14_22_cif.got.tgz:42236.got - 2010.06.03 17:49:19.
