data_PCOD9243743
_publ_section_title
;
Structure prediction by ZEFSAII (Michael W. Deem and Ramdas Pophale) SiO2 
 PCOD9243743
Probable space group: P 21/C
;
_chemical_formula_sum "Si O2"
_cell_formula_units_Z 32
_cell_length_a 6.695091
_cell_length_b 14.579167
_cell_length_c 15.432285
_cell_angle_alpha 90.000000
_cell_angle_beta 101.701087
_cell_angle_gamma 90.000000
_cell_volume 1475.024539
_symmetry_space_group_name_H-M "P 21/C"
_symmetry_group_IT_number 14
_symmetry_cell_setting 'monoclinic'
loop_
_space_group_symop_operation_xyz
x,y,z
-x,1/2+y,1/2-z
-x,-y,-z
x,1/2-y,1/2+z
loop_
_atom_site_type_symbol
_atom_site_label
_atom_site_fract_x
_atom_site_fract_y
_atom_site_fract_z
Si Si1 0.896078 0.871293 0.699365
Si Si2 0.805396 0.222727 0.731299
Si Si3 0.009638 0.032491 0.801324
Si Si4 0.218685 0.022454 0.061179
Si Si5 0.820370 0.943391 0.526300
Si Si6 0.400589 0.391309 0.427683
Si Si7 0.524458 0.299284 0.860850
Si Si8 0.592692 0.377690 0.055811
O O1 0.902520 0.862500 0.595203
O O2 0.653628 0.863916 0.692059
O O3 0.013740 0.795618 0.764975
O O4 0.018121 0.966332 0.721003
O O5 0.908393 0.129850 0.775421
O O6 0.670053 0.267818 0.795756
O O7 0.684775 0.192406 0.634133
O O8 0.229506 0.048822 0.862867
O O9 0.848838 0.975119 0.845955
O O10 0.381218 0.941037 0.060226
O O11 0.321553 0.107092 0.020044
O O12 0.000000 0.000000 0.000000
O O13 0.647471 0.897881 0.451019
O O14 0.699998 0.022760 0.569734
O O15 0.000000 0.000000 0.500000
O O16 0.416370 0.293232 0.386055
O O17 0.614933 0.343131 0.957597
#
# Coordination Sequence:
#
# PCOD9243743 Si02
#       8
#     4   4   4   4   4   4   4   4
#     4  11  25  42  65  97 135 175 232 278 340 408
#     4  12  24  44  67 101 137 180 227 289 342 401
#     4  11  22  41  65  94 136 176 224 280 339 408
#     4   9  20  37  63  93 122 176 216 264 341 404
#     4  10  21  44  68  94 127 181 225 284 342 399
#     4  10  20  38  64  91 134 172 215 278 338 403
#     4  11  24  43  66  98 136 178 226 287 341 403
#     4  10  24  41  67  99 136 170 233 284 332 406
#
# _framework density 21.694552999999999
#
# number of rings (size 3 to 8) (size 9 to 14) (size 15 to 20)
#    0.000    1.500    3.750    0.750    0.000    7.000 
#    0.000    0.000    0.000    0.000    0.000    0.000 
#    0.000    0.000    0.000    0.000    0.000    0.000 
#
# Total GULP energy -178358.911731 kJ/mol
# GULP energy per Si atom -5573.715992 kJ/mol
# Density = 2.164518 g / cm^3
# Si number density = 21.694553 Si / 1000 Ang^3
#
#
#
# Elastic Constant Matrix: (Units=GPa)
#
#
# Indices 1 2 3 4 5 6 
#
# 1 92.3326 25.1159 36.8610 0.0000 22.2103 0.0000
# 2 25.1159 61.6362 44.5796 0.0000 19.6332 0.0000
# 3 36.8610 44.5796 86.9923 0.0000 34.3447 0.0000
# 4 0.0000 0.0000 0.0000 46.4107 0.0000 6.0191
# 5 22.2103 19.6332 34.3447 0.0000 27.7225 0.0000
# 6 0.0000 0.0000 0.0000 6.0191 0.0000 39.0680
#
#
#
# Elastic Compliance Matrix: (Units=1/GPa)
#
#
# Indices 1 2 3 4 5 6 
#
# 1 0.013910 -0.001852 -0.002081 0.000000 -0.007255 0.000000
# 2 -0.001852 0.026221 -0.011562 0.000000 -0.002763 0.000000
# 3 -0.002081 -0.011562 0.028207 0.000000 -0.025091 0.000000
# 4 0.000000 0.000000 0.000000 0.021986 0.000000 -0.003387
# 5 -0.007255 -0.002763 -0.025091 0.000000 0.074925 0.000000
# 6 0.000000 0.000000 0.000000 -0.003387 0.000000 0.026118
#
#
# Mechanical properties :
#
#
# Convention : Reuss Voigt Hill
#
# Bulk Modulus (GPa) = 26.77416 50.45268 38.61342
# Shear Modulus (GPa) = 21.29413 31.60056 26.44735
#
# Velocity S-wave (km/s) = 3.13636 3.82070 3.49532
# Velocity P-wave (km/s) = 5.04815 6.53988 5.84183
#
# Compressibility (1/GPa) = 0.03734944
#
# Stress axis : x y z
#
# Youngs Moduli (GPa) = 71.89074 38.13709 35.45166
#
# Poissons Ratio (x) = 0.07065 0.07376
# Poissons Ratio (y) = 0.13317 0.40988
# Poissons Ratio (z) = 0.14957 0.44092
#
# Static dielectric constant tensor:
#      x y z
#    x 1.832270 0.000000 -0.053310 
#    y 0.000000 1.895700 0.000000 
#    z -0.053310 0.000000 1.965210 
# 
# From -- ./inp_files/53493.got.cif
#   From: 2010.05.17/outbox.cif.g08.bks.cpg/sg14_27_cif.got.tgz:53493.got - 2010.06.03 17:49:19.
