data_PCOD9243425
_publ_section_title
;
Structure prediction by ZEFSAII (Michael W. Deem and Ramdas Pophale) SiO2 
 PCOD9243425
Probable space group: P 21/C
;
_chemical_formula_sum "Si O2"
_cell_formula_units_Z 26
_cell_length_a 15.077531
_cell_length_b 14.162713
_cell_length_c 9.233248
_cell_angle_alpha 90.000000
_cell_angle_beta 141.077953
_cell_angle_gamma 90.000000
_cell_volume 1238.717591
_symmetry_space_group_name_H-M "P 21/C"
_symmetry_group_IT_number 14
_symmetry_cell_setting 'monoclinic'
loop_
_space_group_symop_operation_xyz
x,y,z
-x,1/2+y,1/2-z
-x,-y,-z
x,1/2-y,1/2+z
loop_
_atom_site_type_symbol
_atom_site_label
_atom_site_fract_x
_atom_site_fract_y
_atom_site_fract_z
Si Si1 0.215399 0.379212 0.267786
Si Si2 0.458658 0.652253 0.295857
Si Si3 0.000000 0.500000 0.500000
Si Si4 0.919653 0.184820 0.434218
Si Si5 0.181094 0.951333 0.948609
Si Si6 0.328087 0.681591 0.820019
Si Si7 0.795421 0.471851 0.990360
O O1 0.374866 0.345322 0.469901
O O2 0.206817 0.459017 0.380772
O O3 0.185207 0.434242 0.079929
O O4 0.088729 0.305681 0.138002
O O5 0.393425 0.735067 0.308787
O O6 0.369640 0.558787 0.225569
O O7 0.417789 0.668464 0.077430
O O8 0.929506 0.479197 0.569031
O O9 0.847802 0.481680 0.220556
O O10 0.870615 0.131532 0.225718
O O11 0.829869 0.279890 0.338929
O O12 0.878543 0.113290 0.512582
O O13 0.315110 0.909276 0.202106
#
# Coordination Sequence:
#
# PCOD9243425 Si02
#       7
#     4   4   2   4   4   4   4
#     4  11  22  42  63  93 127 163 211 265 310 367
#     4  11  24  41  62  89 131 166 204 253 324 375
#     4  12  18  34  66 102 112 148 224 266 292 364
#     4  10  20  41  66  86 126 167 206 251 318 375
#     4  11  21  39  67  94 121 162 218 263 302 369
#     4  11  23  42  63  88 125 177 203 249 323 391
#     4  10  20  37  64  92 121 160 204 257 308 373
#
# _framework density 20.989450000000001
#
# number of rings (size 3 to 8) (size 9 to 14) (size 15 to 20)
#    0.000    1.231    6.154    1.385    0.000    0.615 
#    2.769    0.000    0.000    0.000    0.000    0.000 
#    0.000    0.000    0.000    0.000    0.000    0.000 
#
# Total GULP energy -144758.973254 kJ/mol
# GULP energy per Si atom -5567.652817 kJ/mol
# Density = 2.094168 g / cm^3
# Si number density = 20.989450 Si / 1000 Ang^3
#
#
#
# Elastic Constant Matrix: (Units=GPa)
#
#
# Indices 1 2 3 4 5 6 
#
# 1 78.3514 -1.3216 45.0022 0.0000 -9.2208 0.0000
# 2 -1.3216 9.5379 7.2294 0.0000 -8.1864 0.0000
# 3 45.0022 7.2294 105.7310 0.0000 -1.4498 0.0000
# 4 0.0000 0.0000 0.0000 17.1205 0.0000 -4.9890
# 5 -9.2208 -8.1864 -1.4498 0.0000 53.4971 0.0000
# 6 0.0000 0.0000 0.0000 -4.9890 0.0000 4.7041
#
#
#
# Elastic Compliance Matrix: (Units=1/GPa)
#
#
# Indices 1 2 3 4 5 6 
#
# 1 0.018636 0.013583 -0.008792 0.000000 0.005052 0.000000
# 2 0.013583 0.137768 -0.014886 0.000000 0.023020 0.000000
# 3 -0.008792 -0.014886 0.014171 0.000000 -0.003409 0.000000
# 4 0.000000 0.000000 0.000000 0.084535 0.000000 0.089653
# 5 0.005052 0.023020 -0.003409 0.000000 0.022994 0.000000
# 6 0.000000 0.000000 0.000000 0.089653 0.000000 0.307661
#
#
# Mechanical properties :
#
#
# Convention : Reuss Voigt Hill
#
# Bulk Modulus (GPa) = 6.64952 32.82668 19.73810
# Shear Modulus (GPa) = 7.62099 24.57837 16.09968
#
# Velocity S-wave (km/s) = 1.90755 3.42568 2.77255
# Velocity P-wave (km/s) = 2.83312 5.59648 4.43549
#
# Compressibility (1/GPa) = 0.15038677
#
# Stress axis : x y z
#
# Youngs Moduli (GPa) = 53.65877 7.25856 70.56675
#
# Poissons Ratio (x) = -0.09859 0.62039
# Poissons Ratio (y) = -0.72883 1.05042
# Poissons Ratio (z) = 0.47175 0.10805
#
# Static dielectric constant tensor:
#      x y z
#    x 1.748110 0.000000 0.045930 
#    y 0.000000 1.767120 0.000000 
#    z 0.045930 0.000000 1.769760 
# 
# From -- ./inp_files/9374.got.cif
#   From: 2010.05.17/outbox.cif.g08.bks.cpg/sg14_5_cif.got.tgz:9374.got - 2010.06.03 17:49:19.
