data_PCOD9243354
_publ_section_title
;
Structure prediction by ZEFSAII (Michael W. Deem and Ramdas Pophale) SiO2 
 PCOD9243354
Probable space group: P 21/C
;
_chemical_formula_sum "Si O2"
_cell_formula_units_Z 24
_cell_length_a 15.249404
_cell_length_b 5.053818
_cell_length_c 24.775286
_cell_angle_alpha 90.000000
_cell_angle_beta 31.963182
_cell_angle_gamma 90.000000
_cell_volume 1010.773666
_symmetry_space_group_name_H-M "P 21/C"
_symmetry_group_IT_number 14
_symmetry_cell_setting 'monoclinic'
loop_
_space_group_symop_operation_xyz
x,y,z
-x,1/2+y,1/2-z
-x,-y,-z
x,1/2-y,1/2+z
loop_
_atom_site_type_symbol
_atom_site_label
_atom_site_fract_x
_atom_site_fract_y
_atom_site_fract_z
Si Si1 0.964964 0.507609 0.735275
Si Si2 0.621345 0.097521 0.627102
Si Si3 0.269662 0.879191 0.827374
Si Si4 0.653820 0.635166 0.945312
Si Si5 0.279078 0.626371 0.520782
Si Si6 0.069964 0.208233 0.507825
O O1 0.786045 0.635707 0.827625
O O2 0.957751 0.203988 0.758490
O O3 0.087539 0.540066 0.621700
O O4 0.646869 0.158315 0.677186
O O5 0.642456 0.354164 0.578618
O O6 0.435079 0.996309 0.713987
O O7 0.788917 0.925704 0.529032
O O8 0.174001 0.074293 0.919431
O O9 0.110150 0.797425 0.874536
O O10 0.500000 0.500000 0.000000
O O11 0.712068 0.420173 0.959052
O O12 0.636172 0.915059 0.983586
O O13 0.000000 0.000000 0.500000
#
# Coordination Sequence:
#
# PCOD9243354 Si02
#       6
#     4   4   4   4   4   4
#     4   8  16  34  58  81 112 156 198 247 320 384
#     4  11  21  36  65  92 128 173 229 274 334 401
#     4  10  20  37  62  86 127 177 213 274 345 395
#     4  10  20  39  63  90 128 163 203 266 339 392
#     4  10  22  36  64  94 123 165 220 264 310 408
#     4   9  20  38  58  85 117 171 225 266 335 402
#
# _framework density 23.744187
#
# number of rings (size 3 to 8) (size 9 to 14) (size 15 to 20)
#    0.000    2.333    1.667    0.500    2.333    0.000 
#    0.000    5.000   11.000    0.000    0.000    0.000 
#    0.000    0.000    0.000    0.000    0.000    0.000 
#
# Total GULP energy -133652.515581 kJ/mol
# GULP energy per Si atom -5568.854816 kJ/mol
# Density = 2.369014 g / cm^3
# Si number density = 23.744187 Si / 1000 Ang^3
#
#
#
# Elastic Constant Matrix: (Units=GPa)
#
#
# Indices 1 2 3 4 5 6 
#
# 1 57.6438 16.4881 68.1389 0.0000 -21.1505 0.0000
# 2 16.4881 90.5591 29.9754 0.0000 -6.6026 0.0000
# 3 68.1389 29.9754 173.7580 0.0000 -38.4964 0.0000
# 4 0.0000 0.0000 0.0000 33.6705 0.0000 0.2708
# 5 -21.1505 -6.6026 -38.4964 0.0000 30.4182 0.0000
# 6 0.0000 0.0000 0.0000 0.2708 0.0000 24.2355
#
#
#
# Elastic Compliance Matrix: (Units=1/GPa)
#
#
# Indices 1 2 3 4 5 6 
#
# 1 0.034500 -0.001917 -0.011084 0.000000 0.009546 0.000000
# 2 -0.001917 0.011818 -0.001409 0.000000 -0.000551 0.000000
# 3 -0.011084 -0.001409 0.011909 0.000000 0.007058 0.000000
# 4 0.000000 0.000000 0.000000 0.029702 0.000000 -0.000332
# 5 0.009546 -0.000551 0.007058 0.000000 0.048326 0.000000
# 6 0.000000 0.000000 0.000000 -0.000332 0.000000 0.041266
#
#
# Mechanical properties :
#
#
# Convention : Reuss Voigt Hill
#
# Bulk Modulus (GPa) = 34.00510 61.24065 47.62287
# Shear Modulus (GPa) = 23.13297 31.48873 27.31085
#
# Velocity S-wave (km/s) = 3.12470 3.64561 3.39516
# Velocity P-wave (km/s) = 5.23171 6.60064 5.95564
#
# Compressibility (1/GPa) = 0.02940736
#
# Stress axis : x y z
#
# Youngs Moduli (GPa) = 28.98521 84.61843 83.97362
#
# Poissons Ratio (x) = 0.16219 0.93074
# Poissons Ratio (y) = 0.05556 0.11833
# Poissons Ratio (z) = 0.32127 0.11924
#
# Static dielectric constant tensor:
#      x y z
#    x 1.963850 0.000000 -0.035950 
#    y 0.000000 1.886080 0.000000 
#    z -0.035950 0.000000 2.036460 
# 
# From -- ./inp_files/77397.got.cif
#   From: 2010.05.17/outbox.cif.g08.bks.cpg/sg14_39_cif.got.tgz:77397.got - 2010.06.03 17:49:19.
