data_PCOD9243469
_publ_section_title
;
Structure prediction by ZEFSAII (Michael W. Deem and Ramdas Pophale) SiO2 
 PCOD9243469
Probable space group: P 21/C
;
_chemical_formula_sum "Si O2"
_cell_formula_units_Z 24
_cell_length_a 14.266262
_cell_length_b 8.511625
_cell_length_c 18.592006
_cell_angle_alpha 90.000000
_cell_angle_beta 153.171770
_cell_angle_gamma 90.000000
_cell_volume 1018.898397
_symmetry_space_group_name_H-M "P 21/C"
_symmetry_group_IT_number 14
_symmetry_cell_setting 'monoclinic'
loop_
_space_group_symop_operation_xyz
x,y,z
-x,1/2+y,1/2-z
-x,-y,-z
x,1/2-y,1/2+z
loop_
_atom_site_type_symbol
_atom_site_label
_atom_site_fract_x
_atom_site_fract_y
_atom_site_fract_z
Si Si1 0.602372 0.750809 0.720829
Si Si2 0.849813 0.257114 0.572315
Si Si3 0.784336 0.059411 0.387878
Si Si4 0.083698 0.059315 0.979081
Si Si5 0.718153 0.299865 0.700552
Si Si6 0.734281 0.834756 0.160571
O O1 0.364328 0.759930 0.531941
O O2 0.627288 0.583167 0.775793
O O3 0.744849 0.744680 0.747132
O O4 0.698320 0.865101 0.845594
O O5 0.820898 0.128003 0.490072
O O6 0.872976 0.423684 0.548781
O O7 0.073524 0.215322 0.757380
O O8 0.705405 0.186969 0.278181
O O9 0.000000 0.000000 0.500000
O O10 0.914866 0.182227 0.828770
O O11 0.000000 0.000000 0.000000
O O12 0.482066 0.267864 0.516506
O O13 0.744757 0.476357 0.683351
#
# Coordination Sequence:
#
# PCOD9243469 Si02
#       6
#     4   4   4   4   4   4
#     4  11  22  38  59  88 118 154 197 238 296 356
#     4  12  22  36  61  88 119 152 193 252 293 340
#     4  11  17  39  64  81 110 156 197 239 288 352
#     4  12  20  37  62  91 115 151 199 251 292 335
#     4  10  20  37  67  81 113 163 199 230 301 354
#     4  10  21  41  61  81 122 163 191 234 295 369
#
# _framework density 23.554849999999998
#
# number of rings (size 3 to 8) (size 9 to 14) (size 15 to 20)
#    0.000    1.000    8.333    1.000    0.000    0.667 
#    0.000    6.667    0.000    0.000    0.000    0.000 
#    0.000    0.000    0.000    0.000    0.000    0.000 
#
# Total GULP energy -133847.880583 kJ/mol
# GULP energy per Si atom -5576.995024 kJ/mol
# Density = 2.350124 g / cm^3
# Si number density = 23.554850 Si / 1000 Ang^3
#
#
#
# Elastic Constant Matrix: (Units=GPa)
#
#
# Indices 1 2 3 4 5 6 
#
# 1 36.9192 1.7223 17.9394 0.0000 20.4449 0.0000
# 2 1.7223 28.6947 22.7315 0.0000 14.5762 0.0000
# 3 17.9394 22.7315 167.0687 0.0000 22.9259 0.0000
# 4 0.0000 0.0000 0.0000 28.6124 0.0000 -1.2784
# 5 20.4449 14.5762 22.9259 0.0000 37.3908 0.0000
# 6 0.0000 0.0000 0.0000 -1.2784 0.0000 10.0533
#
#
#
# Elastic Compliance Matrix: (Units=1/GPa)
#
#
# Indices 1 2 3 4 5 6 
#
# 1 0.042616 0.013185 -0.002694 0.000000 -0.026790 0.000000
# 2 0.013185 0.050016 -0.004975 0.000000 -0.023657 0.000000
# 3 -0.002694 -0.004975 0.007079 0.000000 -0.000928 0.000000
# 4 0.000000 0.000000 0.000000 0.035150 0.000000 0.004470
# 5 -0.026790 -0.023657 -0.000928 0.000000 0.051185 0.000000
# 6 0.000000 0.000000 0.000000 0.004470 0.000000 0.100038
#
#
# Mechanical properties :
#
#
# Convention : Reuss Voigt Hill
#
# Bulk Modulus (GPa) = 9.02984 35.27433 22.15209
# Shear Modulus (GPa) = 16.02741 27.89726 21.96233
#
# Velocity S-wave (km/s) = 2.61133 3.44518 3.05682
# Velocity P-wave (km/s) = 3.59638 5.55280 4.67801
#
# Compressibility (1/GPa) = 0.11074388
#
# Stress axis : x y z
#
# Youngs Moduli (GPa) = 23.46558 19.99340 141.26206
#
# Poissons Ratio (x) = -0.26361 0.38051
# Poissons Ratio (y) = -0.30939 0.70273
# Poissons Ratio (z) = 0.06321 0.09946
#
# Static dielectric constant tensor:
#      x y z
#    x 1.889410 0.000000 0.039730 
#    y 0.000000 1.932370 0.000000 
#    z 0.039730 0.000000 2.015580 
# 
# From -- ./inp_files/74141.got.cif
#   From: 2010.05.17/outbox.cif.g08.bks.cpg/sg14_38_cif.got.tgz:74141.got - 2010.06.03 17:49:19.
