data_PCOD9243652
_publ_section_title
;
Structure prediction by ZEFSAII (Michael W. Deem and Ramdas Pophale) SiO2 
 PCOD9243652
Probable space group: P 21/C
;
_chemical_formula_sum "Si O2"
_cell_formula_units_Z 22
_cell_length_a 11.026176
_cell_length_b 15.031000
_cell_length_c 5.286902
_cell_angle_alpha 90.000000
_cell_angle_beta 75.989889
_cell_angle_gamma 90.000000
_cell_volume 850.156850
_symmetry_space_group_name_H-M "P 21/C"
_symmetry_group_IT_number 14
_symmetry_cell_setting 'monoclinic'
loop_
_space_group_symop_operation_xyz
x,y,z
-x,1/2+y,1/2-z
-x,-y,-z
x,1/2-y,1/2+z
loop_
_atom_site_type_symbol
_atom_site_label
_atom_site_fract_x
_atom_site_fract_y
_atom_site_fract_z
Si Si1 0.697977 0.274139 0.248489
Si Si2 0.500000 0.000000 0.500000
Si Si3 0.619701 0.690609 0.839369
Si Si4 0.969910 0.200884 0.109666
Si Si5 0.248932 0.520844 0.809555
Si Si6 0.151124 0.435428 0.341451
O O1 0.626070 0.243484 0.039747
O O2 0.819443 0.209468 0.191250
O O3 0.746583 0.373299 0.214749
O O4 0.468554 0.102739 0.608922
O O5 0.615047 0.992429 0.653599
O O6 0.611464 0.748235 0.589775
O O7 0.759221 0.647875 0.762456
O O8 0.010395 0.271065 0.870462
O O9 0.019821 0.106254 0.992700
O O10 0.214694 0.482698 0.552299
O O11 0.155100 0.491792 0.081458
#
# Coordination Sequence:
#
# PCOD9243652 Si02
#       6
#     4   2   4   4   4   4
#     4  10  22  42  63  91 128 169 218 268 332 409
#     4  10  26  44  66 102 138 172 232 286 324 408
#     4  11  23  40  66  97 130 176 220 270 339 391
#     4  10  20  38  62  89 123 164 208 264 320 387
#     4  11  24  42  65  93 132 173 216 278 338 385
#     4  11  22  40  65  95 129 167 220 278 327 399
#
# _framework density 25.877580999999999
#
# number of rings (size 3 to 8) (size 9 to 14) (size 15 to 20)
#    0.000    1.455    0.000    5.455    0.000    8.000 
#    0.000   21.818    0.000    0.000    0.000    0.000 
#    0.000    0.000    0.000    0.000    0.000    0.000 
#
# Total GULP energy -122766.989695 kJ/mol
# GULP energy per Si atom -5580.317713 kJ/mol
# Density = 2.581868 g / cm^3
# Si number density = 25.877581 Si / 1000 Ang^3
#
#
#
# Elastic Constant Matrix: (Units=GPa)
#
#
# Indices 1 2 3 4 5 6 
#
# 1 69.0416 34.3752 10.3556 0.0000 5.6319 0.0000
# 2 34.3752 119.1106 84.5026 0.0000 -1.1559 0.0000
# 3 10.3556 84.5026 211.4355 0.0000 13.4788 0.0000
# 4 0.0000 0.0000 0.0000 50.3267 0.0000 6.3284
# 5 5.6319 -1.1559 13.4788 0.0000 17.6449 0.0000
# 6 0.0000 0.0000 0.0000 6.3284 0.0000 43.3242
#
#
#
# Elastic Compliance Matrix: (Units=1/GPa)
#
#
# Indices 1 2 3 4 5 6 
#
# 1 0.018329 -0.007123 0.002472 0.000000 -0.008206 0.000000
# 2 -0.007123 0.014848 -0.006089 0.000000 0.007897 0.000000
# 3 0.002472 -0.006089 0.007482 0.000000 -0.006903 0.000000
# 4 0.000000 0.000000 0.000000 0.020242 0.000000 -0.002957
# 5 -0.008206 0.007897 -0.006903 0.000000 0.065084 0.000000
# 6 0.000000 0.000000 0.000000 -0.002957 0.000000 0.023514
#
#
# Mechanical properties :
#
#
# Convention : Reuss Voigt Hill
#
# Bulk Modulus (GPa) = 52.13919 73.11718 62.62818
# Shear Modulus (GPa) = 28.18962 40.28278 34.23620
#
# Velocity S-wave (km/s) = 3.30410 3.94974 3.64126
# Velocity P-wave (km/s) = 5.89477 7.00835 6.47554
#
# Compressibility (1/GPa) = 0.01917943
#
# Stress axis : x y z
#
# Youngs Moduli (GPa) = 54.55759 67.35137 133.65546
#
# Poissons Ratio (x) = 0.47977 -0.33044
# Poissons Ratio (y) = 0.38864 0.81377
# Poissons Ratio (z) = -0.13489 0.41007
#
# Static dielectric constant tensor:
#      x y z
#    x 2.067750 0.000000 -0.024640 
#    y 0.000000 1.983790 0.000000 
#    z -0.024640 0.000000 2.067250 
# 
# From -- ./inp_files/2508.got.cif
#   From: 2010.05.17/outbox.cif.g08.bks.cpg/sg14_2_cif.got.tgz:2508.got - 2010.06.03 17:49:19.
