data_PCOD9243411
_publ_section_title
;
Structure prediction by ZEFSAII (Michael W. Deem and Ramdas Pophale) SiO2 
 PCOD9243411
Probable space group: P 21/C
;
_chemical_formula_sum "Si O2"
_cell_formula_units_Z 28
_cell_length_a 8.794571
_cell_length_b 12.297526
_cell_length_c 18.659607
_cell_angle_alpha 90.000000
_cell_angle_beta 134.565238
_cell_angle_gamma 90.000000
_cell_volume 1437.773458
_symmetry_space_group_name_H-M "P 21/C"
_symmetry_group_IT_number 14
_symmetry_cell_setting 'monoclinic'
loop_
_space_group_symop_operation_xyz
x,y,z
-x,1/2+y,1/2-z
-x,-y,-z
x,1/2-y,1/2+z
loop_
_atom_site_type_symbol
_atom_site_label
_atom_site_fract_x
_atom_site_fract_y
_atom_site_fract_z
Si Si1 0.308336 0.216825 0.051194
Si Si2 0.002750 0.622022 0.968131
Si Si3 0.498442 0.010122 0.912416
Si Si4 0.403823 0.743059 0.057655
Si Si5 0.842437 0.691917 0.143558
Si Si6 0.750951 0.204595 0.655805
Si Si7 0.973702 0.528307 0.806510
O O1 0.535896 0.279150 0.128779
O O2 0.148883 0.285627 0.047891
O O3 0.369108 0.089600 0.078768
O O4 0.214137 0.227097 0.939451
O O5 0.939225 0.604023 0.864049
O O6 0.241892 0.671516 0.050298
O O7 0.000000 0.500000 0.000000
O O8 0.585520 0.129453 0.920734
O O9 0.253041 0.005323 0.804632
O O10 0.500000 0.000000 0.000000
O O11 0.643215 0.696019 0.131463
O O12 0.317165 0.733383 0.947502
O O13 0.058688 0.720224 0.255031
O O14 0.893336 0.576597 0.124906
O O15 0.861977 0.087592 0.692489
#
# Coordination Sequence:
#
# PCOD9243411 Si02
#       7
#     4   4   4   4   4   4   4
#     4  11  23  38  65  89 129 164 203 254 313 374
#     4  11  25  44  57  88 133 168 204 249 310 385
#     4  12  20  42  68  95 123 157 212 273 306 363
#     4  10  23  38  65  91 125 161 203 263 312 364
#     4  11  19  38  64  96 117 160 211 261 313 357
#     4  10  20  37  63  96 118 156 215 259 312 360
#     4  11  22  38  66  90 126 162 207 265 313 365
#
# _framework density 19.474556
#
# number of rings (size 3 to 8) (size 9 to 14) (size 15 to 20)
#    0.000    1.143    7.143    0.000    2.000    2.286 
#    5.143    0.000    3.143    0.000    0.000    0.000 
#    0.000    0.000    0.000    0.000    0.000    0.000 
#
# Total GULP energy -156070.378382 kJ/mol
# GULP energy per Si atom -5573.942085 kJ/mol
# Density = 1.943023 g / cm^3
# Si number density = 19.474556 Si / 1000 Ang^3
#
#
#
# Elastic Constant Matrix: (Units=GPa)
#
#
# Indices 1 2 3 4 5 6 
#
# 1 62.0001 9.6193 6.8583 0.0000 13.7833 0.0000
# 2 9.6193 89.8773 -5.3326 0.0000 2.3152 0.0000
# 3 6.8583 -5.3326 42.9688 0.0000 14.8571 0.0000
# 4 0.0000 0.0000 0.0000 28.9690 0.0000 13.1843
# 5 13.7833 2.3152 14.8571 0.0000 15.7008 0.0000
# 6 0.0000 0.0000 0.0000 13.1843 0.0000 32.9759
#
#
#
# Elastic Compliance Matrix: (Units=1/GPa)
#
#
# Indices 1 2 3 4 5 6 
#
# 1 0.020760 -0.001417 0.004072 0.000000 -0.021869 0.000000
# 2 -0.001417 0.011515 0.002694 0.000000 -0.003003 0.000000
# 3 0.004072 0.002694 0.036162 0.000000 -0.038191 0.000000
# 4 0.000000 0.000000 0.000000 0.042198 0.000000 -0.016872
# 5 -0.021869 -0.003003 -0.038191 0.000000 0.119470 0.000000
# 6 0.000000 0.000000 0.000000 -0.016872 0.000000 0.037071
#
#
# Mechanical properties :
#
#
# Convention : Reuss Voigt Hill
#
# Bulk Modulus (GPa) = 12.63668 24.12623 18.38145
# Shear Modulus (GPa) = 17.67676 27.77590 22.72633
#
# Velocity S-wave (km/s) = 3.01605 3.78069 3.41981
# Velocity P-wave (km/s) = 4.31644 5.61014 5.00526
#
# Compressibility (1/GPa) = 0.07913473
#
# Stress axis : x y z
#
# Youngs Moduli (GPa) = 48.16934 86.84253 27.65328
#
# Poissons Ratio (x) = 0.12305 -0.11261
# Poissons Ratio (y) = 0.06825 -0.07448
# Poissons Ratio (z) = -0.19615 -0.23391
#
# Static dielectric constant tensor:
#      x y z
#    x 1.711240 0.000000 -0.017590 
#    y 0.000000 1.820790 0.000000 
#    z -0.017590 0.000000 1.671550 
# 
# From -- ./inp_files/39653.got.cif
#   From: 2010.05.17/outbox.cif.g08.bks.cpg/sg14_20_cif.got.tgz:39653.got - 2010.06.03 17:49:19.
