data_PCOD9243020
_publ_section_title
;
Structure prediction by ZEFSAII (Michael W. Deem and Ramdas Pophale) SiO2 
 PCOD9243020
Probable space group: P 21/C
;
_chemical_formula_sum "Si O2"
_cell_formula_units_Z 22
_cell_length_a 9.546303
_cell_length_b 21.729086
_cell_length_c 5.424325
_cell_angle_alpha 90.000000
_cell_angle_beta 128.858951
_cell_angle_gamma 90.000000
_cell_volume 876.170368
_symmetry_space_group_name_H-M "P 21/C"
_symmetry_group_IT_number 14
_symmetry_cell_setting 'monoclinic'
loop_
_space_group_symop_operation_xyz
x,y,z
-x,1/2+y,1/2-z
-x,-y,-z
x,1/2-y,1/2+z
loop_
_atom_site_type_symbol
_atom_site_label
_atom_site_fract_x
_atom_site_fract_y
_atom_site_fract_z
Si Si1 0.000000 0.500000 0.000000
Si Si2 0.656057 0.022901 0.381435
Si Si3 0.969866 0.271612 0.488882
Si Si4 0.333858 0.418473 0.712798
Si Si5 0.615183 0.774814 0.618143
Si Si6 0.034004 0.586175 0.503988
O O1 0.211504 0.523766 0.202986
O O2 0.029762 0.455113 0.790448
O O3 0.465077 0.057300 0.144777
O O4 0.624615 0.960307 0.502438
O O5 0.771915 0.066205 0.695010
O O6 0.888076 0.265091 0.126693
O O7 0.973219 0.342715 0.565750
O O8 0.177708 0.250523 0.681204
O O9 0.370948 0.347153 0.808514
O O10 0.114508 0.425513 0.435475
O O11 0.532455 0.759911 0.261098
#
# Coordination Sequence:
#
# PCOD9243020 Si02
#       6
#     2   4   4   4   4   4
#     4  10  20  36  60  88 120 160 200 264 302 376
#     4  10  21  40  58  92 124 161 210 260 324 374
#     4   9  19  35  61  90 121 167 215 262 321 389
#     4   9  19  40  61  87 122 163 210 258 320 388
#     4   9  18  37  60  89 122 163 213 265 317 380
#     4  10  21  39  61  86 126 161 209 265 323 376
#
# _framework density 25.109272000000001
#
# number of rings (size 3 to 8) (size 9 to 14) (size 15 to 20)
#    0.000    2.545    0.000    2.182    2.545    0.000 
#   26.182    9.091    0.000    0.000    0.000    0.000 
#    0.000    0.000    0.000    0.000    0.000    0.000 
#
# Total GULP energy -122562.209992 kJ/mol
# GULP energy per Si atom -5571.009545 kJ/mol
# Density = 2.505212 g / cm^3
# Si number density = 25.109272 Si / 1000 Ang^3
#
#
#
# Elastic Constant Matrix: (Units=GPa)
#
#
# Indices 1 2 3 4 5 6 
#
# 1 158.2730 29.8001 40.5109 0.0000 -7.7258 0.0000
# 2 29.8001 88.7074 -12.5371 0.0000 -0.6121 0.0000
# 3 40.5109 -12.5371 64.6097 0.0000 -8.9032 0.0000
# 4 0.0000 0.0000 0.0000 6.1292 0.0000 -1.0913
# 5 -7.7258 -0.6121 -8.9032 0.0000 38.9633 0.0000
# 6 0.0000 0.0000 0.0000 -1.0913 0.0000 20.8161
#
#
#
# Elastic Compliance Matrix: (Units=1/GPa)
#
#
# Indices 1 2 3 4 5 6 
#
# 1 0.008591 -0.003743 -0.006078 0.000000 0.000256 0.000000
# 2 -0.003743 0.013241 0.005000 0.000000 0.000608 0.000000
# 3 -0.006078 0.005000 0.020757 0.000000 0.003616 0.000000
# 4 0.000000 0.000000 0.000000 0.164692 0.000000 0.008634
# 5 0.000256 0.000608 0.003616 0.000000 0.026552 0.000000
# 6 0.000000 0.000000 0.000000 0.008634 0.000000 0.048492
#
#
# Mechanical properties :
#
#
# Convention : Reuss Voigt Hill
#
# Bulk Modulus (GPa) = 30.35084 47.45976 38.90530
# Shear Modulus (GPa) = 16.50439 30.10279 23.30359
#
# Velocity S-wave (km/s) = 2.56657 3.46623 3.04976
# Velocity P-wave (km/s) = 4.57130 5.91287 5.28483
#
# Compressibility (1/GPa) = 0.03294802
#
# Stress axis : x y z
#
# Youngs Moduli (GPa) = 116.39895 75.52050 48.17642
#
# Poissons Ratio (x) = 0.28270 0.29281
# Poissons Ratio (y) = 0.43572 -0.24090
# Poissons Ratio (z) = 0.70745 -0.37763
#
# Static dielectric constant tensor:
#      x y z
#    x 2.029540 0.000000 0.095560 
#    y 0.000000 1.839440 0.000000 
#    z 0.095560 0.000000 2.027110 
# 
# From -- ./inp_files/1395.got.cif
#   From: 2010.05.17/outbox.cif.g08.bks.cpg/sg14_1_cif.got.tgz:1395.got - 2010.06.03 17:49:19.
