data_PCOD9243028
_publ_section_title
;
Structure prediction by ZEFSAII (Michael W. Deem and Ramdas Pophale) SiO2 
 PCOD9243028
Probable space group: P 21/C
;
_chemical_formula_sum "Si O2"
_cell_formula_units_Z 28
_cell_length_a 12.593792
_cell_length_b 7.914185
_cell_length_c 13.864076
_cell_angle_alpha 90.000000
_cell_angle_beta 67.266185
_cell_angle_gamma 90.000000
_cell_volume 1274.473013
_symmetry_space_group_name_H-M "P 21/C"
_symmetry_group_IT_number 14
_symmetry_cell_setting 'monoclinic'
loop_
_space_group_symop_operation_xyz
x,y,z
-x,1/2+y,1/2-z
-x,-y,-z
x,1/2-y,1/2+z
loop_
_atom_site_type_symbol
_atom_site_label
_atom_site_fract_x
_atom_site_fract_y
_atom_site_fract_z
Si Si1 0.660907 0.605155 0.400023
Si Si2 0.076134 0.789390 0.791308
Si Si3 0.001364 0.799912 0.021875
Si Si4 0.321603 0.813927 0.250491
Si Si5 0.257555 0.808936 0.989615
Si Si6 0.548947 0.174645 0.452457
Si Si7 0.135964 0.186950 0.761601
O O1 0.636565 0.491838 0.311896
O O2 0.714407 0.492687 0.470539
O O3 0.543398 0.686801 0.480413
O O4 0.751501 0.746026 0.331199
O O5 0.018430 0.724277 0.911165
O O6 0.195132 0.689996 0.745021
O O7 0.974793 0.762334 0.752828
O O8 0.117927 0.984847 0.773321
O O9 0.121360 0.776058 0.036486
O O10 0.886998 0.752748 0.120086
O O11 0.000000 0.000000 0.000000
O O12 0.299044 0.745853 0.366800
O O13 0.415313 0.689093 0.170950
O O14 0.331825 0.693022 0.032749
O O15 0.500000 0.000000 0.500000
#
# Coordination Sequence:
#
# PCOD9243028 Si02
#       7
#     4   4   4   4   4   4   4
#     4  11  23  40  62  92 124 161 207 254 310 377
#     4  10  20  36  60  90 121 161 208 254 313 378
#     4   9  19  36  59  89 121 156 202 249 305 374
#     4  10  21  41  63  86 120 160 203 262 315 367
#     4  10  21  41  65  89 121 162 206 260 316 371
#     4  11  24  41  61  91 123 163 214 257 307 378
#     4  11  20  37  62  89 126 165 199 256 315 367
#
# _framework density 21.969867000000001
#
# number of rings (size 3 to 8) (size 9 to 14) (size 15 to 20)
#    0.000    1.714    0.000    6.857    0.000    2.286 
#    0.000   16.429    0.000    0.000    0.000    0.000 
#    0.000    0.000    0.000    0.000    0.000    0.000 
#
# Total GULP energy -155944.777607 kJ/mol
# GULP energy per Si atom -5569.456343 kJ/mol
# Density = 2.191986 g / cm^3
# Si number density = 21.969867 Si / 1000 Ang^3
#
#
#
# Elastic Constant Matrix: (Units=GPa)
#
#
# Indices 1 2 3 4 5 6 
#
# 1 29.2438 -0.6687 30.6335 0.0000 6.2991 0.0000
# 2 -0.6687 25.5225 -7.5933 0.0000 5.8051 0.0000
# 3 30.6335 -7.5933 128.2880 0.0000 -6.9992 0.0000
# 4 0.0000 0.0000 0.0000 30.1537 0.0000 -20.1507
# 5 6.2991 5.8051 -6.9992 0.0000 16.3009 0.0000
# 6 0.0000 0.0000 0.0000 -20.1507 0.0000 11.5046
#
#
#
# Elastic Compliance Matrix: (Units=1/GPa)
#
#
# Indices 1 2 3 4 5 6 
#
# 1 0.056072 0.003750 -0.014768 0.000000 -0.029344 0.000000
# 2 0.003750 0.043266 0.000764 0.000000 -0.016529 0.000000
# 3 -0.014768 0.000764 0.011943 0.000000 0.010563 0.000000
# 4 0.000000 0.000000 0.000000 -0.194512 0.000000 -0.340696
# 5 -0.029344 -0.016529 0.010563 0.000000 0.083108 0.000000
# 6 0.000000 0.000000 0.000000 -0.340696 0.000000 -0.509820
#
#
# Mechanical properties :
#
#
# Convention : Reuss Voigt Hill
#
# Bulk Modulus (GPa) = 11.01669 25.31080 18.16374
# Shear Modulus (GPa) = -10.88903 22.30404 5.70750
#
# Velocity S-wave (km/s) = -2.22870 3.18969 1.61354
# Velocity P-wave (km/s) = 1.26391 5.01111 3.42883
#
# Compressibility (1/GPa) = 0.09077139
#
# Stress axis : x y z
#
# Youngs Moduli (GPa) = 17.83426 23.11277 83.73164
#
# Poissons Ratio (x) = -0.08667 1.23657
# Poissons Ratio (y) = -0.06687 -0.06395
# Poissons Ratio (z) = 0.26338 -0.01765
#
# Static dielectric constant tensor:
#      x y z
#    x 1.792850 0.000000 0.019650 
#    y 0.000000 1.872460 0.000000 
#    z 0.019650 0.000000 1.866820 
# 
# From -- ./inp_files/43313.got.cif
#   From: 2010.05.17/outbox.cif.g08.bks.cpg/sg14_22_cif.got.tgz:43313.got - 2010.06.03 17:49:19.
