data_PCOD9243779
_publ_section_title
;
Structure prediction by ZEFSAII (Michael W. Deem and Ramdas Pophale) SiO2 
 PCOD9243779
Probable space group: P 21/C
;
_chemical_formula_sum "Si O2"
_cell_formula_units_Z 26
_cell_length_a 10.726095
_cell_length_b 21.032049
_cell_length_c 7.283696
_cell_angle_alpha 90.000000
_cell_angle_beta 137.480333
_cell_angle_gamma 90.000000
_cell_volume 1110.506258
_symmetry_space_group_name_H-M "P 21/C"
_symmetry_group_IT_number 14
_symmetry_cell_setting 'monoclinic'
loop_
_space_group_symop_operation_xyz
x,y,z
-x,1/2+y,1/2-z
-x,-y,-z
x,1/2-y,1/2+z
loop_
_atom_site_type_symbol
_atom_site_label
_atom_site_fract_x
_atom_site_fract_y
_atom_site_fract_z
Si Si1 0.628417 0.386367 0.395412
Si Si2 0.862458 0.916362 0.246948
Si Si3 0.195038 0.497146 0.968929
Si Si4 0.110962 0.827568 0.092121
Si Si5 0.176130 0.818405 0.582381
Si Si6 0.731584 0.889221 0.724537
Si Si7 0.500000 0.000000 0.000000
O O1 0.801621 0.379098 0.448725
O O2 0.665020 0.339341 0.605344
O O3 0.600448 0.455473 0.448290
O O4 0.452630 0.370471 0.079832
O O5 0.756434 0.947953 0.304283
O O6 0.992428 0.857699 0.447405
O O7 0.728934 0.896234 0.939766
O O8 0.009197 0.967251 0.321583
O O9 0.375084 0.537954 0.199774
O O10 0.200727 0.455974 0.793716
O O11 0.189494 0.834921 0.382326
O O12 0.151186 0.756971 0.066983
O O13 0.893796 0.839398 0.863322
#
# Coordination Sequence:
#
# PCOD9243779 Si02
#       7
#     4   4   4   4   4   4   2
#     4  11  23  46  65 101 134 178 225 279 338 404
#     4  10  21  39  65  93 128 176 219 268 335 390
#     4  10  20  38  65  91 134 172 212 278 327 394
#     4  11  24  44  69  94 134 178 222 283 339 402
#     4  11  22  43  70  94 131 178 224 275 343 407
#     4  10  24  41  63 101 128 169 231 268 330 404
#     4  10  22  40  66  98 138 174 224 274 338 410
#
# _framework density 23.412747
#
# number of rings (size 3 to 8) (size 9 to 14) (size 15 to 20)
#    0.000    1.538    3.077    1.385    2.154    2.462 
#    5.538    2.308    0.000    0.000    0.000    0.000 
#    0.000    0.000    0.000    0.000    0.000    0.000 
#
# Total GULP energy -145009.720870 kJ/mol
# GULP energy per Si atom -5577.296957 kJ/mol
# Density = 2.335946 g / cm^3
# Si number density = 23.412747 Si / 1000 Ang^3
#
#
#
# Elastic Constant Matrix: (Units=GPa)
#
#
# Indices 1 2 3 4 5 6 
#
# 1 81.8892 24.0142 20.6605 0.0000 -6.4661 0.0000
# 2 24.0142 60.9522 20.7301 0.0000 -0.7090 0.0000
# 3 20.6605 20.7301 151.6705 0.0000 -20.3950 0.0000
# 4 0.0000 0.0000 0.0000 33.6387 0.0000 2.6476
# 5 -6.4661 -0.7090 -20.3950 0.0000 23.3202 0.0000
# 6 0.0000 0.0000 0.0000 2.6476 0.0000 22.6782
#
#
#
# Elastic Compliance Matrix: (Units=1/GPa)
#
#
# Indices 1 2 3 4 5 6 
#
# 1 0.014208 -0.005290 -0.000798 0.000000 0.003081 0.000000
# 2 -0.005290 0.019238 -0.002298 0.000000 -0.002891 0.000000
# 3 -0.000798 -0.002298 0.007907 0.000000 0.006624 0.000000
# 4 0.000000 0.000000 0.000000 0.030003 0.000000 -0.003503
# 5 0.003081 -0.002891 0.006624 0.000000 0.049440 0.000000
# 6 0.000000 0.000000 0.000000 -0.003503 0.000000 0.044504
#
#
# Mechanical properties :
#
#
# Convention : Reuss Voigt Hill
#
# Bulk Modulus (GPa) = 40.68230 47.25793 43.97012
# Shear Modulus (GPa) = 26.27899 31.20124 28.74011
#
# Velocity S-wave (km/s) = 3.35389 3.65452 3.50743
# Velocity P-wave (km/s) = 5.69315 6.16733 5.93498
#
# Compressibility (1/GPa) = 0.02458071
#
# Stress axis : x y z
#
# Youngs Moduli (GPa) = 70.38476 51.97932 126.47544
#
# Poissons Ratio (x) = 0.27499 0.10093
# Poissons Ratio (y) = 0.37236 0.29059
# Poissons Ratio (z) = 0.05617 0.11943
#
# Static dielectric constant tensor:
#      x y z
#    x 1.777030 0.000000 -0.220690 
#    y 0.000000 1.775480 0.000000 
#    z -0.220690 0.000000 1.486210 
# 
# From -- ./inp_files/16897.got.cif
#   From: 2010.05.17/outbox.cif.g08.bks.cpg/sg14_9_cif.got.tgz:16897.got - 2010.06.03 17:49:19.
