data_PCOD9243282
_publ_section_title
;
Structure prediction by ZEFSAII (Michael W. Deem and Ramdas Pophale) SiO2 
 PCOD9243282
Probable space group: P 21/C
;
_chemical_formula_sum "Si O2"
_cell_formula_units_Z 32
_cell_length_a 21.087754
_cell_length_b 9.543231
_cell_length_c 8.709535
_cell_angle_alpha 90.000000
_cell_angle_beta 78.082317
_cell_angle_gamma 90.000000
_cell_volume 1714.972982
_symmetry_space_group_name_H-M "P 21/C"
_symmetry_group_IT_number 14
_symmetry_cell_setting 'monoclinic'
loop_
_space_group_symop_operation_xyz
x,y,z
-x,1/2+y,1/2-z
-x,-y,-z
x,1/2-y,1/2+z
loop_
_atom_site_type_symbol
_atom_site_label
_atom_site_fract_x
_atom_site_fract_y
_atom_site_fract_z
Si Si1 0.062050 0.094536 0.153037
Si Si2 0.173893 0.903460 0.228507
Si Si3 0.937951 0.905468 0.215091
Si Si4 0.441977 0.405930 0.963830
Si Si5 0.441977 0.405929 0.594193
Si Si6 0.676831 0.098135 0.846066
Si Si7 0.323168 0.901864 0.522894
Si Si8 0.826108 0.096544 0.402405
O O1 0.055339 0.250003 0.222327
O O2 0.125565 0.018456 0.186652
O O3 0.065699 0.100674 0.967148
O O4 0.000001 0.000002 0.226963
O O5 0.248791 0.931226 0.145349
O O6 0.156510 0.750003 0.171740
O O7 0.169887 0.900520 0.415053
O O8 0.874436 0.981550 0.312219
O O9 0.445574 0.402510 0.777213
O O10 0.500000 0.500000 0.000000
O O11 0.446013 0.250000 0.026994
O O12 0.374493 0.480632 0.043877
O O13 0.500000 0.500000 0.500000
O O14 0.374493 0.480631 0.581629
O O15 0.658213 0.249999 0.920896
O O16 0.675603 0.107437 0.662200
O O17 0.248790 0.931222 0.605857
#
# Coordination Sequence:
#
# PCOD9243282 Si02
#       8
#     4   4   4   4   4   4   4   4
#     4  11  24  40  59  84 114 149 188 232 282 334
#     4  10  20  37  60  86 116 150 188 230 278 332
#     4  11  24  40  59  84 114 149 188 232 282 334
#     4  11  23  39  58  83 114 149 189 233 282 334
#     4  11  23  39  58  83 114 149 189 233 282 334
#     4   9  20  37  58  84 114 148 186 229 278 332
#     4   9  20  37  58  84 114 148 186 229 278 332
#     4  10  20  37  60  86 116 150 188 230 278 332
#
# _framework density 18.659188
#
# number of rings (size 3 to 8) (size 9 to 14) (size 15 to 20)
#    0.000    1.750    0.000    3.750    0.000   10.000 
#    0.000    2.500    0.000    0.000    0.000    0.000 
#    0.000    0.000    0.000    0.000    0.000    0.000 
#
# Total GULP energy -178853.667869 kJ/mol
# GULP energy per Si atom -5589.177121 kJ/mol
# Density = 1.861672 g / cm^3
# Si number density = 18.659188 Si / 1000 Ang^3
#
#
#
# Elastic Constant Matrix: (Units=GPa)
#
#
# Indices 1 2 3 4 5 6 
#
# 1 111.0863 113.5950 44.6420 0.0000 -3.3690 0.0000
# 2 113.5950 203.0287 59.7601 0.0000 -11.0588 0.0000
# 3 44.6420 59.7601 53.4949 0.0000 -8.4624 0.0000
# 4 0.0000 0.0000 0.0000 39.6490 0.0000 -0.6169
# 5 -3.3690 -11.0588 -8.4624 0.0000 23.9799 0.0000
# 6 0.0000 0.0000 0.0000 -0.6169 0.0000 42.6531
#
#
#
# Elastic Compliance Matrix: (Units=1/GPa)
#
#
# Indices 1 2 3 4 5 6 
#
# 1 0.023170 -0.010889 -0.007892 0.000000 -0.004551 0.000000
# 2 -0.010889 0.012462 -0.004414 0.000000 0.002660 0.000000
# 3 -0.007892 -0.004414 0.031469 0.000000 0.007961 0.000000
# 4 0.000000 0.000000 0.000000 0.025227 0.000000 0.000365
# 5 -0.004551 0.002660 0.007961 0.000000 0.045098 0.000000
# 6 0.000000 0.000000 0.000000 0.000365 0.000000 0.023450
#
#
# Mechanical properties :
#
#
# Convention : Reuss Voigt Hill
#
# Bulk Modulus (GPa) = 48.27972 89.28935 68.78453
# Shear Modulus (GPa) = 23.34617 31.23059 27.28838
#
# Velocity S-wave (km/s) = 3.54105 4.09557 3.82837
# Velocity P-wave (km/s) = 6.53065 8.38580 7.51568
#
# Compressibility (1/GPa) = 0.02071263
#
# Stress axis : x y z
#
# Youngs Moduli (GPa) = 43.15929 80.24586 31.77746
#
# Poissons Ratio (x) = 0.87378 0.25077
# Poissons Ratio (y) = 0.46995 0.14026
# Poissons Ratio (z) = 0.34059 0.35418
#
# Static dielectric constant tensor:
#      x y z
#    x 1.648040 0.000000 -0.004010 
#    y 0.000000 1.593510 0.000000 
#    z -0.004010 0.000000 1.628500 
# 
# From -- ./inp_files/18614.got.cif
#   From: 2010.05.17/outbox.cif.g08.bks.cpg/sg14_10_cif.got.tgz:18614.got - 2010.06.03 17:49:19.
