data_PCOD9243322
_publ_section_title
;
Structure prediction by ZEFSAII (Michael W. Deem and Ramdas Pophale) SiO2 
 PCOD9243322
Probable space group: P 21/C
;
_chemical_formula_sum "Si O2"
_cell_formula_units_Z 20
_cell_length_a 28.937407
_cell_length_b 8.298409
_cell_length_c 10.176939
_cell_angle_alpha 90.000000
_cell_angle_beta 23.302039
_cell_angle_gamma 90.000000
_cell_volume 966.727240
_symmetry_space_group_name_H-M "P 21/C"
_symmetry_group_IT_number 14
_symmetry_cell_setting 'monoclinic'
loop_
_space_group_symop_operation_xyz
x,y,z
-x,1/2+y,1/2-z
-x,-y,-z
x,1/2-y,1/2+z
loop_
_atom_site_type_symbol
_atom_site_label
_atom_site_fract_x
_atom_site_fract_y
_atom_site_fract_z
Si Si1 0.088901 0.052165 0.882741
Si Si2 0.438096 0.894327 0.467537
Si Si3 0.026340 0.875226 0.315488
Si Si4 0.250908 0.688159 0.837508
Si Si5 0.506743 0.214581 0.412211
O O1 0.209053 0.970957 0.522333
O O2 0.076904 0.243637 0.927882
O O3 0.048582 0.969159 0.122775
O O4 0.000000 0.000000 0.000000
O O5 0.311409 0.814307 0.779046
O O6 0.497322 0.872088 0.168821
O O7 0.508950 0.789761 0.391430
O O8 0.434511 0.074411 0.529730
O O9 0.142661 0.774272 0.049485
O O10 0.000000 0.000000 0.500000
O O11 0.358092 0.655862 0.459963
#
# Coordination Sequence:
#
# PCOD9243322 Si02
#       5
#     4   4   4   4   4
#     4  10  20  37  61  86 118 153 194 244 295 349
#     4   9  19  37  58  85 113 157 195 244 290 347
#     4  11  22  39  62  88 118 155 198 244 297 355
#     4   9  20  37  60  81 119 154 198 243 293 345
#     4   9  19  36  60  82 117 153 196 243 292 345
#
# _framework density 20.688358000000001
#
# number of rings (size 3 to 8) (size 9 to 14) (size 15 to 20)
#    1.200    1.200    0.000    3.600    0.000    2.400 
#    3.600    0.000    0.000    0.000    0.000    0.000 
#    0.000    0.000    0.000    0.000    0.000    0.000 
#
# Total GULP energy -111347.645213 kJ/mol
# GULP energy per Si atom -5567.382261 kJ/mol
# Density = 2.064127 g / cm^3
# Si number density = 20.688358 Si / 1000 Ang^3
#
#
#
# Elastic Constant Matrix: (Units=GPa)
#
#
# Indices 1 2 3 4 5 6 
#
# 1 87.3433 18.5291 8.4585 0.0000 18.3486 0.0000
# 2 18.5291 92.6118 19.7714 0.0000 -1.9401 0.0000
# 3 8.4585 19.7714 37.8771 0.0000 4.4420 0.0000
# 4 0.0000 0.0000 0.0000 29.4148 0.0000 -6.0288
# 5 18.3486 -1.9401 4.4420 0.0000 36.6875 0.0000
# 6 0.0000 0.0000 0.0000 -6.0288 0.0000 31.8676
#
#
#
# Elastic Compliance Matrix: (Units=1/GPa)
#
#
# Indices 1 2 3 4 5 6 
#
# 1 0.013526 -0.002672 -0.000828 0.000000 -0.006806 0.000000
# 2 -0.002672 0.012754 -0.006387 0.000000 0.002784 0.000000
# 3 -0.000828 -0.006387 0.030342 0.000000 -0.003598 0.000000
# 4 0.000000 0.000000 0.000000 0.035368 0.000000 0.006691
# 5 -0.006806 0.002784 -0.003598 0.000000 0.031244 0.000000
# 6 0.000000 0.000000 0.000000 0.006691 0.000000 0.032646
#
#
# Mechanical properties :
#
#
# Convention : Reuss Voigt Hill
#
# Bulk Modulus (GPa) = 27.13846 34.59447 30.86647
# Shear Modulus (GPa) = 26.60474 30.99885 28.80180
#
# Velocity S-wave (km/s) = 3.58994 3.87508 3.73523
# Velocity P-wave (km/s) = 5.50725 6.06462 5.79265
#
# Compressibility (1/GPa) = 0.03684807
#
# Stress axis : x y z
#
# Youngs Moduli (GPa) = 73.93278 78.40480 32.95756
#
# Poissons Ratio (x) = 0.20950 0.02728
# Poissons Ratio (y) = 0.19755 0.21051
# Poissons Ratio (z) = 0.06119 0.50080
#
# Static dielectric constant tensor:
#      x y z
#    x 1.761010 0.000000 0.009010 
#    y 0.000000 1.746810 0.000000 
#    z 0.009010 0.000000 1.762720 
# 
# From -- ./inp_files/19623.got.cif
#   From: 2010.05.17/outbox.cif.g08.bks.cpg/sg14_10_cif.got.tgz:19623.got - 2010.06.03 17:49:19.
