data_PCOD9243697
_publ_section_title
;
Structure prediction by ZEFSAII (Michael W. Deem and Ramdas Pophale) SiO2 
 PCOD9243697
Probable space group: P 21/C
;
_chemical_formula_sum "Si O2"
_cell_formula_units_Z 24
_cell_length_a 7.074882
_cell_length_b 22.192228
_cell_length_c 7.404792
_cell_angle_alpha 90.000000
_cell_angle_beta 60.489399
_cell_angle_gamma 90.000000
_cell_volume 1011.775768
_symmetry_space_group_name_H-M "P 21/C"
_symmetry_group_IT_number 14
_symmetry_cell_setting 'monoclinic'
loop_
_space_group_symop_operation_xyz
x,y,z
-x,1/2+y,1/2-z
-x,-y,-z
x,1/2-y,1/2+z
loop_
_atom_site_type_symbol
_atom_site_label
_atom_site_fract_x
_atom_site_fract_y
_atom_site_fract_z
Si Si1 0.223197 0.950979 0.554451
Si Si2 0.478232 0.402184 0.539436
Si Si3 0.665968 0.989765 0.153821
Si Si4 0.181733 0.675009 0.234587
Si Si5 0.808645 0.191506 0.848214
Si Si6 0.890005 0.635326 0.076757
O O1 0.423863 0.977821 0.349671
O O2 0.291894 0.886202 0.610186
O O3 0.019659 0.928791 0.530155
O O4 0.184454 0.994529 0.745490
O O5 0.301283 0.432284 0.489385
O O6 0.640997 0.453702 0.532748
O O7 0.615738 0.352032 0.374410
O O8 0.359959 0.376703 0.772438
O O9 0.981585 0.673351 0.867912
O O10 0.270142 0.740239 0.138234
O O11 0.959740 0.671740 0.223848
O O12 0.846821 0.324001 0.538771
#
# Coordination Sequence:
#
# PCOD9243697 Si02
#       6
#     4   4   4   4   4   4
#     4   9  19  40  60  91 124 165 200 253 308 359
#     4  11  22  40  64  95 118 168 208 246 312 372
#     4  10  20  38  63  89 133 159 204 253 304 376
#     4  10  21  42  65  84 125 166 201 261 317 353
#     4  12  21  45  63  85 127 164 202 262 311 365
#     4  10  23  41  60  94 119 156 213 247 306 365
#
# _framework density 23.720673999999999
#
# number of rings (size 3 to 8) (size 9 to 14) (size 15 to 20)
#    1.000    0.667    5.000    0.000    0.000    1.333 
#    9.000    0.000    0.000    0.000    0.000    0.000 
#    0.000    0.000    0.000    0.000    0.000    0.000 
#
# Total GULP energy -133910.328144 kJ/mol
# GULP energy per Si atom -5579.597006 kJ/mol
# Density = 2.366668 g / cm^3
# Si number density = 23.720674 Si / 1000 Ang^3
#
#
#
# Elastic Constant Matrix: (Units=GPa)
#
#
# Indices 1 2 3 4 5 6 
#
# 1 38.3278 -3.8491 6.3256 0.0000 16.3803 0.0000
# 2 -3.8491 109.8634 21.0241 0.0000 1.8657 0.0000
# 3 6.3256 21.0241 81.4460 0.0000 13.3135 0.0000
# 4 0.0000 0.0000 0.0000 45.7349 0.0000 5.3686
# 5 16.3803 1.8657 13.3135 0.0000 36.0806 0.0000
# 6 0.0000 0.0000 0.0000 5.3686 0.0000 15.4474
#
#
#
# Elastic Compliance Matrix: (Units=1/GPa)
#
#
# Indices 1 2 3 4 5 6 
#
# 1 0.032603 0.001490 -0.000516 0.000000 -0.014688 0.000000
# 2 0.001490 0.009650 -0.002570 0.000000 -0.000227 0.000000
# 3 -0.000516 -0.002570 0.013751 0.000000 -0.004707 0.000000
# 4 0.000000 0.000000 0.000000 0.022795 0.000000 -0.007922
# 5 -0.014688 -0.000227 -0.004707 0.000000 0.036133 0.000000
# 6 0.000000 0.000000 0.000000 -0.007922 0.000000 0.067489
#
#
# Mechanical properties :
#
#
# Convention : Reuss Voigt Hill
#
# Bulk Modulus (GPa) = 18.93451 30.73760 24.83605
# Shear Modulus (GPa) = 24.60449 33.19503 28.89976
#
# Velocity S-wave (km/s) = 3.22415 3.74493 3.49425
# Velocity P-wave (km/s) = 4.67544 5.62900 5.17423
#
# Compressibility (1/GPa) = 0.05281361
#
# Stress axis : x y z
#
# Youngs Moduli (GPa) = 30.67216 103.62673 72.72279
#
# Poissons Ratio (x) = -0.15444 0.03752
# Poissons Ratio (y) = -0.04571 0.18687
# Poissons Ratio (z) = 0.01582 0.26628
#
# Static dielectric constant tensor:
#      x y z
#    x 1.993400 0.000000 0.020170 
#    y 0.000000 1.956860 0.000000 
#    z 0.020170 0.000000 1.904890 
# 
# From -- ./inp_files/10110.got.cif
#   From: 2010.05.17/outbox.cif.g08.bks.cpg/sg14_6_cif.got.tgz:10110.got - 2010.06.03 17:49:19.
