data_PCOD9243600
_publ_section_title
;
Structure prediction by ZEFSAII (Michael W. Deem and Ramdas Pophale) SiO2 
 PCOD9243600
Probable space group: P 21/C
;
_chemical_formula_sum "Si O2"
_cell_formula_units_Z 32
_cell_length_a 9.579657
_cell_length_b 12.017791
_cell_length_c 11.880365
_cell_angle_alpha 90.000000
_cell_angle_beta 102.842953
_cell_angle_gamma 90.000000
_cell_volume 1333.525822
_symmetry_space_group_name_H-M "P 21/C"
_symmetry_group_IT_number 14
_symmetry_cell_setting 'monoclinic'
loop_
_space_group_symop_operation_xyz
x,y,z
-x,1/2+y,1/2-z
-x,-y,-z
x,1/2-y,1/2+z
loop_
_atom_site_type_symbol
_atom_site_label
_atom_site_fract_x
_atom_site_fract_y
_atom_site_fract_z
Si Si1 0.435353 0.851225 0.412035
Si Si2 0.989390 0.992705 0.855925
Si Si3 0.965844 0.274644 0.445930
Si Si4 0.540977 0.071822 0.328679
Si Si5 0.759224 0.650671 0.004778
Si Si6 0.939928 0.633920 0.848088
Si Si7 0.776679 0.160599 0.214646
Si Si8 0.251324 0.340059 0.749986
O O1 0.323039 0.758001 0.355607
O O2 0.459235 0.953979 0.329514
O O3 0.600800 0.811145 0.449098
O O4 0.407857 0.896479 0.534991
O O5 0.994130 0.061166 0.737053
O O6 0.958819 0.093040 0.938077
O O7 0.127019 0.912885 0.853602
O O8 0.848562 0.917912 0.840886
O O9 0.879867 0.217654 0.327937
O O10 0.135275 0.253931 0.463350
O O11 0.667762 0.079834 0.262308
O O12 0.420424 0.158765 0.264529
O O13 0.760226 0.603996 0.128824
O O14 0.842900 0.576667 0.928296
O O15 0.824857 0.720838 0.774953
O O16 0.054837 0.704504 0.942281
#
# Coordination Sequence:
#
# PCOD9243600 Si02
#       8
#     4   4   4   4   4   4   4   4
#     4  10  22  44  65  93 140 167 220 277 330 393
#     4  12  22  40  66  97 131 169 223 277 341 381
#     4  10  24  40  62  96 129 166 224 270 326 395
#     4  10  24  41  68  95 130 180 218 266 345 392
#     4   9  19  40  62  88 119 173 209 260 322 395
#     4  10  20  38  61  86 129 170 210 271 324 395
#     4  12  24  42  69 106 128 172 231 280 319 401
#     4  11  21  39  63  91 128 168 213 270 326 390
#
# _framework density 23.996537
#
# number of rings (size 3 to 8) (size 9 to 14) (size 15 to 20)
#    0.750    0.750    2.500    2.250    0.000    7.500 
#    0.000    1.875    0.000    0.000    0.000    0.000 
#    0.000    0.000    0.000    0.000    0.000    0.000 
#
# Total GULP energy -178416.910782 kJ/mol
# GULP energy per Si atom -5575.528462 kJ/mol
# Density = 2.394192 g / cm^3
# Si number density = 23.996537 Si / 1000 Ang^3
#
#
#
# Elastic Constant Matrix: (Units=GPa)
#
#
# Indices 1 2 3 4 5 6 
#
# 1 104.2257 36.4762 46.7999 0.0000 -1.2477 0.0000
# 2 36.4762 96.5220 23.0522 0.0000 7.1021 0.0000
# 3 46.7999 23.0522 73.3526 0.0000 9.3397 0.0000
# 4 0.0000 0.0000 0.0000 27.5015 0.0000 26.9363
# 5 -1.2477 7.1021 9.3397 0.0000 33.7757 0.0000
# 6 0.0000 0.0000 0.0000 26.9363 0.0000 -4.4725
#
#
#
# Elastic Compliance Matrix: (Units=1/GPa)
#
#
# Indices 1 2 3 4 5 6 
#
# 1 0.014932 -0.003818 -0.008809 0.000000 0.003790 0.000000
# 2 -0.003818 0.012244 -0.001105 0.000000 -0.002410 0.000000
# 3 -0.008809 -0.001105 0.020328 0.000000 -0.005714 0.000000
# 4 0.000000 0.000000 0.000000 0.005271 0.000000 0.031743
# 5 0.003790 -0.002410 -0.005714 0.000000 0.031834 0.000000
# 6 0.000000 0.000000 0.000000 0.031743 0.000000 -0.032409
#
#
# Mechanical properties :
#
#
# Convention : Reuss Voigt Hill
#
# Bulk Modulus (GPa) = 49.90203 54.08411 51.99307
# Shear Modulus (GPa) = 57.90754 22.54573 40.22664
#
# Velocity S-wave (km/s) = 4.91772 3.06852 4.09877
# Velocity P-wave (km/s) = 7.28601 5.92804 6.64182
#
# Compressibility (1/GPa) = 0.02003927
#
# Stress axis : x y z
#
# Youngs Moduli (GPa) = 66.97158 81.67000 49.19260
#
# Poissons Ratio (x) = 0.31179 0.43336
# Poissons Ratio (y) = 0.25568 0.05438
# Poissons Ratio (z) = 0.58998 0.09028
#
# Static dielectric constant tensor:
#      x y z
#    x 1.935300 0.000000 -0.034850 
#    y 0.000000 1.989630 0.000000 
#    z -0.034850 0.000000 2.112400 
# 
# From -- ./inp_files/40082.got.cif
#   From: 2010.05.17/outbox.cif.g08.bks.cpg/sg14_21_cif.got.tgz:40082.got - 2010.06.03 17:49:19.
