data_PCOD9243786
_publ_section_title
;
Structure prediction by ZEFSAII (Michael W. Deem and Ramdas Pophale) SiO2 
 PCOD9243786
Probable space group: P 21/C
;
_chemical_formula_sum "Si O2"
_cell_formula_units_Z 26
_cell_length_a 8.001217
_cell_length_b 22.627200
_cell_length_c 11.181753
_cell_angle_alpha 90.000000
_cell_angle_beta 143.601477
_cell_angle_gamma 90.000000
_cell_volume 1201.276380
_symmetry_space_group_name_H-M "P 21/C"
_symmetry_group_IT_number 14
_symmetry_cell_setting 'monoclinic'
loop_
_space_group_symop_operation_xyz
x,y,z
-x,1/2+y,1/2-z
-x,-y,-z
x,1/2-y,1/2+z
loop_
_atom_site_type_symbol
_atom_site_label
_atom_site_fract_x
_atom_site_fract_y
_atom_site_fract_z
Si Si1 0.580270 0.095121 0.371061
Si Si2 0.995303 0.868324 0.010810
Si Si3 0.347198 0.801285 0.400563
Si Si4 0.028958 0.583898 0.114662
Si Si5 0.577548 0.470902 0.258192
Si Si6 0.991563 0.692137 0.253142
Si Si7 0.500000 0.000000 0.000000
O O1 0.644079 0.140112 0.512843
O O2 0.859555 0.082342 0.456877
O O3 0.447240 0.032137 0.328754
O O4 0.333924 0.124390 0.147747
O O5 0.155128 0.818876 0.178173
O O6 0.157304 0.930149 0.119626
O O7 0.005843 0.848286 0.879333
O O8 0.668958 0.786935 0.554027
O O9 0.201305 0.746800 0.382362
O O10 0.225874 0.539787 0.302124
O O11 0.065466 0.649768 0.185786
O O12 0.703843 0.566309 0.932301
O O13 0.567636 0.486828 0.393548
#
# Coordination Sequence:
#
# PCOD9243786 Si02
#       7
#     4   4   4   4   4   4   2
#     4  10  25  41  66 107 130 171 223 268 340 400
#     4  11  24  45  67  99 134 177 217 280 345 391
#     4  11  27  46  67  97 132 179 226 281 336 392
#     4  11  23  43  68 100 134 176 225 273 330 403
#     4  11  22  43  70  99 140 174 220 276 334 414
#     4  11  26  46  68  95 133 177 233 277 330 403
#     4  10  20  38  66 100 130 172 216 262 336 390
#
# _framework density 21.643646
#
# number of rings (size 3 to 8) (size 9 to 14) (size 15 to 20)
#    0.000    1.231    3.077    2.308    4.308    8.000 
#    0.000    0.000    0.000    0.000    0.000    0.000 
#    0.000    0.000    0.000    0.000    0.000    0.000 
#
# Total GULP energy -144879.396400 kJ/mol
# GULP energy per Si atom -5572.284477 kJ/mol
# Density = 2.159438 g / cm^3
# Si number density = 21.643646 Si / 1000 Ang^3
#
#
#
# Elastic Constant Matrix: (Units=GPa)
#
#
# Indices 1 2 3 4 5 6 
#
# 1 22.4128 9.0894 10.0327 0.0000 10.2490 0.0000
# 2 9.0894 71.4032 3.4360 0.0000 0.4633 0.0000
# 3 10.0327 3.4360 52.1667 0.0000 13.4170 0.0000
# 4 0.0000 0.0000 0.0000 26.9701 0.0000 -0.0420
# 5 10.2490 0.4633 13.4170 0.0000 31.2533 0.0000
# 6 0.0000 0.0000 0.0000 -0.0420 0.0000 31.2971
#
#
#
# Elastic Compliance Matrix: (Units=1/GPa)
#
#
# Indices 1 2 3 4 5 6 
#
# 1 0.057663 -0.006923 -0.006516 0.000000 -0.016009 0.000000
# 2 -0.006923 0.014882 -0.000198 0.000000 0.002135 0.000000
# 3 -0.006516 -0.000198 0.022353 0.000000 -0.007456 0.000000
# 4 0.000000 0.000000 0.000000 0.037078 0.000000 0.000050
# 5 -0.016009 0.002135 -0.007456 0.000000 0.040416 0.000000
# 6 0.000000 0.000000 0.000000 0.000050 0.000000 0.031952
#
#
# Mechanical properties :
#
#
# Convention : Reuss Voigt Hill
#
# Bulk Modulus (GPa) = 14.78761 21.23322 18.01041
# Shear Modulus (GPa) = 19.67275 26.13241 22.90258
#
# Velocity S-wave (km/s) = 3.01813 3.47853 3.25648
# Velocity P-wave (km/s) = 4.35805 5.09561 4.74119
#
# Compressibility (1/GPa) = 0.06762420
#
# Stress axis : x y z
#
# Youngs Moduli (GPa) = 17.34229 67.19574 44.73615
#
# Poissons Ratio (x) = 0.46518 0.29151
# Poissons Ratio (y) = 0.12006 0.00885
# Poissons Ratio (z) = 0.11300 0.01329
#
# Static dielectric constant tensor:
#      x y z
#    x 1.760430 0.000000 -0.007820 
#    y 0.000000 1.794990 0.000000 
#    z -0.007820 0.000000 1.771970 
# 
# From -- ./inp_files/22055.got.cif
#   From: 2010.05.17/outbox.cif.g08.bks.cpg/sg14_12_cif.got.tgz:22055.got - 2010.06.03 17:49:19.
