data_PCOD9243400
_publ_section_title
;
Structure prediction by ZEFSAII (Michael W. Deem and Ramdas Pophale) SiO2 
 PCOD9243400
Probable space group: P 21/C
;
_chemical_formula_sum "Si O2"
_cell_formula_units_Z 26
_cell_length_a 26.566010
_cell_length_b 7.430777
_cell_length_c 18.615203
_cell_angle_alpha 90.000000
_cell_angle_beta 14.328724
_cell_angle_gamma 90.000000
_cell_volume 909.445810
_symmetry_space_group_name_H-M "P 21/C"
_symmetry_group_IT_number 14
_symmetry_cell_setting 'monoclinic'
loop_
_space_group_symop_operation_xyz
x,y,z
-x,1/2+y,1/2-z
-x,-y,-z
x,1/2-y,1/2+z
loop_
_atom_site_type_symbol
_atom_site_label
_atom_site_fract_x
_atom_site_fract_y
_atom_site_fract_z
Si Si1 0.499266 0.783103 0.116639
Si Si2 0.751569 0.822655 0.396973
Si Si3 0.276490 0.162241 0.403017
Si Si4 0.918940 0.584718 0.962107
Si Si5 0.500000 0.000000 0.500000
Si Si6 0.295419 0.735593 0.208665
Si Si7 0.161233 0.758724 0.744107
O O1 0.414266 0.618003 0.188623
O O2 0.361420 0.959539 0.295710
O O3 0.556086 0.732016 0.120185
O O4 0.716935 0.841905 0.782238
O O5 0.747873 0.762115 0.484165
O O6 0.786738 0.037174 0.347349
O O7 0.951368 0.751325 0.080535
O O8 0.092279 0.159749 0.602623
O O9 0.461258 0.267984 0.104690
O O10 0.851646 0.376735 0.052781
O O11 0.111062 0.639801 0.744384
O O12 0.731743 0.034717 0.227733
O O13 0.309802 0.786770 0.104829
#
# Coordination Sequence:
#
# PCOD9243400 Si02
#       7
#     4   4   4   4   2   4   4
#     4  10  20  37  63  92 119 167 210 263 327 378
#     4  10  23  38  63  91 131 166 213 267 327 390
#     4  11  22  40  64  95 129 158 222 282 316 374
#     4  10  20  41  62  88 126 167 205 262 329 390
#     4  12  18  34  66  94 118 166 220 256 312 394
#     4  11  21  37  69  94 121 168 220 266 318 390
#     4  10  22  41  63  87 130 180 205 251 339 406
#
# _framework density 28.588837999999999
#
# number of rings (size 3 to 8) (size 9 to 14) (size 15 to 20)
#    0.000    1.538    4.615    1.385    2.154    0.000 
#    2.769    0.000    3.385    0.000    0.000    0.000 
#    0.000    0.000    0.000    0.000    0.000    0.000 
#
# Total GULP energy -145244.736518 kJ/mol
# GULP energy per Si atom -5586.336020 kJ/mol
# Density = 2.852377 g / cm^3
# Si number density = 28.588838 Si / 1000 Ang^3
#
#
#
# Elastic Constant Matrix: (Units=GPa)
#
#
# Indices 1 2 3 4 5 6 
#
# 1 263.1254 61.2078 52.7388 0.0000 -8.5096 0.0000
# 2 61.2078 132.4216 27.5688 0.0000 -21.4822 0.0000
# 3 52.7388 27.5688 85.8927 0.0000 -15.0306 0.0000
# 4 0.0000 0.0000 0.0000 28.3386 0.0000 -1.9857
# 5 -8.5096 -21.4822 -15.0306 0.0000 47.8017 0.0000
# 6 0.0000 0.0000 0.0000 -1.9857 0.0000 47.5461
#
#
#
# Elastic Compliance Matrix: (Units=1/GPa)
#
#
# Indices 1 2 3 4 5 6 
#
# 1 0.004677 -0.001774 -0.002430 0.000000 -0.000729 0.000000
# 2 -0.001774 0.009189 -0.001262 0.000000 0.003417 0.000000
# 3 -0.002430 -0.001262 0.014143 0.000000 0.003447 0.000000
# 4 0.000000 0.000000 0.000000 0.035391 0.000000 0.001478
# 5 -0.000729 0.003417 0.003447 0.000000 0.023409 0.000000
# 6 0.000000 0.000000 0.000000 0.001478 0.000000 0.021094
#
#
# Mechanical properties :
#
#
# Convention : Reuss Voigt Hill
#
# Bulk Modulus (GPa) = 58.56032 84.94115 71.75074
# Shear Modulus (GPa) = 40.15237 47.39891 43.77564
#
# Velocity S-wave (km/s) = 3.75170 4.07621 3.91732
# Velocity P-wave (km/s) = 6.26858 7.20623 6.75370
#
# Compressibility (1/GPa) = 0.01707641
#
# Stress axis : x y z
#
# Youngs Moduli (GPa) = 213.83419 108.82992 70.70875
#
# Poissons Ratio (x) = 0.19306 0.17179
# Poissons Ratio (y) = 0.37934 0.08924
# Poissons Ratio (z) = 0.51952 0.13736
#
# Static dielectric constant tensor:
#      x y z
#    x 2.439240 0.000000 0.020450 
#    y 0.000000 2.908420 0.000000 
#    z 0.020450 0.000000 2.361560 
# 
# From -- ./inp_files/61790.got.cif
#   From: 2010.05.17/outbox.cif.g08.bks.cpg/sg14_31_cif.got.tgz:61790.got - 2010.06.03 17:49:19.
