data_PCOD9243494
_publ_section_title
;
Structure prediction by ZEFSAII (Michael W. Deem and Ramdas Pophale) SiO2 
 PCOD9243494
Probable space group: P 21/C
;
_chemical_formula_sum "Si O2"
_cell_formula_units_Z 32
_cell_length_a 19.557083
_cell_length_b 9.772402
_cell_length_c 28.973661
_cell_angle_alpha 90.000000
_cell_angle_beta 17.118532
_cell_angle_gamma 90.000000
_cell_volume 1629.941489
_symmetry_space_group_name_H-M "P 21/C"
_symmetry_group_IT_number 14
_symmetry_cell_setting 'monoclinic'
loop_
_space_group_symop_operation_xyz
x,y,z
-x,1/2+y,1/2-z
-x,-y,-z
x,1/2-y,1/2+z
loop_
_atom_site_type_symbol
_atom_site_label
_atom_site_fract_x
_atom_site_fract_y
_atom_site_fract_z
Si Si1 0.056629 0.203435 0.168394
Si Si2 0.677873 0.410122 0.038764
Si Si3 0.439739 0.809261 0.483922
Si Si4 0.668357 0.703370 0.093609
Si Si5 0.842405 0.350512 0.554316
Si Si6 0.035363 0.196280 0.827821
Si Si7 0.845725 0.066274 0.859953
Si Si8 0.766535 0.672389 0.623827
O O1 0.030134 0.354930 0.208039
O O2 0.783941 0.162545 0.339405
O O3 0.206071 0.205308 0.025946
O O4 0.164848 0.096245 0.134914
O O5 0.682339 0.553012 0.062403
O O6 0.486173 0.318918 0.189555
O O7 0.590232 0.404382 0.042199
O O8 0.929503 0.341400 0.880170
O O9 0.688123 0.816694 0.346936
O O10 0.385838 0.653962 0.500713
O O11 0.395888 0.726564 0.279237
O O12 0.785957 0.730296 0.067086
O O13 0.798387 0.513565 0.588172
O O14 0.933538 0.327838 0.444244
O O15 0.038740 0.304081 0.463483
O O16 0.928727 0.096079 0.858429
#
# Coordination Sequence:
#
# PCOD9243494 Si02
#       8
#     4   4   4   4   4   4   4   4
#     4  10  21  42  57  88 121 154 199 246 293 358
#     4  10  20  38  60  84 120 159 194 244 304 349
#     4   9  21  37  62  84 117 156 198 245 290 356
#     4  11  22  38  59  85 124 157 192 246 303 354
#     4  10  21  36  61  86 113 156 198 247 291 358
#     4  11  19  38  62  89 112 160 201 242 304 351
#     4   9  22  39  63  85 118 158 200 247 299 348
#     4  10  20  38  57  87 117 153 199 242 299 349
#
# _framework density 19.632607
#
# number of rings (size 3 to 8) (size 9 to 14) (size 15 to 20)
#    0.750    1.250    2.500    1.500    0.000    0.500 
#    4.500    1.875    0.000    0.000    0.000    0.000 
#    0.000    0.000    0.000    0.000    0.000    0.000 
#
# Total GULP energy -178265.638865 kJ/mol
# GULP energy per Si atom -5570.801215 kJ/mol
# Density = 1.958792 g / cm^3
# Si number density = 19.632607 Si / 1000 Ang^3
#
#
#
# Elastic Constant Matrix: (Units=GPa)
#
#
# Indices 1 2 3 4 5 6 
#
# 1 78.8583 -9.6379 32.4678 0.0000 4.7099 0.0000
# 2 -9.6379 10.0253 7.6686 0.0000 -3.9810 0.0000
# 3 32.4678 7.6686 86.5114 0.0000 14.7940 0.0000
# 4 0.0000 0.0000 0.0000 22.1300 0.0000 7.7647
# 5 4.7099 -3.9810 14.7940 0.0000 35.7808 0.0000
# 6 0.0000 0.0000 0.0000 7.7647 0.0000 18.7898
#
#
#
# Elastic Compliance Matrix: (Units=1/GPa)
#
#
# Indices 1 2 3 4 5 6 
#
# 1 0.020906 0.031102 -0.011540 0.000000 0.005480 0.000000
# 2 0.031102 0.163872 -0.030793 0.000000 0.026870 0.000000
# 3 -0.011540 -0.030793 0.020387 0.000000 -0.010336 0.000000
# 4 0.000000 0.000000 0.000000 0.052851 0.000000 -0.021840
# 5 0.005480 0.026870 -0.010336 0.000000 0.034490 0.000000
# 6 0.000000 0.000000 0.000000 -0.021840 0.000000 0.062246
#
#
# Mechanical properties :
#
#
# Convention : Reuss Voigt Hill
#
# Bulk Modulus (GPa) = 5.47341 26.26577 15.86959
# Shear Modulus (GPa) = 11.41251 24.99989 18.20620
#
# Velocity S-wave (km/s) = 2.41364 3.57233 3.04854
# Velocity P-wave (km/s) = 3.24985 5.51571 4.52684
#
# Compressibility (1/GPa) = 0.18270137
#
# Stress axis : x y z
#
# Youngs Moduli (GPa) = 47.83278 6.10233 49.04997
#
# Poissons Ratio (x) = -0.18979 0.56604
# Poissons Ratio (y) = -1.48767 1.51042
# Poissons Ratio (z) = 0.55199 0.18791
#
# Static dielectric constant tensor:
#      x y z
#    x 1.674580 0.000000 0.028290 
#    y 0.000000 1.765350 0.000000 
#    z 0.028290 0.000000 1.708090 
# 
# From -- ./inp_files/77813.got.cif
#   From: 2010.05.17/outbox.cif.g08.bks.cpg/sg14_39_cif.got.tgz:77813.got - 2010.06.03 17:49:19.
