data_PCOD9243545
_publ_section_title
;
Structure prediction by ZEFSAII (Michael W. Deem and Ramdas Pophale) SiO2 
 PCOD9243545
Probable space group: P 21/C
;
_chemical_formula_sum "Si O2"
_cell_formula_units_Z 24
_cell_length_a 7.304807
_cell_length_b 14.234347
_cell_length_c 9.665012
_cell_angle_alpha 90.000000
_cell_angle_beta 75.157782
_cell_angle_gamma 90.000000
_cell_volume 971.429224
_symmetry_space_group_name_H-M "P 21/C"
_symmetry_group_IT_number 14
_symmetry_cell_setting 'monoclinic'
loop_
_space_group_symop_operation_xyz
x,y,z
-x,1/2+y,1/2-z
-x,-y,-z
x,1/2-y,1/2+z
loop_
_atom_site_type_symbol
_atom_site_label
_atom_site_fract_x
_atom_site_fract_y
_atom_site_fract_z
Si Si1 0.793555 0.900709 0.945640
Si Si2 0.781165 0.405634 0.606583
Si Si3 0.366033 0.778613 0.514615
Si Si4 0.811078 0.466907 0.893785
Si Si5 0.512676 0.830879 0.221521
Si Si6 0.258545 0.013240 0.306304
O O1 0.690224 0.847170 0.088457
O O2 0.794192 0.008928 0.995950
O O3 0.009277 0.870093 0.892276
O O4 0.696906 0.905108 0.813223
O O5 0.693141 0.319211 0.542469
O O6 0.714038 0.456973 0.762302
O O7 0.208478 0.860382 0.542924
O O8 0.534040 0.812861 0.380086
O O9 0.411832 0.755924 0.663728
O O10 0.029022 0.498835 0.835838
O O11 0.716194 0.528021 0.034133
O O12 0.375760 0.921523 0.240615
#
# Coordination Sequence:
#
# PCOD9243545 Si02
#       6
#     4   4   4   4   4   4
#     4  10  21  38  60  86 113 154 199 233 291 352
#     4  10  20  38  60  85 115 151 197 240 281 355
#     4  11  21  38  60  83 122 152 191 243 296 342
#     4   9  19  36  58  90 111 150 195 235 286 340
#     4  11  22  39  59  87 118 157 191 243 297 341
#     4   9  18  35  62  83 114 150 196 232 280 351
#
# _framework density 24.705867000000001
#
# number of rings (size 3 to 8) (size 9 to 14) (size 15 to 20)
#    0.000    2.000    3.333    0.500    0.000    0.000 
#    6.000    5.000    0.000    0.000    0.000    0.000 
#    0.000    0.000    0.000    0.000    0.000    0.000 
#
# Total GULP energy -133964.689177 kJ/mol
# GULP energy per Si atom -5581.862049 kJ/mol
# Density = 2.464963 g / cm^3
# Si number density = 24.705867 Si / 1000 Ang^3
#
#
#
# Elastic Constant Matrix: (Units=GPa)
#
#
# Indices 1 2 3 4 5 6 
#
# 1 42.6470 23.8748 25.3456 0.0000 15.0955 0.0000
# 2 23.8748 39.3700 3.3495 0.0000 -3.2648 0.0000
# 3 25.3456 3.3495 143.6678 0.0000 14.7579 0.0000
# 4 0.0000 0.0000 0.0000 39.4138 0.0000 3.3906
# 5 15.0955 -3.2648 14.7579 0.0000 44.4725 0.0000
# 6 0.0000 0.0000 0.0000 3.3906 0.0000 16.9709
#
#
#
# Elastic Compliance Matrix: (Units=1/GPa)
#
#
# Indices 1 2 3 4 5 6 
#
# 1 0.051663 -0.032244 -0.006541 0.000000 -0.017733 0.000000
# 2 -0.032244 0.045772 0.003263 0.000000 0.013222 0.000000
# 3 -0.006541 0.003263 0.008060 0.000000 -0.000215 0.000000
# 4 0.000000 0.000000 0.000000 0.025815 0.000000 -0.005158
# 5 -0.017733 0.013222 -0.000215 0.000000 0.029547 0.000000
# 6 0.000000 0.000000 0.000000 -0.005158 0.000000 0.059955
#
#
# Mechanical properties :
#
#
# Convention : Reuss Voigt Hill
#
# Bulk Modulus (GPa) = 29.02553 36.75830 32.89191
# Shear Modulus (GPa) = 16.48315 31.71244 24.09780
#
# Velocity S-wave (km/s) = 2.58578 3.58662 3.12651
# Velocity P-wave (km/s) = 4.54851 5.66237 5.13573
#
# Compressibility (1/GPa) = 0.03445243
#
# Stress axis : x y z
#
# Youngs Moduli (GPa) = 19.35618 21.84740 124.06230
#
# Poissons Ratio (x) = 0.70444 0.81149
# Poissons Ratio (y) = 0.62411 -0.40482
# Poissons Ratio (z) = 0.12661 -0.07129
#
# Static dielectric constant tensor:
#      x y z
#    x 1.991750 0.000000 -0.003260 
#    y 0.000000 1.977370 0.000000 
#    z -0.003260 0.000000 2.022600 
# 
# From -- ./inp_files/26392.got.cif
#   From: 2010.05.17/outbox.cif.g08.bks.cpg/sg14_14_cif.got.tgz:26392.got - 2010.06.03 17:49:19.
