data_PCOD9243727
_publ_section_title
;
Structure prediction by ZEFSAII (Michael W. Deem and Ramdas Pophale) SiO2 
 PCOD9243727
Probable space group: P 21/C
;
_chemical_formula_sum "Si O2"
_cell_formula_units_Z 20
_cell_length_a 5.057594
_cell_length_b 22.025861
_cell_length_c 7.742059
_cell_angle_alpha 90.000000
_cell_angle_beta 112.455353
_cell_angle_gamma 90.000000
_cell_volume 797.055757
_symmetry_space_group_name_H-M "P 21/C"
_symmetry_group_IT_number 14
_symmetry_cell_setting 'monoclinic'
loop_
_space_group_symop_operation_xyz
x,y,z
-x,1/2+y,1/2-z
-x,-y,-z
x,1/2-y,1/2+z
loop_
_atom_site_type_symbol
_atom_site_label
_atom_site_fract_x
_atom_site_fract_y
_atom_site_fract_z
Si Si1 0.451617 0.222911 0.226476
Si Si2 0.741873 0.937778 0.536767
Si Si3 0.555153 0.906967 0.868843
Si Si4 0.817690 0.979913 0.201775
Si Si5 0.932075 0.691019 0.060071
O O1 0.480084 0.164460 0.106119
O O2 0.183124 0.206036 0.279171
O O3 0.763421 0.223337 0.393004
O O4 0.337307 0.284736 0.116950
O O5 0.577424 0.915248 0.666885
O O6 0.637438 0.951712 0.316896
O O7 0.954961 0.881142 0.552396
O O8 0.884125 0.000177 0.639228
O O9 0.318480 0.954516 0.876864
O O10 0.822832 0.934415 0.042897
#
# Coordination Sequence:
#
# PCOD9243727 Si02
#       5
#     4   4   4   4   4
#     4  11  24  44  67  96 135 174 224 275 331 398
#     4  10  21  38  61  94 128 168 218 272 329 394
#     4  10  21  38  61  94 128 168 218 272 329 394
#     4  10  20  38  64  88 132 164 220 264 340 390
#     4  11  24  44  67  96 135 174 224 275 331 398
#
# _framework density 25.092348000000001
#
# number of rings (size 3 to 8) (size 9 to 14) (size 15 to 20)
#    0.000    1.600    2.000    2.400    2.800    0.000 
#    0.000    0.000    0.000    0.000    0.000    0.000 
#    0.000    0.000    0.000    0.000    0.000    0.000 
#
# Total GULP energy -111448.823827 kJ/mol
# GULP energy per Si atom -5572.441191 kJ/mol
# Density = 2.503524 g / cm^3
# Si number density = 25.092348 Si / 1000 Ang^3
#
#
#
# Elastic Constant Matrix: (Units=GPa)
#
#
# Indices 1 2 3 4 5 6 
#
# 1 104.7163 22.2824 27.3493 0.0000 0.6602 0.0000
# 2 22.2824 49.1229 27.6621 0.0000 4.6597 0.0000
# 3 27.3493 27.6621 87.1630 0.0000 -0.0813 0.0000
# 4 0.0000 0.0000 0.0000 40.2441 0.0000 12.5089
# 5 0.6602 4.6597 -0.0813 0.0000 27.5302 0.0000
# 6 0.0000 0.0000 0.0000 12.5089 0.0000 29.9426
#
#
#
# Elastic Compliance Matrix: (Units=1/GPa)
#
#
# Indices 1 2 3 4 5 6 
#
# 1 0.010927 -0.003726 -0.002246 0.000000 0.000362 0.000000
# 2 -0.003726 0.026557 -0.007263 0.000000 -0.004427 0.000000
# 3 -0.002246 -0.007263 0.014484 0.000000 0.001326 0.000000
# 4 0.000000 0.000000 0.000000 0.028556 0.000000 -0.011930
# 5 0.000362 -0.004427 0.001326 0.000000 0.037068 0.000000
# 6 0.000000 0.000000 0.000000 -0.011930 0.000000 0.038381
#
#
# Mechanical properties :
#
#
# Convention : Reuss Voigt Hill
#
# Bulk Modulus (GPa) = 39.21926 43.95444 41.58685
# Shear Modulus (GPa) = 26.18585 30.45727 28.32156
#
# Velocity S-wave (km/s) = 3.23395 3.48775 3.36325
# Velocity P-wave (km/s) = 5.44137 5.81157 5.62951
#
# Compressibility (1/GPa) = 0.02549768
#
# Stress axis : x y z
#
# Youngs Moduli (GPa) = 91.51872 37.65432 69.04333
#
# Poissons Ratio (x) = 0.14031 0.15504
# Poissons Ratio (y) = 0.34102 0.50148
# Poissons Ratio (z) = 0.20552 0.27349
#
# Static dielectric constant tensor:
#      x y z
#    x 2.102810 0.000000 0.115650 
#    y 0.000000 2.003090 0.000000 
#    z 0.115650 0.000000 2.157510 
# 
# From -- ./inp_files/5775.got.cif
#   From: 2010.05.17/outbox.cif.g08.bks.cpg/sg14_3_cif.got.tgz:5775.got - 2010.06.03 17:49:19.
