data_PCOD9243192
_publ_section_title
;
Structure prediction by ZEFSAII (Michael W. Deem and Ramdas Pophale) SiO2 
 PCOD9243192
Probable space group: P 21/C
;
_chemical_formula_sum "Si O2"
_cell_formula_units_Z 32
_cell_length_a 21.623341
_cell_length_b 8.589508
_cell_length_c 21.949074
_cell_angle_alpha 90.000000
_cell_angle_beta 158.504370
_cell_angle_gamma 90.000000
_cell_volume 1493.821210
_symmetry_space_group_name_H-M "P 21/C"
_symmetry_group_IT_number 14
_symmetry_cell_setting 'monoclinic'
loop_
_space_group_symop_operation_xyz
x,y,z
-x,1/2+y,1/2-z
-x,-y,-z
x,1/2-y,1/2+z
loop_
_atom_site_type_symbol
_atom_site_label
_atom_site_fract_x
_atom_site_fract_y
_atom_site_fract_z
Si Si1 0.662112 0.669818 0.410235
Si Si2 0.925555 0.325161 0.052181
Si Si3 0.648665 0.994549 0.226873
Si Si4 0.429546 0.839276 0.121346
Si Si5 0.090131 0.446721 0.855964
Si Si6 0.833414 0.267834 0.710930
Si Si7 0.293265 0.075777 0.851808
Si Si8 0.922652 0.977325 0.072497
O O1 0.482409 0.743359 0.228843
O O2 0.651492 0.509103 0.438122
O O3 0.768528 0.818190 0.531022
O O4 0.752678 0.614901 0.430967
O O5 0.874233 0.400102 0.070627
O O6 0.886247 0.144292 0.012748
O O7 0.128324 0.342567 0.228608
O O8 0.814018 0.413356 0.899548
O O9 0.592866 0.890337 0.232668
O O10 0.686527 0.895593 0.201158
O O11 0.476763 0.092319 0.052160
O O12 0.315820 0.733872 0.973315
O O13 0.967504 0.355793 0.790331
O O14 0.003026 0.496001 0.713642
O O15 0.755213 0.392257 0.685336
O O16 0.936622 0.125027 0.832629
#
# Coordination Sequence:
#
# PCOD9243192 Si02
#       8
#     4   4   4   4   4   4   4   4
#     4  11  24  36  56  88 125 155 198 249 300 377
#     4  11  21  39  65  92 119 165 205 251 315 365
#     4  10  21  40  66  91 115 159 216 256 307 372
#     4  11  23  38  58  88 120 159 197 250 310 368
#     4  10  20  37  57  84 119 157 199 243 294 377
#     4   9  20  38  57  82 116 157 198 244 310 353
#     4   9  21  41  67  86 119 157 212 269 302 362
#     4  11  23  37  59  88 126 164 198 250 308 375
#
# _framework density 21.421574
#
# number of rings (size 3 to 8) (size 9 to 14) (size 15 to 20)
#    0.000    1.750    2.500    1.875    7.000    0.000 
#    2.250    0.625    0.000    2.250    0.000    0.000 
#    0.000    0.000    0.000    0.000    0.000    0.000 
#
# Total GULP energy -178457.760581 kJ/mol
# GULP energy per Si atom -5576.805018 kJ/mol
# Density = 2.137282 g / cm^3
# Si number density = 21.421574 Si / 1000 Ang^3
#
#
#
# Elastic Constant Matrix: (Units=GPa)
#
#
# Indices 1 2 3 4 5 6 
#
# 1 37.2043 -8.3483 6.2243 0.0000 11.4775 0.0000
# 2 -8.3483 59.2114 8.9033 0.0000 9.4415 0.0000
# 3 6.2243 8.9033 48.2276 0.0000 14.4562 0.0000
# 4 0.0000 0.0000 0.0000 28.8305 0.0000 3.2050
# 5 11.4775 9.4415 14.4562 0.0000 23.6190 0.0000
# 6 0.0000 0.0000 0.0000 3.2050 0.0000 12.4877
#
#
#
# Elastic Compliance Matrix: (Units=1/GPa)
#
#
# Indices 1 2 3 4 5 6 
#
# 1 0.034955 0.008153 0.000064 0.000000 -0.020285 0.000000
# 2 0.008153 0.020021 -0.001423 0.000000 -0.011094 0.000000
# 3 0.000064 -0.001423 0.025508 0.000000 -0.015075 0.000000
# 4 0.000000 0.000000 0.000000 0.035704 0.000000 -0.009163
# 5 -0.020285 -0.011094 -0.015075 0.000000 0.065857 0.000000
# 6 0.000000 0.000000 0.000000 -0.009163 0.000000 0.082430
#
#
# Mechanical properties :
#
#
# Convention : Reuss Voigt Hill
#
# Bulk Modulus (GPa) = 10.63006 17.57799 14.10402
# Shear Modulus (GPa) = 17.71507 22.17838 19.94672
#
# Velocity S-wave (km/s) = 2.87883 3.22114 3.05479
# Velocity P-wave (km/s) = 4.00292 4.69659 4.36356
#
# Compressibility (1/GPa) = 0.09407285
#
# Stress axis : x y z
#
# Youngs Moduli (GPa) = 28.60801 49.94714 39.20322
#
# Poissons Ratio (x) = -0.40723 -0.00250
# Poissons Ratio (y) = -0.23325 0.05578
# Poissons Ratio (z) = -0.00182 0.07107
#
# Static dielectric constant tensor:
#      x y z
#    x 1.780830 0.000000 0.029430 
#    y 0.000000 1.808040 0.000000 
#    z 0.029430 0.000000 1.837130 
# 
# From -- ./inp_files/71980.got.cif
#   From: 2010.05.17/outbox.cif.g08.bks.cpg/sg14_36_cif.got.tgz:71980.got - 2010.06.03 17:49:19.
