data_PCOD9243395
_publ_section_title
;
Structure prediction by ZEFSAII (Michael W. Deem and Ramdas Pophale) SiO2 
 PCOD9243395
Probable space group: P 21/C
;
_chemical_formula_sum "Si O2"
_cell_formula_units_Z 20
_cell_length_a 23.636640
_cell_length_b 5.065221
_cell_length_c 13.273913
_cell_angle_alpha 90.000000
_cell_angle_beta 148.695259
_cell_angle_gamma 90.000000
_cell_volume 825.740782
_symmetry_space_group_name_H-M "P 21/C"
_symmetry_group_IT_number 14
_symmetry_cell_setting 'monoclinic'
loop_
_space_group_symop_operation_xyz
x,y,z
-x,1/2+y,1/2-z
-x,-y,-z
x,1/2-y,1/2+z
loop_
_atom_site_type_symbol
_atom_site_label
_atom_site_fract_x
_atom_site_fract_y
_atom_site_fract_z
Si Si1 0.181577 0.464236 0.297162
Si Si2 0.487882 0.248809 0.054458
Si Si3 0.297184 0.539339 0.050732
Si Si4 0.755293 0.686544 0.817016
Si Si5 0.061105 0.011350 0.805884
O O1 0.216252 0.762399 0.372645
O O2 0.174070 0.424193 0.167094
O O3 0.080340 0.417452 0.217845
O O4 0.274405 0.254393 0.475241
O O5 0.584893 0.181015 0.279332
O O6 0.500000 0.500000 0.000000
O O7 0.364679 0.259634 0.905802
O O8 0.500000 0.000000 0.000000
O O9 0.266813 0.508910 0.122806
O O10 0.821944 0.929447 0.964879
O O11 0.980293 0.220235 0.734643
#
# Coordination Sequence:
#
# PCOD9243395 Si02
#       5
#     4   4   4   4   4
#     4  11  24  41  66  94 124 165 210 255 314 378
#     4  10  20  37  63  91 127 167 197 241 304 364
#     4  10  22  41  62  96 134 161 201 254 305 374
#     4  10  24  42  66  93 126 167 210 257 312 373
#     4  11  24  43  63  87 124 162 209 270 317 365
#
# _framework density 24.220677999999999
#
# number of rings (size 3 to 8) (size 9 to 14) (size 15 to 20)
#    0.000    1.600    0.000    6.000    0.000   12.800 
#    0.000    0.000    0.000    0.000    0.000    0.000 
#    0.000    0.000    0.000    0.000    0.000    0.000 
#
# Total GULP energy -111772.939390 kJ/mol
# GULP energy per Si atom -5588.646969 kJ/mol
# Density = 2.416555 g / cm^3
# Si number density = 24.220678 Si / 1000 Ang^3
#
#
#
# Elastic Constant Matrix: (Units=GPa)
#
#
# Indices 1 2 3 4 5 6 
#
# 1 131.3417 -17.9645 13.3429 0.0000 -4.1373 0.0000
# 2 -17.9645 71.8756 -1.9307 0.0000 2.4749 0.0000
# 3 13.3429 -1.9307 64.0782 0.0000 24.4787 0.0000
# 4 0.0000 0.0000 0.0000 35.3051 0.0000 -2.5076
# 5 -4.1373 2.4749 24.4787 0.0000 41.8712 0.0000
# 6 0.0000 0.0000 0.0000 -2.5076 0.0000 16.6772
#
#
#
# Elastic Compliance Matrix: (Units=1/GPa)
#
#
# Indices 1 2 3 4 5 6 
#
# 1 0.008192 0.001908 -0.002465 0.000000 0.002138 0.000000
# 2 0.001908 0.014430 0.000375 0.000000 -0.000884 0.000000
# 3 -0.002465 0.000375 0.020900 0.000000 -0.012484 0.000000
# 4 0.000000 0.000000 0.000000 0.028630 0.000000 0.004305
# 5 0.002138 -0.000884 -0.012484 0.000000 0.031445 0.000000
# 6 0.000000 0.000000 0.000000 0.004305 0.000000 0.060609
#
#
# Mechanical properties :
#
#
# Convention : Reuss Voigt Hill
#
# Bulk Modulus (GPa) = 23.17071 28.24344 25.70707
# Shear Modulus (GPa) = 27.93965 37.02721 32.48343
#
# Velocity S-wave (km/s) = 3.40007 3.91416 3.66614
# Velocity P-wave (km/s) = 5.00013 5.66689 5.34392
#
# Compressibility (1/GPa) = 0.04315794
#
# Stress axis : x y z
#
# Youngs Moduli (GPa) = 122.06380 69.29884 47.84772
#
# Poissons Ratio (x) = -0.13221 0.11795
# Poissons Ratio (y) = -0.23287 -0.01795
# Poissons Ratio (z) = 0.30090 -0.02600
#
# Static dielectric constant tensor:
#      x y z
#    x 1.915760 0.000000 0.025090 
#    y 0.000000 1.832660 0.000000 
#    z 0.025090 0.000000 2.067300 
# 
# From -- ./inp_files/50922.got.cif
#   From: 2010.05.17/outbox.cif.g08.bks.cpg/sg14_26_cif.got.tgz:50922.got - 2010.06.03 17:49:19.
