data_PCOD9243044
_publ_section_title
;
Structure prediction by ZEFSAII (Michael W. Deem and Ramdas Pophale) SiO2 
 PCOD9243044
Probable space group: P 21/C
;
_chemical_formula_sum "Si O2"
_cell_formula_units_Z 32
_cell_length_a 20.709769
_cell_length_b 5.083353
_cell_length_c 14.468425
_cell_angle_alpha 90.000000
_cell_angle_beta 125.351901
_cell_angle_gamma 90.000000
_cell_volume 1242.313917
_symmetry_space_group_name_H-M "P 21/C"
_symmetry_group_IT_number 14
_symmetry_cell_setting 'monoclinic'
loop_
_space_group_symop_operation_xyz
x,y,z
-x,1/2+y,1/2-z
-x,-y,-z
x,1/2-y,1/2+z
loop_
_atom_site_type_symbol
_atom_site_label
_atom_site_fract_x
_atom_site_fract_y
_atom_site_fract_z
Si Si1 0.015163 0.321632 0.697755
Si Si2 0.498477 0.635290 0.872897
Si Si3 0.177270 0.518207 0.857858
Si Si4 0.139202 0.734651 0.516050
Si Si5 0.727407 0.634532 0.454834
Si Si6 0.344888 0.326068 0.795995
Si Si7 0.248121 0.842946 0.770755
Si Si8 0.578759 0.149418 0.895604
O O1 0.105171 0.385085 0.743587
O O2 0.985376 0.551407 0.743605
O O3 0.953830 0.326344 0.561363
O O4 0.431204 0.463157 0.869503
O O5 0.531641 0.928604 0.916539
O O6 0.462725 0.657025 0.739541
O O7 0.571739 0.437159 0.931173
O O8 0.144250 0.578968 0.931468
O O9 0.248376 0.329019 0.943994
O O10 0.202869 0.780914 0.827415
O O11 0.195777 0.493517 0.530551
O O12 0.180759 0.875463 0.636540
O O13 0.674822 0.753752 0.327332
O O14 0.668132 0.422075 0.448067
O O15 0.288754 0.565738 0.778601
O O16 0.315413 0.065403 0.823829
#
# Coordination Sequence:
#
# PCOD9243044 Si02
#       8
#     4   4   4   4   4   4   4   4
#     4  10  21  38  63  88 122 164 198 247 306 359
#     4   9  17  32  52  82 117 150 192 249 293 358
#     4  11  23  39  63  89 126 159 206 248 306 357
#     4  10  22  41  63  89 127 159 207 248 308 358
#     4  10  20  36  61  87 121 158 202 254 300 359
#     4  10  21  39  59  87 124 157 201 251 306 353
#     4  11  24  37  63  93 119 163 205 250 297 361
#     4   9  18  28  54  86 111 148 202 240 296 356
#
# _framework density 25.758382000000001
#
# number of rings (size 3 to 8) (size 9 to 14) (size 15 to 20)
#    0.000    2.000    2.500    0.750    3.500    3.500 
#    0.000    0.000    0.000   10.500    0.000    0.000 
#    0.000    0.000    0.000    0.000    0.000    0.000 
#
# Total GULP energy -178956.734500 kJ/mol
# GULP energy per Si atom -5592.397953 kJ/mol
# Density = 2.569975 g / cm^3
# Si number density = 25.758382 Si / 1000 Ang^3
#
#
#
# Elastic Constant Matrix: (Units=GPa)
#
#
# Indices 1 2 3 4 5 6 
#
# 1 40.6874 0.9638 42.8696 0.0000 4.9538 0.0000
# 2 0.9638 86.3661 9.3415 0.0000 2.1142 0.0000
# 3 42.8696 9.3415 121.2737 0.0000 16.5532 0.0000
# 4 0.0000 0.0000 0.0000 23.1850 0.0000 8.5140
# 5 4.9538 2.1142 16.5532 0.0000 32.1929 0.0000
# 6 0.0000 0.0000 0.0000 8.5140 0.0000 38.6414
#
#
#
# Elastic Compliance Matrix: (Units=1/GPa)
#
#
# Indices 1 2 3 4 5 6 
#
# 1 0.039302 0.001062 -0.014132 0.000000 0.001149 0.000000
# 2 0.001062 0.011708 -0.001237 0.000000 -0.000296 0.000000
# 3 -0.014132 -0.001237 0.014012 0.000000 -0.004949 0.000000
# 4 0.000000 0.000000 0.000000 0.046928 0.000000 -0.010340
# 5 0.001149 -0.000296 -0.004949 0.000000 0.033450 0.000000
# 6 0.000000 0.000000 0.000000 -0.010340 0.000000 0.028157
#
#
# Mechanical properties :
#
#
# Convention : Reuss Voigt Hill
#
# Bulk Modulus (GPa) = 27.46589 39.40857 33.43723
# Shear Modulus (GPa) = 23.33096 31.81401 27.57249
#
# Velocity S-wave (km/s) = 3.01285 3.51820 3.27529
# Velocity P-wave (km/s) = 4.77379 5.64236 5.22615
#
# Compressibility (1/GPa) = 0.03640879
#
# Stress axis : x y z
#
# Youngs Moduli (GPa) = 25.44384 85.41324 71.36695
#
# Poissons Ratio (x) = -0.09069 1.00854
# Poissons Ratio (y) = -0.02702 0.08826
# Poissons Ratio (z) = 0.35957 0.10563
#
# Static dielectric constant tensor:
#      x y z
#    x 2.115220 0.000000 0.017380 
#    y 0.000000 2.019700 0.000000 
#    z 0.017380 0.000000 2.108280 
# 
# From -- ./inp_files/60953.got.cif
#   From: 2010.05.17/outbox.cif.g08.bks.cpg/sg14_31_cif.got.tgz:60953.got - 2010.06.03 17:49:19.
