data_PCOD9243331
_publ_section_title
;
Structure prediction by ZEFSAII (Michael W. Deem and Ramdas Pophale) SiO2 
 PCOD9243331
Probable space group: P 21/C
;
_chemical_formula_sum "Si O2"
_cell_formula_units_Z 24
_cell_length_a 5.976941
_cell_length_b 17.183241
_cell_length_c 10.897175
_cell_angle_alpha 90.000000
_cell_angle_beta 65.348579
_cell_angle_gamma 90.000000
_cell_volume 1017.175733
_symmetry_space_group_name_H-M "P 21/C"
_symmetry_group_IT_number 14
_symmetry_cell_setting 'monoclinic'
loop_
_space_group_symop_operation_xyz
x,y,z
-x,1/2+y,1/2-z
-x,-y,-z
x,1/2-y,1/2+z
loop_
_atom_site_type_symbol
_atom_site_label
_atom_site_fract_x
_atom_site_fract_y
_atom_site_fract_z
Si Si1 0.254655 0.155282 0.928052
Si Si2 0.451221 0.728071 0.436153
Si Si3 0.469822 0.602638 0.873822
Si Si4 0.917411 0.799086 0.670433
Si Si5 0.346080 0.441747 0.904644
Si Si6 0.178484 0.617721 0.316141
O O1 0.367712 0.111579 0.785763
O O2 0.079785 0.226104 0.921879
O O3 0.483643 0.197578 0.943703
O O4 0.089962 0.103060 0.059903
O O5 0.345890 0.813859 0.432693
O O6 0.719926 0.733780 0.313581
O O7 0.327063 0.660086 0.388511
O O8 0.275074 0.532052 0.906264
O O9 0.628221 0.582598 0.959320
O O10 0.806685 0.876130 0.631452
O O11 0.132482 0.824788 0.712312
O O12 0.626753 0.442514 0.784476
#
# Coordination Sequence:
#
# PCOD9243331 Si02
#       6
#     4   4   4   4   4   4
#     4  10  20  37  61  88 114 151 202 252 284 335
#     4   9  19  38  59  86 115 149 198 246 287 343
#     4  10  21  38  62  85 121 162 186 240 306 349
#     4   9  19  37  58  86 120 150 191 251 289 337
#     4  10  21  41  58  85 127 156 189 237 302 361
#     4  10  22  37  62  87 113 154 203 245 288 349
#
# _framework density 23.594742
#
# number of rings (size 3 to 8) (size 9 to 14) (size 15 to 20)
#    0.000    2.333    1.667    0.000    2.333    0.667 
#    0.000   19.167    0.000    0.000    0.000    0.000 
#    0.000    0.000    0.000    0.000    0.000    0.000 
#
# Total GULP energy -133834.828250 kJ/mol
# GULP energy per Si atom -5576.451177 kJ/mol
# Density = 2.354104 g / cm^3
# Si number density = 23.594742 Si / 1000 Ang^3
#
#
#
# Elastic Constant Matrix: (Units=GPa)
#
#
# Indices 1 2 3 4 5 6 
#
# 1 41.3314 10.2539 27.0501 0.0000 12.8959 0.0000
# 2 10.2539 95.4352 34.6051 0.0000 7.0273 0.0000
# 3 27.0501 34.6051 156.9009 0.0000 5.8452 0.0000
# 4 0.0000 0.0000 0.0000 31.4569 0.0000 -2.8562
# 5 12.8959 7.0273 5.8452 0.0000 32.0618 0.0000
# 6 0.0000 0.0000 0.0000 -2.8562 0.0000 21.5298
#
#
#
# Elastic Compliance Matrix: (Units=1/GPa)
#
#
# Indices 1 2 3 4 5 6 
#
# 1 0.031078 -0.000769 -0.004761 0.000000 -0.011464 0.000000
# 2 -0.000769 0.011544 -0.002347 0.000000 -0.001793 0.000000
# 3 -0.004761 -0.002347 0.007674 0.000000 0.001031 0.000000
# 4 0.000000 0.000000 0.000000 0.032177 0.000000 0.004269
# 5 -0.011464 -0.001793 0.001031 0.000000 0.036006 0.000000
# 6 0.000000 0.000000 0.000000 0.004269 0.000000 0.047013
#
#
# Mechanical properties :
#
#
# Convention : Reuss Voigt Hill
#
# Bulk Modulus (GPa) = 28.94991 48.60949 38.77970
# Shear Modulus (GPa) = 25.93904 31.79362 28.86633
#
# Velocity S-wave (km/s) = 3.31925 3.67480 3.50154
# Velocity P-wave (km/s) = 5.19482 6.21708 5.72880
#
# Compressibility (1/GPa) = 0.03454242
#
# Stress axis : x y z
#
# Youngs Moduli (GPa) = 32.17670 86.62607 130.31834
#
# Poissons Ratio (x) = 0.06658 0.62050
# Poissons Ratio (y) = 0.02473 0.30582
# Poissons Ratio (z) = 0.15321 0.20329
#
# Static dielectric constant tensor:
#      x y z
#    x 1.923860 0.000000 -0.097950 
#    y 0.000000 1.976650 0.000000 
#    z -0.097950 0.000000 1.954210 
# 
# From -- ./inp_files/21182.got.cif
#   From: 2010.05.17/outbox.cif.g08.bks.cpg/sg14_11_cif.got.tgz:21182.got - 2010.06.03 17:49:19.
