data_PCOD9243722
_publ_section_title
;
Structure prediction by ZEFSAII (Michael W. Deem and Ramdas Pophale) SiO2 
 PCOD9243722
Probable space group: P 21/C
;
_chemical_formula_sum "Si O2"
_cell_formula_units_Z 28
_cell_length_a 10.127524
_cell_length_b 9.235186
_cell_length_c 24.932355
_cell_angle_alpha 90.000000
_cell_angle_beta 30.564600
_cell_angle_gamma 90.000000
_cell_volume 1185.799631
_symmetry_space_group_name_H-M "P 21/C"
_symmetry_group_IT_number 14
_symmetry_cell_setting 'monoclinic'
loop_
_space_group_symop_operation_xyz
x,y,z
-x,1/2+y,1/2-z
-x,-y,-z
x,1/2-y,1/2+z
loop_
_atom_site_type_symbol
_atom_site_label
_atom_site_fract_x
_atom_site_fract_y
_atom_site_fract_z
Si Si1 0.138335 0.782593 0.141926
Si Si2 0.697853 0.510604 0.673050
Si Si3 0.620595 0.782134 0.771426
Si Si4 0.606871 0.906574 0.526291
Si Si5 0.775920 0.648604 0.856048
Si Si6 0.226497 0.344005 0.467342
Si Si7 0.470307 0.898749 0.931567
O O1 0.354085 0.681196 0.092943
O O2 0.905756 0.692381 0.195808
O O3 0.001574 0.878711 0.235316
O O4 0.260146 0.873381 0.051152
O O5 0.631801 0.619740 0.744352
O O6 0.465528 0.399509 0.741962
O O7 0.747336 0.613867 0.603891
O O8 0.955450 0.409288 0.584771
O O9 0.431233 0.814650 0.888341
O O10 0.806760 0.892508 0.406863
O O11 0.724874 0.822681 0.535203
O O12 0.485299 0.065555 0.572657
O O13 0.717831 0.819868 0.871069
O O14 0.447090 0.436485 0.421624
#
# Coordination Sequence:
#
# PCOD9243722 Si02
#       7
#     4   4   4   4   4   4   4
#     4  10  20  38  64  86 126 166 198 260 320 372
#     4  10  22  41  62  91 126 165 218 263 310 386
#     4  10  21  41  62  90 121 164 215 264 319 374
#     4  10  22  40  61  96 129 162 211 265 318 379
#     4   9  21  38  58  93 132 159 211 259 317 382
#     4  10  21  41  64  89 126 166 214 263 313 384
#     4   9  19  38  63  84 126 165 203 259 315 374
#
# _framework density 23.612756000000001
#
# number of rings (size 3 to 8) (size 9 to 14) (size 15 to 20)
#    0.000    2.286    1.429    0.000    0.000    9.143 
#   10.286    0.714    0.000    0.000    0.000    0.000 
#    0.000    0.000    0.000    0.000    0.000    0.000 
#
# Total GULP energy -156247.673909 kJ/mol
# GULP energy per Si atom -5580.274068 kJ/mol
# Density = 2.355901 g / cm^3
# Si number density = 23.612756 Si / 1000 Ang^3
#
#
#
# Elastic Constant Matrix: (Units=GPa)
#
#
# Indices 1 2 3 4 5 6 
#
# 1 53.9283 23.5963 16.7037 0.0000 -15.1549 0.0000
# 2 23.5963 72.7495 14.2291 0.0000 -5.2363 0.0000
# 3 16.7037 14.2291 97.2194 0.0000 21.7276 0.0000
# 4 0.0000 0.0000 0.0000 25.0048 0.0000 -4.3772
# 5 -15.1549 -5.2363 21.7276 0.0000 21.2837 0.0000
# 6 0.0000 0.0000 0.0000 -4.3772 0.0000 48.9818
#
#
#
# Elastic Compliance Matrix: (Units=1/GPa)
#
#
# Indices 1 2 3 4 5 6 
#
# 1 0.036553 -0.006321 -0.014024 0.000000 0.038789 0.000000
# 2 -0.006321 0.016164 -0.001506 0.000000 0.001013 0.000000
# 3 -0.014024 -0.001506 0.019733 0.000000 -0.030501 0.000000
# 4 0.000000 0.000000 0.000000 0.040628 0.000000 0.003631
# 5 0.038789 0.001013 -0.030501 0.000000 0.105990 0.000000
# 6 0.000000 0.000000 0.000000 0.003631 0.000000 0.020740
#
#
# Mechanical properties :
#
#
# Convention : Reuss Voigt Hill
#
# Bulk Modulus (GPa) = 34.78676 36.99504 35.89090
# Shear Modulus (GPa) = 17.05944 30.34527 23.70236
#
# Velocity S-wave (km/s) = 2.69079 3.58875 3.17171
# Velocity P-wave (km/s) = 4.94146 5.73355 5.35217
#
# Compressibility (1/GPa) = 0.02874657
#
# Stress axis : x y z
#
# Youngs Moduli (GPa) = 27.35733 61.86758 50.67745
#
# Poissons Ratio (x) = 0.39107 0.71071
# Poissons Ratio (y) = 0.17293 0.07633
# Poissons Ratio (z) = 0.38367 0.09318
#
# Static dielectric constant tensor:
#      x y z
#    x 1.922950 0.000000 -0.019100 
#    y 0.000000 1.904300 0.000000 
#    z -0.019100 0.000000 1.941610 
# 
# From -- ./inp_files/77116.got.cif
#   From: 2010.05.17/outbox.cif.g08.bks.cpg/sg14_39_cif.got.tgz:77116.got - 2010.06.03 17:49:19.
