data_PCOD9243023
_publ_section_title
;
Structure prediction by ZEFSAII (Michael W. Deem and Ramdas Pophale) SiO2 
 PCOD9243023
Probable space group: P 21/C
;
_chemical_formula_sum "Si O2"
_cell_formula_units_Z 30
_cell_length_a 17.813860
_cell_length_b 9.125736
_cell_length_c 17.642387
_cell_angle_alpha 90.000000
_cell_angle_beta 25.873297
_cell_angle_gamma 90.000000
_cell_volume 1251.556913
_symmetry_space_group_name_H-M "P 21/C"
_symmetry_group_IT_number 14
_symmetry_cell_setting 'monoclinic'
loop_
_space_group_symop_operation_xyz
x,y,z
-x,1/2+y,1/2-z
-x,-y,-z
x,1/2-y,1/2+z
loop_
_atom_site_type_symbol
_atom_site_label
_atom_site_fract_x
_atom_site_fract_y
_atom_site_fract_z
Si Si1 0.433191 0.639763 0.107937
Si Si2 0.866211 0.581522 0.955711
Si Si3 0.305008 0.541353 0.382868
Si Si4 0.393907 0.885570 0.044288
Si Si5 0.000000 0.500000 0.000000
Si Si6 0.777048 0.668642 0.322136
Si Si7 0.486609 0.249761 0.712453
Si Si8 0.985591 0.849335 0.778568
O O1 0.324688 0.585725 0.277823
O O2 0.500000 0.500000 0.000000
O O3 0.317615 0.764530 0.170314
O O4 0.609994 0.727910 0.967473
O O5 0.010102 0.707661 0.808276
O O6 0.899441 0.523312 0.010048
O O7 0.874038 0.452933 0.886922
O O8 0.687473 0.664876 0.109427
O O9 0.356414 0.681778 0.384627
O O10 0.450958 0.417601 0.262891
O O11 0.132396 0.461368 0.565544
O O12 0.490714 0.785037 0.896609
O O13 0.500000 0.000000 0.000000
O O14 0.281483 0.003094 0.101851
O O15 0.121042 0.367784 0.847911
O O16 0.891213 0.715686 0.289240
#
# Coordination Sequence:
#
# PCOD9243023 Si02
#       8
#     4   4   4   4   2   4   4   4
#     4  11  21  36  60  94 127 157 206 272 332 376
#     4  10  22  41  65  92 125 172 217 268 324 396
#     4  11  23  38  63  93 128 168 209 275 330 387
#     4  10  20  36  60  88 124 161 208 257 315 398
#     4  10  22  42  70  86 130 180 216 258 328 406
#     4  10  21  42  61  90 126 173 216 264 324 401
#     4  11  22  40  63  93 125 167 214 264 330 391
#     4  10  22  42  62  91 129 168 221 269 322 399
#
# _framework density 23.970144000000001
#
# number of rings (size 3 to 8) (size 9 to 14) (size 15 to 20)
#    0.000    1.600    2.667    3.200    3.733    1.067 
#    4.800    0.000    0.000    4.000    0.000    0.000 
#    0.000    0.000    0.000    0.000    0.000    0.000 
#
# Total GULP energy -167054.784637 kJ/mol
# GULP energy per Si atom -5568.492821 kJ/mol
# Density = 2.391559 g / cm^3
# Si number density = 23.970144 Si / 1000 Ang^3
#
#
#
# Elastic Constant Matrix: (Units=GPa)
#
#
# Indices 1 2 3 4 5 6 
#
# 1 31.8811 15.5507 13.4829 0.0000 11.9294 0.0000
# 2 15.5507 124.7653 20.3879 0.0000 0.3996 0.0000
# 3 13.4829 20.3879 95.4991 0.0000 26.0742 0.0000
# 4 0.0000 0.0000 0.0000 36.0088 0.0000 -0.1553
# 5 11.9294 0.3996 26.0742 0.0000 28.4873 0.0000
# 6 0.0000 0.0000 0.0000 -0.1553 0.0000 36.4861
#
#
#
# Elastic Compliance Matrix: (Units=1/GPa)
#
#
# Indices 1 2 3 4 5 6 
#
# 1 0.040018 -0.004925 -0.000056 0.000000 -0.016638 0.000000
# 2 -0.004925 0.008998 -0.002339 0.000000 0.004077 0.000000
# 3 -0.000056 -0.002339 0.014616 0.000000 -0.013321 0.000000
# 4 0.000000 0.000000 0.000000 0.027772 0.000000 0.000118
# 5 -0.016638 0.004077 -0.013321 0.000000 0.054207 0.000000
# 6 0.000000 0.000000 0.000000 0.000118 0.000000 0.027408
#
#
# Mechanical properties :
#
#
# Convention : Reuss Voigt Hill
#
# Bulk Modulus (GPa) = 20.41140 38.99872 29.70506
# Shear Modulus (GPa) = 24.51113 33.71136 29.11124
#
# Velocity S-wave (km/s) = 3.20123 3.75425 3.48872
# Velocity P-wave (km/s) = 4.71144 5.92432 5.35235
#
# Compressibility (1/GPa) = 0.04899223
#
# Stress axis : x y z
#
# Youngs Moduli (GPa) = 24.98853 111.13487 68.41997
#
# Poissons Ratio (x) = 0.54739 0.00381
# Poissons Ratio (y) = 0.12308 0.16002
# Poissons Ratio (z) = 0.00139 0.25991
#
# Static dielectric constant tensor:
#      x y z
#    x 1.990150 0.000000 -0.050100 
#    y 0.000000 1.925090 0.000000 
#    z -0.050100 0.000000 2.077030 
# 
# From -- ./inp_files/61118.got.cif
#   From: 2010.05.17/outbox.cif.g08.bks.cpg/sg14_31_cif.got.tgz:61118.got - 2010.06.03 17:49:19.
