data_PCOD9243855
_publ_section_title
;
Structure prediction by ZEFSAII (Michael W. Deem and Ramdas Pophale) SiO2 
 PCOD9243855
Probable space group: P 21/C
;
_chemical_formula_sum "Si O2"
_cell_formula_units_Z 28
_cell_length_a 12.904209
_cell_length_b 21.948647
_cell_length_c 5.309602
_cell_angle_alpha 90.000000
_cell_angle_beta 60.659823
_cell_angle_gamma 90.000000
_cell_volume 1310.934691
_symmetry_space_group_name_H-M "P 21/C"
_symmetry_group_IT_number 14
_symmetry_cell_setting 'monoclinic'
loop_
_space_group_symop_operation_xyz
x,y,z
-x,1/2+y,1/2-z
-x,-y,-z
x,1/2-y,1/2+z
loop_
_atom_site_type_symbol
_atom_site_label
_atom_site_fract_x
_atom_site_fract_y
_atom_site_fract_z
Si Si1 0.805682 0.516407 0.151396
Si Si2 0.754249 0.406106 0.845822
Si Si3 0.469495 0.935199 0.658615
Si Si4 0.667227 0.223281 0.516877
Si Si5 0.971702 0.054697 0.843720
Si Si6 0.588570 0.598686 0.525920
Si Si7 0.393608 0.270481 0.752801
O O1 0.886180 0.474718 0.235612
O O2 0.701757 0.554384 0.404736
O O3 0.754315 0.468425 0.008502
O O4 0.898527 0.566060 0.925308
O O5 0.696565 0.346855 0.045045
O O6 0.889572 0.397568 0.590224
O O7 0.667443 0.418677 0.714127
O O8 0.506012 0.930724 0.904445
O O9 0.500000 0.000000 0.500000
O O10 0.536590 0.893434 0.369024
O O11 0.718956 0.263369 0.680360
O O12 0.529493 0.246140 0.646419
O O13 0.000000 0.000000 0.000000
O O14 0.610552 0.663638 0.370609
O O15 0.338348 0.229613 0.596435
#
# Coordination Sequence:
#
# PCOD9243855 Si02
#       7
#     4   4   4   4   4   4   4
#     4  10  22  39  63  93 123 165 209 260 324 378
#     4  11  22  36  63  87 129 163 207 262 311 378
#     4  12  23  35  54  96 133 160 195 245 322 391
#     4  10  21  36  55  83 119 164 205 245 298 361
#     4   9  21  41  61  90 119 159 212 257 318 374
#     4  12  24  39  62  91 132 168 205 256 314 387
#     4  10  20  39  56  81 119 167 212 242 293 366
#
# _framework density 21.358803999999999
#
# number of rings (size 3 to 8) (size 9 to 14) (size 15 to 20)
#    0.000    1.429    1.429    5.571    6.000    0.000 
#    0.000    0.000    0.000    1.714    0.000    0.000 
#    0.000    0.000    0.000    0.000    0.000    0.000 
#
# Total GULP energy -156043.886568 kJ/mol
# GULP energy per Si atom -5572.995949 kJ/mol
# Density = 2.131019 g / cm^3
# Si number density = 21.358804 Si / 1000 Ang^3
#
#
#
# Elastic Constant Matrix: (Units=GPa)
#
#
# Indices 1 2 3 4 5 6 
#
# 1 61.9372 4.1900 25.4485 0.0000 -0.0729 0.0000
# 2 4.1900 75.9735 -7.2281 0.0000 -5.7859 0.0000
# 3 25.4485 -7.2281 79.8155 0.0000 4.3238 0.0000
# 4 0.0000 0.0000 0.0000 29.1522 0.0000 5.0157
# 5 -0.0729 -5.7859 4.3238 0.0000 41.1719 0.0000
# 6 0.0000 0.0000 0.0000 5.0157 0.0000 18.7295
#
#
#
# Elastic Compliance Matrix: (Units=1/GPa)
#
#
# Indices 1 2 3 4 5 6 
#
# 1 0.018783 -0.001587 -0.006157 0.000000 0.000457 0.000000
# 2 -0.001587 0.013537 0.001638 0.000000 0.001728 0.000000
# 3 -0.006157 0.001638 0.014712 0.000000 -0.001326 0.000000
# 4 0.000000 0.000000 0.000000 0.035960 0.000000 -0.009630
# 5 0.000457 0.001728 -0.001326 0.000000 0.024671 0.000000
# 6 0.000000 0.000000 0.000000 -0.009630 0.000000 0.055971
#
#
# Mechanical properties :
#
#
# Convention : Reuss Voigt Hill
#
# Bulk Modulus (GPa) = 28.71819 29.17187 28.94503
# Shear Modulus (GPa) = 26.67334 30.83178 28.75256
#
# Velocity S-wave (km/s) = 3.53770 3.80349 3.67300
# Velocity P-wave (km/s) = 5.49198 5.74250 5.61864
#
# Compressibility (1/GPa) = 0.03482113
#
# Stress axis : x y z
#
# Youngs Moduli (GPa) = 53.23918 73.86921 67.97039
#
# Poissons Ratio (x) = 0.11722 0.41851
# Poissons Ratio (y) = 0.08449 -0.11136
# Poissons Ratio (z) = 0.32781 -0.12102
#
# Static dielectric constant tensor:
#      x y z
#    x 1.820180 0.000000 0.020930 
#    y 0.000000 1.865550 0.000000 
#    z 0.020930 0.000000 1.979390 
# 
# From -- ./inp_files/2875.got.cif
#   From: 2010.05.17/outbox.cif.g08.bks.cpg/sg14_2_cif.got.tgz:2875.got - 2010.06.03 17:49:19.
