data_PCOD9243712
_publ_section_title
;
Structure prediction by ZEFSAII (Michael W. Deem and Ramdas Pophale) SiO2 
 PCOD9243712
Probable space group: P 21/C
;
_chemical_formula_sum "Si O2"
_cell_formula_units_Z 22
_cell_length_a 12.122169
_cell_length_b 17.669419
_cell_length_c 7.429906
_cell_angle_alpha 90.000000
_cell_angle_beta 148.438883
_cell_angle_gamma 90.000000
_cell_volume 832.963729
_symmetry_space_group_name_H-M "P 21/C"
_symmetry_group_IT_number 14
_symmetry_cell_setting 'monoclinic'
loop_
_space_group_symop_operation_xyz
x,y,z
-x,1/2+y,1/2-z
-x,-y,-z
x,1/2-y,1/2+z
loop_
_atom_site_type_symbol
_atom_site_label
_atom_site_fract_x
_atom_site_fract_y
_atom_site_fract_z
Si Si1 0.166078 0.776364 0.858046
Si Si2 0.500000 0.000000 0.500000
Si Si3 0.980302 0.466231 0.207714
Si Si4 0.828557 0.611969 0.834896
Si Si5 0.811468 0.374254 0.262063
Si Si6 0.560127 0.100902 0.941542
O O1 0.220143 0.688488 0.939739
O O2 0.944186 0.808100 0.468400
O O3 0.143073 0.811480 0.024372
O O4 0.352935 0.821617 0.020915
O O5 0.365983 0.929627 0.410223
O O6 0.516697 0.950452 0.331472
O O7 0.758017 0.441939 0.809948
O O8 0.172563 0.429740 0.361503
O O9 0.981818 0.555200 0.164995
O O10 0.982391 0.428617 0.404553
O O11 0.618943 0.613940 0.658413
#
# Coordination Sequence:
#
# PCOD9243712 Si02
#       6
#     4   2   4   4   4   4
#     4  10  23  40  64  88 134 168 217 280 342 391
#     4  10  22  38  70 100 128 182 232 268 344 402
#     4  10  21  38  66  95 131 169 222 272 334 395
#     4  10  20  38  63  96 127 175 212 268 335 398
#     4  11  22  45  65  95 134 181 220 287 344 407
#     4  10  20  41  64  98 132 171 223 276 325 409
#
# _framework density 26.411712000000001
#
# number of rings (size 3 to 8) (size 9 to 14) (size 15 to 20)
#    0.000    1.818    1.818    2.727    0.000    0.727 
#    6.545   10.909    0.000    0.000    0.000    0.000 
#    0.000    0.000    0.000    0.000    0.000    0.000 
#
# Total GULP energy -122591.827014 kJ/mol
# GULP energy per Si atom -5572.355773 kJ/mol
# Density = 2.635160 g / cm^3
# Si number density = 26.411712 Si / 1000 Ang^3
#
#
#
# Elastic Constant Matrix: (Units=GPa)
#
#
# Indices 1 2 3 4 5 6 
#
# 1 227.7884 61.2667 26.1731 0.0000 38.3234 0.0000
# 2 61.2667 207.4181 26.8575 0.0000 18.2790 0.0000
# 3 26.1731 26.8575 53.8873 0.0000 40.8944 0.0000
# 4 0.0000 0.0000 0.0000 28.6929 0.0000 6.1642
# 5 38.3234 18.2790 40.8944 0.0000 44.5437 0.0000
# 6 0.0000 0.0000 0.0000 6.1642 0.0000 57.5186
#
#
#
# Elastic Compliance Matrix: (Units=1/GPa)
#
#
# Indices 1 2 3 4 5 6 
#
# 1 0.005670 -0.001496 0.004048 0.000000 -0.007981 0.000000
# 2 -0.001496 0.005557 -0.004251 0.000000 0.002909 0.000000
# 3 0.004048 -0.004251 0.066040 0.000000 -0.062368 0.000000
# 4 0.000000 0.000000 0.000000 0.035673 0.000000 -0.003823
# 5 -0.007981 0.002909 -0.062368 0.000000 0.085381 0.000000
# 6 0.000000 0.000000 0.000000 -0.003823 0.000000 0.017795
#
#
# Mechanical properties :
#
#
# Convention : Reuss Voigt Hill
#
# Bulk Modulus (GPa) = 13.53722 79.74315 46.64019
# Shear Modulus (GPa) = 20.48040 51.13747 35.80894
#
# Velocity S-wave (km/s) = 2.78767 4.40496 3.68611
# Velocity P-wave (km/s) = 3.93676 7.49196 5.98446
#
# Compressibility (1/GPa) = 0.07387040
#
# Stress axis : x y z
#
# Youngs Moduli (GPa) = 176.37079 179.95321 15.14239
#
# Poissons Ratio (x) = 0.26914 -0.06130
# Poissons Ratio (y) = 0.26378 0.06436
# Poissons Ratio (z) = -0.71396 0.76491
#
# Static dielectric constant tensor:
#      x y z
#    x 2.099660 0.000000 0.016220 
#    y 0.000000 2.249550 0.000000 
#    z 0.016220 0.000000 1.626710 
# 
# From -- ./inp_files/13832.got.cif
#   From: 2010.05.17/outbox.cif.g08.bks.cpg/sg14_7_cif.got.tgz:13832.got - 2010.06.03 17:49:19.
