data_PCOD9243665
_publ_section_title
;
Structure prediction by ZEFSAII (Michael W. Deem and Ramdas Pophale) SiO2 
 PCOD9243665
Probable space group: P 21/C
;
_chemical_formula_sum "Si O2"
_cell_formula_units_Z 28
_cell_length_a 13.614997
_cell_length_b 12.762117
_cell_length_c 8.749413
_cell_angle_alpha 90.000000
_cell_angle_beta 66.548076
_cell_angle_gamma 90.000000
_cell_volume 1394.682152
_symmetry_space_group_name_H-M "P 21/C"
_symmetry_group_IT_number 14
_symmetry_cell_setting 'monoclinic'
loop_
_space_group_symop_operation_xyz
x,y,z
-x,1/2+y,1/2-z
-x,-y,-z
x,1/2-y,1/2+z
loop_
_atom_site_type_symbol
_atom_site_label
_atom_site_fract_x
_atom_site_fract_y
_atom_site_fract_z
Si Si1 0.397132 0.249060 0.847986
Si Si2 0.966362 0.879884 0.559206
Si Si3 0.479316 0.880774 0.472092
Si Si4 0.274604 0.374517 0.666807
Si Si5 0.280304 0.612938 0.581907
Si Si6 0.080084 0.752733 0.247465
Si Si7 0.293201 0.693550 0.246852
O O1 0.468957 0.310089 0.925621
O O2 0.465551 0.161384 0.715253
O O3 0.350167 0.329655 0.753339
O O4 0.300730 0.195650 0.002347
O O5 0.846553 0.873831 0.697471
O O6 0.984584 0.805850 0.400380
O O7 0.041847 0.825072 0.639711
O O8 0.000000 0.000000 0.500000
O O9 0.352484 0.864088 0.570973
O O10 0.500000 0.000000 0.500000
O O11 0.298959 0.493493 0.605533
O O12 0.155662 0.649534 0.649331
O O13 0.325905 0.648797 0.389960
O O14 0.320946 0.685092 0.696019
O O15 0.165451 0.689984 0.300038
#
# Coordination Sequence:
#
# PCOD9243665 Si02
#       7
#     4   4   4   4   4   4   4
#     4  10  25  42  61  91 125 165 209 255 302 377
#     4  12  22  40  65  93 123 167 202 254 310 360
#     4  11  23  41  65  91 124 163 209 250 317 367
#     4  11  23  43  62  86 129 166 204 255 307 359
#     4  10  20  38  64  89 125 156 200 255 312 351
#     4  10  21  39  61  94 126 150 209 251 301 369
#     4  10  20  38  62  92 125 153 202 268 297 365
#
# _framework density 20.076257999999999
#
# number of rings (size 3 to 8) (size 9 to 14) (size 15 to 20)
#    0.857    0.571    2.857    2.571    0.000    3.429 
#    0.000    7.857    0.000    0.000    0.000    0.000 
#    0.000    0.000    0.000    0.000    0.000    0.000 
#
# Total GULP energy -156089.319241 kJ/mol
# GULP energy per Si atom -5574.618544 kJ/mol
# Density = 2.003056 g / cm^3
# Si number density = 20.076258 Si / 1000 Ang^3
#
#
#
# Elastic Constant Matrix: (Units=GPa)
#
#
# Indices 1 2 3 4 5 6 
#
# 1 37.6669 23.9174 19.8607 0.0000 0.0394 0.0000
# 2 23.9174 128.8705 44.7451 0.0000 5.1321 0.0000
# 3 19.8607 44.7451 130.1922 0.0000 -11.0143 0.0000
# 4 0.0000 0.0000 0.0000 33.1216 0.0000 2.1786
# 5 0.0394 5.1321 -11.0143 0.0000 35.7219 0.0000
# 6 0.0000 0.0000 0.0000 2.1786 0.0000 23.9469
#
#
#
# Elastic Compliance Matrix: (Units=1/GPa)
#
#
# Indices 1 2 3 4 5 6 
#
# 1 0.031192 -0.004670 -0.003182 0.000000 -0.000345 0.000000
# 2 -0.004670 0.009692 -0.002809 0.000000 -0.002253 0.000000
# 3 -0.003182 -0.002809 0.009412 0.000000 0.003309 0.000000
# 4 0.000000 0.000000 0.000000 0.030374 0.000000 -0.002763
# 5 -0.000345 -0.002253 0.003309 0.000000 0.029338 0.000000
# 6 0.000000 0.000000 0.000000 -0.002763 0.000000 0.042010
#
#
# Mechanical properties :
#
#
# Convention : Reuss Voigt Hill
#
# Bulk Modulus (GPa) = 34.51588 52.64176 43.57882
# Shear Modulus (GPa) = 27.32254 32.43852 29.88053
#
# Velocity S-wave (km/s) = 3.69309 4.02402 3.86210
# Velocity P-wave (km/s) = 5.95105 6.91868 6.45303
#
# Compressibility (1/GPa) = 0.02897217
#
# Stress axis : x y z
#
# Youngs Moduli (GPa) = 32.05911 103.18240 106.24974
#
# Poissons Ratio (x) = 0.48190 0.33813
# Poissons Ratio (y) = 0.14973 0.29846
# Poissons Ratio (z) = 0.10202 0.28984
#
# Static dielectric constant tensor:
#      x y z
#    x 1.609400 0.000000 -0.086510 
#    y 0.000000 1.695790 0.000000 
#    z -0.086510 0.000000 1.720020 
# 
# From -- ./inp_files/15463.got.cif
#   From: 2010.05.17/outbox.cif.g08.bks.cpg/sg14_8_cif.got.tgz:15463.got - 2010.06.03 17:49:19.
