data_PCOD9243092
_publ_section_title
;
Structure prediction by ZEFSAII (Michael W. Deem and Ramdas Pophale) SiO2 
 PCOD9243092
Probable space group: P 21/C
;
_chemical_formula_sum "Si O2"
_cell_formula_units_Z 30
_cell_length_a 7.596178
_cell_length_b 16.089953
_cell_length_c 8.825544
_cell_angle_alpha 90.000000
_cell_angle_beta 84.617055
_cell_angle_gamma 90.000000
_cell_volume 1073.919899
_symmetry_space_group_name_H-M "P 21/C"
_symmetry_group_IT_number 14
_symmetry_cell_setting 'monoclinic'
loop_
_space_group_symop_operation_xyz
x,y,z
-x,1/2+y,1/2-z
-x,-y,-z
x,1/2-y,1/2+z
loop_
_atom_site_type_symbol
_atom_site_label
_atom_site_fract_x
_atom_site_fract_y
_atom_site_fract_z
Si Si1 0.916528 0.828875 0.794518
Si Si2 0.886721 0.155222 0.700652
Si Si3 0.000000 0.000000 0.500000
Si Si4 0.336172 0.437379 0.845073
Si Si5 0.453847 0.770959 0.355052
Si Si6 0.348871 0.338994 0.430540
Si Si7 0.717975 0.100388 0.263612
Si Si8 0.680357 0.054467 0.942060
O O1 0.754116 0.849192 0.695523
O O2 0.991009 0.736068 0.792602
O O3 0.075890 0.885925 0.708762
O O4 0.840321 0.847737 0.970638
O O5 0.719393 0.173874 0.603041
O O6 0.792377 0.133275 0.867191
O O7 0.983357 0.076167 0.627411
O O8 0.787364 0.981388 0.526339
O O9 0.542245 0.432479 0.858892
O O10 0.300781 0.489602 0.694097
O O11 0.599487 0.821115 0.246170
O O12 0.557107 0.736656 0.488835
O O13 0.358130 0.690926 0.284141
O O14 0.477012 0.415840 0.461157
O O15 0.741905 0.045151 0.108901
#
# Coordination Sequence:
#
# PCOD9243092 Si02
#       8
#     4   4   2   4   4   4   4   4
#     4  11  23  36  66  96 122 170 228 275 332 407
#     4   9  21  38  62  96 127 174 223 274 337 412
#     4  10  24  42  70  88 138 186 212 276 362 416
#     4  11  22  42  64  92 129 176 218 277 342 408
#     4   9  19  37  60  92 128 172 220 279 336 398
#     4  10  20  36  62  95 127 175 221 275 340 404
#     4  10  21  37  61  93 125 170 218 281 331 398
#     4   9  19  40  60  86 132 168 213 274 341 387
#
# _framework density 27.935044999999999
#
# number of rings (size 3 to 8) (size 9 to 14) (size 15 to 20)
#    0.000    2.133    2.667    0.400    1.867    6.933 
#    0.000    0.667    8.800    0.000    0.000    0.000 
#    0.000    0.000    0.000    0.000    0.000    0.000 
#
# Total GULP energy -167394.304700 kJ/mol
# GULP energy per Si atom -5579.810157 kJ/mol
# Density = 2.787146 g / cm^3
# Si number density = 27.935045 Si / 1000 Ang^3
#
#
#
# Elastic Constant Matrix: (Units=GPa)
#
#
# Indices 1 2 3 4 5 6 
#
# 1 178.4466 40.7227 64.1748 0.0000 -38.5503 0.0000
# 2 40.7227 71.5928 23.8061 0.0000 -24.2068 0.0000
# 3 64.1748 23.8061 87.5277 0.0000 -63.0157 0.0000
# 4 0.0000 0.0000 0.0000 44.0521 0.0000 -15.9683
# 5 -38.5503 -24.2068 -63.0157 0.0000 55.5522 0.0000
# 6 0.0000 0.0000 0.0000 -15.9683 0.0000 48.8283
#
#
#
# Elastic Compliance Matrix: (Units=1/GPa)
#
#
# Indices 1 2 3 4 5 6 
#
# 1 0.008922 -0.004235 -0.012333 0.000000 -0.009643 0.000000
# 2 -0.004235 0.018618 0.009634 0.000000 0.016103 0.000000
# 3 -0.012333 0.009634 0.080230 0.000000 0.086649 0.000000
# 4 0.000000 0.000000 0.000000 0.025753 0.000000 0.008422
# 5 -0.009643 0.016103 0.086649 0.000000 0.116616 0.000000
# 6 0.000000 0.000000 0.000000 0.008422 0.000000 0.023234
#
#
# Mechanical properties :
#
#
# Convention : Reuss Voigt Hill
#
# Bulk Modulus (GPa) = 10.64925 66.10825 38.37875
# Shear Modulus (GPa) = 15.69660 43.61076 29.65368
#
# Velocity S-wave (km/s) = 2.37301 3.95542 3.26164
# Velocity P-wave (km/s) = 3.36580 6.67659 5.28704
#
# Compressibility (1/GPa) = 0.09390335
#
# Stress axis : x y z
#
# Youngs Moduli (GPa) = 112.07932 53.71249 12.46421
#
# Poissons Ratio (x) = 0.22746 0.15372
# Poissons Ratio (y) = 0.47463 -0.12008
# Poissons Ratio (z) = 1.38224 -0.51748
#
# Static dielectric constant tensor:
#      x y z
#    x 2.121240 0.000000 0.036630 
#    y 0.000000 2.138790 0.000000 
#    z 0.036630 0.000000 2.263860 
# 
# From -- ./inp_files/26265.got.cif
#   From: 2010.05.17/outbox.cif.g08.bks.cpg/sg14_14_cif.got.tgz:26265.got - 2010.06.03 17:49:19.
