data_PCOD9243139
_publ_section_title
;
Structure prediction by ZEFSAII (Michael W. Deem and Ramdas Pophale) SiO2 
 PCOD9243139
Probable space group: P 21/C
;
_chemical_formula_sum "Si O2"
_cell_formula_units_Z 30
_cell_length_a 9.484065
_cell_length_b 14.741833
_cell_length_c 9.847636
_cell_angle_alpha 90.000000
_cell_angle_beta 79.587681
_cell_angle_gamma 90.000000
_cell_volume 1354.149991
_symmetry_space_group_name_H-M "P 21/C"
_symmetry_group_IT_number 14
_symmetry_cell_setting 'monoclinic'
loop_
_space_group_symop_operation_xyz
x,y,z
-x,1/2+y,1/2-z
-x,-y,-z
x,1/2-y,1/2+z
loop_
_atom_site_type_symbol
_atom_site_label
_atom_site_fract_x
_atom_site_fract_y
_atom_site_fract_z
Si Si1 0.000000 0.500000 0.500000
Si Si2 0.348098 0.956207 0.498921
Si Si3 0.378261 0.020827 0.197178
Si Si4 0.049330 0.993986 0.646313
Si Si5 0.957025 0.183860 0.729209
Si Si6 0.768484 0.232954 0.504812
Si Si7 0.130379 0.147024 0.164136
Si Si8 0.682849 0.075843 0.072345
O O1 0.081661 0.402801 0.534520
O O2 0.157422 0.541467 0.427124
O O3 0.334478 0.848533 0.521637
O O4 0.500000 0.000000 0.500000
O O5 0.318698 0.980055 0.346320
O O6 0.219704 0.996020 0.610958
O O7 0.288338 0.111457 0.175434
O O8 0.547967 0.036896 0.177299
O O9 0.349168 0.952504 0.078284
O O10 0.990658 0.077326 0.748068
O O11 0.000000 0.000000 0.500000
O O12 0.978658 0.902849 0.713021
O O13 0.873011 0.193074 0.601898
O O14 0.097014 0.246945 0.683012
O O15 0.860128 0.224588 0.865656
O O16 0.683849 0.316252 0.584504
#
# Coordination Sequence:
#
# PCOD9243139 Si02
#       8
#     2   4   4   4   4   4   4   4
#     4  10  20  36  66 102 126 172 230 286 334 412
#     4  12  27  44  68 100 143 191 226 290 367 430
#     4  10  23  44  65 100 144 178 221 298 370 395
#     4  12  23  45  67  96 144 181 228 290 355 423
#     4  12  24  41  75 106 131 191 240 296 349 430
#     4  12  24  44  70 104 135 183 241 292 354 430
#     4  11  21  40  68  98 132 175 234 285 348 421
#     4  10  22  41  71  97 135 181 230 292 345 427
#
# _framework density 22.154116999999999
#
# number of rings (size 3 to 8) (size 9 to 14) (size 15 to 20)
#    0.000    0.800    5.333    2.400    3.733    1.067 
#    0.000    0.000    0.000    0.000    0.000    0.000 
#    0.000    0.000    0.000    0.000    0.000    0.000 
#
# Total GULP energy -167340.074660 kJ/mol
# GULP energy per Si atom -5578.002489 kJ/mol
# Density = 2.210369 g / cm^3
# Si number density = 22.154117 Si / 1000 Ang^3
#
#
#
# Elastic Constant Matrix: (Units=GPa)
#
#
# Indices 1 2 3 4 5 6 
#
# 1 141.3478 28.6671 17.7556 0.0000 -31.3835 0.0000
# 2 28.6671 99.0672 -9.1263 0.0000 -18.3239 0.0000
# 3 17.7556 -9.1263 84.0612 0.0000 -10.8903 0.0000
# 4 0.0000 0.0000 0.0000 23.8469 0.0000 -8.8504
# 5 -31.3835 -18.3239 -10.8903 0.0000 33.1815 0.0000
# 6 0.0000 0.0000 0.0000 -8.8504 0.0000 34.5908
#
#
#
# Elastic Compliance Matrix: (Units=1/GPa)
#
#
# Indices 1 2 3 4 5 6 
#
# 1 0.009167 -0.001356 -0.001104 0.000000 0.007559 0.000000
# 2 -0.001356 0.011815 0.002348 0.000000 0.006013 0.000000
# 3 -0.001104 0.002348 0.012968 0.000000 0.004509 0.000000
# 4 0.000000 0.000000 0.000000 0.046334 0.000000 0.011855
# 5 0.007559 0.006013 0.004509 0.000000 0.042086 0.000000
# 6 0.000000 0.000000 0.000000 0.011855 0.000000 0.031943
#
#
# Mechanical properties :
#
#
# Convention : Reuss Voigt Hill
#
# Bulk Modulus (GPa) = 29.65114 44.34100 36.99607
# Shear Modulus (GPa) = 30.16052 37.46917 33.81485
#
# Velocity S-wave (km/s) = 3.69371 4.11700 3.91109
# Velocity P-wave (km/s) = 5.62178 6.53129 6.09353
#
# Compressibility (1/GPa) = 0.03372552
#
# Stress axis : x y z
#
# Youngs Moduli (GPa) = 109.08964 84.63789 77.11074
#
# Poissons Ratio (x) = 0.11479 0.08515
# Poissons Ratio (y) = 0.14795 -0.18107
# Poissons Ratio (z) = 0.12046 -0.19874
#
# Static dielectric constant tensor:
#      x y z
#    x 1.916540 0.000000 0.093240 
#    y 0.000000 1.786660 0.000000 
#    z 0.093240 0.000000 1.790210 
# 
# From -- ./inp_files/25239.got.cif
#   From: 2010.05.17/outbox.cif.g08.bks.cpg/sg14_13_cif.got.tgz:25239.got - 2010.06.03 17:49:19.
