data_PCOD9243448
_publ_section_title
;
Structure prediction by ZEFSAII (Michael W. Deem and Ramdas Pophale) SiO2 
 PCOD9243448
Probable space group: P 21/C
;
_chemical_formula_sum "Si O2"
_cell_formula_units_Z 20
_cell_length_a 9.036042
_cell_length_b 21.533065
_cell_length_c 6.197589
_cell_angle_alpha 90.000000
_cell_angle_beta 48.060112
_cell_angle_gamma 90.000000
_cell_volume 896.995266
_symmetry_space_group_name_H-M "P 21/C"
_symmetry_group_IT_number 14
_symmetry_cell_setting 'monoclinic'
loop_
_space_group_symop_operation_xyz
x,y,z
-x,1/2+y,1/2-z
-x,-y,-z
x,1/2-y,1/2+z
loop_
_atom_site_type_symbol
_atom_site_label
_atom_site_fract_x
_atom_site_fract_y
_atom_site_fract_z
Si Si1 0.470792 0.130948 0.047686
Si Si2 0.417180 0.403602 0.176807
Si Si3 0.915596 0.615833 0.836968
Si Si4 0.283318 0.962600 0.951292
Si Si5 0.755025 0.277729 0.458777
O O1 0.243231 0.114959 0.316671
O O2 0.610917 0.070982 0.950165
O O3 0.488996 0.146523 0.779451
O O4 0.549218 0.184248 0.128575
O O5 0.231445 0.379535 0.222110
O O6 0.335575 0.466222 0.369703
O O7 0.602833 0.426917 0.854514
O O8 0.052058 0.554617 0.683978
O O9 0.066198 0.672129 0.717652
O O10 0.767928 0.252869 0.698566
#
# Coordination Sequence:
#
# PCOD9243448 Si02
#       5
#     4   4   4   4   4
#     4  10  23  39  64  93 126 170 216 271 323 395
#     4  10  20  37  65  93 136 170 213 260 322 397
#     4  10  23  39  63  97 125 168 217 271 323 394
#     4   9  20  38  59  97 136 173 207 257 328 390
#     4  11  28  47  69  93 129 172 221 282 341 387
#
# _framework density 22.296661
#
# number of rings (size 3 to 8) (size 9 to 14) (size 15 to 20)
#    0.000    2.000    0.000    1.200   11.200    4.000 
#    0.000    0.000    0.000    0.000    0.000    0.000 
#    0.000    0.000    0.000    0.000    0.000    0.000 
#
# Total GULP energy -111366.618564 kJ/mol
# GULP energy per Si atom -5568.330928 kJ/mol
# Density = 2.224591 g / cm^3
# Si number density = 22.296661 Si / 1000 Ang^3
#
#
#
# Elastic Constant Matrix: (Units=GPa)
#
#
# Indices 1 2 3 4 5 6 
#
# 1 -91.0986 23.6181 109.6319 0.0000 -17.0622 0.0000
# 2 23.6181 43.9017 23.0858 0.0000 14.2002 0.0000
# 3 109.6319 23.0858 63.6495 0.0000 8.1544 0.0000
# 4 0.0000 0.0000 0.0000 16.6950 0.0000 -5.0680
# 5 -17.0622 14.2002 8.1544 0.0000 45.4584 0.0000
# 6 0.0000 0.0000 0.0000 -5.0680 0.0000 20.2153
#
#
#
# Elastic Compliance Matrix: (Units=1/GPa)
#
#
# Indices 1 2 3 4 5 6 
#
# 1 -0.003291 -0.000833 0.006240 0.000000 -0.002095 0.000000
# 2 -0.000833 0.030387 -0.008526 0.000000 -0.008275 0.000000
# 3 0.006240 -0.008526 0.007589 0.000000 0.003644 0.000000
# 4 0.000000 0.000000 0.000000 0.064832 0.000000 0.016253
# 5 -0.002095 -0.008275 0.003644 0.000000 0.023143 0.000000
# 6 0.000000 0.000000 0.000000 0.016253 0.000000 0.053542
#
#
# Mechanical properties :
#
#
# Convention : Reuss Voigt Hill
#
# Bulk Modulus (GPa) = 35.15540 36.56936 35.86238
# Shear Modulus (GPa) = 26.05219 7.14818 16.60019
#
# Velocity S-wave (km/s) = 3.42195 1.79246 2.73154
# Velocity P-wave (km/s) = 5.60485 4.55200 5.10564
#
# Compressibility (1/GPa) = 0.02844513
#
# Stress axis : x y z
#
# Youngs Moduli (GPa) = -303.81336 32.90928 131.77016
#
# Poissons Ratio (x) = 0.02741 -0.82223
# Poissons Ratio (y) = -0.25308 1.12351
# Poissons Ratio (z) = 1.89575 0.28059
#
# Static dielectric constant tensor:
#      x y z
#    x 1.832490 0.000000 0.084240 
#    y 0.000000 1.865930 0.000000 
#    z 0.084240 0.000000 1.866910 
# 
# From -- ./inp_files/564.got.cif
#   From: 2010.05.17/outbox.cif.g08.bks.cpg/sg14_1_cif.got.tgz:564.got - 2010.06.03 17:49:19.
