data_PCOD9243196
_publ_section_title
;
Structure prediction by ZEFSAII (Michael W. Deem and Ramdas Pophale) SiO2 
 PCOD9243196
Probable space group: P 21/C
;
_chemical_formula_sum "Si O2"
_cell_formula_units_Z 28
_cell_length_a 7.720300
_cell_length_b 25.379218
_cell_length_c 9.158335
_cell_angle_alpha 90.000000
_cell_angle_beta 142.125881
_cell_angle_gamma 90.000000
_cell_volume 1101.658211
_symmetry_space_group_name_H-M "P 21/C"
_symmetry_group_IT_number 14
_symmetry_cell_setting 'monoclinic'
loop_
_space_group_symop_operation_xyz
x,y,z
-x,1/2+y,1/2-z
-x,-y,-z
x,1/2-y,1/2+z
loop_
_atom_site_type_symbol
_atom_site_label
_atom_site_fract_x
_atom_site_fract_y
_atom_site_fract_z
Si Si1 0.363053 0.401188 0.617517
Si Si2 0.911392 0.739493 0.315105
Si Si3 0.747099 0.338238 0.012776
Si Si4 0.213782 0.395257 0.179059
Si Si5 0.528990 0.698380 0.798647
Si Si6 0.805253 0.062573 0.759555
Si Si7 0.705176 0.997554 0.428562
O O1 0.441416 0.344343 0.736849
O O2 0.307455 0.394385 0.409673
O O3 0.574273 0.450183 0.771716
O O4 0.093660 0.422450 0.528729
O O5 0.082266 0.786021 0.340373
O O6 0.193164 0.711364 0.569898
O O7 0.702862 0.767529 0.292815
O O8 0.700755 0.709355 0.063201
O O9 0.732410 0.382550 0.128431
O O10 0.925398 0.362414 0.994439
O O11 0.426452 0.361673 0.222915
O O12 0.165691 0.454035 0.091156
O O13 0.558100 0.035546 0.681112
O O14 0.879335 0.019803 0.681779
#
# Coordination Sequence:
#
# PCOD9243196 Si02
#       7
#     4   4   4   4   4   4   4
#     4  10  20  37  61  91 119 176 212 267 329 403
#     4  11  25  46  72 100 137 179 228 288 353 412
#     4   9  22  39  64  84 126 165 218 264 342 399
#     4  10  23  38  62  88 130 164 225 268 334 393
#     4  11  26  45  72 102 137 180 232 288 348 419
#     4   9  20  36  58  89 127 168 212 268 327 396
#     4  10  20  37  57  91 130 166 216 270 326 393
#
# _framework density 25.416232000000001
#
# number of rings (size 3 to 8) (size 9 to 14) (size 15 to 20)
#    0.000    2.000    0.000    1.714   10.000    8.571 
#    0.000    0.000    0.000    0.000    0.000    0.000 
#    0.000    0.000    0.000    0.000    0.000    0.000 
#
# Total GULP energy -156309.375233 kJ/mol
# GULP energy per Si atom -5582.477687 kJ/mol
# Density = 2.535838 g / cm^3
# Si number density = 25.416232 Si / 1000 Ang^3
#
#
#
# Elastic Constant Matrix: (Units=GPa)
#
#
# Indices 1 2 3 4 5 6 
#
# 1 74.0684 -6.1356 18.1279 0.0000 -0.4628 0.0000
# 2 -6.1356 110.6464 21.1950 0.0000 -5.0552 0.0000
# 3 18.1279 21.1950 93.0272 0.0000 11.1169 0.0000
# 4 0.0000 0.0000 0.0000 27.1876 0.0000 -4.5907
# 5 -0.4628 -5.0552 11.1169 0.0000 40.6130 0.0000
# 6 0.0000 0.0000 0.0000 -4.5907 0.0000 48.8545
#
#
#
# Elastic Compliance Matrix: (Units=1/GPa)
#
#
# Indices 1 2 3 4 5 6 
#
# 1 0.014441 0.001491 -0.003304 0.000000 0.001254 0.000000
# 2 0.001491 0.009737 -0.002746 0.000000 0.001981 0.000000
# 3 -0.003304 -0.002746 0.012472 0.000000 -0.003793 0.000000
# 4 0.000000 0.000000 0.000000 0.037375 0.000000 0.003512
# 5 0.001254 0.001981 -0.003793 0.000000 0.025922 0.000000
# 6 0.000000 0.000000 0.000000 0.003512 0.000000 0.020799
#
#
# Mechanical properties :
#
#
# Convention : Reuss Voigt Hill
#
# Bulk Modulus (GPa) = 36.31966 38.23520 37.27743
# Shear Modulus (GPa) = 35.96092 39.63465 37.79778
#
# Velocity S-wave (km/s) = 3.76557 3.95324 3.86054
# Velocity P-wave (km/s) = 5.76429 5.99281 5.87966
#
# Compressibility (1/GPa) = 0.02753330
#
# Stress axis : x y z
#
# Youngs Moduli (GPa) = 69.24764 102.70206 80.17843
#
# Poissons Ratio (x) = -0.15312 0.26488
# Poissons Ratio (y) = -0.10324 0.22014
# Poissons Ratio (z) = 0.22877 0.28198
#
# Static dielectric constant tensor:
#      x y z
#    x 2.135990 0.000000 0.083360 
#    y 0.000000 2.025760 0.000000 
#    z 0.083360 0.000000 2.133020 
# 
# From -- ./inp_files/11025.got.cif
#   From: 2010.05.17/outbox.cif.g08.bks.cpg/sg14_6_cif.got.tgz:11025.got - 2010.06.03 17:49:19.
