data_PCOD9243216
_publ_section_title
;
Structure prediction by ZEFSAII (Michael W. Deem and Ramdas Pophale) SiO2 
 PCOD9243216
Probable space group: P 21/C
;
_chemical_formula_sum "Si O2"
_cell_formula_units_Z 32
_cell_length_a 11.102232
_cell_length_b 8.136404
_cell_length_c 19.230464
_cell_angle_alpha 90.000000
_cell_angle_beta 131.145963
_cell_angle_gamma 90.000000
_cell_volume 1308.121819
_symmetry_space_group_name_H-M "P 21/C"
_symmetry_group_IT_number 14
_symmetry_cell_setting 'monoclinic'
loop_
_space_group_symop_operation_xyz
x,y,z
-x,1/2+y,1/2-z
-x,-y,-z
x,1/2-y,1/2+z
loop_
_atom_site_type_symbol
_atom_site_label
_atom_site_fract_x
_atom_site_fract_y
_atom_site_fract_z
Si Si1 0.335786 0.025641 0.004087
Si Si2 0.823297 0.971027 0.906826
Si Si3 0.734911 0.264958 0.287287
Si Si4 0.160054 0.912531 0.536331
Si Si5 0.374672 0.339713 0.176034
Si Si6 0.327015 0.326172 0.902911
Si Si7 0.321245 0.463999 0.308609
Si Si8 0.712834 0.322955 0.055752
O O1 0.275630 0.992301 0.059577
O O2 0.526138 0.009802 0.086450
O O3 0.268108 0.876190 0.930631
O O4 0.299956 0.209048 0.961391
O O5 0.787462 0.047822 0.816470
O O6 0.771792 0.784006 0.876962
O O7 0.000000 0.000000 0.000000
O O8 0.542794 0.266254 0.217420
O O9 0.804785 0.214255 0.388905
O O10 0.780409 0.129515 0.247496
O O11 0.318855 0.024405 0.600960
O O12 0.162659 0.854774 0.459211
O O13 0.000000 0.000000 0.500000
O O14 0.385552 0.415629 0.256466
O O15 0.254704 0.203816 0.816898
O O16 0.520838 0.334920 0.965241
O O17 0.268321 0.515579 0.887254
#
# Coordination Sequence:
#
# PCOD9243216 Si02
#       8
#     4   4   4   4   4   4   4   4
#     4  11  20  40  63  94 135 169 225 280 326 407
#     4  12  23  38  62  98 134 170 220 277 347 416
#     4  11  20  37  59  91 127 169 209 276 343 382
#     4  11  22  38  62  95 128 171 212 272 346 408
#     4  11  21  37  61  91 129 168 208 281 336 391
#     4  10  22  38  61  98 127 176 227 281 325 389
#     4  10  20  37  58  87 129 159 218 269 327 392
#     4  10  20  37  61  91 133 167 222 273 329 393
#
# _framework density 24.462554000000001
#
# number of rings (size 3 to 8) (size 9 to 14) (size 15 to 20)
#    0.000    1.250    3.750    4.500    0.000    0.000 
#    4.500    0.000    0.000    4.500    6.500    1.750 
#    0.000    0.000    0.000    0.000    0.000    0.000 
#
# Total GULP energy -178226.754631 kJ/mol
# GULP energy per Si atom -5569.586082 kJ/mol
# Density = 2.440688 g / cm^3
# Si number density = 24.462554 Si / 1000 Ang^3
#
#
#
# Elastic Constant Matrix: (Units=GPa)
#
#
# Indices 1 2 3 4 5 6 
#
# 1 69.6994 0.6912 22.2687 0.0000 -7.3237 0.0000
# 2 0.6912 102.4077 25.9855 0.0000 -23.3916 0.0000
# 3 22.2687 25.9855 56.1617 0.0000 -7.4396 0.0000
# 4 0.0000 0.0000 0.0000 53.5151 0.0000 -9.1757
# 5 -7.3237 -23.3916 -7.4396 0.0000 26.8672 0.0000
# 6 0.0000 0.0000 0.0000 -9.1757 0.0000 32.0775
#
#
#
# Elastic Compliance Matrix: (Units=1/GPa)
#
#
# Indices 1 2 3 4 5 6 
#
# 1 0.017276 0.002990 -0.007542 0.000000 0.005225 0.000000
# 2 0.002990 0.013850 -0.006113 0.000000 0.011180 0.000000
# 3 -0.007542 -0.006113 0.023509 0.000000 -0.000868 0.000000
# 4 0.000000 0.000000 0.000000 0.019650 0.000000 0.005621
# 5 0.005225 0.011180 -0.000868 0.000000 0.048138 0.000000
# 6 0.000000 0.000000 0.000000 0.005621 0.000000 0.032782
#
#
# Mechanical properties :
#
#
# Convention : Reuss Voigt Hill
#
# Bulk Modulus (GPa) = 30.02363 36.23996 33.13180
# Shear Modulus (GPa) = 26.64731 34.44686 30.54708
#
# Velocity S-wave (km/s) = 3.30405 3.75660 3.53757
# Velocity P-wave (km/s) = 5.18224 5.80195 5.50083
#
# Compressibility (1/GPa) = 0.03330710
#
# Stress axis : x y z
#
# Youngs Moduli (GPa) = 57.88311 72.20431 42.53610
#
# Poissons Ratio (x) = -0.21592 0.32080
# Poissons Ratio (y) = -0.17310 0.26001
# Poissons Ratio (z) = 0.43654 0.44137
#
# Static dielectric constant tensor:
#      x y z
#    x 1.983140 0.000000 -0.042820 
#    y 0.000000 2.149100 0.000000 
#    z -0.042820 0.000000 1.916320 
# 
# From -- ./inp_files/67058.got.cif
#   From: 2010.05.17/outbox.cif.g08.bks.cpg/sg14_34_cif.got.tgz:67058.got - 2010.06.03 17:49:19.
