data_PCOD9243936
_publ_section_title
;
Structure prediction by ZEFSAII (Michael W. Deem and Ramdas Pophale) SiO2 
 PCOD9243936
Probable space group: P 21/C
;
_chemical_formula_sum "Si O2"
_cell_formula_units_Z 32
_cell_length_a 12.311699
_cell_length_b 12.425222
_cell_length_c 16.786575
_cell_angle_alpha 90.000000
_cell_angle_beta 147.679539
_cell_angle_gamma 90.000000
_cell_volume 1372.957830
_symmetry_space_group_name_H-M "P 21/C"
_symmetry_group_IT_number 14
_symmetry_cell_setting 'monoclinic'
loop_
_space_group_symop_operation_xyz
x,y,z
-x,1/2+y,1/2-z
-x,-y,-z
x,1/2-y,1/2+z
loop_
_atom_site_type_symbol
_atom_site_label
_atom_site_fract_x
_atom_site_fract_y
_atom_site_fract_z
Si Si1 0.366567 0.140371 0.640438
Si Si2 0.730666 0.660486 0.731021
Si Si3 0.761918 0.632192 0.458039
Si Si4 0.766263 0.597685 0.278844
Si Si5 0.205239 0.606365 0.789257
Si Si6 0.692965 0.334151 0.587486
Si Si7 0.957781 0.002299 0.648242
Si Si8 0.236072 0.597420 0.534813
O O1 0.296476 0.146940 0.690296
O O2 0.328383 0.254246 0.573522
O O3 0.606264 0.125147 0.798975
O O4 0.231693 0.050024 0.515214
O O5 0.732282 0.788309 0.716036
O O6 0.534377 0.619612 0.560829
O O7 0.931053 0.598518 0.829226
O O8 0.699060 0.611517 0.327769
O O9 0.703434 0.520317 0.463380
O O10 0.004194 0.641110 0.615685
O O11 0.680697 0.490831 0.184763
O O12 0.010625 0.585359 0.427737
O O13 0.313316 0.717675 0.875672
O O14 0.120222 0.549960 0.816725
O O15 0.868499 0.410366 0.731818
O O16 0.754052 0.320082 0.531791
#
# Coordination Sequence:
#
# PCOD9243936 Si02
#       8
#     4   4   4   4   4   4   4   4
#     4  10  23  39  63  91 122 164 212 247 306 380
#     4  10  24  40  62  90 127 166 201 253 313 374
#     4  10  20  40  63  86 125 166 200 258 313 366
#     4  10  21  41  63  87 124 166 205 254 315 362
#     4  11  22  38  66  89 122 164 207 258 309 361
#     4  11  22  40  62  91 126 162 203 257 310 368
#     4  12  22  39  65  89 129 159 204 259 312 366
#     4  10  20  39  62  89 120 161 206 250 311 363
#
# _framework density 23.307342999999999
#
# number of rings (size 3 to 8) (size 9 to 14) (size 15 to 20)
#    0.000    1.500    3.750    3.000    0.000    4.500 
#    0.000    5.000    0.000    0.000    0.000    0.000 
#    0.000    0.000    0.000    0.000    0.000    0.000 
#
# Total GULP energy -178843.056391 kJ/mol
# GULP energy per Si atom -5588.845512 kJ/mol
# Density = 2.325429 g / cm^3
# Si number density = 23.307343 Si / 1000 Ang^3
#
#
#
# Elastic Constant Matrix: (Units=GPa)
#
#
# Indices 1 2 3 4 5 6 
#
# 1 38.9619 6.7012 -9.9240 0.0000 -8.9653 0.0000
# 2 6.7012 83.8800 10.6234 0.0000 -13.2116 0.0000
# 3 -9.9240 10.6234 85.0023 0.0000 0.6554 0.0000
# 4 0.0000 0.0000 0.0000 36.4209 0.0000 -8.3681
# 5 -8.9653 -13.2116 0.6554 0.0000 22.9928 0.0000
# 6 0.0000 0.0000 0.0000 -8.3681 0.0000 21.0074
#
#
#
# Elastic Compliance Matrix: (Units=1/GPa)
#
#
# Indices 1 2 3 4 5 6 
#
# 1 0.029187 -0.001092 0.003462 0.000000 0.010654 0.000000
# 2 -0.001092 0.013398 -0.001858 0.000000 0.007326 0.000000
# 3 0.003462 -0.001858 0.012401 0.000000 -0.000072 0.000000
# 4 0.000000 0.000000 0.000000 0.030223 0.000000 0.012039
# 5 0.010654 0.007326 -0.000072 0.000000 0.051858 0.000000
# 6 0.000000 0.000000 0.000000 0.012039 0.000000 0.052398
#
#
# Mechanical properties :
#
#
# Convention : Reuss Voigt Hill
#
# Bulk Modulus (GPa) = 17.85404 24.73839 21.29622
# Shear Modulus (GPa) = 24.14148 29.44715 26.79431
#
# Velocity S-wave (km/s) = 3.22186 3.55833 3.39427
# Velocity P-wave (km/s) = 4.63868 5.24588 4.95160
#
# Compressibility (1/GPa) = 0.05600973
#
# Stress axis : x y z
#
# Youngs Moduli (GPa) = 34.26142 74.63655 80.63616
#
# Poissons Ratio (x) = 0.08151 -0.27916
# Poissons Ratio (y) = 0.03742 0.14986
# Poissons Ratio (z) = -0.11861 0.13871
#
# Static dielectric constant tensor:
#      x y z
#    x 1.877410 0.000000 -0.006020 
#    y 0.000000 1.904930 0.000000 
#    z -0.006020 0.000000 1.876280 
# 
# From -- ./inp_files/59479.got.cif
#   From: 2010.05.17/outbox.cif.g08.bks.cpg/sg14_30_cif.got.tgz:59479.got - 2010.06.03 17:49:19.
