data_PCOD9243446
_publ_section_title
;
Structure prediction by ZEFSAII (Michael W. Deem and Ramdas Pophale) SiO2 
 PCOD9243446
Probable space group: P 21/C
;
_chemical_formula_sum "Si O2"
_cell_formula_units_Z 24
_cell_length_a 7.472922
_cell_length_b 8.949649
_cell_length_c 14.756354
_cell_angle_alpha 90.000000
_cell_angle_beta 85.502376
_cell_angle_gamma 90.000000
_cell_volume 983.866292
_symmetry_space_group_name_H-M "P 21/C"
_symmetry_group_IT_number 14
_symmetry_cell_setting 'monoclinic'
loop_
_space_group_symop_operation_xyz
x,y,z
-x,1/2+y,1/2-z
-x,-y,-z
x,1/2-y,1/2+z
loop_
_atom_site_type_symbol
_atom_site_label
_atom_site_fract_x
_atom_site_fract_y
_atom_site_fract_z
Si Si1 0.684952 0.658460 0.678553
Si Si2 0.034433 0.554324 0.234055
Si Si3 0.644851 0.718638 0.997343
Si Si4 0.761157 0.116834 0.451368
Si Si5 0.472348 0.130058 0.175107
Si Si6 0.144071 0.794452 0.356376
O O1 0.831140 0.566790 0.727999
O O2 0.744394 0.704384 0.576474
O O3 0.629157 0.804435 0.735096
O O4 0.519997 0.542845 0.677764
O O5 0.135554 0.637650 0.146910
O O6 0.010490 0.674323 0.315303
O O7 0.883620 0.451205 0.193978
O O8 0.440104 0.684511 0.039420
O O9 0.729912 0.561302 0.964991
O O10 0.626756 0.826680 0.912975
O O11 0.865464 0.176925 0.535590
O O12 0.659868 0.222478 0.165042
#
# Coordination Sequence:
#
# PCOD9243446 Si02
#       6
#     4   4   4   4   4   4
#     4  11  22  37  65  92 125 157 209 254 309 368
#     4  11  23  43  61  94 121 168 207 250 310 369
#     4  10  20  37  65  93 121 158 205 260 312 361
#     4  10  21  41  64  91 123 163 206 253 313 366
#     4  10  22  39  60  94 120 163 201 261 306 364
#     4  10  24  39  64  86 128 162 205 254 301 367
#
# _framework density 24.393559
#
# number of rings (size 3 to 8) (size 9 to 14) (size 15 to 20)
#    0.000    1.667    1.667    3.000    7.000    0.000 
#    0.000    0.833    0.000    0.000    0.000    0.000 
#    0.000    0.000    0.000    0.000    0.000    0.000 
#
# Total GULP energy -134427.162277 kJ/mol
# GULP energy per Si atom -5601.131762 kJ/mol
# Density = 2.433804 g / cm^3
# Si number density = 24.393559 Si / 1000 Ang^3
#
#
#
# Elastic Constant Matrix: (Units=GPa)
#
#
# Indices 1 2 3 4 5 6 
#
# 1 57.8447 8.5320 35.5491 0.0000 -6.6744 0.0000
# 2 8.5320 81.8625 38.2028 0.0000 -0.6894 0.0000
# 3 35.5491 38.2028 137.8685 0.0000 43.9889 0.0000
# 4 0.0000 0.0000 0.0000 50.5803 0.0000 6.9140
# 5 -6.6744 -0.6894 43.9889 0.0000 10.9482 0.0000
# 6 0.0000 0.0000 0.0000 6.9140 0.0000 33.3732
#
#
#
# Elastic Compliance Matrix: (Units=1/GPa)
#
#
# Indices 1 2 3 4 5 6 
#
# 1 0.009074 -0.005360 0.008907 0.000000 -0.030595 0.000000
# 2 -0.005360 0.011166 0.003170 0.000000 -0.015300 0.000000
# 3 0.008907 0.003170 -0.008093 0.000000 0.038146 0.000000
# 4 0.000000 0.000000 0.000000 0.020347 0.000000 -0.004215
# 5 -0.030595 -0.015300 0.038146 0.000000 -0.081543 0.000000
# 6 0.000000 0.000000 0.000000 -0.004215 0.000000 0.030837
#
#
# Mechanical properties :
#
#
# Convention : Reuss Voigt Hill
#
# Bulk Modulus (GPa) = 39.09156 49.12705 44.10931
# Shear Modulus (GPa) = -216.27926 31.99980 -92.13973
#
# Velocity S-wave (km/s) = -9.42629 3.62583 -6.15257
# Velocity P-wave (km/s) = 10.11993 6.14100 5.68776
#
# Compressibility (1/GPa) = 0.02558097
#
# Stress axis : x y z
#
# Youngs Moduli (GPa) = 110.20558 89.55532 -123.56721
#
# Poissons Ratio (x) = 0.48004 1.10067
# Poissons Ratio (y) = 0.59073 0.39165
# Poissons Ratio (z) = -0.98165 -0.28385
#
# Static dielectric constant tensor:
#      x y z
#    x 2.026820 0.000000 0.019250 
#    y 0.000000 1.880050 0.000000 
#    z 0.019250 0.000000 1.867730 
# 
# From -- ./inp_files/38987.got.cif
#   From: 2010.05.17/outbox.cif.g08.bks.cpg/sg14_20_cif.got.tgz:38987.got - 2010.06.03 17:49:19.
