data_PCOD9243747
_publ_section_title
;
Structure prediction by ZEFSAII (Michael W. Deem and Ramdas Pophale) SiO2 
 PCOD9243747
Probable space group: P 21/C
;
_chemical_formula_sum "Si O2"
_cell_formula_units_Z 28
_cell_length_a 18.383169
_cell_length_b 5.027144
_cell_length_c 13.219459
_cell_angle_alpha 90.000000
_cell_angle_beta 60.636314
_cell_angle_gamma 90.000000
_cell_volume 1064.719290
_symmetry_space_group_name_H-M "P 21/C"
_symmetry_group_IT_number 14
_symmetry_cell_setting 'monoclinic'
loop_
_space_group_symop_operation_xyz
x,y,z
-x,1/2+y,1/2-z
-x,-y,-z
x,1/2-y,1/2+z
loop_
_atom_site_type_symbol
_atom_site_label
_atom_site_fract_x
_atom_site_fract_y
_atom_site_fract_z
Si Si1 0.392570 0.633483 0.889262
Si Si2 0.814767 0.003052 0.353310
Si Si3 0.988960 0.120578 0.189252
Si Si4 0.696567 0.747515 0.202814
Si Si5 0.836922 0.504746 0.479195
Si Si6 0.672061 0.126909 0.891800
Si Si7 0.541273 0.366087 0.846654
O O1 0.327088 0.460139 0.871124
O O2 0.448220 0.465345 0.930442
O O3 0.458948 0.723782 0.761403
O O4 0.353408 0.887463 0.972964
O O5 0.830353 0.212230 0.435656
O O6 0.730334 0.110724 0.360438
O O7 0.894465 0.047130 0.226379
O O8 0.815970 0.712912 0.402078
O O9 0.066120 0.065762 0.062529
O O10 0.993055 0.421234 0.227779
O O11 0.718501 0.578378 0.287781
O O12 0.612610 0.910421 0.284597
O O13 0.771233 0.930296 0.111334
O O14 0.584220 0.164589 0.894534
#
# Coordination Sequence:
#
# PCOD9243747 Si02
#       7
#     4   4   4   4   4   4   4
#     4  11  22  44  61  86 121 165 208 263 319 374
#     4  10  20  38  64  92 128 167 210 261 316 371
#     4   8  16  32  59  92 119 162 215 250 304 377
#     4  11  24  39  61  89 123 166 208 263 313 386
#     4  10  20  38  65  91 125 171 212 257 311 376
#     4  11  25  38  61  94 122 163 212 261 320 379
#     4  11  24  41  63  87 121 160 217 257 323 381
#
# _framework density 26.298013000000001
#
# number of rings (size 3 to 8) (size 9 to 14) (size 15 to 20)
#    0.000    1.714    2.857    1.286    4.000    1.714 
#    0.000    0.714    0.000    0.857    0.000    0.000 
#    0.000    0.000    0.000    0.000    0.000    0.000 
#
# Total GULP energy -156629.835616 kJ/mol
# GULP energy per Si atom -5593.922701 kJ/mol
# Density = 2.623816 g / cm^3
# Si number density = 26.298013 Si / 1000 Ang^3
#
#
#
# Elastic Constant Matrix: (Units=GPa)
#
#
# Indices 1 2 3 4 5 6 
#
# 1 100.5131 -2.8746 27.2765 0.0000 -19.3281 0.0000
# 2 -2.8746 83.8093 11.0738 0.0000 1.8796 0.0000
# 3 27.2765 11.0738 101.2738 0.0000 -17.2407 0.0000
# 4 0.0000 0.0000 0.0000 40.2824 0.0000 -8.4702
# 5 -19.3281 1.8796 -17.2407 0.0000 41.9446 0.0000
# 6 0.0000 0.0000 0.0000 -8.4702 0.0000 38.3432
#
#
#
# Elastic Compliance Matrix: (Units=1/GPa)
#
#
# Indices 1 2 3 4 5 6 
#
# 1 0.011442 0.000618 -0.002426 0.000000 0.004247 0.000000
# 2 0.000618 0.012194 -0.001660 0.000000 -0.000944 0.000000
# 3 -0.002426 -0.001660 0.011324 0.000000 0.003611 0.000000
# 4 0.000000 0.000000 0.000000 0.026034 0.000000 0.005751
# 5 0.004247 -0.000944 0.003611 0.000000 0.027325 0.000000
# 6 0.000000 0.000000 0.000000 0.005751 0.000000 0.027351
#
#
# Mechanical properties :
#
#
# Convention : Reuss Voigt Hill
#
# Bulk Modulus (GPa) = 35.68663 39.61639 37.65151
# Shear Modulus (GPa) = 37.89403 40.78874 39.34139
#
# Velocity S-wave (km/s) = 3.80010 3.94257 3.87199
# Velocity P-wave (km/s) = 5.73183 5.98517 5.85987
#
# Compressibility (1/GPa) = 0.02802170
#
# Stress axis : x y z
#
# Youngs Moduli (GPa) = 87.39908 82.01018 88.30842
#
# Poissons Ratio (x) = -0.05066 0.21425
# Poissons Ratio (y) = -0.05399 0.14663
# Poissons Ratio (z) = 0.21204 0.13617
#
# Static dielectric constant tensor:
#      x y z
#    x 2.055510 0.000000 0.011270 
#    y 0.000000 2.106720 0.000000 
#    z 0.011270 0.000000 2.089010 
# 
# From -- ./inp_files/34658.got.cif
#   From: 2010.05.17/outbox.cif.g08.bks.cpg/sg14_18_cif.got.tgz:34658.got - 2010.06.03 17:49:19.
