data_PCOD9243389
_publ_section_title
;
Structure prediction by ZEFSAII (Michael W. Deem and Ramdas Pophale) SiO2 
 PCOD9243389
Probable space group: P 21/C
;
_chemical_formula_sum "Si O2"
_cell_formula_units_Z 32
_cell_length_a 12.192684
_cell_length_b 8.004781
_cell_length_c 24.491887
_cell_angle_alpha 90.000000
_cell_angle_beta 148.922499
_cell_angle_gamma 90.000000
_cell_volume 1233.918675
_symmetry_space_group_name_H-M "P 21/C"
_symmetry_group_IT_number 14
_symmetry_cell_setting 'monoclinic'
loop_
_space_group_symop_operation_xyz
x,y,z
-x,1/2+y,1/2-z
-x,-y,-z
x,1/2-y,1/2+z
loop_
_atom_site_type_symbol
_atom_site_label
_atom_site_fract_x
_atom_site_fract_y
_atom_site_fract_z
Si Si1 0.843686 0.632036 0.240466
Si Si2 0.194926 0.831632 0.086130
Si Si3 0.857626 0.529095 0.816642
Si Si4 0.443670 0.504792 0.206983
Si Si5 0.498410 0.780074 0.033780
Si Si6 0.800763 0.678783 0.985953
Si Si7 0.243302 0.885197 0.835688
Si Si8 0.145878 0.517805 0.448056
O O1 0.613017 0.632873 0.115137
O O2 0.857683 0.796464 0.284883
O O3 0.010028 0.639091 0.261472
O O4 0.935927 0.495847 0.321625
O O5 0.374450 0.687817 0.157565
O O6 0.317936 0.975874 0.171691
O O7 0.999235 0.747424 0.033896
O O8 0.121409 0.901867 0.997108
O O9 0.706911 0.531629 0.804923
O O10 0.769639 0.397844 0.734569
O O11 0.091484 0.471461 0.934720
O O12 0.381635 0.380854 0.131908
O O13 0.669893 0.932647 0.106654
O O14 0.303956 0.857391 0.984749
O O15 0.397653 0.754156 0.931439
O O16 0.746114 0.838453 0.998568
#
# Coordination Sequence:
#
# PCOD9243389 Si02
#       8
#     4   4   4   4   4   4   4   4
#     4  10  20  37  63  91 119 158 206 257 316 376
#     4  11  22  38  61  89 124 165 210 258 305 366
#     4  10  21  40  62  85 126 167 201 257 323 375
#     4  11  23  40  61  91 129 170 210 255 315 372
#     4   9  20  38  61  89 125 161 198 254 318 376
#     4  11  24  40  61  92 128 165 213 261 304 373
#     4   9  19  35  60  86 111 154 205 246 303 374
#     4  11  22  38  65  94 123 166 211 254 312 377
#
# _framework density 25.933638999999999
#
# number of rings (size 3 to 8) (size 9 to 14) (size 15 to 20)
#    0.000    1.750    0.000    5.625    0.000    9.000 
#    0.000    0.000    0.000   28.500    0.000    0.000 
#    0.000    0.000    0.000    0.000    0.000    0.000 
#
# Total GULP energy -179256.315403 kJ/mol
# GULP energy per Si atom -5601.759856 kJ/mol
# Density = 2.587461 g / cm^3
# Si number density = 25.933639 Si / 1000 Ang^3
#
#
#
# Elastic Constant Matrix: (Units=GPa)
#
#
# Indices 1 2 3 4 5 6 
#
# 1 53.5810 12.4819 31.4460 0.0000 -6.2308 0.0000
# 2 12.4819 78.0238 10.4100 0.0000 -5.2807 0.0000
# 3 31.4460 10.4100 135.7879 0.0000 -22.0205 0.0000
# 4 0.0000 0.0000 0.0000 30.7642 0.0000 10.3677
# 5 -6.2308 -5.2807 -22.0205 0.0000 40.0415 0.0000
# 6 0.0000 0.0000 0.0000 10.3677 0.0000 25.5950
#
#
#
# Elastic Compliance Matrix: (Units=1/GPa)
#
#
# Indices 1 2 3 4 5 6 
#
# 1 0.022235 -0.002881 -0.004863 0.000000 0.000406 0.000000
# 2 -0.002881 0.013382 -0.000159 0.000000 0.001229 0.000000
# 3 -0.004863 -0.000159 0.009197 0.000000 0.004280 0.000000
# 4 0.000000 0.000000 0.000000 0.037644 0.000000 -0.015248
# 5 0.000406 0.001229 0.004280 0.000000 0.027553 0.000000
# 6 0.000000 0.000000 0.000000 -0.015248 0.000000 0.045247
#
#
# Mechanical properties :
#
#
# Convention : Reuss Voigt Hill
#
# Bulk Modulus (GPa) = 34.47298 41.78540 38.12919
# Shear Modulus (GPa) = 27.66503 33.48380 30.57442
#
# Velocity S-wave (km/s) = 3.26968 3.59713 3.43731
# Velocity P-wave (km/s) = 5.25129 5.77926 5.52159
#
# Compressibility (1/GPa) = 0.02900823
#
# Stress axis : x y z
#
# Youngs Moduli (GPa) = 44.97314 74.72769 108.73304
#
# Poissons Ratio (x) = 0.21528 0.52873
# Poissons Ratio (y) = 0.12956 0.01734
# Poissons Ratio (z) = 0.21869 0.01192
#
# Static dielectric constant tensor:
#      x y z
#    x 2.036260 0.000000 -0.011190 
#    y 0.000000 2.086750 0.000000 
#    z -0.011190 0.000000 2.033940 
# 
# From -- ./inp_files/77532.got.cif
#   From: 2010.05.17/outbox.cif.g08.bks.cpg/sg14_39_cif.got.tgz:77532.got - 2010.06.03 17:49:19.
