data_PCOD9243650
_publ_section_title
;
Structure prediction by ZEFSAII (Michael W. Deem and Ramdas Pophale) SiO2 
 PCOD9243650
Probable space group: P 21/C
;
_chemical_formula_sum "Si O2"
_cell_formula_units_Z 20
_cell_length_a 9.385991
_cell_length_b 8.510199
_cell_length_c 15.279410
_cell_angle_alpha 90.000000
_cell_angle_beta 141.974535
_cell_angle_gamma 90.000000
_cell_volume 751.822563
_symmetry_space_group_name_H-M "P 21/C"
_symmetry_group_IT_number 14
_symmetry_cell_setting 'monoclinic'
loop_
_space_group_symop_operation_xyz
x,y,z
-x,1/2+y,1/2-z
-x,-y,-z
x,1/2-y,1/2+z
loop_
_atom_site_type_symbol
_atom_site_label
_atom_site_fract_x
_atom_site_fract_y
_atom_site_fract_z
Si Si1 0.883104 0.209199 0.380734
Si Si2 0.107501 0.094476 0.856388
Si Si3 0.768444 0.936975 0.558981
Si Si4 0.503262 0.647137 0.178957
Si Si5 0.490816 0.482352 0.347962
O O1 0.750458 0.209623 0.407839
O O2 0.699138 0.117826 0.228967
O O3 0.951055 0.369872 0.366519
O O4 0.115086 0.106457 0.480027
O O5 0.230769 0.263157 0.899843
O O6 0.311453 0.979298 0.983898
O O7 0.940500 0.040314 0.699617
O O8 0.541894 0.033289 0.423996
O O9 0.591642 0.547691 0.304222
O O10 0.623260 0.811980 0.218390
#
# Coordination Sequence:
#
# PCOD9243650 Si02
#       5
#     4   4   4   4   4
#     4   8  23  38  63  84 125 156 194 242 313 330
#     4  10  21  39  62  85 123 156 200 239 298 357
#     4  10  20  39  61  86 121 158 194 245 295 349
#     4  10  20  38  62  89 118 156 198 243 293 354
#     4  10  21  38  63  89 120 153 201 245 289 360
#
# _framework density 26.602018999999999
#
# number of rings (size 3 to 8) (size 9 to 14) (size 15 to 20)
#    2.400    0.000    0.000    3.000    0.000    1.600 
#    0.000    3.000    0.000    0.000    0.000    0.000 
#    0.000    0.000    0.000    0.000    0.000    0.000 
#
# Total GULP energy -111590.590415 kJ/mol
# GULP energy per Si atom -5579.529521 kJ/mol
# Density = 2.654147 g / cm^3
# Si number density = 26.602019 Si / 1000 Ang^3
#
#
#
# Elastic Constant Matrix: (Units=GPa)
#
#
# Indices 1 2 3 4 5 6 
#
# 1 83.1189 10.2902 -7.4527 0.0000 -8.6812 0.0000
# 2 10.2902 94.0083 39.6738 0.0000 -13.8770 0.0000
# 3 -7.4527 39.6738 134.4380 0.0000 -16.1312 0.0000
# 4 0.0000 0.0000 0.0000 50.7556 0.0000 0.5642
# 5 -8.6812 -13.8770 -16.1312 0.0000 19.6917 0.0000
# 6 0.0000 0.0000 0.0000 0.5642 0.0000 29.6400
#
#
#
# Elastic Compliance Matrix: (Units=1/GPa)
#
#
# Indices 1 2 3 4 5 6 
#
# 1 0.013020 -0.001270 0.001861 0.000000 0.006369 0.000000
# 2 -0.001270 0.013007 -0.003190 0.000000 0.005993 0.000000
# 3 0.001861 -0.003190 0.009218 0.000000 0.006123 0.000000
# 4 0.000000 0.000000 0.000000 0.019706 0.000000 -0.000375
# 5 0.006369 0.005993 0.006123 0.000000 0.062830 0.000000
# 6 0.000000 0.000000 0.000000 -0.000375 0.000000 0.033745
#
#
# Mechanical properties :
#
#
# Convention : Reuss Voigt Hill
#
# Bulk Modulus (GPa) = 33.28155 44.06530 38.67342
# Shear Modulus (GPa) = 29.98652 37.95440 33.97046
#
# Velocity S-wave (km/s) = 3.36106 3.78133 3.57737
# Velocity P-wave (km/s) = 5.25361 5.97204 5.62431
#
# Compressibility (1/GPa) = 0.03004668
#
# Stress axis : x y z
#
# Youngs Moduli (GPa) = 76.80307 76.87981 108.48759
#
# Poissons Ratio (x) = 0.09767 -0.20189
# Poissons Ratio (y) = 0.09757 0.34606
# Poissons Ratio (z) = -0.14293 0.24524
#
# Static dielectric constant tensor:
#      x y z
#    x 2.230080 0.000000 0.026440 
#    y 0.000000 2.094100 0.000000 
#    z 0.026440 0.000000 1.964810 
# 
# From -- ./inp_files/42958.got.cif
#   From: 2010.05.17/outbox.cif.g08.bks.cpg/sg14_22_cif.got.tgz:42958.got - 2010.06.03 17:49:19.
