data_PCOD9243733
_publ_section_title
;
Structure prediction by ZEFSAII (Michael W. Deem and Ramdas Pophale) SiO2 
 PCOD9243733
Probable space group: P 21/C
;
_chemical_formula_sum "Si O2"
_cell_formula_units_Z 28
_cell_length_a 7.983706
_cell_length_b 19.528544
_cell_length_c 16.173423
_cell_angle_alpha 90.000000
_cell_angle_beta 153.838752
_cell_angle_gamma 90.000000
_cell_volume 1111.771027
_symmetry_space_group_name_H-M "P 21/C"
_symmetry_group_IT_number 14
_symmetry_cell_setting 'monoclinic'
loop_
_space_group_symop_operation_xyz
x,y,z
-x,1/2+y,1/2-z
-x,-y,-z
x,1/2-y,1/2+z
loop_
_atom_site_type_symbol
_atom_site_label
_atom_site_fract_x
_atom_site_fract_y
_atom_site_fract_z
Si Si1 0.535475 0.314096 0.682764
Si Si2 0.792612 0.890477 0.811335
Si Si3 0.958126 0.243479 0.130566
Si Si4 0.240551 0.328243 0.369145
Si Si5 0.595751 0.540574 0.623394
Si Si6 0.556975 0.483978 0.276702
Si Si7 0.741699 0.669190 0.893126
O O1 0.246591 0.353659 0.616783
O O2 0.402221 0.332498 0.531831
O O3 0.522059 0.232752 0.696526
O O4 0.945796 0.338127 0.896256
O O5 0.765512 0.823461 0.742801
O O6 0.506915 0.955228 0.687499
O O7 0.200730 0.921128 0.969399
O O8 0.910412 0.276801 0.200229
O O9 0.048483 0.296407 0.095166
O O10 0.548795 0.205613 0.942043
O O11 0.119671 0.401200 0.279789
O O12 0.500000 0.500000 0.500000
O O13 0.681491 0.501407 0.745410
O O14 0.453586 0.405389 0.207608
O O15 0.000000 0.500000 0.500000
#
# Coordination Sequence:
#
# PCOD9243733 Si02
#       7
#     4   4   4   4   4   4   4
#     4  11  24  39  66  97 137 173 230 284 342 410
#     4   9  21  38  63  92 134 176 222 286 334 408
#     4  10  20  38  64  90 127 172 223 278 344 397
#     4  11  21  39  62  95 132 169 220 285 338 406
#     4  10  20  38  65  96 129 175 222 275 343 408
#     4  10  21  39  65  98 131 180 232 281 350 419
#     4  11  23  41  66  99 130 181 228 283 345 418
#
# _framework density 25.185041999999999
#
# number of rings (size 3 to 8) (size 9 to 14) (size 15 to 20)
#    0.000    1.714    1.429    3.429    8.000    0.571 
#    5.143    0.000    0.000    6.000    0.000    0.000 
#    0.000    0.000    0.000    0.000    0.000    0.000 
#
# Total GULP energy -155941.465035 kJ/mol
# GULP energy per Si atom -5569.338037 kJ/mol
# Density = 2.512772 g / cm^3
# Si number density = 25.185042 Si / 1000 Ang^3
#
#
#
# Elastic Constant Matrix: (Units=GPa)
#
#
# Indices 1 2 3 4 5 6 
#
# 1 52.4663 8.8242 -13.2866 0.0000 -3.9799 0.0000
# 2 8.8242 123.2058 -13.9714 0.0000 8.4360 0.0000
# 3 -13.2866 -13.9714 49.0549 0.0000 -7.7009 0.0000
# 4 0.0000 0.0000 0.0000 37.1618 0.0000 -7.3426
# 5 -3.9799 8.4360 -7.7009 0.0000 22.9568 0.0000
# 6 0.0000 0.0000 0.0000 -7.3426 0.0000 32.4203
#
#
#
# Elastic Compliance Matrix: (Units=1/GPa)
#
#
# Indices 1 2 3 4 5 6 
#
# 1 0.021375 -0.001234 0.006429 0.000000 0.006316 0.000000
# 2 -0.001234 0.008587 0.001670 0.000000 -0.002809 0.000000
# 3 0.006429 0.001670 0.023942 0.000000 0.008532 0.000000
# 4 0.000000 0.000000 0.000000 0.028170 0.000000 0.006380
# 5 0.006316 -0.002809 0.008532 0.000000 0.048549 0.000000
# 6 0.000000 0.000000 0.000000 0.006380 0.000000 0.032290
#
#
# Mechanical properties :
#
#
# Convention : Reuss Voigt Hill
#
# Bulk Modulus (GPa) = 14.78546 20.87327 17.82936
# Shear Modulus (GPa) = 29.11609 34.71851 31.91730
#
# Velocity S-wave (km/s) = 3.40382 3.71689 3.56379
# Velocity P-wave (km/s) = 4.61860 5.16975 4.90193
#
# Compressibility (1/GPa) = 0.06763403
#
# Stress axis : x y z
#
# Youngs Moduli (GPa) = 46.78423 116.45983 41.76778
#
# Poissons Ratio (x) = 0.14374 -0.26854
# Poissons Ratio (y) = 0.05774 -0.06976
# Poissons Ratio (z) = -0.30079 -0.19452
#
# Static dielectric constant tensor:
#      x y z
#    x 2.169210 0.000000 -0.039120 
#    y 0.000000 2.467330 0.000000 
#    z -0.039120 0.000000 2.335180 
# 
# From -- ./inp_files/56162.got.cif
#   From: 2010.05.17/outbox.cif.g08.bks.cpg/sg14_29_cif.got.tgz:56162.got - 2010.06.03 17:49:19.
