data_PCOD9243729
_publ_section_title
;
Structure prediction by ZEFSAII (Michael W. Deem and Ramdas Pophale) SiO2 
 PCOD9243729
Probable space group: P 21/C
;
_chemical_formula_sum "Si O2"
_cell_formula_units_Z 20
_cell_length_a 15.027153
_cell_length_b 9.092688
_cell_length_c 16.498658
_cell_angle_alpha 90.000000
_cell_angle_beta 156.029571
_cell_angle_gamma 90.000000
_cell_volume 915.855866
_symmetry_space_group_name_H-M "P 21/C"
_symmetry_group_IT_number 14
_symmetry_cell_setting 'monoclinic'
loop_
_space_group_symop_operation_xyz
x,y,z
-x,1/2+y,1/2-z
-x,-y,-z
x,1/2-y,1/2+z
loop_
_atom_site_type_symbol
_atom_site_label
_atom_site_fract_x
_atom_site_fract_y
_atom_site_fract_z
Si Si1 0.150128 0.079369 0.556652
Si Si2 0.358290 0.688645 0.685988
Si Si3 0.766902 0.858919 0.943144
Si Si4 0.502672 0.900215 0.922905
Si Si5 0.996601 0.876738 0.295954
O O1 0.150366 0.254297 0.559982
O O2 0.395750 0.016670 0.771151
O O3 0.000000 0.000000 0.500000
O O4 0.066978 0.027197 0.399338
O O5 0.577065 0.759560 0.828037
O O6 0.334021 0.514207 0.666262
O O7 0.361076 0.757567 0.779532
O O8 0.161859 0.756310 0.468517
O O9 0.960958 0.884662 0.170153
O O10 0.751371 0.851069 0.122989
O O11 0.500000 0.000000 0.000000
#
# Coordination Sequence:
#
# PCOD9243729 Si02
#       5
#     4   4   4   4   4
#     4  11  22  39  68  92 128 176 213 262 335 388
#     4  10  22  37  63  93 124 167 220 269 322 389
#     4  11  22  40  62  96 128 164 223 274 320 395
#     4  10  20  39  64  87 125 168 209 258 326 388
#     4  10  20  38  64  89 122 169 213 260 326 388
#
# _framework density 21.837496999999999
#
# number of rings (size 3 to 8) (size 9 to 14) (size 15 to 20)
#    0.000    1.600    2.000    4.800    0.000    1.600 
#    0.000    5.000    0.000    0.000    0.000    0.000 
#    0.000    0.000    0.000    0.000    0.000    0.000 
#
# Total GULP energy -111411.838974 kJ/mol
# GULP energy per Si atom -5570.591949 kJ/mol
# Density = 2.178779 g / cm^3
# Si number density = 21.837497 Si / 1000 Ang^3
#
#
#
# Elastic Constant Matrix: (Units=GPa)
#
#
# Indices 1 2 3 4 5 6 
#
# 1 55.0211 40.8916 22.3370 0.0000 -4.6053 0.0000
# 2 40.8916 195.5505 48.1750 0.0000 -18.8982 0.0000
# 3 22.3370 48.1750 147.9525 0.0000 -9.7038 0.0000
# 4 0.0000 0.0000 0.0000 17.3665 0.0000 6.6706
# 5 -4.6053 -18.8982 -9.7038 0.0000 29.5688 0.0000
# 6 0.0000 0.0000 0.0000 6.6706 0.0000 30.6931
#
#
#
# Elastic Compliance Matrix: (Units=1/GPa)
#
#
# Indices 1 2 3 4 5 6 
#
# 1 0.022044 -0.004106 -0.001981 0.000000 0.000159 0.000000
# 2 -0.004106 0.006603 -0.001324 0.000000 0.003146 0.000000
# 3 -0.001981 -0.001324 0.007576 0.000000 0.001332 0.000000
# 4 0.000000 0.000000 0.000000 0.062827 0.000000 -0.013654
# 5 0.000159 0.003146 0.001332 0.000000 0.036292 0.000000
# 6 0.000000 0.000000 0.000000 -0.013654 0.000000 0.035548
#
#
# Mechanical properties :
#
#
# Convention : Reuss Voigt Hill
#
# Bulk Modulus (GPa) = 46.72499 69.03682 57.88090
# Shear Modulus (GPa) = 25.92757 34.66705 30.29731
#
# Velocity S-wave (km/s) = 3.44945 3.98867 3.72882
# Velocity P-wave (km/s) = 6.10804 7.27291 6.71577
#
# Compressibility (1/GPa) = 0.02140182
#
# Stress axis : x y z
#
# Youngs Moduli (GPa) = 45.36379 151.45683 131.99099
#
# Poissons Ratio (x) = 0.62193 0.26142
# Poissons Ratio (y) = 0.18628 0.17470
# Poissons Ratio (z) = 0.08985 0.20046
#
# Static dielectric constant tensor:
#      x y z
#    x 1.964650 0.000000 -0.001320 
#    y 0.000000 1.835390 0.000000 
#    z -0.001320 0.000000 1.808510 
# 
# From -- ./inp_files/60396.got.cif
#   From: 2010.05.17/outbox.cif.g08.bks.cpg/sg14_31_cif.got.tgz:60396.got - 2010.06.03 17:49:19.
