data_PCOD9243143
_publ_section_title
;
Structure prediction by ZEFSAII (Michael W. Deem and Ramdas Pophale) SiO2 
 PCOD9243143
Probable space group: P 21/C
;
_chemical_formula_sum "Si O2"
_cell_formula_units_Z 30
_cell_length_a 8.612427
_cell_length_b 19.726940
_cell_length_c 9.067131
_cell_angle_alpha 90.000000
_cell_angle_beta 53.603183
_cell_angle_gamma 90.000000
_cell_volume 1239.971020
_symmetry_space_group_name_H-M "P 21/C"
_symmetry_group_IT_number 14
_symmetry_cell_setting 'monoclinic'
loop_
_space_group_symop_operation_xyz
x,y,z
-x,1/2+y,1/2-z
-x,-y,-z
x,1/2-y,1/2+z
loop_
_atom_site_type_symbol
_atom_site_label
_atom_site_fract_x
_atom_site_fract_y
_atom_site_fract_z
Si Si1 0.438165 0.589872 0.914630
Si Si2 0.285086 0.115176 0.280367
Si Si3 0.399067 0.823912 0.697692
Si Si4 0.000000 0.000000 0.000000
Si Si5 0.978895 0.826121 0.016206
Si Si6 0.768443 0.749449 0.375389
Si Si7 0.723240 0.937186 0.029137
Si Si8 0.796698 0.962507 0.411107
O O1 0.551849 0.605956 0.699881
O O2 0.614523 0.567990 0.922919
O O3 0.335753 0.644896 0.074848
O O4 0.290750 0.530147 0.967461
O O5 0.481567 0.129276 0.256786
O O6 0.233342 0.186735 0.236208
O O7 0.147369 0.086671 0.485973
O O8 0.294363 0.066154 0.133923
O O9 0.202341 0.808640 0.893282
O O10 0.557762 0.768990 0.555169
O O11 0.241180 0.993914 0.904433
O O12 0.045644 0.017615 0.796293
O O13 0.888463 0.777687 0.944479
O O14 0.868909 0.810954 0.230391
O O15 0.927020 0.903362 0.985091
#
# Coordination Sequence:
#
# PCOD9243143 Si02
#       8
#     4   4   4   2   4   4   4   4
#     4   9  18  37  62  89 129 173 217 272 340 398
#     4  10  23  41  64  93 140 175 223 286 346 398
#     4  11  22  41  68  92 130 182 219 287 340 409
#     4  10  20  36  66  92 128 176 226 266 336 420
#     4  11  24  39  67  93 131 173 230 270 351 410
#     4  11  23  43  62  97 131 175 223 292 331 413
#     4  10  21  40  64  96 133 175 219 284 336 405
#     4   9  19  36  62  94 130 178 219 275 342 403
#
# _framework density 24.194113999999999
#
# number of rings (size 3 to 8) (size 9 to 14) (size 15 to 20)
#    0.000    1.867    2.667    0.800    1.867    2.133 
#    0.000    0.000    8.800    0.000    0.000    0.000 
#    0.000    0.000    0.000    0.000    0.000    0.000 
#
# Total GULP energy -167089.365033 kJ/mol
# GULP energy per Si atom -5569.645501 kJ/mol
# Density = 2.413905 g / cm^3
# Si number density = 24.194114 Si / 1000 Ang^3
#
#
#
# Elastic Constant Matrix: (Units=GPa)
#
#
# Indices 1 2 3 4 5 6 
#
# 1 63.0732 31.0857 62.4479 0.0000 14.8384 0.0000
# 2 31.0857 53.5261 26.1185 0.0000 6.9678 0.0000
# 3 62.4479 26.1185 147.3655 0.0000 19.0824 0.0000
# 4 0.0000 0.0000 0.0000 25.9326 0.0000 13.9479
# 5 14.8384 6.9678 19.0824 0.0000 46.0413 0.0000
# 6 0.0000 0.0000 0.0000 13.9479 0.0000 29.5411
#
#
#
# Elastic Compliance Matrix: (Units=1/GPa)
#
#
# Indices 1 2 3 4 5 6 
#
# 1 0.036009 -0.014420 -0.012135 0.000000 -0.004394 0.000000
# 2 -0.014420 0.026349 0.001432 0.000000 0.000066 0.000000
# 3 -0.012135 0.001432 0.011831 0.000000 -0.001209 0.000000
# 4 0.000000 0.000000 0.000000 0.051687 0.000000 -0.024404
# 5 -0.004394 0.000066 -0.001209 0.000000 0.023627 0.000000
# 6 0.000000 0.000000 0.000000 -0.024404 0.000000 0.045374
#
#
# Mechanical properties :
#
#
# Convention : Reuss Voigt Hill
#
# Bulk Modulus (GPa) = 41.76279 55.91876 48.84077
# Shear Modulus (GPa) = 19.75470 29.92384 24.83927
#
# Velocity S-wave (km/s) = 2.86056 3.52066 3.20764
# Velocity P-wave (km/s) = 5.31126 6.29996 5.82662
#
# Compressibility (1/GPa) = 0.02394476
#
# Stress axis : x y z
#
# Youngs Moduli (GPa) = 27.77053 37.95142 84.52405
#
# Poissons Ratio (x) = 0.54724 1.02568
# Poissons Ratio (y) = 0.40044 -0.12102
# Poissons Ratio (z) = 0.33699 -0.05434
#
# Static dielectric constant tensor:
#      x y z
#    x 2.271930 0.000000 -0.058270 
#    y 0.000000 14.430090 0.000000 
#    z -0.058270 0.000000 1.979040 
# 
# From -- ./inp_files/11059.got.cif
#   From: 2010.05.17/outbox.cif.g08.bks.cpg/sg14_6_cif.got.tgz:11059.got - 2010.06.03 17:49:19.
