data_PCOD9243947
_publ_section_title
;
Structure prediction by ZEFSAII (Michael W. Deem and Ramdas Pophale) SiO2 
 PCOD9243947
Probable space group: P 21/C
;
_chemical_formula_sum "Si O2"
_cell_formula_units_Z 32
_cell_length_a 8.324034
_cell_length_b 11.036031
_cell_length_c 17.095437
_cell_angle_alpha 90.000000
_cell_angle_beta 81.067979
_cell_angle_gamma 90.000000
_cell_volume 1551.415724
_symmetry_space_group_name_H-M "P 21/C"
_symmetry_group_IT_number 14
_symmetry_cell_setting 'monoclinic'
loop_
_space_group_symop_operation_xyz
x,y,z
-x,1/2+y,1/2-z
-x,-y,-z
x,1/2-y,1/2+z
loop_
_atom_site_type_symbol
_atom_site_label
_atom_site_fract_x
_atom_site_fract_y
_atom_site_fract_z
Si Si1 0.031368 0.413636 0.922003
Si Si2 0.167628 0.784654 0.151473
Si Si3 0.311935 0.138738 0.624915
Si Si4 0.404018 0.620545 0.524672
Si Si5 0.634157 0.209998 0.140800
Si Si6 0.370706 0.153382 0.445819
Si Si7 0.955840 0.350055 0.177973
Si Si8 0.394219 0.586316 0.203788
O O1 0.188388 0.334141 0.929944
O O2 0.056752 0.511229 0.850755
O O3 0.899732 0.315752 0.904077
O O4 0.000000 0.500000 0.000000
O O5 0.259893 0.889234 0.097931
O O6 0.049659 0.832046 0.227924
O O7 0.304383 0.709397 0.187205
O O8 0.466794 0.213084 0.644471
O O9 0.355405 0.094224 0.533546
O O10 0.132419 0.198342 0.635016
O O11 0.290191 0.028636 0.686692
O O12 0.500000 0.500000 0.500000
O O13 0.330940 0.663496 0.448274
O O14 0.529570 0.724153 0.544898
O O15 0.795889 0.283020 0.155045
O O16 0.587837 0.102898 0.205292
O O17 0.455988 0.081239 0.368345
#
# Coordination Sequence:
#
# PCOD9243947 Si02
#       8
#     4   4   4   4   4   4   4   4
#     4  12  21  40  67  99 129 170 221 281 334 395
#     4  10  23  41  62  96 134 167 217 277 325 405
#     4  11  21  41  63  94 128 169 215 271 334 386
#     4  10  23  46  64  87 131 174 216 272 331 395
#     4  10  24  40  63  92 129 169 219 269 325 399
#     4  10  22  37  66  95 124 164 222 270 327 395
#     4  11  23  41  64  99 134 169 212 279 337 388
#     4  10  20  39  62  92 124 166 214 270 324 387
#
# _framework density 20.626321000000001
#
# number of rings (size 3 to 8) (size 9 to 14) (size 15 to 20)
#    0.000    1.500    2.500    1.875    1.750    6.000 
#    2.250    0.625    0.000    0.000    0.000    0.000 
#    0.000    0.000    0.000    0.000    0.000    0.000 
#
# Total GULP energy -178272.719902 kJ/mol
# GULP energy per Si atom -5571.022497 kJ/mol
# Density = 2.057937 g / cm^3
# Si number density = 20.626321 Si / 1000 Ang^3
#
#
#
# Elastic Constant Matrix: (Units=GPa)
#
#
# Indices 1 2 3 4 5 6 
#
# 1 102.2112 5.6075 36.1568 0.0000 -4.7950 0.0000
# 2 5.6075 35.6404 17.4661 0.0000 -2.1943 0.0000
# 3 36.1568 17.4661 78.4829 0.0000 -16.7251 0.0000
# 4 0.0000 0.0000 0.0000 23.3514 0.0000 -4.6581
# 5 -4.7950 -2.1943 -16.7251 0.0000 30.6808 0.0000
# 6 0.0000 0.0000 0.0000 -4.6581 0.0000 23.1846
#
#
#
# Elastic Compliance Matrix: (Units=1/GPa)
#
#
# Indices 1 2 3 4 5 6 
#
# 1 0.011761 0.000967 -0.005914 0.000000 -0.001317 0.000000
# 2 0.000967 0.031658 -0.007893 0.000000 -0.001887 0.000000
# 3 -0.005914 -0.007893 0.019127 0.000000 0.008938 0.000000
# 4 0.000000 0.000000 0.000000 0.044612 0.000000 0.008963
# 5 -0.001317 -0.001887 0.008938 0.000000 0.037125 0.000000
# 6 0.000000 0.000000 0.000000 0.008963 0.000000 0.044933
#
#
# Mechanical properties :
#
#
# Convention : Reuss Voigt Hill
#
# Bulk Modulus (GPa) = 27.12532 37.19947 32.16239
# Shear Modulus (GPa) = 22.00846 25.91697 23.96272
#
# Velocity S-wave (km/s) = 3.27005 3.54856 3.41215
# Velocity P-wave (km/s) = 5.23804 5.90456 5.58126
#
# Compressibility (1/GPa) = 0.03686593
#
# Stress axis : x y z
#
# Youngs Moduli (GPa) = 85.02762 31.58779 52.28084
#
# Poissons Ratio (x) = -0.03054 0.30918
# Poissons Ratio (y) = -0.08220 0.41265
# Poissons Ratio (z) = 0.50285 0.24932
#
# Static dielectric constant tensor:
#      x y z
#    x 1.800040 0.000000 -0.009460 
#    y 0.000000 1.733060 0.000000 
#    z -0.009460 0.000000 1.782990 
# 
# From -- ./inp_files/40317.got.cif
#   From: 2010.05.17/outbox.cif.g08.bks.cpg/sg14_21_cif.got.tgz:40317.got - 2010.06.03 17:49:19.
