data_PCOD9243376
_publ_section_title
;
Structure prediction by ZEFSAII (Michael W. Deem and Ramdas Pophale) SiO2 
 PCOD9243376
Probable space group: P 21/C
;
_chemical_formula_sum "Si O2"
_cell_formula_units_Z 24
_cell_length_a 5.526872
_cell_length_b 10.764041
_cell_length_c 16.747030
_cell_angle_alpha 90.000000
_cell_angle_beta 113.529529
_cell_angle_gamma 90.000000
_cell_volume 913.467170
_symmetry_space_group_name_H-M "P 21/C"
_symmetry_group_IT_number 14
_symmetry_cell_setting 'monoclinic'
loop_
_space_group_symop_operation_xyz
x,y,z
-x,1/2+y,1/2-z
-x,-y,-z
x,1/2-y,1/2+z
loop_
_atom_site_type_symbol
_atom_site_label
_atom_site_fract_x
_atom_site_fract_y
_atom_site_fract_z
Si Si1 0.185034 0.327146 0.667404
Si Si2 0.178109 0.779767 0.098655
Si Si3 0.891888 0.392564 0.045747
Si Si4 0.209618 0.475858 0.433407
Si Si5 0.587388 0.536647 0.699314
Si Si6 0.893910 0.918561 0.664842
O O1 0.414023 0.412642 0.659986
O O2 0.121695 0.194371 0.618189
O O3 0.915874 0.397550 0.612428
O O4 0.215680 0.360250 0.767028
O O5 0.378661 0.850926 0.185995
O O6 0.979701 0.689913 0.117633
O O7 0.994499 0.893056 0.044584
O O8 0.273863 0.699979 0.034783
O O9 0.746317 0.469733 0.097817
O O10 0.000000 0.500000 0.000000
O O11 0.500000 0.500000 0.500000
O O12 0.260582 0.408253 0.356133
O O13 0.821749 0.484770 0.782944
#
# Coordination Sequence:
#
# PCOD9243376 Si02
#       6
#     4   4   4   4   4   4
#     4  10  22  39  66  92 132 171 222 276 323 400
#     4  10  22  41  64  95 136 172 223 280 331 399
#     4  10  22  42  64  94 134 172 213 274 336 387
#     4  10  20  37  62  95 124 169 220 268 333 391
#     4  10  22  38  64  97 125 176 227 269 333 393
#     4  10  24  39  64  96 130 179 222 276 338 395
#
# _framework density 26.273522
#
# number of rings (size 3 to 8) (size 9 to 14) (size 15 to 20)
#    0.000    2.000    0.000    2.000    9.333    2.667 
#    0.000    1.667    0.000   16.000    0.000    0.000 
#    0.000    0.000    0.000    0.000    0.000    0.000 
#
# Total GULP energy -133677.480267 kJ/mol
# GULP energy per Si atom -5569.895011 kJ/mol
# Density = 2.621372 g / cm^3
# Si number density = 26.273522 Si / 1000 Ang^3
#
#
#
# Elastic Constant Matrix: (Units=GPa)
#
#
# Indices 1 2 3 4 5 6 
#
# 1 45.3176 23.9429 9.6580 0.0000 -1.1604 0.0000
# 2 23.9429 163.8478 67.5361 0.0000 -7.3445 0.0000
# 3 9.6580 67.5361 83.8013 0.0000 -16.2722 0.0000
# 4 0.0000 0.0000 0.0000 64.7291 0.0000 -4.2965
# 5 -1.1604 -7.3445 -16.2722 0.0000 44.4917 0.0000
# 6 0.0000 0.0000 0.0000 -4.2965 0.0000 31.2341
#
#
#
# Elastic Compliance Matrix: (Units=1/GPa)
#
#
# Indices 1 2 3 4 5 6 
#
# 1 0.023913 -0.003536 0.000109 0.000000 0.000080 0.000000
# 2 -0.003536 0.009730 -0.007686 0.000000 -0.001297 0.000000
# 3 0.000109 -0.007686 0.019234 0.000000 0.005769 0.000000
# 4 0.000000 0.000000 0.000000 0.015591 0.000000 0.002145
# 5 0.000080 -0.001297 0.005769 0.000000 0.024374 0.000000
# 6 0.000000 0.000000 0.000000 0.002145 0.000000 0.032311
#
#
# Mechanical properties :
#
#
# Convention : Reuss Voigt Hill
#
# Bulk Modulus (GPa) = 32.62338 55.02673 43.82506
# Shear Modulus (GPa) = 31.72663 40.87963 36.30313
#
# Velocity S-wave (km/s) = 3.47875 3.94880 3.72121
# Velocity P-wave (km/s) = 5.34597 6.46374 5.93125
#
# Compressibility (1/GPa) = 0.03065287
#
# Stress axis : x y z
#
# Youngs Moduli (GPa) = 41.81761 102.77854 51.99007
#
# Poissons Ratio (x) = 0.36340 -0.00567
# Poissons Ratio (y) = 0.14786 0.39957
# Poissons Ratio (z) = -0.00456 0.78991
#
# Static dielectric constant tensor:
#      x y z
#    x 2.035160 0.000000 0.020240 
#    y 0.000000 2.012610 0.000000 
#    z 0.020240 0.000000 2.219580 
# 
# From -- ./inp_files/53038.got.cif
#   From: 2010.05.17/outbox.cif.g08.bks.cpg/sg14_27_cif.got.tgz:53038.got - 2010.06.03 17:49:19.
