data_PCOD9243304
_publ_section_title
;
Structure prediction by ZEFSAII (Michael W. Deem and Ramdas Pophale) SiO2 
 PCOD9243304
Probable space group: P 21/C
;
_chemical_formula_sum "Si O2"
_cell_formula_units_Z 28
_cell_length_a 9.679950
_cell_length_b 25.170170
_cell_length_c 5.710520
_cell_angle_alpha 90.000000
_cell_angle_beta 85.812986
_cell_angle_gamma 90.000000
_cell_volume 1387.631853
_symmetry_space_group_name_H-M "P 21/C"
_symmetry_group_IT_number 14
_symmetry_cell_setting 'monoclinic'
loop_
_space_group_symop_operation_xyz
x,y,z
-x,1/2+y,1/2-z
-x,-y,-z
x,1/2-y,1/2+z
loop_
_atom_site_type_symbol
_atom_site_label
_atom_site_fract_x
_atom_site_fract_y
_atom_site_fract_z
Si Si1 0.238741 0.977653 0.515273
Si Si2 0.898375 0.955026 0.107450
Si Si3 0.875176 0.383300 0.290610
Si Si4 0.607265 0.541017 0.374725
Si Si5 0.370033 0.772140 0.684738
Si Si6 0.944430 0.266728 0.195769
Si Si7 0.368951 0.612863 0.316895
O O1 0.164945 0.934786 0.357276
O O2 0.304178 0.939188 0.702552
O O3 0.139504 0.022401 0.632927
O O4 0.353685 0.012173 0.370957
O O5 0.988291 0.901855 0.086619
O O6 0.752852 0.952787 0.990347
O O7 0.000000 0.000000 0.000000
O O8 0.917010 0.329284 0.157961
O O9 0.740008 0.372832 0.465712
O O10 0.500000 0.500000 0.500000
O O11 0.521794 0.595366 0.374063
O O12 0.425908 0.744918 0.437950
O O13 0.207368 0.758660 0.739095
O O14 0.380604 0.835511 0.654431
O O15 0.009632 0.257514 0.448977
#
# Coordination Sequence:
#
# PCOD9243304 Si02
#       7
#     4   4   4   4   4   4   4
#     4  12  22  38  62  90 128 166 204 252 314 378
#     4  12  24  41  57  89 129 165 208 252 305 382
#     4  12  23  37  65  92 123 164 205 259 320 370
#     4  12  24  41  57  89 129 165 208 252 305 382
#     4  10  20  37  60  95 122 156 211 272 314 369
#     4  10  20  37  60  95 122 156 211 272 314 369
#     4  12  23  37  65  92 123 164 205 259 320 370
#
# _framework density 20.178263999999999
#
# number of rings (size 3 to 8) (size 9 to 14) (size 15 to 20)
#    0.000    0.571    8.571    2.571    0.000    0.000 
#    0.000    0.000    0.000    1.714    0.000    0.000 
#    0.000    0.000    0.000    0.000    0.000    0.000 
#
# Total GULP energy -156110.140996 kJ/mol
# GULP energy per Si atom -5575.362178 kJ/mol
# Density = 2.013234 g / cm^3
# Si number density = 20.178264 Si / 1000 Ang^3
#
#
#
# Elastic Constant Matrix: (Units=GPa)
#
#
# Indices 1 2 3 4 5 6 
#
# 1 90.5530 15.6912 3.6563 0.0000 9.9521 0.0000
# 2 15.6912 81.0141 -5.8993 0.0000 4.4327 0.0000
# 3 3.6563 -5.8993 83.4571 0.0000 -8.7277 0.0000
# 4 0.0000 0.0000 0.0000 28.4312 0.0000 12.8113
# 5 9.9521 4.4327 -8.7277 0.0000 34.4254 0.0000
# 6 0.0000 0.0000 0.0000 12.8113 0.0000 13.8877
#
#
#
# Elastic Compliance Matrix: (Units=1/GPa)
#
#
# Indices 1 2 3 4 5 6 
#
# 1 0.011837 -0.002181 -0.001029 0.000000 -0.003402 0.000000
# 2 -0.002181 0.012877 0.000923 0.000000 -0.000793 0.000000
# 3 -0.001029 0.000923 0.012441 0.000000 0.003333 0.000000
# 4 0.000000 0.000000 0.000000 0.060194 0.000000 -0.055529
# 5 -0.003402 -0.000793 0.003333 0.000000 0.030979 0.000000
# 6 0.000000 0.000000 0.000000 -0.055529 0.000000 0.123231
#
#
# Mechanical properties :
#
#
# Convention : Reuss Voigt Hill
#
# Bulk Modulus (GPa) = 30.69352 31.32451 31.00902
# Shear Modulus (GPa) = 18.72710 31.45392 25.09051
#
# Velocity S-wave (km/s) = 3.04975 3.95245 3.53007
# Velocity P-wave (km/s) = 5.25790 6.03214 5.65828
#
# Compressibility (1/GPa) = 0.03258016
#
# Stress axis : x y z
#
# Youngs Moduli (GPa) = 84.48347 77.66010 80.37936
#
# Poissons Ratio (x) = 0.16940 0.08267
# Poissons Ratio (y) = 0.18429 -0.07417
# Poissons Ratio (z) = 0.08689 -0.07166
#
# Static dielectric constant tensor:
#      x y z
#    x 1.661900 0.000000 0.116160 
#    y 0.000000 1.792070 0.000000 
#    z 0.116160 0.000000 1.833560 
# 
# From -- ./inp_files/1921.got.cif
#   From: 2010.05.17/outbox.cif.g08.bks.cpg/sg14_1_cif.got.tgz:1921.got - 2010.06.03 17:49:19.
