data_PCOD9243313
_publ_section_title
;
Structure prediction by ZEFSAII (Michael W. Deem and Ramdas Pophale) SiO2 
 PCOD9243313
Probable space group: P 21/C
;
_chemical_formula_sum "Si O2"
_cell_formula_units_Z 24
_cell_length_a 24.290378
_cell_length_b 8.849112
_cell_length_c 14.935018
_cell_angle_alpha 90.000000
_cell_angle_beta 20.633184
_cell_angle_gamma 90.000000
_cell_volume 1131.242102
_symmetry_space_group_name_H-M "P 21/C"
_symmetry_group_IT_number 14
_symmetry_cell_setting 'monoclinic'
loop_
_space_group_symop_operation_xyz
x,y,z
-x,1/2+y,1/2-z
-x,-y,-z
x,1/2-y,1/2+z
loop_
_atom_site_type_symbol
_atom_site_label
_atom_site_fract_x
_atom_site_fract_y
_atom_site_fract_z
Si Si1 0.219820 0.888846 0.901838
Si Si2 0.077842 0.909279 0.677389
Si Si3 0.303045 0.493576 0.455786
Si Si4 0.640434 0.463902 0.001119
Si Si5 0.110842 0.743634 0.809984
Si Si6 0.185736 0.170064 0.629521
O O1 0.313186 0.938330 0.672470
O O2 0.319214 0.907192 0.841266
O O3 0.158659 0.715422 0.991732
O O4 0.071987 0.003712 0.133096
O O5 0.042283 0.811221 0.821572
O O6 0.183975 0.045683 0.554157
O O7 0.156980 0.569647 0.729356
O O8 0.263699 0.325478 0.484707
O O9 0.455830 0.484150 0.284030
O O10 0.721765 0.323454 0.927698
O O11 0.723901 0.603814 0.922290
O O12 0.991073 0.796624 0.068320
#
# Coordination Sequence:
#
# PCOD9243313 Si02
#       6
#     4   4   4   4   4   4
#     4  11  21  37  59  86 120 151 200 240 301 345
#     4  10  20  37  61  85 111 158 195 250 283 346
#     4  11  24  35  59  93 120 154 193 244 302 353
#     4  11  21  40  60  84 123 158 191 246 297 346
#     4  10  20  39  61  84 115 157 205 235 286 352
#     4  11  20  41  63  83 119 158 202 243 287 347
#
# _framework density 21.215617000000002
#
# number of rings (size 3 to 8) (size 9 to 14) (size 15 to 20)
#    0.000    1.333    3.333    4.000    0.000    0.000 
#    0.000    0.833    0.000    0.000    0.000    0.000 
#    0.000    0.000    0.000    0.000    0.000    0.000 
#
# Total GULP energy -133961.695078 kJ/mol
# GULP energy per Si atom -5581.737295 kJ/mol
# Density = 2.116733 g / cm^3
# Si number density = 21.215617 Si / 1000 Ang^3
#
#
#
# Elastic Constant Matrix: (Units=GPa)
#
#
# Indices 1 2 3 4 5 6 
#
# 1 73.6011 15.3195 18.1811 0.0000 -18.3710 0.0000
# 2 15.3195 100.5239 39.4552 0.0000 -2.0961 0.0000
# 3 18.1811 39.4552 49.8011 0.0000 -24.5244 0.0000
# 4 0.0000 0.0000 0.0000 15.6454 0.0000 2.2970
# 5 -18.3710 -2.0961 -24.5244 0.0000 26.5448 0.0000
# 6 0.0000 0.0000 0.0000 2.2970 0.0000 11.2060
#
#
#
# Elastic Compliance Matrix: (Units=1/GPa)
#
#
# Indices 1 2 3 4 5 6 
#
# 1 0.017312 -0.004354 0.005248 0.000000 0.016486 0.000000
# 2 -0.004354 0.021714 -0.029821 0.000000 -0.028850 0.000000
# 3 0.005248 -0.029821 0.077828 0.000000 0.073181 0.000000
# 4 0.000000 0.000000 0.000000 0.065900 0.000000 -0.013508
# 5 0.016486 -0.028850 0.073181 0.000000 0.114415 0.000000
# 6 0.000000 0.000000 0.000000 -0.013508 0.000000 0.092007
#
#
# Mechanical properties :
#
#
# Convention : Reuss Voigt Hill
#
# Bulk Modulus (GPa) = 16.94932 41.09307 29.02119
# Shear Modulus (GPa) = 10.71362 20.74392 15.72877
#
# Velocity S-wave (km/s) = 2.24963 3.13032 2.72578
# Velocity P-wave (km/s) = 3.84112 5.69881 4.85956
#
# Compressibility (1/GPa) = 0.05899943
#
# Stress axis : x y z
#
# Youngs Moduli (GPa) = 57.76494 46.05226 12.84891
#
# Poissons Ratio (x) = 0.20053 -0.06743
# Poissons Ratio (y) = 0.25153 0.38317
# Poissons Ratio (z) = -0.30315 1.37332
#
# Static dielectric constant tensor:
#      x y z
#    x 1.782270 0.000000 -0.020120 
#    y 0.000000 1.789190 0.000000 
#    z -0.020120 0.000000 1.756530 
# 
# From -- ./inp_files/56971.got.cif
#   From: 2010.05.17/outbox.cif.g08.bks.cpg/sg14_29_cif.got.tgz:56971.got - 2010.06.03 17:49:19.
