data_PCOD9243148
_publ_section_title
;
Structure prediction by ZEFSAII (Michael W. Deem and Ramdas Pophale) SiO2 
 PCOD9243148
Probable space group: P 21/C
;
_chemical_formula_sum "Si O2"
_cell_formula_units_Z 32
_cell_length_a 23.102125
_cell_length_b 11.889130
_cell_length_c 16.989611
_cell_angle_alpha 90.000000
_cell_angle_beta 20.887823
_cell_angle_gamma 90.000000
_cell_volume 1663.768991
_symmetry_space_group_name_H-M "P 21/C"
_symmetry_group_IT_number 14
_symmetry_cell_setting 'monoclinic'
loop_
_space_group_symop_operation_xyz
x,y,z
-x,1/2+y,1/2-z
-x,-y,-z
x,1/2-y,1/2+z
loop_
_atom_site_type_symbol
_atom_site_label
_atom_site_fract_x
_atom_site_fract_y
_atom_site_fract_z
Si Si1 0.071183 0.806516 0.790733
Si Si2 0.862175 0.930098 0.309953
Si Si3 0.777416 0.727601 0.775411
Si Si4 0.534670 0.180288 0.909659
Si Si5 0.222487 0.890758 0.178492
Si Si6 0.430956 0.070439 0.201388
Si Si7 0.890194 0.260782 0.435598
Si Si8 0.032777 0.413490 0.865549
O O1 0.186476 0.738194 0.704551
O O2 0.092941 0.747237 0.679138
O O3 0.114724 0.937098 0.728654
O O4 0.892379 0.792662 0.054255
O O5 0.800434 0.874579 0.307075
O O6 0.729472 0.905453 0.545738
O O7 0.025574 0.867284 0.130407
O O8 0.851355 0.834785 0.728280
O O9 0.597602 0.756230 0.975421
O O10 0.703244 0.247142 0.698108
O O11 0.573589 0.057915 0.823139
O O12 0.459707 0.151722 0.090303
O O13 0.134788 0.923867 0.372313
O O14 0.123788 0.968851 0.242788
O O15 0.410468 0.916704 0.945505
O O16 0.988100 0.152361 0.344313
#
# Coordination Sequence:
#
# PCOD9243148 Si02
#       8
#     4   4   4   4   4   4   4   4
#     4  11  24  40  65  90 129 172 214 246 325 380
#     4  11  25  42  62  91 130 174 207 256 322 389
#     4  10  22  42  64  88 128 171 207 258 309 389
#     4  11  22  40  67  98 123 160 211 275 317 362
#     4  10  20  36  66  95 122 160 205 269 306 375
#     4  11  22  38  67  97 129 154 217 273 318 360
#     4  11  23  40  62  92 132 164 209 261 310 388
#     4   9  19  38  63  95 122 157 208 256 321 362
#
# _framework density 19.233440999999999
#
# number of rings (size 3 to 8) (size 9 to 14) (size 15 to 20)
#    0.000    1.500    3.750    1.125    3.500    0.000 
#    0.000    0.625    0.000    0.000    0.000    0.000 
#    0.000    0.000    0.000    0.000    0.000    0.000 
#
# Total GULP energy -178762.777927 kJ/mol
# GULP energy per Si atom -5586.336810 kJ/mol
# Density = 1.918966 g / cm^3
# Si number density = 19.233441 Si / 1000 Ang^3
#
#
#
# Elastic Constant Matrix: (Units=GPa)
#
#
# Indices 1 2 3 4 5 6 
#
# 1 53.5044 24.5739 39.4163 0.0000 -2.2833 0.0000
# 2 24.5739 92.0635 34.1272 0.0000 -8.5177 0.0000
# 3 39.4163 34.1272 112.9992 0.0000 -20.1088 0.0000
# 4 0.0000 0.0000 0.0000 20.6071 0.0000 0.5695
# 5 -2.2833 -8.5177 -20.1088 0.0000 29.1542 0.0000
# 6 0.0000 0.0000 0.0000 0.5695 0.0000 14.5521
#
#
#
# Elastic Compliance Matrix: (Units=1/GPa)
#
#
# Indices 1 2 3 4 5 6 
#
# 1 0.027198 -0.004378 -0.009135 0.000000 -0.005450 0.000000
# 2 -0.004378 0.012971 -0.002026 0.000000 0.002050 0.000000
# 3 -0.009135 -0.002026 0.014152 0.000000 0.008454 0.000000
# 4 0.000000 0.000000 0.000000 0.048579 0.000000 -0.001901
# 5 -0.005450 0.002050 0.008454 0.000000 0.040304 0.000000
# 6 0.000000 0.000000 0.000000 -0.001901 0.000000 0.068793
#
#
# Mechanical properties :
#
#
# Convention : Reuss Voigt Hill
#
# Bulk Modulus (GPa) = 43.02046 50.53354 46.77700
# Shear Modulus (GPa) = 19.93452 23.55933 21.74693
#
# Velocity S-wave (km/s) = 3.22289 3.50368 3.36621
# Velocity P-wave (km/s) = 6.02208 6.53441 6.28347
#
# Compressibility (1/GPa) = 0.02324476
#
# Stress axis : x y z
#
# Youngs Moduli (GPa) = 36.76799 77.09434 70.66026
#
# Poissons Ratio (x) = 0.33750 0.64546
# Poissons Ratio (y) = 0.16096 0.14313
# Poissons Ratio (z) = 0.33586 0.15617
#
# Static dielectric constant tensor:
#      x y z
#    x 1.678960 0.000000 0.007970 
#    y 0.000000 1.667960 0.000000 
#    z 0.007970 0.000000 1.649440 
# 
# From -- ./inp_files/61978.got.cif
#   From: 2010.05.17/outbox.cif.g08.bks.cpg/sg14_31_cif.got.tgz:61978.got - 2010.06.03 17:49:19.
