data_PCOD9243228
_publ_section_title
;
Structure prediction by ZEFSAII (Michael W. Deem and Ramdas Pophale) SiO2 
 PCOD9243228
Probable space group: P 21/C
;
_chemical_formula_sum "Si O2"
_cell_formula_units_Z 24
_cell_length_a 10.605289
_cell_length_b 7.173742
_cell_length_c 15.619712
_cell_angle_alpha 90.000000
_cell_angle_beta 47.533632
_cell_angle_gamma 90.000000
_cell_volume 876.608398
_symmetry_space_group_name_H-M "P 21/C"
_symmetry_group_IT_number 14
_symmetry_cell_setting 'monoclinic'
loop_
_space_group_symop_operation_xyz
x,y,z
-x,1/2+y,1/2-z
-x,-y,-z
x,1/2-y,1/2+z
loop_
_atom_site_type_symbol
_atom_site_label
_atom_site_fract_x
_atom_site_fract_y
_atom_site_fract_z
Si Si1 0.140337 0.298670 0.996697
Si Si2 0.679232 0.233914 0.462738
Si Si3 0.183421 0.679197 0.770444
Si Si4 0.801769 0.602622 0.691224
Si Si5 0.294103 0.286139 0.091903
Si Si6 0.401426 0.611199 0.825215
O O1 0.094312 0.179669 0.935593
O O2 0.298262 0.423526 0.892519
O O3 0.214316 0.193647 0.045532
O O4 0.978423 0.412322 0.107977
O O5 0.795101 0.341306 0.340657
O O6 0.486076 0.274047 0.521551
O O7 0.678036 0.251674 0.566339
O O8 0.702413 0.010512 0.431419
O O9 0.353264 0.646397 0.748941
O O10 0.146858 0.897390 0.804685
O O11 0.806414 0.732011 0.773176
O O12 0.600669 0.593124 0.755357
#
# Coordination Sequence:
#
# PCOD9243228 Si02
#       6
#     4   4   4   4   4   4
#     4  11  21  34  54  83 112 140 178 229 278 317
#     4   8  16  33  55  74  98 140 184 214 255 322
#     4  11  21  34  54  83 112 140 178 229 278 317
#     4  10  20  37  59  79 107 148 187 220 263 327
#     4   8  16  33  55  74  98 140 184 214 255 322
#     4  10  20  37  59  79 107 148 187 220 263 327
#
# _framework density 27.378247000000002
#
# number of rings (size 3 to 8) (size 9 to 14) (size 15 to 20)
#    0.000    2.333    0.000    6.000    0.000    1.333 
#    0.000    5.000    0.000    6.000    0.000    0.000 
#    0.000    0.000    0.000    0.000    0.000    0.000 
#
# Total GULP energy -134329.930055 kJ/mol
# GULP energy per Si atom -5597.080419 kJ/mol
# Density = 2.731593 g / cm^3
# Si number density = 27.378247 Si / 1000 Ang^3
#
#
#
# Elastic Constant Matrix: (Units=GPa)
#
#
# Indices 1 2 3 4 5 6 
#
# 1 80.7293 3.7642 13.7359 0.0000 -3.2637 0.0000
# 2 3.7642 64.8050 28.5728 0.0000 4.9053 0.0000
# 3 13.7359 28.5728 130.0253 0.0000 15.2659 0.0000
# 4 0.0000 0.0000 0.0000 30.6164 0.0000 8.6231
# 5 -3.2637 4.9053 15.2659 0.0000 46.5576 0.0000
# 6 0.0000 0.0000 0.0000 8.6231 0.0000 22.4805
#
#
#
# Elastic Compliance Matrix: (Units=1/GPa)
#
#
# Indices 1 2 3 4 5 6 
#
# 1 0.012701 -0.000199 -0.001461 0.000000 0.001390 0.000000
# 2 -0.000199 0.017105 -0.003666 0.000000 -0.000614 0.000000
# 3 -0.001461 -0.003666 0.008962 0.000000 -0.002655 0.000000
# 4 0.000000 0.000000 0.000000 0.036618 0.000000 -0.014046
# 5 0.001390 -0.000614 -0.002655 0.000000 0.022511 0.000000
# 6 0.000000 0.000000 0.000000 -0.014046 0.000000 0.049871
#
#
# Mechanical properties :
#
#
# Convention : Reuss Voigt Hill
#
# Bulk Modulus (GPa) = 35.56533 40.85617 38.21075
# Shear Modulus (GPa) = 29.79856 35.23001 32.51428
#
# Velocity S-wave (km/s) = 3.30267 3.59108 3.44989
# Velocity P-wave (km/s) = 5.24996 5.67007 5.46405
#
# Compressibility (1/GPa) = 0.02811727
#
# Stress axis : x y z
#
# Youngs Moduli (GPa) = 78.73274 58.46180 111.57683
#
# Poissons Ratio (x) = 0.01162 0.16305
# Poissons Ratio (y) = 0.01564 0.40901
# Poissons Ratio (z) = 0.11506 0.21431
#
# Static dielectric constant tensor:
#      x y z
#    x 2.108510 0.000000 0.003610 
#    y 0.000000 2.236090 0.000000 
#    z 0.003610 0.000000 2.146670 
# 
# From -- ./inp_files/43963.got.cif
#   From: 2010.05.17/outbox.cif.g08.bks.cpg/sg14_22_cif.got.tgz:43963.got - 2010.06.03 17:49:19.
