data_PCOD9243078
_publ_section_title
;
Structure prediction by ZEFSAII (Michael W. Deem and Ramdas Pophale) SiO2 
 PCOD9243078
Probable space group: P 21/C
;
_chemical_formula_sum "Si O2"
_cell_formula_units_Z 30
_cell_length_a 4.942388
_cell_length_b 15.804932
_cell_length_c 14.912869
_cell_angle_alpha 90.000000
_cell_angle_beta 115.242527
_cell_angle_gamma 90.000000
_cell_volume 1053.669516
_symmetry_space_group_name_H-M "P 21/C"
_symmetry_group_IT_number 14
_symmetry_cell_setting 'monoclinic'
loop_
_space_group_symop_operation_xyz
x,y,z
-x,1/2+y,1/2-z
-x,-y,-z
x,1/2-y,1/2+z
loop_
_atom_site_type_symbol
_atom_site_label
_atom_site_fract_x
_atom_site_fract_y
_atom_site_fract_z
Si Si1 0.028551 0.010860 0.875113
Si Si2 0.958192 0.870996 0.451874
Si Si3 0.217433 0.112568 0.373674
Si Si4 0.611559 0.906463 0.931151
Si Si5 0.763565 0.289487 0.720844
Si Si6 0.368146 0.758601 0.095251
Si Si7 0.500000 0.000000 0.500000
Si Si8 0.202013 0.367581 0.255690
O O1 0.045117 0.054724 0.781790
O O2 0.307407 0.946701 0.926097
O O3 0.121295 0.085491 0.959653
O O4 0.734430 0.962139 0.865562
O O5 0.090582 0.779137 0.500607
O O6 0.720023 0.871717 0.338206
O O7 0.834985 0.914733 0.527521
O O8 0.230246 0.924901 0.449466
O O9 0.359075 0.204520 0.406336
O O10 0.452282 0.040212 0.388878
O O11 0.970801 0.127090 0.265083
O O12 0.503390 0.815093 0.881914
O O13 0.663584 0.277340 0.808659
O O14 0.970653 0.211640 0.723546
O O15 0.510419 0.848388 0.139771
#
# Coordination Sequence:
#
# PCOD9243078 Si02
#       8
#     4   4   4   4   4   4   2   4
#     4  10  25  47  70 107 138 183 244 295 345 427
#     4  10  22  40  61  93 132 171 215 276 350 404
#     4   9  20  40  59  92 128 172 216 271 334 422
#     4  10  24  48  74  98 143 190 231 294 360 413
#     4  10  23  42  68  96 134 183 228 284 354 421
#     4   9  22  42  58  91 132 170 225 270 341 416
#     4  10  20  36  62  88 130 166 212 266 340 412
#     4  11  25  40  67 104 131 180 233 292 344 421
#
# _framework density 28.471924000000001
#
# number of rings (size 3 to 8) (size 9 to 14) (size 15 to 20)
#    0.000    2.133    0.000    0.400    9.333    4.267 
#    4.800    0.000    0.000    0.000    0.000    0.000 
#    0.000    0.000    0.000    0.000    0.000    0.000 
#
# Total GULP energy -167347.261016 kJ/mol
# GULP energy per Si atom -5578.242034 kJ/mol
# Density = 2.840712 g / cm^3
# Si number density = 28.471924 Si / 1000 Ang^3
#
#
#
# Elastic Constant Matrix: (Units=GPa)
#
#
# Indices 1 2 3 4 5 6 
#
# 1 98.5846 27.3191 27.6154 0.0000 5.6080 0.0000
# 2 27.3191 86.5905 33.3603 0.0000 8.7613 0.0000
# 3 27.6154 33.3603 121.3608 0.0000 3.7244 0.0000
# 4 0.0000 0.0000 0.0000 48.5208 0.0000 8.1755
# 5 5.6080 8.7613 3.7244 0.0000 44.8200 0.0000
# 6 0.0000 0.0000 0.0000 8.1755 0.0000 46.0329
#
#
#
# Elastic Compliance Matrix: (Units=1/GPa)
#
#
# Indices 1 2 3 4 5 6 
#
# 1 0.011481 -0.002853 -0.001806 0.000000 -0.000729 0.000000
# 2 -0.002853 0.013853 -0.003094 0.000000 -0.002094 0.000000
# 3 -0.001806 -0.003094 0.009500 0.000000 0.000041 0.000000
# 4 0.000000 0.000000 0.000000 0.021246 0.000000 -0.003773
# 5 -0.000729 -0.002094 0.000041 0.000000 0.022809 0.000000
# 6 0.000000 0.000000 0.000000 -0.003773 0.000000 0.022394
#
#
# Mechanical properties :
#
#
# Convention : Reuss Voigt Hill
#
# Bulk Modulus (GPa) = 51.73919 53.68063 52.70991
# Shear Modulus (GPa) = 40.57406 42.42414 41.49910
#
# Velocity S-wave (km/s) = 3.77909 3.86428 3.82192
# Velocity P-wave (km/s) = 6.10356 6.22937 6.16679
#
# Compressibility (1/GPa) = 0.01932771
#
# Stress axis : x y z
#
# Youngs Moduli (GPa) = 87.09670 72.18795 105.26086
#
# Poissons Ratio (x) = 0.20594 0.19010
# Poissons Ratio (y) = 0.24847 0.32573
# Poissons Ratio (z) = 0.15730 0.22339
#
# Static dielectric constant tensor:
#      x y z
#    x 3.760480 0.000000 0.478480 
#    y 0.000000 16.249290 0.000000 
#    z 0.478480 0.000000 2.470660 
# 
# From -- ./inp_files/37923.got.cif
#   From: 2010.05.17/outbox.cif.g08.bks.cpg/sg14_19_cif.got.tgz:37923.got - 2010.06.03 17:49:19.
