data_PCOD9243459
_publ_section_title
;
Structure prediction by ZEFSAII (Michael W. Deem and Ramdas Pophale) SiO2 
 PCOD9243459
Probable space group: P 21/C
;
_chemical_formula_sum "Si O2"
_cell_formula_units_Z 30
_cell_length_a 6.802870
_cell_length_b 13.348383
_cell_length_c 14.690611
_cell_angle_alpha 90.000000
_cell_angle_beta 124.663074
_cell_angle_gamma 90.000000
_cell_volume 1097.241633
_symmetry_space_group_name_H-M "P 21/C"
_symmetry_group_IT_number 14
_symmetry_cell_setting 'monoclinic'
loop_
_space_group_symop_operation_xyz
x,y,z
-x,1/2+y,1/2-z
-x,-y,-z
x,1/2-y,1/2+z
loop_
_atom_site_type_symbol
_atom_site_label
_atom_site_fract_x
_atom_site_fract_y
_atom_site_fract_z
Si Si1 0.104693 0.024414 0.909707
Si Si2 0.600519 0.880613 0.346748
Si Si3 0.500000 0.500000 0.000000
Si Si4 0.181842 0.261791 0.947751
Si Si5 0.551831 0.193767 0.276278
Si Si6 0.569191 0.497556 0.351825
Si Si7 0.021075 0.158584 0.222941
Si Si8 0.720875 0.307869 0.019142
O O1 0.145895 0.143190 0.930315
O O2 0.836667 0.009037 0.878385
O O3 0.072480 0.954800 0.813711
O O4 0.334421 0.976296 0.022494
O O5 0.518704 0.964948 0.395999
O O6 0.809218 0.818371 0.452108
O O7 0.416581 0.792871 0.275269
O O8 0.614659 0.925773 0.249236
O O9 0.265860 0.574391 0.953369
O O10 0.449005 0.287253 0.982322
O O11 0.023927 0.316115 0.830190
O O12 0.532729 0.105772 0.197923
O O13 0.715784 0.204899 0.408657
O O14 0.291103 0.178181 0.256772
O O15 0.876362 0.232836 0.119073
#
# Coordination Sequence:
#
# PCOD9243459 Si02
#       8
#     4   4   2   4   4   4   4   4
#     4  10  21  39  61  94 124 169 221 262 326 393
#     4  11  21  38  64  92 126 161 214 268 326 384
#     4  10  22  36  66  94 116 168 220 260 328 398
#     4  10  23  36  61  97 128 164 222 272 317 395
#     4  10  20  40  60  93 125 163 215 267 313 398
#     4  10  20  37  66  89 122 170 213 264 324 396
#     4  10  23  39  62  89 131 171 209 271 329 384
#     4  10  21  40  61  91 125 172 214 268 334 378
#
# _framework density 27.341289
#
# number of rings (size 3 to 8) (size 9 to 14) (size 15 to 20)
#    0.000    1.867    2.667    0.800    5.600    0.533 
#    0.000    0.667    0.000    0.000    0.000    0.000 
#    0.000    0.000    0.000    0.000    0.000    0.000 
#
# Total GULP energy -167023.269972 kJ/mol
# GULP energy per Si atom -5567.442332 kJ/mol
# Density = 2.727906 g / cm^3
# Si number density = 27.341289 Si / 1000 Ang^3
#
#
#
# Elastic Constant Matrix: (Units=GPa)
#
#
# Indices 1 2 3 4 5 6 
#
# 1 78.4265 -10.3745 13.0787 0.0000 0.8819 0.0000
# 2 -10.3745 87.2933 60.7186 0.0000 -4.6069 0.0000
# 3 13.0787 60.7186 231.3223 0.0000 20.3081 0.0000
# 4 0.0000 0.0000 0.0000 31.6100 0.0000 -15.7168
# 5 0.8819 -4.6069 20.3081 0.0000 33.9264 0.0000
# 6 0.0000 0.0000 0.0000 -15.7168 0.0000 22.6393
#
#
#
# Elastic Compliance Matrix: (Units=1/GPa)
#
#
# Indices 1 2 3 4 5 6 
#
# 1 0.013358 0.002717 -0.001552 0.000000 0.000951 0.000000
# 2 0.002717 0.015198 -0.004557 0.000000 0.004721 0.000000
# 3 -0.001552 -0.004557 0.005972 0.000000 -0.004153 0.000000
# 4 0.000000 0.000000 0.000000 0.048312 0.000000 0.033539
# 5 0.000951 0.004721 -0.004153 0.000000 0.032578 0.000000
# 6 0.000000 0.000000 0.000000 0.033539 0.000000 0.067455
#
#
# Mechanical properties :
#
#
# Convention : Reuss Voigt Hill
#
# Bulk Modulus (GPa) = 36.04432 58.20976 47.12704
# Shear Modulus (GPa) = 25.13780 39.87641 32.50711
#
# Velocity S-wave (km/s) = 3.03546 3.82313 3.45184
# Velocity P-wave (km/s) = 5.04947 6.38942 5.75855
#
# Compressibility (1/GPa) = 0.02774362
#
# Stress axis : x y z
#
# Youngs Moduli (GPa) = 74.85943 65.79984 167.46139
#
# Poissons Ratio (x) = -0.17880 0.25990
# Poissons Ratio (y) = -0.20341 0.76316
# Poissons Ratio (z) = 0.11618 0.29987
#
# Static dielectric constant tensor:
#      x y z
#    x 2.348130 0.000000 -0.064920 
#    y 0.000000 2.351650 0.000000 
#    z -0.064920 0.000000 2.165180 
# 
# From -- ./inp_files/57727.got.cif
#   From: 2010.05.17/outbox.cif.g08.bks.cpg/sg14_29_cif.got.tgz:57727.got - 2010.06.03 17:49:19.
