data_PCOD9243054
_publ_section_title
;
Structure prediction by ZEFSAII (Michael W. Deem and Ramdas Pophale) SiO2 
 PCOD9243054
Probable space group: P 21/C
;
_chemical_formula_sum "Si O2"
_cell_formula_units_Z 32
_cell_length_a 19.307163
_cell_length_b 5.364334
_cell_length_c 12.839822
_cell_angle_alpha 90.000000
_cell_angle_beta 74.894946
_cell_angle_gamma 90.000000
_cell_volume 1283.875482
_symmetry_space_group_name_H-M "P 21/C"
_symmetry_group_IT_number 14
_symmetry_cell_setting 'monoclinic'
loop_
_space_group_symop_operation_xyz
x,y,z
-x,1/2+y,1/2-z
-x,-y,-z
x,1/2-y,1/2+z
loop_
_atom_site_type_symbol
_atom_site_label
_atom_site_fract_x
_atom_site_fract_y
_atom_site_fract_z
Si Si1 0.192911 0.024527 0.492923
Si Si2 0.267297 0.385750 0.309470
Si Si3 0.701916 0.340915 0.494706
Si Si4 0.856865 0.294196 0.671683
Si Si5 0.851702 0.569238 0.362008
Si Si6 0.562135 0.142831 0.123243
Si Si7 0.000616 0.040238 0.815718
Si Si8 0.412598 0.146806 0.250061
O O1 0.211901 0.222887 0.397707
O O2 0.146766 0.142478 0.602988
O O3 0.268231 0.937435 0.511597
O O4 0.159213 0.806502 0.437344
O O5 0.299676 0.565820 0.384786
O O6 0.214606 0.556594 0.263419
O O7 0.331952 0.215171 0.242480
O O8 0.768792 0.490020 0.418564
O O9 0.617750 0.351334 0.503813
O O10 0.928319 0.460374 0.650293
O O11 0.863339 0.057129 0.745629
O O12 0.921769 0.471176 0.396644
O O13 0.476410 0.164230 0.140625
O O14 0.582323 0.383813 0.189549
O O15 0.569331 0.873487 0.177115
O O16 0.993756 0.814351 0.734450
#
# Coordination Sequence:
#
# PCOD9243054 Si02
#       8
#     4   4   4   4   4   4   4   4
#     4  10  20  36  61  91 119 157 207 257 306 372
#     4   9  18  33  54  84 120 153 199 256 301 366
#     4   9  18  34  53  86 119 152 201 254 302 366
#     4  10  23  39  61  87 120 164 206 260 317 369
#     4  10  23  39  63  86 120 166 205 255 316 372
#     4   9  16  28  50  82 117 153 195 250 303 350
#     4  10  24  43  63  89 123 160 212 261 306 377
#     4   9  16  28  50  82 117 153 195 250 303 350
#
# _framework density 24.924533
#
# number of rings (size 3 to 8) (size 9 to 14) (size 15 to 20)
#    0.000    2.500    1.250    0.000    7.000    0.500 
#    0.000    5.625    0.000    0.750    0.000    1.750 
#    0.000    0.000    0.000    0.000    0.000    0.000 
#
# Total GULP energy -178158.815949 kJ/mol
# GULP energy per Si atom -5567.462998 kJ/mol
# Density = 2.486780 g / cm^3
# Si number density = 24.924533 Si / 1000 Ang^3
#
#
#
# Elastic Constant Matrix: (Units=GPa)
#
#
# Indices 1 2 3 4 5 6 
#
# 1 122.2850 42.6214 52.3442 0.0000 -20.3193 0.0000
# 2 42.6214 119.8298 25.9200 0.0000 -7.8763 0.0000
# 3 52.3442 25.9200 58.7513 0.0000 -25.8575 0.0000
# 4 0.0000 0.0000 0.0000 43.2954 0.0000 -14.3669
# 5 -20.3193 -7.8763 -25.8575 0.0000 28.8420 0.0000
# 6 0.0000 0.0000 0.0000 -14.3669 0.0000 68.8500
#
#
#
# Elastic Compliance Matrix: (Units=1/GPa)
#
#
# Indices 1 2 3 4 5 6 
#
# 1 0.013912 -0.002452 -0.012048 0.000000 -0.001670 0.000000
# 2 -0.002452 0.009719 -0.002800 0.000000 -0.001584 0.000000
# 3 -0.012048 -0.002800 0.041158 0.000000 0.027647 0.000000
# 4 0.000000 0.000000 0.000000 0.024815 0.000000 0.005178
# 5 -0.001670 -0.001584 0.027647 0.000000 0.057849 0.000000
# 6 0.000000 0.000000 0.000000 0.005178 0.000000 0.015605
#
#
# Mechanical properties :
#
#
# Convention : Reuss Voigt Hill
#
# Bulk Modulus (GPa) = 33.12512 60.29303 46.70907
# Shear Modulus (GPa) = 24.07075 40.19619 32.13347
#
# Velocity S-wave (km/s) = 3.11102 4.02022 3.59448
# Velocity P-wave (km/s) = 5.12090 6.76700 6.00066
#
# Compressibility (1/GPa) = 0.03018857
#
# Stress axis : x y z
#
# Youngs Moduli (GPa) = 71.88112 102.89220 24.29650
#
# Poissons Ratio (x) = 0.25228 0.29272
# Poissons Ratio (y) = 0.17625 0.06804
# Poissons Ratio (z) = 0.86602 0.28814
#
# Static dielectric constant tensor:
#      x y z
#    x 2.093450 0.000000 -0.062950 
#    y 0.000000 2.043070 0.000000 
#    z -0.062950 0.000000 2.019640 
# 
# From -- ./inp_files/48129.got.cif
#   From: 2010.05.17/outbox.cif.g08.bks.cpg/sg14_25_cif.got.tgz:48129.got - 2010.06.03 17:49:19.
