data_PCOD9243526
_publ_section_title
;
Structure prediction by ZEFSAII (Michael W. Deem and Ramdas Pophale) SiO2 
 PCOD9243526
Probable space group: P 21/C
;
_chemical_formula_sum "Si O2"
_cell_formula_units_Z 20
_cell_length_a 9.262880
_cell_length_b 5.365531
_cell_length_c 15.965055
_cell_angle_alpha 90.000000
_cell_angle_beta 73.023984
_cell_angle_gamma 90.000000
_cell_volume 758.893826
_symmetry_space_group_name_H-M "P 21/C"
_symmetry_group_IT_number 14
_symmetry_cell_setting 'monoclinic'
loop_
_space_group_symop_operation_xyz
x,y,z
-x,1/2+y,1/2-z
-x,-y,-z
x,1/2-y,1/2+z
loop_
_atom_site_type_symbol
_atom_site_label
_atom_site_fract_x
_atom_site_fract_y
_atom_site_fract_z
Si Si1 0.637042 0.526968 0.409992
Si Si2 0.907548 0.164162 0.263390
Si Si3 0.194322 0.550606 0.883190
Si Si4 0.080424 0.787690 0.072237
Si Si5 0.524795 0.022171 0.394152
O O1 0.500000 0.500000 0.500000
O O2 0.799727 0.513325 0.427751
O O3 0.616046 0.771423 0.358373
O O4 0.604518 0.281783 0.360457
O O5 0.828170 0.280903 0.195856
O O6 0.857381 0.095342 0.367015
O O7 0.003137 0.413915 0.275710
O O8 0.365650 0.490743 0.875511
O O9 0.096205 0.295559 0.898860
O O10 0.129644 0.712576 0.970696
O O11 0.500000 0.000000 0.500000
#
# Coordination Sequence:
#
# PCOD9243526 Si02
#       5
#     4   4   4   4   4
#     4  10  20  38  59  89 131 162 208 275 318 388
#     4  10  24  44  60  96 136 159 217 282 319 395
#     4  10  21  41  69  96 127 180 223 271 337 404
#     4  10  21  41  68  97 126 177 221 269 338 397
#     4  10  20  38  59  89 131 163 210 274 318 386
#
# _framework density 26.354149
#
# number of rings (size 3 to 8) (size 9 to 14) (size 15 to 20)
#    0.000    2.000    4.000    0.000    0.000    7.200 
#    3.600    2.000    0.000    0.000    0.000    0.000 
#    0.000    0.000    0.000    0.000    0.000    0.000 
#
# Total GULP energy -111353.524961 kJ/mol
# GULP energy per Si atom -5567.676248 kJ/mol
# Density = 2.629417 g / cm^3
# Si number density = 26.354149 Si / 1000 Ang^3
#
#
#
# Elastic Constant Matrix: (Units=GPa)
#
#
# Indices 1 2 3 4 5 6 
#
# 1 177.3362 80.0863 34.1523 0.0000 51.6744 0.0000
# 2 80.0863 187.7132 21.8004 0.0000 18.3707 0.0000
# 3 34.1523 21.8004 124.2151 0.0000 31.0436 0.0000
# 4 0.0000 0.0000 0.0000 9.7419 0.0000 20.8243
# 5 51.6744 18.3707 31.0436 0.0000 41.9802 0.0000
# 6 0.0000 0.0000 0.0000 20.8243 0.0000 48.4130
#
#
#
# Elastic Compliance Matrix: (Units=1/GPa)
#
#
# Indices 1 2 3 4 5 6 
#
# 1 0.010537 -0.003403 0.000699 0.000000 -0.011998 0.000000
# 2 -0.003403 0.006685 -0.000679 0.000000 0.001765 0.000000
# 3 0.000699 -0.000679 0.009959 0.000000 -0.007927 0.000000
# 4 0.000000 0.000000 0.000000 1.274602 0.000000 -0.548256
# 5 -0.011998 0.001765 -0.007927 0.000000 0.043679 0.000000
# 6 0.000000 0.000000 0.000000 -0.548256 0.000000 0.256482
#
#
# Mechanical properties :
#
#
# Convention : Reuss Voigt Hill
#
# Bulk Modulus (GPa) = 48.98246 84.59362 66.78804
# Shear Modulus (GPa) = 3.09499 43.57536 23.33518
#
# Velocity S-wave (km/s) = 1.08487 4.07068 2.97887
# Velocity P-wave (km/s) = 4.49398 7.36630 6.10157
#
# Compressibility (1/GPa) = 0.02041547
#
# Stress axis : x y z
#
# Youngs Moduli (GPa) = 94.90115 149.58702 100.41407
#
# Poissons Ratio (x) = 0.50898 -0.07015
# Poissons Ratio (y) = 0.32291 0.06816
# Poissons Ratio (z) = -0.06629 0.10154
#
# Static dielectric constant tensor:
#      x y z
#    x 0.749270 0.000000 -1.327480 
#    y 0.000000 2.280440 0.000000 
#    z -1.327480 0.000000 1.700240 
# 
# From -- ./inp_files/53972.got.cif
#   From: 2010.05.17/outbox.cif.g08.bks.cpg/sg14_27_cif.got.tgz:53972.got - 2010.06.03 17:49:19.
