data_PCOD9243179
_publ_section_title
;
Structure prediction by ZEFSAII (Michael W. Deem and Ramdas Pophale) SiO2 
 PCOD9243179
Probable space group: P 21/C
;
_chemical_formula_sum "Si O2"
_cell_formula_units_Z 32
_cell_length_a 12.779935
_cell_length_b 18.995673
_cell_length_c 7.979458
_cell_angle_alpha 90.000000
_cell_angle_beta 125.380395
_cell_angle_gamma 90.000000
_cell_volume 1579.384947
_symmetry_space_group_name_H-M "P 21/C"
_symmetry_group_IT_number 14
_symmetry_cell_setting 'monoclinic'
loop_
_space_group_symop_operation_xyz
x,y,z
-x,1/2+y,1/2-z
-x,-y,-z
x,1/2-y,1/2+z
loop_
_atom_site_type_symbol
_atom_site_label
_atom_site_fract_x
_atom_site_fract_y
_atom_site_fract_z
Si Si1 0.133492 0.042610 0.288805
Si Si2 0.353166 0.291330 0.731620
Si Si3 0.857028 0.042831 0.203442
Si Si4 0.349811 0.356631 0.101358
Si Si5 0.859161 0.606853 0.578791
Si Si6 0.139758 0.891971 0.423991
Si Si7 0.641867 0.356993 0.377359
Si Si8 0.354126 0.792628 0.491400
O O1 0.243781 0.083302 0.493225
O O2 0.994591 0.054541 0.242962
O O3 0.159284 0.959196 0.319827
O O4 0.133295 0.071911 0.099913
O O5 0.321429 0.208733 0.696473
O O6 0.252124 0.336007 0.531811
O O7 0.349652 0.320697 0.916690
O O8 0.499943 0.300514 0.806540
O O9 0.860788 0.074304 0.392474
O O10 0.834627 0.959006 0.178270
O O11 0.743894 0.082269 0.001156
O O12 0.495204 0.381827 0.268333
O O13 0.998416 0.637740 0.752608
O O14 0.249798 0.835185 0.499835
O O15 0.650645 0.324174 0.199560
O O16 0.670459 0.290770 0.525043
#
# Coordination Sequence:
#
# PCOD9243179 Si02
#       8
#     4   4   4   4   4   4   4   4
#     4  10  20  37  57  79 107 142 179 222 269 317
#     4   9  20  36  57  81 107 138 176 218 266 317
#     4  11  22  36  54  80 109 142 180 221 265 316
#     4   9  20  36  57  81 107 138 176 218 266 317
#     4  10  20  37  57  79 107 142 179 222 269 317
#     4  11  22  36  54  80 109 142 180 221 265 316
#     4  10  20  37  57  80 108 140 176 219 265 316
#     4  10  20  37  57  80 108 140 176 219 265 316
#
# _framework density 20.261051999999999
#
# number of rings (size 3 to 8) (size 9 to 14) (size 15 to 20)
#    0.000    2.000    0.000    5.250    0.000    5.000 
#    0.000    7.500    0.000    0.000    0.000    0.000 
#    0.000    0.000    0.000    0.000    0.000    0.000 
#
# Total GULP energy -178833.761844 kJ/mol
# GULP energy per Si atom -5588.555058 kJ/mol
# Density = 2.021494 g / cm^3
# Si number density = 20.261052 Si / 1000 Ang^3
#
#
#
# Elastic Constant Matrix: (Units=GPa)
#
#
# Indices 1 2 3 4 5 6 
#
# 1 44.3866 22.1162 23.7623 0.0000 8.0674 0.0000
# 2 22.1162 41.7974 23.2670 0.0000 29.6002 0.0000
# 3 23.7623 23.2670 82.1880 0.0000 13.6658 0.0000
# 4 0.0000 0.0000 0.0000 49.2909 0.0000 -2.6774
# 5 8.0674 29.6002 13.6658 0.0000 32.4046 0.0000
# 6 0.0000 0.0000 0.0000 -2.6774 0.0000 37.2607
#
#
#
# Elastic Compliance Matrix: (Units=1/GPa)
#
#
# Indices 1 2 3 4 5 6 
#
# 1 0.038019 -0.034104 -0.005316 0.000000 0.023929 0.000000
# 2 -0.034104 0.106136 -0.005891 0.000000 -0.085976 0.000000
# 3 -0.005316 -0.005891 0.015332 0.000000 0.000239 0.000000
# 4 0.000000 0.000000 0.000000 0.020367 0.000000 0.001464
# 5 0.023929 -0.085976 0.000239 0.000000 0.103337 0.000000
# 6 0.000000 0.000000 0.000000 0.001464 0.000000 0.026943
#
#
# Mechanical properties :
#
#
# Convention : Reuss Voigt Hill
#
# Bulk Modulus (GPa) = 14.52101 34.07366 24.29733
# Shear Modulus (GPa) = 11.80048 30.40635 21.10341
#
# Velocity S-wave (km/s) = 2.41596 3.87813 3.23085
# Velocity P-wave (km/s) = 3.86846 6.07511 5.09274
#
# Compressibility (1/GPa) = 0.06886575
#
# Stress axis : x y z
#
# Youngs Moduli (GPa) = 26.30274 9.42186 65.22187
#
# Poissons Ratio (x) = 0.32132 0.34674
# Poissons Ratio (y) = 0.89702 0.38421
# Poissons Ratio (z) = 0.13983 0.05550
#
# Static dielectric constant tensor:
#      x y z
#    x 1.722920 0.000000 -0.034750 
#    y 0.000000 1.679680 0.000000 
#    z -0.034750 0.000000 1.740710 
# 
# From -- ./inp_files/14334.got.cif
#   From: 2010.05.17/outbox.cif.g08.bks.cpg/sg14_8_cif.got.tgz:14334.got - 2010.06.03 17:49:19.
