data_PCOD9243412
_publ_section_title
;
Structure prediction by ZEFSAII (Michael W. Deem and Ramdas Pophale) SiO2 
 PCOD9243412
Probable space group: P 21/C
;
_chemical_formula_sum "Si O2"
_cell_formula_units_Z 28
_cell_length_a 11.526707
_cell_length_b 22.137300
_cell_length_c 10.177347
_cell_angle_alpha 90.000000
_cell_angle_beta 149.895889
_cell_angle_gamma 90.000000
_cell_volume 1302.562206
_symmetry_space_group_name_H-M "P 21/C"
_symmetry_group_IT_number 14
_symmetry_cell_setting 'monoclinic'
loop_
_space_group_symop_operation_xyz
x,y,z
-x,1/2+y,1/2-z
-x,-y,-z
x,1/2-y,1/2+z
loop_
_atom_site_type_symbol
_atom_site_label
_atom_site_fract_x
_atom_site_fract_y
_atom_site_fract_z
Si Si1 0.522932 0.014945 0.178159
Si Si2 0.950947 0.654051 0.189596
Si Si3 0.410886 0.355934 0.635188
Si Si4 0.023089 0.972643 0.669683
Si Si5 0.105635 0.334549 0.575472
Si Si6 0.734423 0.238104 0.576396
Si Si7 0.341973 0.203985 0.816590
O O1 0.758054 0.983408 0.461919
O O2 0.556760 0.085720 0.240346
O O3 0.258108 0.999838 0.964775
O O4 0.500000 0.000000 0.000000
O O5 0.062402 0.599108 0.218584
O O6 0.910063 0.634912 0.299090
O O7 0.100752 0.715506 0.336956
O O8 0.725918 0.672690 0.886704
O O9 0.257589 0.366793 0.613663
O O10 0.272532 0.338738 0.368031
O O11 0.550845 0.294801 0.804073
O O12 0.000000 0.000000 0.500000
O O13 0.216038 0.268060 0.706916
O O14 0.863396 0.317207 0.272778
O O15 0.609043 0.278717 0.563442
#
# Coordination Sequence:
#
# PCOD9243412 Si02
#       7
#     4   4   4   4   4   4   4
#     4  10  23  43  67  99 128 174 234 290 336 391
#     4  11  23  40  66  94 139 171 230 283 342 414
#     4  11  23  40  68  93 139 170 230 282 343 412
#     4  10  23  42  67  99 128 174 235 289 337 391
#     4  10  22  40  56  96 134 176 212 273 361 415
#     4  10  22  36  65  98 132 177 217 282 350 407
#     4  10  20  37  63  96 127 173 224 279 340 404
#
# _framework density 21.496096000000001
#
# number of rings (size 3 to 8) (size 9 to 14) (size 15 to 20)
#    0.000    1.714    0.000    5.143    8.000    2.286 
#    0.000    1.429    0.000    0.000    0.000    0.000 
#    0.000    0.000    0.000    0.000    0.000    0.000 
#
# Total GULP energy -156043.503125 kJ/mol
# GULP energy per Si atom -5572.982254 kJ/mol
# Density = 2.144717 g / cm^3
# Si number density = 21.496096 Si / 1000 Ang^3
#
#
#
# Elastic Constant Matrix: (Units=GPa)
#
#
# Indices 1 2 3 4 5 6 
#
# 1 104.7544 18.3281 23.4998 0.0000 -16.3844 0.0000
# 2 18.3281 78.6689 6.7154 0.0000 -6.3755 0.0000
# 3 23.4998 6.7154 77.9422 0.0000 13.0335 0.0000
# 4 0.0000 0.0000 0.0000 9.8869 0.0000 4.5661
# 5 -16.3844 -6.3755 13.0335 0.0000 16.7512 0.0000
# 6 0.0000 0.0000 0.0000 4.5661 0.0000 29.2195
#
#
#
# Elastic Compliance Matrix: (Units=1/GPa)
#
#
# Indices 1 2 3 4 5 6 
#
# 1 0.014516 -0.001144 -0.007564 0.000000 0.019648 0.000000
# 2 -0.001144 0.013561 -0.001724 0.000000 0.005384 0.000000
# 3 -0.007564 -0.001724 0.019089 0.000000 -0.022907 0.000000
# 4 0.000000 0.000000 0.000000 0.109011 0.000000 -0.017035
# 5 0.019648 0.005384 -0.022907 0.000000 0.098787 0.000000
# 6 0.000000 0.000000 0.000000 -0.017035 0.000000 0.036886
#
#
# Mechanical properties :
#
#
# Convention : Reuss Voigt Hill
#
# Bulk Modulus (GPa) = 38.01657 39.82801 38.92229
# Shear Modulus (GPa) = 15.55297 25.35967 20.45632
#
# Velocity S-wave (km/s) = 2.69276 3.43845 3.08820
# Velocity P-wave (km/s) = 5.23371 5.85937 5.55535
#
# Compressibility (1/GPa) = 0.02630432
#
# Stress axis : x y z
#
# Youngs Moduli (GPa) = 68.88880 73.73821 52.38486
#
# Poissons Ratio (x) = 0.08435 0.39622
# Poissons Ratio (y) = 0.07881 0.09030
# Poissons Ratio (z) = 0.52105 0.12711
#
# Static dielectric constant tensor:
#      x y z
#    x 1.822210 0.000000 0.066790 
#    y 0.000000 1.778920 0.000000 
#    z 0.066790 0.000000 1.855850 
# 
# From -- ./inp_files/30692.got.cif
#   From: 2010.05.17/outbox.cif.g08.bks.cpg/sg14_16_cif.got.tgz:30692.got - 2010.06.03 17:49:19.
