data_PCOD9243714
_publ_section_title
;
Structure prediction by ZEFSAII (Michael W. Deem and Ramdas Pophale) SiO2 
 PCOD9243714
Probable space group: P 21/C
;
_chemical_formula_sum "Si O2"
_cell_formula_units_Z 30
_cell_length_a 27.489412
_cell_length_b 4.972798
_cell_length_c 8.566424
_cell_angle_alpha 90.000000
_cell_angle_beta 114.959352
_cell_angle_gamma 90.000000
_cell_volume 1061.659097
_symmetry_space_group_name_H-M "P 21/C"
_symmetry_group_IT_number 14
_symmetry_cell_setting 'monoclinic'
loop_
_space_group_symop_operation_xyz
x,y,z
-x,1/2+y,1/2-z
-x,-y,-z
x,1/2-y,1/2+z
loop_
_atom_site_type_symbol
_atom_site_label
_atom_site_fract_x
_atom_site_fract_y
_atom_site_fract_z
Si Si1 0.575472 0.892555 0.397771
Si Si2 0.002929 0.698624 0.665336
Si Si3 0.284658 0.472687 0.382858
Si Si4 0.191416 0.770735 0.082129
Si Si5 0.500000 0.500000 0.500000
Si Si6 0.094919 0.491570 0.130139
Si Si7 0.648784 0.929807 0.754027
Si Si8 0.813588 0.634603 0.179480
O O1 0.543988 0.701436 0.477777
O O2 0.609928 0.070868 0.571349
O O3 0.614859 0.732892 0.337077
O O4 0.535166 0.021793 0.217701
O O5 0.998339 0.380978 0.678694
O O6 0.949301 0.813628 0.516046
O O7 0.059515 0.792832 0.674207
O O8 0.247765 0.669979 0.231619
O O9 0.317212 0.601558 0.573241
O O10 0.317683 0.280860 0.308011
O O11 0.241255 0.291393 0.416294
O O12 0.137400 0.636910 0.077645
O O13 0.186462 0.074175 0.134403
O O14 0.189904 0.652032 0.908156
O O15 0.132720 0.296963 0.282160
#
# Coordination Sequence:
#
# PCOD9243714 Si02
#       8
#     4   4   4   4   2   4   4   4
#     4   9  20  37  70  93 142 183 238 297 369 440
#     4  11  26  45  73 103 148 187 242 312 379 461
#     4  10  20  41  66  89 136 180 233 291 364 436
#     4  11  25  40  69  98 134 182 234 299 356 448
#     4  10  20  38  64 102 132 186 236 296 360 436
#     4  10  26  44  69 100 137 189 236 291 375 447
#     4   9  18  37  68  89 128 193 232 283 369 451
#     4  11  25  42  67 102 134 182 235 299 359 442
#
# _framework density 28.257657999999999
#
# number of rings (size 3 to 8) (size 9 to 14) (size 15 to 20)
#    0.000    1.867    1.333    0.800    7.467    4.267 
#    0.000    0.000   44.000    0.000    0.000    0.000 
#    0.000    0.000    0.000    0.000    0.000    0.000 
#
# Total GULP energy -167324.853181 kJ/mol
# GULP energy per Si atom -5577.495106 kJ/mol
# Density = 2.819334 g / cm^3
# Si number density = 28.257658 Si / 1000 Ang^3
#
#
#
# Elastic Constant Matrix: (Units=GPa)
#
#
# Indices 1 2 3 4 5 6 
#
# 1 126.6024 26.4113 40.1044 0.0000 -14.8949 0.0000
# 2 26.4113 47.6471 15.5571 0.0000 -2.4343 0.0000
# 3 40.1044 15.5571 222.5684 0.0000 21.7919 0.0000
# 4 0.0000 0.0000 0.0000 39.8787 0.0000 4.3469
# 5 -14.8949 -2.4343 21.7919 0.0000 39.7084 0.0000
# 6 0.0000 0.0000 0.0000 4.3469 0.0000 83.6118
#
#
#
# Elastic Compliance Matrix: (Units=1/GPa)
#
#
# Indices 1 2 3 4 5 6 
#
# 1 0.010019 -0.004695 -0.001920 0.000000 0.004524 0.000000
# 2 -0.004695 0.023872 -0.000838 0.000000 0.000162 0.000000
# 3 -0.001920 -0.000838 0.005256 0.000000 -0.003656 0.000000
# 4 0.000000 0.000000 0.000000 0.025219 0.000000 -0.001311
# 5 0.004524 0.000162 -0.003656 0.000000 0.028897 0.000000
# 6 0.000000 0.000000 0.000000 -0.001311 0.000000 0.012028
#
#
# Mechanical properties :
#
#
# Convention : Reuss Voigt Hill
#
# Bulk Modulus (GPa) = 41.25610 62.32929 51.79269
# Shear Modulus (GPa) = 38.97778 53.62279 46.30028
#
# Velocity S-wave (km/s) = 3.71802 4.36091 4.05224
# Velocity P-wave (km/s) = 5.75006 6.88928 6.34529
#
# Compressibility (1/GPa) = 0.02423884
#
# Stress axis : x y z
#
# Youngs Moduli (GPa) = 99.81281 41.88926 190.27617
#
# Poissons Ratio (x) = 0.19669 0.36533
# Poissons Ratio (y) = 0.46867 0.15954
# Poissons Ratio (z) = 0.19164 0.03512
#
# Static dielectric constant tensor:
#      x y z
#    x 2.142410 0.000000 -0.026650 
#    y 0.000000 2.146220 0.000000 
#    z -0.026650 0.000000 2.306010 
# 
# From -- ./inp_files/19905.got.cif
#   From: 2010.05.17/outbox.cif.g08.bks.cpg/sg14_10_cif.got.tgz:19905.got - 2010.06.03 17:49:19.
