data_PCOD9243463
_publ_section_title
;
Structure prediction by ZEFSAII (Michael W. Deem and Ramdas Pophale) SiO2 
 PCOD9243463
Probable space group: P 21/C
;
_chemical_formula_sum "Si O2"
_cell_formula_units_Z 28
_cell_length_a 9.325220
_cell_length_b 18.176276
_cell_length_c 16.570078
_cell_angle_alpha 90.000000
_cell_angle_beta 29.938519
_cell_angle_gamma 90.000000
_cell_volume 1401.684866
_symmetry_space_group_name_H-M "P 21/C"
_symmetry_group_IT_number 14
_symmetry_cell_setting 'monoclinic'
loop_
_space_group_symop_operation_xyz
x,y,z
-x,1/2+y,1/2-z
-x,-y,-z
x,1/2-y,1/2+z
loop_
_atom_site_type_symbol
_atom_site_label
_atom_site_fract_x
_atom_site_fract_y
_atom_site_fract_z
Si Si1 0.335651 0.614433 0.585922
Si Si2 0.289239 0.220495 0.355915
Si Si3 0.241727 0.668906 0.809423
Si Si4 0.064735 0.352495 0.363408
Si Si5 0.426291 0.566966 0.316169
Si Si6 0.627601 0.440425 0.107971
Si Si7 0.193726 0.037068 0.225217
O O1 0.327238 0.648736 0.677959
O O2 0.661377 0.603023 0.395908
O O3 0.192160 0.533791 0.668776
O O4 0.143499 0.653384 0.611789
O O5 0.551339 0.268203 0.258865
O O6 0.122142 0.273007 0.374718
O O7 0.401034 0.143727 0.267312
O O8 0.078601 0.199485 0.530913
O O9 0.262779 0.603441 0.865531
O O10 0.369721 0.391308 0.197695
O O11 0.898355 0.407039 0.507735
O O12 0.498252 0.517946 0.203177
O O13 0.560301 0.523587 0.326661
O O14 0.893623 0.450610 0.917156
#
# Coordination Sequence:
#
# PCOD9243463 Si02
#       7
#     4   4   4   4   4   4   4
#     4  10  22  42  61  91 134 161 201 259 324 375
#     4  11  22  40  64  91 123 169 214 257 302 381
#     4  11  22  42  63  93 123 165 218 255 313 371
#     4  10  24  40  61  93 132 163 203 264 322 368
#     4  11  19  38  66  93 120 163 213 261 301 367
#     4  11  21  38  71  94 117 165 218 260 302 376
#     4  10  20  37  66  94 121 164 202 260 316 372
#
# _framework density 19.975959
#
# number of rings (size 3 to 8) (size 9 to 14) (size 15 to 20)
#    0.000    1.429    4.286    1.714    0.000    0.571 
#    5.143    1.429    0.000    0.000    0.000    0.000 
#    0.000    0.000    0.000    0.000    0.000    0.000 
#
# Total GULP energy -156237.681446 kJ/mol
# GULP energy per Si atom -5579.917194 kJ/mol
# Density = 1.993049 g / cm^3
# Si number density = 19.975959 Si / 1000 Ang^3
#
#
#
# Elastic Constant Matrix: (Units=GPa)
#
#
# Indices 1 2 3 4 5 6 
#
# 1 29.4106 6.1669 11.1983 0.0000 9.1114 0.0000
# 2 6.1669 68.5023 21.2975 0.0000 3.2226 0.0000
# 3 11.1983 21.2975 126.1485 0.0000 7.4903 0.0000
# 4 0.0000 0.0000 0.0000 26.5514 0.0000 0.0283
# 5 9.1114 3.2226 7.4903 0.0000 26.1175 0.0000
# 6 0.0000 0.0000 0.0000 0.0283 0.0000 14.3376
#
#
#
# Elastic Compliance Matrix: (Units=1/GPa)
#
#
# Indices 1 2 3 4 5 6 
#
# 1 0.039318 -0.002205 -0.002360 0.000000 -0.012767 0.000000
# 2 -0.002205 0.015566 -0.002405 0.000000 -0.000462 0.000000
# 3 -0.002360 -0.002405 0.008623 0.000000 -0.001353 0.000000
# 4 0.000000 0.000000 0.000000 0.037663 0.000000 -0.000074
# 5 -0.012767 -0.000462 -0.001353 0.000000 0.043188 0.000000
# 6 0.000000 0.000000 0.000000 -0.000074 0.000000 0.069747
#
#
# Mechanical properties :
#
#
# Convention : Reuss Voigt Hill
#
# Bulk Modulus (GPa) = 20.17483 33.48743 26.83113
# Shear Modulus (GPa) = 20.44439 25.76122 23.10280
#
# Velocity S-wave (km/s) = 3.20261 3.59501 3.40447
# Velocity P-wave (km/s) = 4.87823 5.83373 5.37724
#
# Compressibility (1/GPa) = 0.04956671
#
# Stress axis : x y z
#
# Youngs Moduli (GPa) = 25.43392 64.24272 115.96910
#
# Poissons Ratio (x) = 0.14167 0.27367
# Poissons Ratio (y) = 0.05609 0.27888
# Poissons Ratio (z) = 0.06002 0.15449
#
# Static dielectric constant tensor:
#      x y z
#    x 1.703680 0.000000 0.007110 
#    y 0.000000 1.731630 0.000000 
#    z 0.007110 0.000000 1.728150 
# 
# From -- ./inp_files/9874.got.cif
#   From: 2010.05.17/outbox.cif.g08.bks.cpg/sg14_5_cif.got.tgz:9874.got - 2010.06.03 17:49:19.
