data_PCOD9243262
_publ_section_title
;
Structure prediction by ZEFSAII (Michael W. Deem and Ramdas Pophale) SiO2 
 PCOD9243262
Probable space group: P 21/C
;
_chemical_formula_sum "Si O2"
_cell_formula_units_Z 30
_cell_length_a 5.031707
_cell_length_b 16.507164
_cell_length_c 14.108302
_cell_angle_alpha 90.000000
_cell_angle_beta 68.131481
_cell_angle_gamma 90.000000
_cell_volume 1087.501200
_symmetry_space_group_name_H-M "P 21/C"
_symmetry_group_IT_number 14
_symmetry_cell_setting 'monoclinic'
loop_
_space_group_symop_operation_xyz
x,y,z
-x,1/2+y,1/2-z
-x,-y,-z
x,1/2-y,1/2+z
loop_
_atom_site_type_symbol
_atom_site_label
_atom_site_fract_x
_atom_site_fract_y
_atom_site_fract_z
Si Si1 0.536107 0.927767 0.331326
Si Si2 0.038267 0.172513 0.615108
Si Si3 0.307448 0.267026 0.746839
Si Si4 0.152654 0.628756 0.139568
Si Si5 0.582738 0.724450 0.569251
Si Si6 0.065553 0.534836 0.338601
Si Si7 0.500000 0.000000 0.500000
Si Si8 0.458158 0.606837 0.427107
O O1 0.276456 0.865442 0.351242
O O2 0.721931 0.899839 0.402530
O O3 0.767534 0.955605 0.222534
O O4 0.409779 0.007242 0.396425
O O5 0.087931 0.218789 0.708205
O O6 0.141277 0.236113 0.521707
O O7 0.168389 0.339662 0.823630
O O8 0.505637 0.312839 0.644705
O O9 0.385605 0.209773 0.823636
O O10 0.162995 0.601667 0.247911
O O11 0.346593 0.705925 0.091929
O O12 0.228167 0.560209 0.057379
O O13 0.479165 0.644784 0.527952
O O14 0.179845 0.562699 0.425257
O O15 0.723348 0.544180 0.379625
#
# Coordination Sequence:
#
# PCOD9243262 Si02
#       8
#     4   4   4   4   4   4   2   4
#     4  11  23  40  63  91 127 168 200 261 316 377
#     4  11  25  40  63  95 128 164 212 252 310 376
#     4  10  23  38  59  88 130 164 208 252 309 371
#     4  10  20  37  59  91 126 165 192 255 313 384
#     4  11  22  36  62  90 125 157 207 252 312 366
#     4  10  21  40  59  87 123 160 200 247 310 372
#     4  10  20  38  62  98 134 154 210 250 336 388
#     4  10  22  37  61  87 120 160 205 252 303 375
#
# _framework density 27.586176999999999
#
# number of rings (size 3 to 8) (size 9 to 14) (size 15 to 20)
#    0.000    1.600    2.667    1.600    3.733    2.667 
#    0.000    0.000    0.000    4.800    0.000    0.000 
#    0.000    0.000    0.000    0.000    0.000    0.000 
#
# Total GULP energy -167377.545103 kJ/mol
# GULP energy per Si atom -5579.251503 kJ/mol
# Density = 2.752339 g / cm^3
# Si number density = 27.586177 Si / 1000 Ang^3
#
#
#
# Elastic Constant Matrix: (Units=GPa)
#
#
# Indices 1 2 3 4 5 6 
#
# 1 75.2405 26.5762 54.6459 0.0000 -0.1814 0.0000
# 2 26.5762 90.9776 38.6687 0.0000 0.4944 0.0000
# 3 54.6459 38.6687 111.8287 0.0000 17.6804 0.0000
# 4 0.0000 0.0000 0.0000 47.2743 0.0000 -5.1832
# 5 -0.1814 0.4944 17.6804 0.0000 39.9367 0.0000
# 6 0.0000 0.0000 0.0000 -5.1832 0.0000 46.4872
#
#
#
# Elastic Compliance Matrix: (Units=1/GPa)
#
#
# Indices 1 2 3 4 5 6 
#
# 1 0.021778 -0.001801 -0.010794 0.000000 0.004900 0.000000
# 2 -0.001801 0.013177 -0.003924 0.000000 0.001566 0.000000
# 3 -0.010794 -0.003924 0.016746 0.000000 -0.007414 0.000000
# 4 0.000000 0.000000 0.000000 0.021415 0.000000 0.002388
# 5 0.004900 0.001566 -0.007414 0.000000 0.028325 0.000000
# 6 0.000000 0.000000 0.000000 0.002388 0.000000 0.021778
#
#
# Mechanical properties :
#
#
# Convention : Reuss Voigt Hill
#
# Bulk Modulus (GPa) = 53.58048 57.53649 55.55849
# Shear Modulus (GPa) = 30.77353 37.28334 34.02843
#
# Velocity S-wave (km/s) = 3.34360 3.68029 3.51598
# Velocity P-wave (km/s) = 5.86270 6.24193 6.05529
#
# Compressibility (1/GPa) = 0.01866351
#
# Stress axis : x y z
#
# Youngs Moduli (GPa) = 45.91772 75.88921 59.71582
#
# Poissons Ratio (x) = 0.13664 0.64458
# Poissons Ratio (y) = 0.08268 0.23434
# Poissons Ratio (z) = 0.49564 0.29780
#
# Static dielectric constant tensor:
#      x y z
#    x 2.130300 0.000000 0.126090 
#    y 0.000000 1.688080 0.000000 
#    z 0.126090 0.000000 1.861010 
# 
# From -- ./inp_files/37756.got.cif
#   From: 2010.05.17/outbox.cif.g08.bks.cpg/sg14_19_cif.got.tgz:37756.got - 2010.06.03 17:49:19.
