data_PCOD9243798
_publ_section_title
;
Structure prediction by ZEFSAII (Michael W. Deem and Ramdas Pophale) SiO2 
 PCOD9243798
Probable space group: P 21/C
;
_chemical_formula_sum "Si O2"
_cell_formula_units_Z 28
_cell_length_a 9.387748
_cell_length_b 15.942942
_cell_length_c 17.944161
_cell_angle_alpha 90.000000
_cell_angle_beta 152.838975
_cell_angle_gamma 90.000000
_cell_volume 1225.990151
_symmetry_space_group_name_H-M "P 21/C"
_symmetry_group_IT_number 14
_symmetry_cell_setting 'monoclinic'
loop_
_space_group_symop_operation_xyz
x,y,z
-x,1/2+y,1/2-z
-x,-y,-z
x,1/2-y,1/2+z
loop_
_atom_site_type_symbol
_atom_site_label
_atom_site_fract_x
_atom_site_fract_y
_atom_site_fract_z
Si Si1 0.153051 0.833586 0.688634
Si Si2 0.208335 0.515207 0.419353
Si Si3 0.300438 0.419327 0.924932
Si Si4 0.579055 0.698049 0.256247
Si Si5 0.505699 0.270032 0.943432
Si Si6 0.756375 0.152351 0.950775
Si Si7 0.801124 0.829399 0.080470
O O1 0.301288 0.838007 0.676117
O O2 0.456084 0.836212 0.883224
O O3 0.896377 0.902989 0.591523
O O4 0.991661 0.744111 0.629404
O O5 0.500000 0.500000 0.500000
O O6 0.292717 0.561252 0.536446
O O7 0.065511 0.422714 0.364694
O O8 0.972867 0.573006 0.263643
O O9 0.518212 0.337929 0.014023
O O10 0.500000 0.500000 0.000000
O O11 0.559867 0.674788 0.160646
O O12 0.915918 0.665485 0.438009
O O13 0.517064 0.799580 0.222472
O O14 0.772538 0.212709 0.032125
O O15 0.261138 0.202535 0.863604
#
# Coordination Sequence:
#
# PCOD9243798 Si02
#       7
#     4   4   4   4   4   4   4
#     4  11  24  44  60  98 124 170 207 273 315 386
#     4  12  20  40  62 100 127 161 214 276 314 373
#     4  11  24  40  65  92 129 164 217 271 317 375
#     4  10  21  40  65  84 130 167 210 250 324 388
#     4   9  21  38  64  88 117 170 207 256 310 390
#     4  10  20  38  66  89 123 169 210 257 312 388
#     4  11  24  38  69  91 131 159 224 264 325 374
#
# _framework density 22.838681999999999
#
# number of rings (size 3 to 8) (size 9 to 14) (size 15 to 20)
#    0.857    0.571    4.286    0.857    6.000    1.143 
#    0.000    3.571    0.000    0.000    0.000    0.000 
#    0.000    0.000    0.000    0.000    0.000    0.000 
#
# Total GULP energy -155891.098299 kJ/mol
# GULP energy per Si atom -5567.539225 kJ/mol
# Density = 2.278670 g / cm^3
# Si number density = 22.838682 Si / 1000 Ang^3
#
#
#
# Elastic Constant Matrix: (Units=GPa)
#
#
# Indices 1 2 3 4 5 6 
#
# 1 131.2971 27.9994 25.6305 0.0000 35.9140 0.0000
# 2 27.9994 101.6221 7.4532 0.0000 18.3512 0.0000
# 3 25.6305 7.4532 43.3184 0.0000 19.4619 0.0000
# 4 0.0000 0.0000 0.0000 35.2265 0.0000 9.8448
# 5 35.9140 18.3512 19.4619 0.0000 38.3387 0.0000
# 6 0.0000 0.0000 0.0000 9.8448 0.0000 30.1788
#
#
#
# Elastic Compliance Matrix: (Units=1/GPa)
#
#
# Indices 1 2 3 4 5 6 
#
# 1 0.010564 -0.001278 -0.002409 0.000000 -0.008061 0.000000
# 2 -0.001278 0.010938 0.000892 0.000000 -0.004491 0.000000
# 3 -0.002409 0.000892 0.030488 0.000000 -0.013647 0.000000
# 4 0.000000 0.000000 0.000000 0.031235 0.000000 -0.010189
# 5 -0.008061 -0.004491 -0.013647 0.000000 0.042712 0.000000
# 6 0.000000 0.000000 0.000000 -0.010189 0.000000 0.036460
#
#
# Mechanical properties :
#
#
# Convention : Reuss Voigt Hill
#
# Bulk Modulus (GPa) = 21.55165 44.26710 32.90938
# Shear Modulus (GPa) = 27.25471 35.09244 31.17357
#
# Velocity S-wave (km/s) = 3.45825 3.92412 3.69853
# Velocity P-wave (km/s) = 5.04013 6.32109 5.71660
#
# Compressibility (1/GPa) = 0.04640015
#
# Stress axis : x y z
#
# Youngs Moduli (GPa) = 94.65940 91.42305 32.79980
#
# Poissons Ratio (x) = 0.11686 0.07901
# Poissons Ratio (y) = 0.12100 -0.02926
# Poissons Ratio (z) = 0.22802 -0.08156
#
# Static dielectric constant tensor:
#      x y z
#    x 1.895620 0.000000 -0.034590 
#    y 0.000000 1.868120 0.000000 
#    z -0.034590 0.000000 1.936920 
# 
# From -- ./inp_files/65944.got.cif
#   From: 2010.05.17/outbox.cif.g08.bks.cpg/sg14_33_cif.got.tgz:65944.got - 2010.06.03 17:49:19.
