data_PCOD9243265
_publ_section_title
;
Structure prediction by ZEFSAII (Michael W. Deem and Ramdas Pophale) SiO2 
 PCOD9243265
Probable space group: P 21/C
;
_chemical_formula_sum "Si O2"
_cell_formula_units_Z 30
_cell_length_a 10.668717
_cell_length_b 18.335461
_cell_length_c 5.681157
_cell_angle_alpha 90.000000
_cell_angle_beta 70.508768
_cell_angle_gamma 90.000000
_cell_volume 1047.637175
_symmetry_space_group_name_H-M "P 21/C"
_symmetry_group_IT_number 14
_symmetry_cell_setting 'monoclinic'
loop_
_space_group_symop_operation_xyz
x,y,z
-x,1/2+y,1/2-z
-x,-y,-z
x,1/2-y,1/2+z
loop_
_atom_site_type_symbol
_atom_site_label
_atom_site_fract_x
_atom_site_fract_y
_atom_site_fract_z
Si Si1 0.113805 0.438695 0.421619
Si Si2 0.839184 0.510616 0.107089
Si Si3 0.500000 0.500000 0.000000
Si Si4 0.262859 0.721547 0.322565
Si Si5 0.376627 0.174116 0.035060
Si Si6 0.955584 0.723216 0.522201
Si Si7 0.365523 0.919379 0.998205
Si Si8 0.632042 0.842686 0.457604
O O1 0.175959 0.446627 0.639839
O O2 0.000000 0.500000 0.500000
O O3 0.039702 0.362696 0.439194
O O4 0.194023 0.458380 0.131625
O O5 0.732402 0.446273 0.228830
O O6 0.000000 0.500000 0.000000
O O7 0.420325 0.513616 0.305782
O O8 0.463372 0.411940 0.008250
O O9 0.313738 0.764420 0.524404
O O10 0.109261 0.747269 0.404705
O O11 0.283338 0.637265 0.385272
O O12 0.419165 0.259085 0.999722
O O13 0.304052 0.155906 0.325032
O O14 0.511279 0.126929 0.976859
O O15 0.299408 0.159708 0.839654
O O16 0.897935 0.743413 0.300632
#
# Coordination Sequence:
#
# PCOD9243265 Si02
#       8
#     4   4   2   4   4   4   4   4
#     4  10  20  37  63  89 128 176 214 265 324 398
#     4  10  22  38  61  91 129 172 215 265 330 396
#     4  10  24  40  64  94 138 168 226 276 328 390
#     4  10  23  35  57  90 131 168 207 270 337 394
#     4   9  20  35  62  84 126 161 213 262 325 385
#     4  10  20  37  59  96 128 168 221 272 332 390
#     4  11  24  40  64  98 134 172 226 274 332 404
#     4   9  19  38  57  90 121 170 206 264 330 385
#
# _framework density 28.635866
#
# number of rings (size 3 to 8) (size 9 to 14) (size 15 to 20)
#    0.000    2.133    0.000    2.400    5.600   10.667 
#    0.000    0.000    0.000    0.000   31.200    0.000 
#    0.000    0.000    0.000    0.000    0.000    0.000 
#
# Total GULP energy -167298.539429 kJ/mol
# GULP energy per Si atom -5576.617981 kJ/mol
# Density = 2.857069 g / cm^3
# Si number density = 28.635866 Si / 1000 Ang^3
#
#
#
# Elastic Constant Matrix: (Units=GPa)
#
#
# Indices 1 2 3 4 5 6 
#
# 1 109.8077 19.8324 74.2616 0.0000 11.1875 0.0000
# 2 19.8324 181.4307 96.6867 0.0000 18.6731 0.0000
# 3 74.2616 96.6867 277.8903 0.0000 43.4005 0.0000
# 4 0.0000 0.0000 0.0000 71.4518 0.0000 2.7199
# 5 11.1875 18.6731 43.4005 0.0000 61.4997 0.0000
# 6 0.0000 0.0000 0.0000 2.7199 0.0000 36.5375
#
#
#
# Elastic Compliance Matrix: (Units=1/GPa)
#
#
# Indices 1 2 3 4 5 6 
#
# 1 0.011146 0.000452 -0.003144 0.000000 0.000054 0.000000
# 2 0.000452 0.006795 -0.002416 0.000000 -0.000440 0.000000
# 3 -0.003144 -0.002416 0.005704 0.000000 -0.002720 0.000000
# 4 0.000000 0.000000 0.000000 0.014035 0.000000 -0.001045
# 5 0.000054 -0.000440 -0.002720 0.000000 0.018304 0.000000
# 6 0.000000 0.000000 0.000000 -0.001045 0.000000 0.027447
#
#
# Mechanical properties :
#
#
# Convention : Reuss Voigt Hill
#
# Bulk Modulus (GPa) = 74.47089 105.63227 90.05158
# Shear Modulus (GPa) = 50.95538 59.12099 55.03818
#
# Velocity S-wave (km/s) = 4.22290 4.54869 4.38882
# Velocity P-wave (km/s) = 7.05973 8.03465 7.56292
#
# Compressibility (1/GPa) = 0.01342807
#
# Stress axis : x y z
#
# Youngs Moduli (GPa) = 89.71720 147.15980 175.30777
#
# Poissons Ratio (x) = -0.06646 0.55120
# Poissons Ratio (y) = -0.04052 0.42358
# Poissons Ratio (z) = 0.28209 0.35557
#
# Static dielectric constant tensor:
#      x y z
#    x 2.492590 0.000000 -0.074800 
#    y 0.000000 2.248590 0.000000 
#    z -0.074800 0.000000 2.269390 
# 
# From -- ./inp_files/3784.got.cif
#   From: 2010.05.17/outbox.cif.g08.bks.cpg/sg14_2_cif.got.tgz:3784.got - 2010.06.03 17:49:19.
