data_PCOD9243036
_publ_section_title
;
Structure prediction by ZEFSAII (Michael W. Deem and Ramdas Pophale) SiO2 
 PCOD9243036
Probable space group: P 21/C
;
_chemical_formula_sum "Si O2"
_cell_formula_units_Z 26
_cell_length_a 19.613396
_cell_length_b 7.771067
_cell_length_c 14.825777
_cell_angle_alpha 90.000000
_cell_angle_beta 151.793892
_cell_angle_gamma 90.000000
_cell_volume 1068.035574
_symmetry_space_group_name_H-M "P 21/C"
_symmetry_group_IT_number 14
_symmetry_cell_setting 'monoclinic'
loop_
_space_group_symop_operation_xyz
x,y,z
-x,1/2+y,1/2-z
-x,-y,-z
x,1/2-y,1/2+z
loop_
_atom_site_type_symbol
_atom_site_label
_atom_site_fract_x
_atom_site_fract_y
_atom_site_fract_z
Si Si1 0.059685 0.843148 0.446738
Si Si2 0.093824 0.066175 0.306867
Si Si3 0.531273 0.467221 0.372969
Si Si4 0.500000 0.000000 0.500000
Si Si5 0.662561 0.390092 0.014017
Si Si6 0.283638 0.232765 0.155023
Si Si7 0.791369 0.590820 0.763308
O O1 0.047718 0.646928 0.401955
O O2 0.913996 0.884741 0.332475
O O3 0.070468 0.952580 0.367858
O O4 0.185710 0.907323 0.659650
O O5 0.190462 0.227634 0.457726
O O6 0.184230 0.959837 0.340036
O O7 0.449926 0.534921 0.191099
O O8 0.642203 0.314277 0.480216
O O9 0.409962 0.381013 0.295282
O O10 0.630318 0.608917 0.536570
O O11 0.378703 0.952392 0.435184
O O12 0.626846 0.936993 0.721052
O O13 0.189527 0.275485 0.133045
#
# Coordination Sequence:
#
# PCOD9243036 Si02
#       7
#     4   4   4   2   4   4   4
#     4  10  23  40  64  85 123 172 210 248 301 355
#     4  10  22  43  60  91 123 167 209 254 295 372
#     4  10  22  38  63  92 121 161 198 256 316 375
#     4  10  20  36  60  98 116 154 194 258 318 358
#     4  10  23  40  62  93 125 154 207 251 320 364
#     4   9  20  38  61  91 125 156 200 254 316 365
#     4  10  21  40  63  87 124 168 209 246 308 373
#
# _framework density 24.343758999999999
#
# number of rings (size 3 to 8) (size 9 to 14) (size 15 to 20)
#    0.000    2.154    0.000    1.385   10.769    0.000 
#   11.077    0.769    0.000    0.000    0.000    0.000 
#    0.000    0.000    0.000    0.000    0.000    0.000 
#
# Total GULP energy -144796.140606 kJ/mol
# GULP energy per Si atom -5569.082331 kJ/mol
# Density = 2.428835 g / cm^3
# Si number density = 24.343759 Si / 1000 Ang^3
#
#
#
# Elastic Constant Matrix: (Units=GPa)
#
#
# Indices 1 2 3 4 5 6 
#
# 1 106.0639 -8.8210 -5.6416 0.0000 -9.4693 0.0000
# 2 -8.8210 32.0106 6.2385 0.0000 -7.0290 0.0000
# 3 -5.6416 6.2385 45.7121 0.0000 14.9582 0.0000
# 4 0.0000 0.0000 0.0000 44.3804 0.0000 4.5649
# 5 -9.4693 -7.0290 14.9582 0.0000 17.5736 0.0000
# 6 0.0000 0.0000 0.0000 4.5649 0.0000 13.8577
#
#
#
# Elastic Compliance Matrix: (Units=1/GPa)
#
#
# Indices 1 2 3 4 5 6 
#
# 1 0.010708 0.005861 -0.002957 0.000000 0.010631 0.000000
# 2 0.005861 0.043743 -0.016640 0.000000 0.034818 0.000000
# 3 -0.002957 -0.016640 0.036704 0.000000 -0.039491 0.000000
# 4 0.000000 0.000000 0.000000 0.023323 0.000000 -0.007683
# 5 0.010631 0.034818 -0.039491 0.000000 0.110171 0.000000
# 6 0.000000 0.000000 0.000000 -0.007683 0.000000 0.074693
#
#
# Mechanical properties :
#
#
# Convention : Reuss Voigt Hill
#
# Bulk Modulus (GPa) = 15.70252 18.59315 17.14783
# Shear Modulus (GPa) = 14.36613 27.96306 21.16460
#
# Velocity S-wave (km/s) = 2.43191 3.39289 2.95177
# Velocity P-wave (km/s) = 3.78812 4.79617 4.32164
#
# Compressibility (1/GPa) = 0.06368405
#
# Stress axis : x y z
#
# Youngs Moduli (GPa) = 93.39174 22.86078 27.24475
#
# Poissons Ratio (x) = -0.13400 0.08057
# Poissons Ratio (y) = -0.54740 0.45334
# Poissons Ratio (z) = 0.27618 0.38039
#
# Static dielectric constant tensor:
#      x y z
#    x 1.884330 0.000000 0.002660 
#    y 0.000000 2.024430 0.000000 
#    z 0.002660 0.000000 1.947380 
# 
# From -- ./inp_files/46405.got.cif
#   From: 2010.05.17/outbox.cif.g08.bks.cpg/sg14_24_cif.got.tgz:46405.got - 2010.06.03 17:49:19.
