data_PCOD9243452
_publ_section_title
;
Structure prediction by ZEFSAII (Michael W. Deem and Ramdas Pophale) SiO2 
 PCOD9243452
Probable space group: P 21/C
;
_chemical_formula_sum "Si O2"
_cell_formula_units_Z 32
_cell_length_a 5.081228
_cell_length_b 8.871060
_cell_length_c 33.014335
_cell_angle_alpha 90.000000
_cell_angle_beta 72.507728
_cell_angle_gamma 90.000000
_cell_volume 1419.334370
_symmetry_space_group_name_H-M "P 21/C"
_symmetry_group_IT_number 14
_symmetry_cell_setting 'monoclinic'
loop_
_space_group_symop_operation_xyz
x,y,z
-x,1/2+y,1/2-z
-x,-y,-z
x,1/2-y,1/2+z
loop_
_atom_site_type_symbol
_atom_site_label
_atom_site_fract_x
_atom_site_fract_y
_atom_site_fract_z
Si Si1 0.773931 0.542881 0.772151
Si Si2 0.035263 0.037929 0.333029
Si Si3 0.474181 0.252760 0.283446
Si Si4 0.397670 0.935439 0.447281
Si Si5 0.623664 0.964278 0.147873
Si Si6 0.207296 0.811236 0.114631
Si Si7 0.380507 0.817890 0.359162
Si Si8 0.873310 0.133722 0.460767
O O1 0.715461 0.668813 0.741668
O O2 0.690279 0.375460 0.759893
O O3 0.597865 0.602182 0.819147
O O4 0.049664 0.516053 0.785349
O O5 0.095545 0.898178 0.358924
O O6 0.289060 0.154137 0.322458
O O7 0.801303 0.152093 0.359772
O O8 0.565120 0.391197 0.307552
O O9 0.433986 0.852111 0.403352
O O10 0.243325 0.837921 0.488939
O O11 0.681421 0.997408 0.452698
O O12 0.187028 0.075402 0.448936
O O13 0.483402 0.897911 0.114009
O O14 0.941669 0.913647 0.137903
O O15 0.613772 0.142402 0.149354
O O16 0.170038 0.764406 0.069772
#
# Coordination Sequence:
#
# PCOD9243452 Si02
#       8
#     4   4   4   4   4   4   4   4
#     4  11  22  41  64  84 127 163 212 267 314 384
#     4  10  22  39  64  86 120 166 215 261 318 376
#     4  10  23  39  57  91 117 163 211 258 320 369
#     4  10  21  36  64  97 127 157 218 265 315 376
#     4  11  25  40  62  92 130 169 210 260 317 385
#     4  11  21  42  64  89 127 169 212 254 322 379
#     4  11  24  40  61  95 122 168 214 265 318 383
#     4  10  20  37  65  96 123 166 209 268 313 381
#
# _framework density 22.545779
#
# number of rings (size 3 to 8) (size 9 to 14) (size 15 to 20)
#    0.000    1.500    2.500    2.250    3.500    3.000 
#    2.250    1.250    0.000    0.000    0.000    0.000 
#    0.000    0.000    0.000    0.000    0.000    0.000 
#
# Total GULP energy -178560.841432 kJ/mol
# GULP energy per Si atom -5580.026295 kJ/mol
# Density = 2.249446 g / cm^3
# Si number density = 22.545779 Si / 1000 Ang^3
#
#
#
# Elastic Constant Matrix: (Units=GPa)
#
#
# Indices 1 2 3 4 5 6 
#
# 1 58.2629 8.8785 5.9102 0.0000 18.3936 0.0000
# 2 8.8785 126.2035 46.5123 0.0000 12.9476 0.0000
# 3 5.9102 46.5123 103.7446 0.0000 15.3145 0.0000
# 4 0.0000 0.0000 0.0000 27.5944 0.0000 9.2978
# 5 18.3936 12.9476 15.3145 0.0000 32.6679 0.0000
# 6 0.0000 0.0000 0.0000 9.2978 0.0000 18.1963
#
#
#
# Elastic Compliance Matrix: (Units=1/GPa)
#
#
# Indices 1 2 3 4 5 6 
#
# 1 0.020938 -0.000548 0.000818 0.000000 -0.011956 0.000000
# 2 -0.000548 0.009617 -0.004043 0.000000 -0.001608 0.000000
# 3 0.000818 -0.004043 0.012072 0.000000 -0.004517 0.000000
# 4 0.000000 0.000000 0.000000 0.043776 0.000000 -0.022368
# 5 -0.011956 -0.001608 -0.004517 0.000000 0.040097 0.000000
# 6 0.000000 0.000000 0.000000 -0.022368 0.000000 0.066386
#
#
# Mechanical properties :
#
#
# Convention : Reuss Voigt Hill
#
# Bulk Modulus (GPa) = 28.50551 45.64589 37.07570
# Shear Modulus (GPa) = 23.57067 30.81904 27.19486
#
# Velocity S-wave (km/s) = 3.23686 3.70124 3.47682
# Velocity P-wave (km/s) = 5.16145 6.20930 5.70947
#
# Compressibility (1/GPa) = 0.03508094
#
# Stress axis : x y z
#
# Youngs Moduli (GPa) = 47.75897 103.97896 82.83630
#
# Poissons Ratio (x) = 0.05696 -0.06773
# Poissons Ratio (y) = 0.02616 0.33493
# Poissons Ratio (z) = -0.03905 0.42041
#
# Static dielectric constant tensor:
#      x y z
#    x 2.152240 0.000000 0.020090 
#    y 0.000000 1.828270 0.000000 
#    z 0.020090 0.000000 1.892510 
# 
# From -- ./inp_files/78830.got.cif
#   From: 2010.05.17/outbox.cif.g08.bks.cpg/sg14_40_cif.got.tgz:78830.got - 2010.06.03 17:49:19.
