data_PCOD9243173
_publ_section_title
;
Structure prediction by ZEFSAII (Michael W. Deem and Ramdas Pophale) SiO2 
 PCOD9243173
Probable space group: P 21/C
;
_chemical_formula_sum "Si O2"
_cell_formula_units_Z 30
_cell_length_a 5.477637
_cell_length_b 15.347359
_cell_length_c 18.737792
_cell_angle_alpha 90.000000
_cell_angle_beta 127.193417
_cell_angle_gamma 90.000000
_cell_volume 1254.831110
_symmetry_space_group_name_H-M "P 21/C"
_symmetry_group_IT_number 14
_symmetry_cell_setting 'monoclinic'
loop_
_space_group_symop_operation_xyz
x,y,z
-x,1/2+y,1/2-z
-x,-y,-z
x,1/2-y,1/2+z
loop_
_atom_site_type_symbol
_atom_site_label
_atom_site_fract_x
_atom_site_fract_y
_atom_site_fract_z
Si Si1 0.725000 0.239571 0.143503
Si Si2 0.619016 0.346602 0.322394
Si Si3 0.827699 0.612100 0.182699
Si Si4 0.350557 0.412150 0.623835
Si Si5 0.500000 0.500000 0.500000
Si Si6 0.058560 0.586645 0.755739
Si Si7 0.257288 0.655694 0.495949
Si Si8 0.321545 0.650961 0.181817
O O1 0.982579 0.178318 0.230227
O O2 0.416634 0.186624 0.108496
O O3 0.740562 0.338690 0.169329
O O4 0.781656 0.229193 0.069201
O O5 0.817130 0.404369 0.303586
O O6 0.769714 0.329187 0.426105
O O7 0.602128 0.250390 0.285902
O O8 0.283432 0.383802 0.281053
O O9 0.964634 0.635635 0.130312
O O10 0.889776 0.512167 0.211466
O O11 0.475259 0.631455 0.134171
O O12 0.475087 0.473681 0.583801
O O13 0.513134 0.410869 0.729603
O O14 0.984263 0.422732 0.567964
O O15 0.562365 0.602382 0.531830
#
# Coordination Sequence:
#
# PCOD9243173 Si02
#       8
#     4   4   4   4   2   4   4   4
#     4  10  22  43  60  87 129 166 210 256 324 376
#     4  12  25  39  63  97 130 166 215 265 309 389
#     4  11  22  39  67  88 120 165 212 260 315 367
#     4  10  20  37  56  81 124 172 193 250 316 388
#     4  10  24  34  52  92 126 164 200 254 316 400
#     4  12  25  42  66  96 123 169 221 259 314 392
#     4  11  24  35  61  87 132 167 206 257 329 385
#     4  11  21  43  61  86 129 168 207 262 313 368
#
# _framework density 23.907601
#
# number of rings (size 3 to 8) (size 9 to 14) (size 15 to 20)
#    0.000    1.067    5.333    1.200   11.200    0.000 
#    0.000    0.000    0.000    1.600    0.000    0.000 
#    0.000    0.000    0.000    0.000    0.000    0.000 
#
# Total GULP energy -167042.251216 kJ/mol
# GULP energy per Si atom -5568.075041 kJ/mol
# Density = 2.385319 g / cm^3
# Si number density = 23.907601 Si / 1000 Ang^3
#
#
#
# Elastic Constant Matrix: (Units=GPa)
#
#
# Indices 1 2 3 4 5 6 
#
# 1 148.7872 28.5704 2.9360 0.0000 -17.3495 0.0000
# 2 28.5704 125.7214 -1.0640 0.0000 -4.6190 0.0000
# 3 2.9360 -1.0640 19.4577 0.0000 -14.5336 0.0000
# 4 0.0000 0.0000 0.0000 25.0792 0.0000 -9.0376
# 5 -17.3495 -4.6190 -14.5336 0.0000 26.5168 0.0000
# 6 0.0000 0.0000 0.0000 -9.0376 0.0000 34.3183
#
#
#
# Elastic Compliance Matrix: (Units=1/GPa)
#
#
# Indices 1 2 3 4 5 6 
#
# 1 0.007739 -0.001469 0.003967 0.000000 0.006982 0.000000
# 2 -0.001469 0.008357 0.001775 0.000000 0.001467 0.000000
# 3 0.003967 0.001775 0.089842 0.000000 0.052146 0.000000
# 4 0.000000 0.000000 0.000000 0.044054 0.000000 0.011602
# 5 0.006982 0.001467 0.052146 0.000000 0.071117 0.000000
# 6 0.000000 0.000000 0.000000 0.011602 0.000000 0.032194
#
#
# Mechanical properties :
#
#
# Convention : Reuss Voigt Hill
#
# Bulk Modulus (GPa) = 8.73491 39.42791 24.08141
# Shear Modulus (GPa) = 17.67301 34.75112 26.21207
#
# Velocity S-wave (km/s) = 2.72181 3.81669 3.31477
# Velocity P-wave (km/s) = 3.67957 5.99587 4.97442
#
# Compressibility (1/GPa) = 0.11448321
#
# Stress axis : x y z
#
# Youngs Moduli (GPa) = 129.21796 119.66351 11.13071
#
# Poissons Ratio (x) = 0.17574 -0.04416
# Poissons Ratio (y) = 0.18977 -0.01975
# Poissons Ratio (z) = -0.51260 -0.21236
#
# Static dielectric constant tensor:
#      x y z
#    x 5.267280 0.000000 1.619940 
#    y 0.000000 2.596280 0.000000 
#    z 1.619940 0.000000 2.754440 
# 
# From -- ./inp_files/60738.got.cif
#   From: 2010.05.17/outbox.cif.g08.bks.cpg/sg14_31_cif.got.tgz:60738.got - 2010.06.03 17:49:19.
