data_PCOD9243852
_publ_section_title
;
Structure prediction by ZEFSAII (Michael W. Deem and Ramdas Pophale) SiO2 
 PCOD9243852
Probable space group: P 21/C
;
_chemical_formula_sum "Si O2"
_cell_formula_units_Z 22
_cell_length_a 7.738687
_cell_length_b 17.172679
_cell_length_c 10.341973
_cell_angle_alpha 90.000000
_cell_angle_beta 132.644261
_cell_angle_gamma 90.000000
_cell_volume 1010.962605
_symmetry_space_group_name_H-M "P 21/C"
_symmetry_group_IT_number 14
_symmetry_cell_setting 'monoclinic'
loop_
_space_group_symop_operation_xyz
x,y,z
-x,1/2+y,1/2-z
-x,-y,-z
x,1/2-y,1/2+z
loop_
_atom_site_type_symbol
_atom_site_label
_atom_site_fract_x
_atom_site_fract_y
_atom_site_fract_z
Si Si1 0.109258 0.968835 0.187601
Si Si2 0.332890 0.431634 0.363850
Si Si3 0.686108 0.207467 0.996261
Si Si4 0.000000 0.500000 0.000000
Si Si5 0.908552 0.882145 0.661636
Si Si6 0.425538 0.821523 0.340706
O O1 0.309983 0.906321 0.266251
O O2 0.898339 0.929673 0.163025
O O3 0.195603 0.042284 0.315874
O O4 0.000000 0.000000 0.000000
O O5 0.500000 0.500000 0.500000
O O6 0.476900 0.352064 0.428994
O O7 0.231506 0.455159 0.173321
O O8 0.673778 0.282022 0.080899
O O9 0.925631 0.162806 0.153914
O O10 0.650752 0.224115 0.827031
O O11 0.944118 0.423856 0.876640
O O12 0.703233 0.828662 0.502815
#
# Coordination Sequence:
#
# PCOD9243852 Si02
#       6
#     4   4   4   2   4   4
#     4  11  23  44  74 103 136 184 250 298 349 425
#     4  11  21  43  70 102 132 184 233 297 349 428
#     4  12  27  47  68 104 151 190 237 298 371 438
#     4  10  20  38  74  98 124 174 242 288 348 412
#     4  11  24  44  73 102 137 186 241 299 357 430
#     4  12  28  46  70 106 150 191 238 304 370 437
#
# _framework density 21.761437000000001
#
# number of rings (size 3 to 8) (size 9 to 14) (size 15 to 20)
#    0.000    0.727    7.273    0.545    2.545    5.818 
#    0.000    0.000    0.000    0.000    0.000    0.000 
#    0.000    0.000    0.000    0.000    0.000    0.000 
#
# Total GULP energy -122476.915022 kJ/mol
# GULP energy per Si atom -5567.132501 kJ/mol
# Density = 2.171191 g / cm^3
# Si number density = 21.761437 Si / 1000 Ang^3
#
#
#
# Elastic Constant Matrix: (Units=GPa)
#
#
# Indices 1 2 3 4 5 6 
#
# 1 50.0404 -0.2121 18.2827 0.0000 0.9435 0.0000
# 2 -0.2121 46.5052 28.1928 0.0000 -3.2082 0.0000
# 3 18.2827 28.1928 163.9385 0.0000 -4.9700 0.0000
# 4 0.0000 0.0000 0.0000 19.9649 0.0000 -8.1188
# 5 0.9435 -3.2082 -4.9700 0.0000 19.7814 0.0000
# 6 0.0000 0.0000 0.0000 -8.1188 0.0000 35.4509
#
#
#
# Elastic Compliance Matrix: (Units=1/GPa)
#
#
# Indices 1 2 3 4 5 6 
#
# 1 0.020989 0.001612 -0.002661 0.000000 -0.001408 0.000000
# 2 0.001612 0.024293 -0.004273 0.000000 0.002789 0.000000
# 3 -0.002661 -0.004273 0.007169 0.000000 0.001235 0.000000
# 4 0.000000 0.000000 0.000000 0.055232 0.000000 0.012649
# 5 -0.001408 0.002789 0.001235 0.000000 0.051382 0.000000
# 6 0.000000 0.000000 0.000000 0.012649 0.000000 0.031105
#
#
# Mechanical properties :
#
#
# Convention : Reuss Voigt Hill
#
# Bulk Modulus (GPa) = 23.91927 39.22342 31.57134
# Shear Modulus (GPa) = 23.28291 29.32082 26.30186
#
# Velocity S-wave (km/s) = 3.27451 3.67464 3.48033
# Velocity P-wave (km/s) = 5.03110 6.00561 5.53983
#
# Compressibility (1/GPa) = 0.04180730
#
# Stress axis : x y z
#
# Youngs Moduli (GPa) = 47.64335 41.16398 139.49306
#
# Poissons Ratio (x) = -0.06634 0.37113
# Poissons Ratio (y) = -0.07678 0.59604
# Poissons Ratio (z) = 0.12676 0.17589
#
# Static dielectric constant tensor:
#      x y z
#    x 1.855420 0.000000 -0.039720 
#    y 0.000000 1.802660 0.000000 
#    z -0.039720 0.000000 1.794440 
# 
# From -- ./inp_files/25944.got.cif
#   From: 2010.05.17/outbox.cif.g08.bks.cpg/sg14_13_cif.got.tgz:25944.got - 2010.06.03 17:49:19.
