data_PCOD9243161
_publ_section_title
;
Structure prediction by ZEFSAII (Michael W. Deem and Ramdas Pophale) SiO2 
 PCOD9243161
Probable space group: P 21/C
;
_chemical_formula_sum "Si O2"
_cell_formula_units_Z 26
_cell_length_a 8.535344
_cell_length_b 11.505440
_cell_length_c 13.595943
_cell_angle_alpha 90.000000
_cell_angle_beta 60.073415
_cell_angle_gamma 90.000000
_cell_volume 1157.137676
_symmetry_space_group_name_H-M "P 21/C"
_symmetry_group_IT_number 14
_symmetry_cell_setting 'monoclinic'
loop_
_space_group_symop_operation_xyz
x,y,z
-x,1/2+y,1/2-z
-x,-y,-z
x,1/2-y,1/2+z
loop_
_atom_site_type_symbol
_atom_site_label
_atom_site_fract_x
_atom_site_fract_y
_atom_site_fract_z
Si Si1 0.318050 0.438455 0.161970
Si Si2 0.942591 0.965677 0.785410
Si Si3 0.420369 0.141390 0.418169
Si Si4 0.389508 0.583599 0.399040
Si Si5 0.367085 0.630787 0.636548
Si Si6 0.272087 0.213268 0.279137
Si Si7 0.000000 0.000000 0.000000
O O1 0.490605 0.516673 0.133804
O O2 0.250569 0.349559 0.266872
O O3 0.150518 0.521730 0.191953
O O4 0.362473 0.366114 0.049904
O O5 0.851103 0.858057 0.757957
O O6 0.831828 0.079698 0.781801
O O7 0.926937 0.964693 0.908912
O O8 0.572362 0.240306 0.358266
O O9 0.255710 0.175523 0.397604
O O10 0.389749 0.618317 0.512733
O O11 0.492116 0.459928 0.360140
O O12 0.521726 0.676758 0.308147
O O13 0.188128 0.572738 0.422915
#
# Coordination Sequence:
#
# PCOD9243161 Si02
#       7
#     4   4   4   4   4   4   2
#     4  11  26  45  65 101 137 180 226 277 351 415
#     4  10  24  40  66 101 132 168 235 281 333 399
#     4  11  25  43  69  92 141 182 221 276 353 410
#     4   9  18  38  63  97 126 165 229 276 330 383
#     4   9  19  39  66  92 126 172 218 281 329 394
#     4  11  24  42  68  92 134 182 222 281 335 411
#     4  10  20  36  70 100 124 158 224 296 316 390
#
# _framework density 22.469237
#
# number of rings (size 3 to 8) (size 9 to 14) (size 15 to 20)
#    0.000    1.846    1.538    1.846    8.615    0.615 
#    0.000    0.000    0.000    0.000    0.000    0.000 
#    0.000    0.000    0.000    0.000    0.000    0.000 
#
# Total GULP energy -144776.164170 kJ/mol
# GULP energy per Si atom -5568.314007 kJ/mol
# Density = 2.241810 g / cm^3
# Si number density = 22.469237 Si / 1000 Ang^3
#
#
#
# Elastic Constant Matrix: (Units=GPa)
#
#
# Indices 1 2 3 4 5 6 
#
# 1 129.1980 32.0219 17.8907 0.0000 26.2916 0.0000
# 2 32.0219 78.7867 9.6853 0.0000 24.6445 0.0000
# 3 17.8907 9.6853 20.9010 0.0000 19.9990 0.0000
# 4 0.0000 0.0000 0.0000 20.8484 0.0000 0.5709
# 5 26.2916 24.6445 19.9990 0.0000 44.5907 0.0000
# 6 0.0000 0.0000 0.0000 0.5709 0.0000 23.3694
#
#
#
# Elastic Compliance Matrix: (Units=1/GPa)
#
#
# Indices 1 2 3 4 5 6 
#
# 1 0.009480 -0.002652 -0.005150 0.000000 -0.001814 0.000000
# 2 -0.002652 0.016125 0.003204 0.000000 -0.008785 0.000000
# 3 -0.005150 0.003204 0.086812 0.000000 -0.037670 0.000000
# 4 0.000000 0.000000 0.000000 0.047997 0.000000 -0.001172
# 5 -0.001814 -0.008785 -0.037670 0.000000 0.045246 0.000000
# 6 0.000000 0.000000 0.000000 -0.001172 0.000000 0.042820
#
#
# Mechanical properties :
#
#
# Convention : Reuss Voigt Hill
#
# Bulk Modulus (GPa) = 9.68797 38.67571 24.18184
# Shear Modulus (GPa) = 17.11846 29.04754 23.08300
#
# Velocity S-wave (km/s) = 2.76318 3.59941 3.20865
# Velocity P-wave (km/s) = 3.80805 5.87575 4.95104
#
# Compressibility (1/GPa) = 0.10322075
#
# Stress axis : x y z
#
# Youngs Moduli (GPa) = 105.48863 62.01704 11.51911
#
# Poissons Ratio (x) = 0.16450 0.05932
# Poissons Ratio (y) = 0.27981 -0.03691
# Poissons Ratio (z) = 0.54324 -0.19872
#
# Static dielectric constant tensor:
#      x y z
#    x 1.783900 0.000000 0.019510 
#    y 0.000000 1.833940 0.000000 
#    z 0.019510 0.000000 1.874240 
# 
# From -- ./inp_files/39926.got.cif
#   From: 2010.05.17/outbox.cif.g08.bks.cpg/sg14_20_cif.got.tgz:39926.got - 2010.06.03 17:49:19.
