data_PCOD9243966
_publ_section_title
;
Structure prediction by ZEFSAII (Michael W. Deem and Ramdas Pophale) SiO2 
 PCOD9243966
Probable space group: P 21/C
;
_chemical_formula_sum "Si O2"
_cell_formula_units_Z 32
_cell_length_a 15.671638
_cell_length_b 9.280058
_cell_length_c 15.262653
_cell_angle_alpha 90.000000
_cell_angle_beta 141.682336
_cell_angle_gamma 90.000000
_cell_volume 1376.263123
_symmetry_space_group_name_H-M "P 21/C"
_symmetry_group_IT_number 14
_symmetry_cell_setting 'monoclinic'
loop_
_space_group_symop_operation_xyz
x,y,z
-x,1/2+y,1/2-z
-x,-y,-z
x,1/2-y,1/2+z
loop_
_atom_site_type_symbol
_atom_site_label
_atom_site_fract_x
_atom_site_fract_y
_atom_site_fract_z
Si Si1 0.273975 0.545174 0.355007
Si Si2 0.329977 0.265110 0.859426
Si Si3 0.444785 0.757879 0.091870
Si Si4 0.983235 0.925317 0.250274
Si Si5 0.486410 0.163343 0.660318
Si Si6 0.733407 0.433408 0.965876
Si Si7 0.772532 0.237131 0.833604
Si Si8 0.971389 0.867501 0.854662
O O1 0.296638 0.402617 0.314534
O O2 0.408056 0.588395 0.519295
O O3 0.234530 0.682369 0.264135
O O4 0.153126 0.496650 0.321730
O O5 0.446667 0.314312 0.885538
O O6 0.187613 0.353367 0.744100
O O7 0.398031 0.267424 0.010883
O O8 0.498750 0.757049 0.234566
O O9 0.293267 0.689413 0.982627
O O10 0.993808 0.976371 0.158316
O O11 0.119607 0.002186 0.398828
O O12 0.987594 0.762614 0.293938
O O13 0.638952 0.137674 0.744235
O O14 0.395974 0.030274 0.618217
O O15 0.742068 0.365394 0.878187
O O16 0.916525 0.169347 0.980246
#
# Coordination Sequence:
#
# PCOD9243966 Si02
#       8
#     4   4   4   4   4   4   4   4
#     4  11  22  38  66  93 123 160 217 265 308 364
#     4  11  23  40  66  94 125 160 216 263 307 375
#     4  11  24  39  64  94 124 168 208 259 320 366
#     4  10  20  39  63  88 126 167 206 257 316 374
#     4  11  22  39  62  91 125 164 205 259 310 375
#     4  10  22  39  62  88 126 166 205 249 324 376
#     4  10  22  40  62  92 125 164 210 266 311 367
#     4  10  22  42  62  93 127 166 209 265 316 375
#
# _framework density 23.251366999999998
#
# number of rings (size 3 to 8) (size 9 to 14) (size 15 to 20)
#    0.000    1.500    2.500    3.375    3.500    6.000 
#    0.000    0.000    0.000    3.750    0.000    0.000 
#    0.000    0.000    0.000    0.000    0.000    0.000 
#
# Total GULP energy -178489.423359 kJ/mol
# GULP energy per Si atom -5577.794480 kJ/mol
# Density = 2.319845 g / cm^3
# Si number density = 23.251367 Si / 1000 Ang^3
#
#
#
# Elastic Constant Matrix: (Units=GPa)
#
#
# Indices 1 2 3 4 5 6 
#
# 1 95.3667 -0.7250 30.8066 0.0000 13.4764 0.0000
# 2 -0.7250 23.2943 7.8800 0.0000 -3.7406 0.0000
# 3 30.8066 7.8800 84.9108 0.0000 0.5968 0.0000
# 4 0.0000 0.0000 0.0000 21.4737 0.0000 -4.6529
# 5 13.4764 -3.7406 0.5968 0.0000 47.1789 0.0000
# 6 0.0000 0.0000 0.0000 -4.6529 0.0000 14.0157
#
#
#
# Elastic Compliance Matrix: (Units=1/GPa)
#
#
# Indices 1 2 3 4 5 6 
#
# 1 0.012472 0.001410 -0.004632 0.000000 -0.003392 0.000000
# 2 0.001410 0.045088 -0.004719 0.000000 0.003232 0.000000
# 3 -0.004632 -0.004719 0.013890 0.000000 0.000773 0.000000
# 4 0.000000 0.000000 0.000000 0.050178 0.000000 0.016658
# 5 -0.003392 0.003232 0.000773 0.000000 0.022411 0.000000
# 6 0.000000 0.000000 0.000000 0.016658 0.000000 0.076878
#
#
# Mechanical properties :
#
#
# Convention : Reuss Voigt Hill
#
# Bulk Modulus (GPa) = 17.99549 31.05500 24.52524
# Shear Modulus (GPa) = 19.58310 27.57436 23.57873
#
# Velocity S-wave (km/s) = 2.90528 3.44746 3.18792
# Velocity P-wave (km/s) = 4.36010 5.40665 4.91133
#
# Compressibility (1/GPa) = 0.05556947
#
# Stress axis : x y z
#
# Youngs Moduli (GPa) = 80.17800 22.17886 71.99361
#
# Poissons Ratio (x) = -0.03128 0.33348
# Poissons Ratio (y) = -0.11308 0.33972
# Poissons Ratio (z) = 0.37139 0.10466
#
# Static dielectric constant tensor:
#      x y z
#    x 1.844670 0.000000 -0.030440 
#    y 0.000000 2.386920 0.000000 
#    z -0.030440 0.000000 1.922360 
# 
# From -- ./inp_files/47166.got.cif
#   From: 2010.05.17/outbox.cif.g08.bks.cpg/sg14_24_cif.got.tgz:47166.got - 2010.06.03 17:49:19.
