data_PCOD9243940
_publ_section_title
;
Structure prediction by ZEFSAII (Michael W. Deem and Ramdas Pophale) SiO2 
 PCOD9243940
Probable space group: P 21/C
;
_chemical_formula_sum "Si O2"
_cell_formula_units_Z 32
_cell_length_a 11.606753
_cell_length_b 16.218675
_cell_length_c 17.418348
_cell_angle_alpha 90.000000
_cell_angle_beta 33.519189
_cell_angle_gamma 90.000000
_cell_volume 1810.682253
_symmetry_space_group_name_H-M "P 21/C"
_symmetry_group_IT_number 14
_symmetry_cell_setting 'monoclinic'
loop_
_space_group_symop_operation_xyz
x,y,z
-x,1/2+y,1/2-z
-x,-y,-z
x,1/2-y,1/2+z
loop_
_atom_site_type_symbol
_atom_site_label
_atom_site_fract_x
_atom_site_fract_y
_atom_site_fract_z
Si Si1 0.729805 0.816722 0.444869
Si Si2 0.959535 0.778355 0.594880
Si Si3 0.540466 0.778355 0.905119
Si Si4 0.113908 0.861725 0.127748
Si Si5 0.613907 0.138275 0.627749
Si Si6 0.229804 0.316721 0.444870
Si Si7 0.008140 0.518142 0.404464
Si Si8 0.491861 0.981859 0.595536
O O1 0.607999 0.770637 0.443602
O O2 0.750000 0.750000 0.500000
O O3 0.602883 0.894929 0.545630
O O4 0.947934 0.851043 0.288914
O O5 0.041904 0.708663 0.607695
O O6 0.149770 0.841585 0.478675
O O7 0.750001 0.815180 0.750000
O O8 0.892001 0.729364 0.556398
O O9 0.458098 0.708664 0.892303
O O10 0.350231 0.841585 0.021324
O O11 0.089989 0.946994 0.094614
O O12 0.447933 0.148957 0.788914
O O13 0.589989 0.053006 0.594614
O O14 0.102881 0.394929 0.545631
O O15 0.250001 0.522473 0.250000
O O16 0.000000 0.500000 0.500000
O O17 0.500000 0.000000 0.500000
#
# Coordination Sequence:
#
# PCOD9243940 Si02
#       8
#     4   4   4   4   4   4   4   4
#     4  11  24  38  61  96 125 162 209 257 312 372
#     4   9  19  37  62  86 121 163 202 251 315 364
#     4   9  19  37  62  86 121 163 202 251 315 364
#     4  10  20  39  62  90 124 158 210 259 302 369
#     4  10  20  39  62  90 124 158 210 259 302 369
#     4  11  24  38  61  96 125 162 209 257 312 372
#     4  12  22  39  65  92 124 160 213 261 302 365
#     4  12  22  39  65  92 124 160 213 261 302 365
#
# _framework density 17.672895
#
# number of rings (size 3 to 8) (size 9 to 14) (size 15 to 20)
#    0.000    1.500    5.000    0.750    3.500    2.000 
#    0.000    1.250    0.000    0.000    0.000    0.000 
#    0.000    0.000    0.000    0.000    0.000    0.000 
#
# Total GULP energy -178536.687335 kJ/mol
# GULP energy per Si atom -5579.271479 kJ/mol
# Density = 1.763267 g / cm^3
# Si number density = 17.672895 Si / 1000 Ang^3
#
#
#
# Elastic Constant Matrix: (Units=GPa)
#
#
# Indices 1 2 3 4 5 6 
#
# 1 45.0360 33.0143 56.0096 0.0000 -11.9613 0.0000
# 2 33.0143 118.2940 72.1880 0.0000 -11.8107 0.0000
# 3 56.0096 72.1880 150.5427 0.0000 -19.4359 0.0000
# 4 0.0000 0.0000 0.0000 30.2559 0.0000 -6.2019
# 5 -11.9613 -11.8107 -19.4359 0.0000 34.9448 0.0000
# 6 0.0000 0.0000 0.0000 -6.2019 0.0000 35.9902
#
#
#
# Elastic Compliance Matrix: (Units=1/GPa)
#
#
# Indices 1 2 3 4 5 6 
#
# 1 0.043279 -0.003003 -0.013877 0.000000 0.006081 0.000000
# 2 -0.003003 0.012186 -0.004662 0.000000 0.000498 0.000000
# 3 -0.013877 -0.004662 0.014247 0.000000 0.001599 0.000000
# 4 0.000000 0.000000 0.000000 0.034262 0.000000 0.005904
# 5 0.006081 0.000498 0.001599 0.000000 0.031755 0.000000
# 6 0.000000 0.000000 0.000000 0.005904 0.000000 0.028803
#
#
# Mechanical properties :
#
#
# Convention : Reuss Voigt Hill
#
# Bulk Modulus (GPa) = 37.55330 70.69960 54.12645
# Shear Modulus (GPa) = 23.09541 30.41557 26.75549
#
# Velocity S-wave (km/s) = 3.61893 4.15303 3.89514
# Velocity P-wave (km/s) = 6.22554 7.94281 7.13602
#
# Compressibility (1/GPa) = 0.02662882
#
# Stress axis : x y z
#
# Youngs Moduli (GPa) = 23.10572 82.05948 70.18811
#
# Poissons Ratio (x) = 0.24645 0.97400
# Poissons Ratio (y) = 0.06939 0.32721
# Poissons Ratio (z) = 0.32064 0.38255
#
# Static dielectric constant tensor:
#      x y z
#    x 1.644680 0.000000 0.023320 
#    y 0.000000 1.612330 0.000000 
#    z 0.023320 0.000000 1.636990 
# 
# From -- ./inp_files/26288.got.cif
#   From: 2010.05.17/outbox.cif.g08.bks.cpg/sg14_14_cif.got.tgz:26288.got - 2010.06.03 17:49:19.
