data_PCOD9243895
_publ_section_title
;
Structure prediction by ZEFSAII (Michael W. Deem and Ramdas Pophale) SiO2 
 PCOD9243895
Probable space group: P 21/C
;
_chemical_formula_sum "Si O2"
_cell_formula_units_Z 28
_cell_length_a 13.803301
_cell_length_b 9.642848
_cell_length_c 18.603769
_cell_angle_alpha 90.000000
_cell_angle_beta 32.375994
_cell_angle_gamma 90.000000
_cell_volume 1325.948895
_symmetry_space_group_name_H-M "P 21/C"
_symmetry_group_IT_number 14
_symmetry_cell_setting 'monoclinic'
loop_
_space_group_symop_operation_xyz
x,y,z
-x,1/2+y,1/2-z
-x,-y,-z
x,1/2-y,1/2+z
loop_
_atom_site_type_symbol
_atom_site_label
_atom_site_fract_x
_atom_site_fract_y
_atom_site_fract_z
Si Si1 0.202758 0.284370 0.999230
Si Si2 0.748205 0.631217 0.191153
Si Si3 0.888573 0.222824 0.463666
Si Si4 0.606481 0.559815 0.782959
Si Si5 0.557207 0.118907 0.763443
Si Si6 0.232463 0.977087 0.583440
Si Si7 0.943668 0.023656 0.151223
O O1 0.205702 0.368202 0.922724
O O2 0.402394 0.221362 0.888063
O O3 0.152377 0.386385 0.094860
O O4 0.068534 0.157496 0.070403
O O5 0.640530 0.774695 0.270638
O O6 0.630385 0.493107 0.274336
O O7 0.931680 0.644559 0.120641
O O8 0.726457 0.197943 0.621639
O O9 0.939482 0.383288 0.423903
O O10 0.830691 0.153809 0.424762
O O11 0.537447 0.540739 0.745025
O O12 0.795409 0.486676 0.681180
O O13 0.447879 0.515702 0.935991
O O14 0.167807 0.971420 0.704818
#
# Coordination Sequence:
#
# PCOD9243895 Si02
#       7
#     4   4   4   4   4   4   4
#     4  11  24  36  61  92 116 156 200 238 308 347
#     4  10  20  39  60  95 118 144 202 247 303 350
#     4  10  22  38  66  85 121 157 192 250 301 341
#     4   9  21  38  63  86 117 157 195 241 300 339
#     4  10  21  36  62  87 121 147 191 255 298 347
#     4  11  22  43  59  86 122 164 197 240 287 357
#     4  11  24  40  61  87 123 158 204 236 287 361
#
# _framework density 21.116952999999999
#
# number of rings (size 3 to 8) (size 9 to 14) (size 15 to 20)
#    0.000    1.714    2.857    1.714    6.000    6.286 
#    0.000    0.000    0.000    2.571    0.000    0.000 
#    0.000    0.000    0.000    0.000    0.000    0.000 
#
# Total GULP energy -156649.056917 kJ/mol
# GULP energy per Si atom -5594.609176 kJ/mol
# Density = 2.106889 g / cm^3
# Si number density = 21.116953 Si / 1000 Ang^3
#
#
#
# Elastic Constant Matrix: (Units=GPa)
#
#
# Indices 1 2 3 4 5 6 
#
# 1 51.2280 21.9807 15.7390 0.0000 -16.2871 0.0000
# 2 21.9807 77.2093 25.5225 0.0000 -13.7230 0.0000
# 3 15.7390 25.5225 58.3867 0.0000 -14.3247 0.0000
# 4 0.0000 0.0000 0.0000 30.5382 0.0000 -11.3270
# 5 -16.2871 -13.7230 -14.3247 0.0000 32.0854 0.0000
# 6 0.0000 0.0000 0.0000 -11.3270 0.0000 22.9382
#
#
#
# Elastic Compliance Matrix: (Units=1/GPa)
#
#
# Indices 1 2 3 4 5 6 
#
# 1 0.025388 -0.004695 -0.002383 0.000000 0.009815 0.000000
# 2 -0.004695 0.016468 -0.005379 0.000000 0.002259 0.000000
# 3 -0.002383 -0.005379 0.021629 0.000000 0.006146 0.000000
# 4 0.000000 0.000000 0.000000 0.040089 0.000000 0.019796
# 5 0.009815 0.002259 0.006146 0.000000 0.039859 0.000000
# 6 0.000000 0.000000 0.000000 0.019796 0.000000 0.053371
#
#
# Mechanical properties :
#
#
# Convention : Reuss Voigt Hill
#
# Bulk Modulus (GPa) = 25.92684 34.81203 30.36944
# Shear Modulus (GPa) = 21.31517 25.35114 23.33315
#
# Velocity S-wave (km/s) = 3.18053 3.46860 3.32768
# Velocity P-wave (km/s) = 5.07859 5.70637 5.40161
#
# Compressibility (1/GPa) = 0.03857007
#
# Stress axis : x y z
#
# Youngs Moduli (GPa) = 39.38859 60.72387 46.23488
#
# Poissons Ratio (x) = 0.28512 0.11018
# Poissons Ratio (y) = 0.18495 0.24869
# Poissons Ratio (z) = 0.09387 0.32662
#
# Static dielectric constant tensor:
#      x y z
#    x 1.746770 0.000000 -0.030950 
#    y 0.000000 1.775990 0.000000 
#    z -0.030950 0.000000 1.752560 
# 
# From -- ./inp_files/43489.got.cif
#   From: 2010.05.17/outbox.cif.g08.bks.cpg/sg14_22_cif.got.tgz:43489.got - 2010.06.03 17:49:19.
