data_PCOD9243866
_publ_section_title
;
Structure prediction by ZEFSAII (Michael W. Deem and Ramdas Pophale) SiO2 
 PCOD9243866
Probable space group: P 21/C
;
_chemical_formula_sum "Si O2"
_cell_formula_units_Z 28
_cell_length_a 14.146339
_cell_length_b 7.636383
_cell_length_c 19.795268
_cell_angle_alpha 90.000000
_cell_angle_beta 148.938501
_cell_angle_gamma 90.000000
_cell_volume 1103.334897
_symmetry_space_group_name_H-M "P 21/C"
_symmetry_group_IT_number 14
_symmetry_cell_setting 'monoclinic'
loop_
_space_group_symop_operation_xyz
x,y,z
-x,1/2+y,1/2-z
-x,-y,-z
x,1/2-y,1/2+z
loop_
_atom_site_type_symbol
_atom_site_label
_atom_site_fract_x
_atom_site_fract_y
_atom_site_fract_z
Si Si1 0.669991 0.386518 0.631253
Si Si2 0.361426 0.152338 0.470246
Si Si3 0.610938 0.156333 0.331198
Si Si4 0.141079 0.290391 0.211751
Si Si5 0.252489 0.262839 0.045154
Si Si6 0.242594 0.721534 0.946855
Si Si7 0.034968 0.791164 0.528478
O O1 0.500000 0.500000 0.500000
O O2 0.570652 0.218220 0.601305
O O3 0.777483 0.514052 0.746223
O O4 0.781766 0.347094 0.631779
O O5 0.276797 0.191415 0.345234
O O6 0.258603 0.254332 0.468299
O O7 0.328140 0.952227 0.467028
O O8 0.410963 0.150704 0.177370
O O9 0.622422 0.266944 0.408245
O O10 0.756476 0.235328 0.366825
O O11 0.683161 0.962419 0.396453
O O12 0.950445 0.307227 0.135152
O O13 0.092937 0.211758 0.109891
O O14 0.053978 0.230111 0.955996
O O15 0.000000 0.000000 0.500000
#
# Coordination Sequence:
#
# PCOD9243866 Si02
#       7
#     4   4   4   4   4   4   4
#     4  10  22  35  60  88 116 155 202 242 293 366
#     4  10  22  37  56  91 122 156 199 249 310 356
#     4   9  21  37  62  87 116 162 202 244 304 357
#     4  10  21  38  62  90 114 158 207 247 301 361
#     4  10  21  38  61  85 123 158 197 250 300 357
#     4  10  20  39  58  87 125 156 195 255 307 357
#     4   9  20  38  63  86 118 158 202 244 297 361
#
# _framework density 25.377607000000001
#
# number of rings (size 3 to 8) (size 9 to 14) (size 15 to 20)
#    0.000    2.286    0.000    2.143    8.000    1.143 
#    0.000    0.714    0.000    0.000    0.000    0.000 
#    0.000    0.000    0.000    0.000    0.000    0.000 
#
# Total GULP energy -156607.906348 kJ/mol
# GULP energy per Si atom -5593.139512 kJ/mol
# Density = 2.531985 g / cm^3
# Si number density = 25.377607 Si / 1000 Ang^3
#
#
#
# Elastic Constant Matrix: (Units=GPa)
#
#
# Indices 1 2 3 4 5 6 
#
# 1 115.7884 12.4246 -6.5358 0.0000 -2.8629 0.0000
# 2 12.4246 23.9965 11.4163 0.0000 -0.5808 0.0000
# 3 -6.5358 11.4163 50.6213 0.0000 -10.8916 0.0000
# 4 0.0000 0.0000 0.0000 24.1746 0.0000 -0.6949
# 5 -2.8629 -0.5808 -10.8916 0.0000 37.3604 0.0000
# 6 0.0000 0.0000 0.0000 -0.6949 0.0000 27.8571
#
#
#
# Elastic Compliance Matrix: (Units=1/GPa)
#
#
# Indices 1 2 3 4 5 6 
#
# 1 0.009518 -0.006306 0.002973 0.000000 0.001498 0.000000
# 2 -0.006306 0.051080 -0.013088 0.000000 -0.003505 0.000000
# 3 0.002973 -0.013088 0.024641 0.000000 0.007208 0.000000
# 4 0.000000 0.000000 0.000000 0.041395 0.000000 0.001033
# 5 0.001498 -0.003505 0.007208 0.000000 0.028928 0.000000
# 6 0.000000 0.000000 0.000000 0.001033 0.000000 0.035923
#
#
# Mechanical properties :
#
#
# Convention : Reuss Voigt Hill
#
# Bulk Modulus (GPa) = 19.08513 25.00181 22.04347
# Shear Modulus (GPa) = 20.67885 29.41849 25.04867
#
# Velocity S-wave (km/s) = 2.85765 3.40844 3.14513
# Velocity P-wave (km/s) = 4.29243 5.03620 4.67912
#
# Compressibility (1/GPa) = 0.05239682
#
# Stress axis : x y z
#
# Youngs Moduli (GPa) = 105.06369 19.57721 40.58289
#
# Poissons Ratio (x) = 0.12346 -0.12067
# Poissons Ratio (y) = 0.66258 0.53115
# Poissons Ratio (z) = -0.31241 0.25623
#
# Static dielectric constant tensor:
#      x y z
#    x 2.032690 0.000000 -0.035130 
#    y 0.000000 2.052890 0.000000 
#    z -0.035130 0.000000 2.003980 
# 
# From -- ./inp_files/59028.got.cif
#   From: 2010.05.17/outbox.cif.g08.bks.cpg/sg14_30_cif.got.tgz:59028.got - 2010.06.03 17:49:19.
