data_PCOD9243686
_publ_section_title
;
Structure prediction by ZEFSAII (Michael W. Deem and Ramdas Pophale) SiO2 
 PCOD9243686
Probable space group: P 21/C
;
_chemical_formula_sum "Si O2"
_cell_formula_units_Z 28
_cell_length_a 8.179947
_cell_length_b 20.314071
_cell_length_c 8.502682
_cell_angle_alpha 90.000000
_cell_angle_beta 81.238525
_cell_angle_gamma 90.000000
_cell_volume 1396.387076
_symmetry_space_group_name_H-M "P 21/C"
_symmetry_group_IT_number 14
_symmetry_cell_setting 'monoclinic'
loop_
_space_group_symop_operation_xyz
x,y,z
-x,1/2+y,1/2-z
-x,-y,-z
x,1/2-y,1/2+z
loop_
_atom_site_type_symbol
_atom_site_label
_atom_site_fract_x
_atom_site_fract_y
_atom_site_fract_z
Si Si1 0.841493 0.828355 0.772772
Si Si2 0.947651 0.699032 0.608228
Si Si3 0.684541 0.316721 0.418462
Si Si4 0.422435 0.956814 0.150572
Si Si5 0.325164 0.382813 0.159598
Si Si6 0.160722 0.463024 0.901630
Si Si7 0.509300 0.747321 0.827442
O O1 0.904065 0.775302 0.637660
O O2 0.876501 0.901450 0.707873
O O3 0.649607 0.803853 0.815578
O O4 0.927607 0.818189 0.928422
O O5 0.820910 0.652496 0.721209
O O6 0.127401 0.691421 0.656514
O O7 0.653087 0.393598 0.424308
O O8 0.656918 0.280087 0.585564
O O9 0.542781 0.283114 0.332086
O O10 0.564784 0.928304 0.243539
O O11 0.283359 0.990651 0.281383
O O12 0.500000 0.000000 0.000000
O O13 0.430566 0.318567 0.089730
O O14 0.258103 0.427693 0.029908
O O15 0.000000 0.500000 0.000000
#
# Coordination Sequence:
#
# PCOD9243686 Si02
#       7
#     4   4   4   4   4   4   4
#     4  11  22  40  63  90 124 167 207 255 323 380
#     4  11  22  39  64  95 125 158 206 272 323 369
#     4  11  22  37  60  92 120 152 205 261 312 364
#     4  11  24  42  64  89 126 172 215 256 313 393
#     4  10  22  41  63  88 123 165 212 259 317 380
#     4  12  25  41  62  91 128 169 212 261 314 381
#     4  10  20  38  63  87 115 155 204 258 307 369
#
# _framework density 20.051746999999999
#
# number of rings (size 3 to 8) (size 9 to 14) (size 15 to 20)
#    0.000    1.143    0.000    9.000    0.000    3.429 
#    0.000    5.714    0.000    0.000    0.000    0.000 
#    0.000    0.000    0.000    0.000    0.000    0.000 
#
# Total GULP energy -156233.534616 kJ/mol
# GULP energy per Si atom -5579.769093 kJ/mol
# Density = 2.000611 g / cm^3
# Si number density = 20.051747 Si / 1000 Ang^3
#
#
#
# Elastic Constant Matrix: (Units=GPa)
#
#
# Indices 1 2 3 4 5 6 
#
# 1 94.0765 52.5766 28.7712 0.0000 -17.5522 0.0000
# 2 52.5766 141.9090 69.6280 0.0000 -22.5829 0.0000
# 3 28.7712 69.6280 80.1415 0.0000 -5.5011 0.0000
# 4 0.0000 0.0000 0.0000 26.3438 0.0000 -2.4960
# 5 -17.5522 -22.5829 -5.5011 0.0000 26.6268 0.0000
# 6 0.0000 0.0000 0.0000 -2.4960 0.0000 21.8302
#
#
#
# Elastic Compliance Matrix: (Units=1/GPa)
#
#
# Indices 1 2 3 4 5 6 
#
# 1 0.014219 -0.003489 -0.001657 0.000000 0.006072 0.000000
# 2 -0.003489 0.015278 -0.011452 0.000000 0.008292 0.000000
# 3 -0.001657 -0.011452 0.022601 0.000000 -0.006135 0.000000
# 4 0.000000 0.000000 0.000000 0.038375 0.000000 0.004388
# 5 0.006072 0.008292 -0.006135 0.000000 0.047323 0.000000
# 6 0.000000 0.000000 0.000000 0.004388 0.000000 0.046310
#
#
# Mechanical properties :
#
#
# Convention : Reuss Voigt Hill
#
# Bulk Modulus (GPa) = 52.90188 68.67540 60.78864
# Shear Modulus (GPa) = 22.36113 25.97024 24.16569
#
# Velocity S-wave (km/s) = 3.34304 3.60274 3.47532
# Velocity P-wave (km/s) = 6.42971 7.18538 6.81802
#
# Compressibility (1/GPa) = 0.01890292
#
# Stress axis : x y z
#
# Youngs Moduli (GPa) = 70.32832 65.45441 44.24579
#
# Poissons Ratio (x) = 0.22837 0.07330
# Poissons Ratio (y) = 0.24538 0.50669
# Poissons Ratio (z) = 0.11651 0.74957
#
# Static dielectric constant tensor:
#      x y z
#    x 1.842270 0.000000 0.026330 
#    y 0.000000 1.685890 0.000000 
#    z 0.026330 0.000000 1.746010 
# 
# From -- ./inp_files/9359.got.cif
#   From: 2010.05.17/outbox.cif.g08.bks.cpg/sg14_5_cif.got.tgz:9359.got - 2010.06.03 17:49:19.
