data_PCOD9243015
_publ_section_title
;
Structure prediction by ZEFSAII (Michael W. Deem and Ramdas Pophale) SiO2 
 PCOD9243015
Probable space group: P 21/C
;
_chemical_formula_sum "Si O2"
_cell_formula_units_Z 24
_cell_length_a 5.267034
_cell_length_b 25.004852
_cell_length_c 7.571441
_cell_angle_alpha 90.000000
_cell_angle_beta 78.075042
_cell_angle_gamma 90.000000
_cell_volume 975.649579
_symmetry_space_group_name_H-M "P 21/C"
_symmetry_group_IT_number 14
_symmetry_cell_setting 'monoclinic'
loop_
_space_group_symop_operation_xyz
x,y,z
-x,1/2+y,1/2-z
-x,-y,-z
x,1/2-y,1/2+z
loop_
_atom_site_type_symbol
_atom_site_label
_atom_site_fract_x
_atom_site_fract_y
_atom_site_fract_z
Si Si1 0.000795 0.947283 0.625308
Si Si2 0.697790 0.322726 0.406707
Si Si3 0.180006 0.180228 0.588587
Si Si4 0.582927 0.775928 0.753744
Si Si5 0.543002 0.480233 0.695412
Si Si6 0.420523 0.595787 0.837268
O O1 0.141369 0.904486 0.476672
O O2 0.187683 0.955739 0.769735
O O3 0.000000 0.000000 0.500000
O O4 0.702811 0.942729 0.724439
O O5 0.630809 0.312731 0.618427
O O6 0.579842 0.270566 0.324282
O O7 0.575928 0.378365 0.357456
O O8 0.976024 0.328773 0.275380
O O9 0.267620 0.240384 0.626195
O O10 0.194096 0.190020 0.376611
O O11 0.399023 0.135862 0.583761
O O12 0.500000 0.500000 0.500000
O O13 0.516328 0.535474 0.811833
#
# Coordination Sequence:
#
# PCOD9243015 Si02
#       6
#     4   4   4   4   4   4
#     4  10  22  42  67  89 129 173 211 267 337 398
#     4  10  20  36  60  86 123 160 211 265 318 399
#     4  10  20  36  61  82 126 159 209 266 324 393
#     4   9  20  38  55  89 117 166 207 255 332 390
#     4  11  24  43  67  94 131 174 220 277 339 405
#     4  10  23  37  57  92 116 162 219 263 327 396
#
# _framework density 24.598997000000001
#
# number of rings (size 3 to 8) (size 9 to 14) (size 15 to 20)
#    0.000    2.000    0.000    3.500    7.000    1.333 
#    3.000    0.000    0.000    0.000    0.000    0.000 
#    0.000    0.000    0.000    0.000    0.000    0.000 
#
# Total GULP energy -133654.930768 kJ/mol
# GULP energy per Si atom -5568.955449 kJ/mol
# Density = 2.454301 g / cm^3
# Si number density = 24.598997 Si / 1000 Ang^3
#
#
#
# Elastic Constant Matrix: (Units=GPa)
#
#
# Indices 1 2 3 4 5 6 
#
# 1 72.8361 3.6699 12.8256 0.0000 -6.5365 0.0000
# 2 3.6699 62.4890 7.0635 0.0000 -10.9804 0.0000
# 3 12.8256 7.0635 73.8689 0.0000 -8.8160 0.0000
# 4 0.0000 0.0000 0.0000 37.0335 0.0000 -3.7738
# 5 -6.5365 -10.9804 -8.8160 0.0000 31.4403 0.0000
# 6 0.0000 0.0000 0.0000 -3.7738 0.0000 39.8050
#
#
#
# Elastic Compliance Matrix: (Units=1/GPa)
#
#
# Indices 1 2 3 4 5 6 
#
# 1 0.014332 -0.000190 -0.002196 0.000000 0.002298 0.000000
# 2 -0.000190 0.017116 -0.000926 0.000000 0.005679 0.000000
# 3 -0.002196 -0.000926 0.014396 0.000000 0.003257 0.000000
# 4 0.000000 0.000000 0.000000 0.027266 0.000000 0.002585
# 5 0.002298 0.005679 0.003257 0.000000 0.035180 0.000000
# 6 0.000000 0.000000 0.000000 0.002585 0.000000 0.025368
#
#
# Mechanical properties :
#
#
# Convention : Reuss Voigt Hill
#
# Bulk Modulus (GPa) = 25.49669 28.47911 26.98790
# Shear Modulus (GPa) = 32.60396 34.03142 33.31769
#
# Velocity S-wave (km/s) = 3.64458 3.72351 3.68425
# Velocity P-wave (km/s) = 5.30076 5.48530 5.39382
#
# Compressibility (1/GPa) = 0.03922078
#
# Stress axis : x y z
#
# Youngs Moduli (GPa) = 69.77439 58.42319 69.46372
#
# Poissons Ratio (x) = 0.01108 0.15255
# Poissons Ratio (y) = 0.01324 0.06433
# Poissons Ratio (z) = 0.15323 0.05410
#
# Static dielectric constant tensor:
#      x y z
#    x 2.049690 0.000000 0.001300 
#    y 0.000000 1.936600 0.000000 
#    z 0.001300 0.000000 2.053750 
# 
# From -- ./inp_files/6415.got.cif
#   From: 2010.05.17/outbox.cif.g08.bks.cpg/sg14_4_cif.got.tgz:6415.got - 2010.06.03 17:49:19.
