data_PCOD9243491
_publ_section_title
;
Structure prediction by ZEFSAII (Michael W. Deem and Ramdas Pophale) SiO2 
 PCOD9243491
Probable space group: P 21/C
;
_chemical_formula_sum "Si O2"
_cell_formula_units_Z 24
_cell_length_a 16.455036
_cell_length_b 6.567488
_cell_length_c 15.495772
_cell_angle_alpha 90.000000
_cell_angle_beta 146.771263
_cell_angle_gamma 90.000000
_cell_volume 917.652601
_symmetry_space_group_name_H-M "P 21/C"
_symmetry_group_IT_number 14
_symmetry_cell_setting 'monoclinic'
loop_
_space_group_symop_operation_xyz
x,y,z
-x,1/2+y,1/2-z
-x,-y,-z
x,1/2-y,1/2+z
loop_
_atom_site_type_symbol
_atom_site_label
_atom_site_fract_x
_atom_site_fract_y
_atom_site_fract_z
Si Si1 0.346915 0.463561 0.925055
Si Si2 0.064906 0.702137 0.627346
Si Si3 0.425345 0.787817 0.801203
Si Si4 0.090874 0.817657 0.962197
Si Si5 0.586235 0.339508 0.392912
Si Si6 0.848954 0.584284 0.680182
O O1 0.510630 0.352276 0.064592
O O2 0.376320 0.634777 0.023807
O O3 0.216228 0.568974 0.753853
O O4 0.258024 0.262732 0.880178
O O5 0.011064 0.742615 0.482914
O O6 0.945948 0.558981 0.570427
O O7 0.109410 0.904016 0.716795
O O8 0.252986 0.768697 0.626230
O O9 0.488384 0.709159 0.764573
O O10 0.479030 0.019375 0.855457
O O11 0.004770 0.703390 0.808478
O O12 0.740551 0.464595 0.517711
#
# Coordination Sequence:
#
# PCOD9243491 Si02
#       6
#     4   4   4   4   4   4
#     4   9  19  37  59  81 114 153 191 237 296 342
#     4   9  19  39  61  81 121 151 189 245 289 351
#     4  11  21  36  58  83 114 151 197 239 297 349
#     4  10  21  36  58  91 113 151 197 238 295 350
#     4  10  20  38  56  77 115 154 190 246 289 349
#     4   9  19  38  57  81 115 154 188 239 296 347
#
# _framework density 26.153687999999999
#
# number of rings (size 3 to 8) (size 9 to 14) (size 15 to 20)
#    0.000    2.333    1.667    0.500    0.000    2.000 
#    9.000    7.500    0.000    0.000    0.000    0.000 
#    0.000    0.000    0.000    0.000    0.000    0.000 
#
# Total GULP energy -133847.937450 kJ/mol
# GULP energy per Si atom -5576.997394 kJ/mol
# Density = 2.609416 g / cm^3
# Si number density = 26.153688 Si / 1000 Ang^3
#
#
#
# Elastic Constant Matrix: (Units=GPa)
#
#
# Indices 1 2 3 4 5 6 
#
# 1 78.9118 44.5548 21.6703 0.0000 -4.2089 0.0000
# 2 44.5548 171.4224 60.3770 0.0000 1.4337 0.0000
# 3 21.6703 60.3770 164.9889 0.0000 15.7962 0.0000
# 4 0.0000 0.0000 0.0000 69.6613 0.0000 -21.6388
# 5 -4.2089 1.4337 15.7962 0.0000 66.1700 0.0000
# 6 0.0000 0.0000 0.0000 -21.6388 0.0000 23.2887
#
#
#
# Elastic Compliance Matrix: (Units=1/GPa)
#
#
# Indices 1 2 3 4 5 6 
#
# 1 0.015001 -0.003644 -0.000753 0.000000 0.001213 0.000000
# 2 -0.003644 0.007595 -0.002316 0.000000 0.000156 0.000000
# 3 -0.000753 -0.002316 0.007171 0.000000 -0.001710 0.000000
# 4 0.000000 0.000000 0.000000 0.020179 0.000000 0.018750
# 5 0.001213 0.000156 -0.001710 0.000000 0.015594 0.000000
# 6 0.000000 0.000000 0.000000 0.018750 0.000000 0.060361
#
#
# Mechanical properties :
#
#
# Convention : Reuss Voigt Hill
#
# Bulk Modulus (GPa) = 61.19205 74.28082 67.73643
# Shear Modulus (GPa) = 34.53648 51.07205 42.80427
#
# Velocity S-wave (km/s) = 3.63784 4.42381 4.04993
# Velocity P-wave (km/s) = 6.41039 7.38625 6.91555
#
# Compressibility (1/GPa) = 0.01634199
#
# Stress axis : x y z
#
# Youngs Moduli (GPa) = 66.66096 131.66612 139.45029
#
# Poissons Ratio (x) = 0.47979 0.10500
# Poissons Ratio (y) = 0.24291 0.32293
# Poissons Ratio (z) = 0.05019 0.30490
#
# Static dielectric constant tensor:
#      x y z
#    x 2.214760 0.000000 0.117780 
#    y 0.000000 2.025910 0.000000 
#    z 0.117780 0.000000 2.052840 
# 
# From -- ./inp_files/71622.got.cif
#   From: 2010.05.17/outbox.cif.g08.bks.cpg/sg14_36_cif.got.tgz:71622.got - 2010.06.03 17:49:19.
