data_PCOD9243100
_publ_section_title
;
Structure prediction by ZEFSAII (Michael W. Deem and Ramdas Pophale) SiO2 
 PCOD9243100
Probable space group: P 21/C
;
_chemical_formula_sum "Si O2"
_cell_formula_units_Z 28
_cell_length_a 7.379221
_cell_length_b 16.612080
_cell_length_c 19.715441
_cell_angle_alpha 90.000000
_cell_angle_beta 154.022919
_cell_angle_gamma 90.000000
_cell_volume 1058.587162
_symmetry_space_group_name_H-M "P 21/C"
_symmetry_group_IT_number 14
_symmetry_cell_setting 'monoclinic'
loop_
_space_group_symop_operation_xyz
x,y,z
-x,1/2+y,1/2-z
-x,-y,-z
x,1/2-y,1/2+z
loop_
_atom_site_type_symbol
_atom_site_label
_atom_site_fract_x
_atom_site_fract_y
_atom_site_fract_z
Si Si1 0.202605 0.717886 0.504443
Si Si2 0.305245 0.598504 0.908417
Si Si3 0.612730 0.026170 0.695757
Si Si4 0.764843 0.098959 0.243597
Si Si5 0.791040 0.369176 0.901871
Si Si6 0.104347 0.728349 0.319793
Si Si7 0.555254 0.068303 0.827210
O O1 0.081864 0.791309 0.512797
O O2 0.993102 0.711064 0.360939
O O3 0.227384 0.635872 0.555004
O O4 0.673077 0.742720 0.642567
O O5 0.125255 0.555133 0.780164
O O6 0.374493 0.691270 0.910621
O O7 0.933887 0.595141 0.838031
O O8 0.747919 0.572112 0.087109
O O9 0.715909 0.058931 0.804852
O O10 0.183313 0.070285 0.531880
O O11 0.545077 0.930592 0.678401
O O12 0.688378 0.146748 0.288451
O O13 0.713926 0.155384 0.161758
O O14 0.477780 0.020459 0.151748
#
# Coordination Sequence:
#
# PCOD9243100 Si02
#       7
#     4   4   4   4   4   4   4
#     4  11  23  40  61  91 128 159 209 251 316 366
#     4  10  20  36  63  91 123 160 205 266 295 366
#     4   9  19  35  62  94 118 154 214 247 308 358
#     4  10  21  38  62  88 124 162 209 251 310 363
#     4   9  19  36  60  92 120 156 201 265 298 362
#     4  11  23  38  60  93 120 166 208 249 313 373
#     4  10  22  37  62  93 124 164 203 254 308 378
#
# _framework density 26.450348999999999
#
# number of rings (size 3 to 8) (size 9 to 14) (size 15 to 20)
#    0.000    2.000    1.429    3.000    4.000    0.571 
#    0.000    0.000    0.000    1.714    0.000    0.000 
#    0.000    0.000    0.000    0.000    0.000    0.000 
#
# Total GULP energy -156802.864395 kJ/mol
# GULP energy per Si atom -5600.102300 kJ/mol
# Density = 2.639015 g / cm^3
# Si number density = 26.450349 Si / 1000 Ang^3
#
#
#
# Elastic Constant Matrix: (Units=GPa)
#
#
# Indices 1 2 3 4 5 6 
#
# 1 135.7127 62.7113 30.1012 0.0000 -48.2064 0.0000
# 2 62.7113 177.4701 27.8871 0.0000 -38.3965 0.0000
# 3 30.1012 27.8871 74.3952 0.0000 -21.5395 0.0000
# 4 0.0000 0.0000 0.0000 39.2926 0.0000 -7.4226
# 5 -48.2064 -38.3965 -21.5395 0.0000 50.3925 0.0000
# 6 0.0000 0.0000 0.0000 -7.4226 0.0000 54.4679
#
#
#
# Elastic Compliance Matrix: (Units=1/GPa)
#
#
# Indices 1 2 3 4 5 6 
#
# 1 0.011880 -0.001975 -0.001383 0.000000 0.009269 0.000000
# 2 -0.001975 0.007169 -0.000974 0.000000 0.003156 0.000000
# 3 -0.001383 -0.000974 0.015713 0.000000 0.004651 0.000000
# 4 0.000000 0.000000 0.000000 0.026123 0.000000 0.003560
# 5 0.009269 0.003156 0.004651 0.000000 0.033104 0.000000
# 6 0.000000 0.000000 0.000000 0.003560 0.000000 0.018845
#
#
# Mechanical properties :
#
#
# Convention : Reuss Voigt Hill
#
# Bulk Modulus (GPa) = 38.31833 69.88636 54.10235
# Shear Modulus (GPa) = 38.40336 46.62250 42.51293
#
# Velocity S-wave (km/s) = 3.81452 4.20294 4.01343
# Velocity P-wave (km/s) = 5.82401 7.07333 6.47885
#
# Compressibility (1/GPa) = 0.02609717
#
# Stress axis : x y z
#
# Youngs Moduli (GPa) = 84.17226 139.49522 63.64126
#
# Poissons Ratio (x) = 0.27557 0.08801
# Poissons Ratio (y) = 0.16628 0.06200
# Poissons Ratio (z) = 0.11640 0.13589
#
# Static dielectric constant tensor:
#      x y z
#    x 2.168890 0.000000 0.075380 
#    y 0.000000 2.100700 0.000000 
#    z 0.075380 0.000000 2.067710 
# 
# From -- ./inp_files/66017.got.cif
#   From: 2010.05.17/outbox.cif.g08.bks.cpg/sg14_34_cif.got.tgz:66017.got - 2010.06.03 17:49:19.
