data_PCOD9243338
_publ_section_title
;
Structure prediction by ZEFSAII (Michael W. Deem and Ramdas Pophale) SiO2 
 PCOD9243338
Probable space group: P 21/C
;
_chemical_formula_sum "Si O2"
_cell_formula_units_Z 28
_cell_length_a 7.933424
_cell_length_b 9.380353
_cell_length_c 14.647518
_cell_angle_alpha 90.000000
_cell_angle_beta 80.140016
_cell_angle_gamma 90.000000
_cell_volume 1073.942790
_symmetry_space_group_name_H-M "P 21/C"
_symmetry_group_IT_number 14
_symmetry_cell_setting 'monoclinic'
loop_
_space_group_symop_operation_xyz
x,y,z
-x,1/2+y,1/2-z
-x,-y,-z
x,1/2-y,1/2+z
loop_
_atom_site_type_symbol
_atom_site_label
_atom_site_fract_x
_atom_site_fract_y
_atom_site_fract_z
Si Si1 0.293750 0.805750 0.590922
Si Si2 0.503559 0.006566 0.690209
Si Si3 0.614455 0.675317 0.457442
Si Si4 0.332299 0.011809 0.888322
Si Si5 0.065972 0.895256 0.232993
Si Si6 0.808119 0.297601 0.093420
Si Si7 0.222191 0.198194 0.240575
O O1 0.354493 0.940703 0.642345
O O2 0.471055 0.758871 0.526880
O O3 0.219002 0.687155 0.666246
O O4 0.166377 0.826008 0.516576
O O5 0.408698 0.069114 0.787292
O O6 0.630514 0.120576 0.634498
O O7 0.630665 0.878147 0.712335
O O8 0.736273 0.613097 0.525156
O O9 0.507540 0.552204 0.416321
O O10 0.705349 0.747764 0.364044
O O11 0.217645 0.871110 0.888480
O O12 0.068530 0.856555 0.340317
O O13 0.097302 0.063245 0.226658
O O14 0.898756 0.820712 0.206987
#
# Coordination Sequence:
#
# PCOD9243338 Si02
#       7
#     4   4   4   4   4   4   4
#     4  11  21  40  69  95 126 165 219 272 331 380
#     4  10  20  37  62  94 128 163 210 273 330 385
#     4   9  18  36  64  90 118 161 220 266 302 380
#     4   9  16  32  59  88 114 158 205 266 311 361
#     4  11  23  46  65  94 135 178 211 271 326 394
#     4  10  20  37  61  90 125 162 212 262 326 382
#     4  10  23  45  65  92 136 174 218 266 330 385
#
# _framework density 26.072151000000002
#
# number of rings (size 3 to 8) (size 9 to 14) (size 15 to 20)
#    0.000    2.000    1.429    4.714    0.000    0.000 
#   15.429    2.857    0.000    0.000    0.000    0.000 
#    0.000    0.000    0.000    0.000    0.000    0.000 
#
# Total GULP energy -156613.396085 kJ/mol
# GULP energy per Si atom -5593.335574 kJ/mol
# Density = 2.601281 g / cm^3
# Si number density = 26.072151 Si / 1000 Ang^3
#
#
#
# Elastic Constant Matrix: (Units=GPa)
#
#
# Indices 1 2 3 4 5 6 
#
# 1 85.5053 14.1618 0.0148 0.0000 4.1782 0.0000
# 2 14.1618 72.1299 -0.9909 0.0000 -6.9414 0.0000
# 3 0.0148 -0.9909 98.8914 0.0000 19.9740 0.0000
# 4 0.0000 0.0000 0.0000 34.1629 0.0000 -0.5162
# 5 4.1782 -6.9414 19.9740 0.0000 33.5710 0.0000
# 6 0.0000 0.0000 0.0000 -0.5162 0.0000 35.0468
#
#
#
# Elastic Compliance Matrix: (Units=1/GPa)
#
#
# Indices 1 2 3 4 5 6 
#
# 1 0.012243 -0.002622 0.000442 0.000000 -0.002329 0.000000
# 2 -0.002622 0.014730 -0.000606 0.000000 0.003732 0.000000
# 3 0.000442 -0.000606 0.011528 0.000000 -0.007039 0.000000
# 4 0.000000 0.000000 0.000000 0.029278 0.000000 0.000431
# 5 -0.002329 0.003732 -0.007039 0.000000 0.035037 0.000000
# 6 0.000000 0.000000 0.000000 0.000431 0.000000 0.028540
#
#
# Mechanical properties :
#
#
# Convention : Reuss Voigt Hill
#
# Bulk Modulus (GPa) = 30.36787 31.43313 30.90050
# Shear Modulus (GPa) = 33.80600 36.77886 35.29243
#
# Velocity S-wave (km/s) = 3.60478 3.75995 3.68318
# Velocity P-wave (km/s) = 5.38506 5.56165 5.47407
#
# Compressibility (1/GPa) = 0.03292954
#
# Stress axis : x y z
#
# Youngs Moduli (GPa) = 81.67827 67.89095 86.74750
#
# Poissons Ratio (x) = 0.17800 -0.03837
# Poissons Ratio (y) = 0.21415 0.05256
# Poissons Ratio (z) = -0.03613 0.04113
#
# Static dielectric constant tensor:
#      x y z
#    x 2.132630 0.000000 0.088910 
#    y 0.000000 2.096730 0.000000 
#    z 0.088910 0.000000 2.078920 
# 
# From -- ./inp_files/40003.got.cif
#   From: 2010.05.17/outbox.cif.g08.bks.cpg/sg14_21_cif.got.tgz:40003.got - 2010.06.03 17:49:19.
