data_PCOD9243295
_publ_section_title
;
Structure prediction by ZEFSAII (Michael W. Deem and Ramdas Pophale) SiO2 
 PCOD9243295
Probable space group: P 21/C
;
_chemical_formula_sum "Si O2"
_cell_formula_units_Z 28
_cell_length_a 7.976049
_cell_length_b 9.573489
_cell_length_c 19.307862
_cell_angle_alpha 90.000000
_cell_angle_beta 116.106719
_cell_angle_gamma 90.000000
_cell_volume 1323.905423
_symmetry_space_group_name_H-M "P 21/C"
_symmetry_group_IT_number 14
_symmetry_cell_setting 'monoclinic'
loop_
_space_group_symop_operation_xyz
x,y,z
-x,1/2+y,1/2-z
-x,-y,-z
x,1/2-y,1/2+z
loop_
_atom_site_type_symbol
_atom_site_label
_atom_site_fract_x
_atom_site_fract_y
_atom_site_fract_z
Si Si1 0.022790 0.124630 0.560254
Si Si2 0.432804 0.156251 0.001580
Si Si3 0.005420 0.859010 0.043644
Si Si4 0.824463 0.198265 0.780427
Si Si5 0.059546 0.477443 0.812123
Si Si6 0.440481 0.329725 0.139278
Si Si7 0.529909 0.590212 0.076253
O O1 0.927461 0.247069 0.500377
O O2 0.224484 0.192991 0.615714
O O3 0.951936 0.066407 0.619384
O O4 0.000000 0.000000 0.500000
O O5 0.497000 0.229388 0.085155
O O6 0.206703 0.168704 0.967066
O O7 0.508804 0.253585 0.953906
O O8 0.500000 0.000000 0.000000
O O9 0.133591 0.848313 0.134015
O O10 0.000000 0.000000 0.000000
O O11 0.927966 0.086899 0.748596
O O12 0.604021 0.190293 0.723843
O O13 0.905636 0.354754 0.782438
O O14 0.260273 0.405762 0.856737
O O15 0.429631 0.492703 0.113678
O O16 0.500000 0.500000 0.000000
#
# Coordination Sequence:
#
# PCOD9243295 Si02
#       7
#     4   4   4   4   4   4   4
#     4  11  21  45  68  93 122 174 219 264 319 387
#     4  10  20  37  60  91 126 161 211 259 312 377
#     4  11  25  42  62  92 132 166 214 266 320 383
#     4  11  24  44  62  97 126 171 213 262 325 388
#     4  11  23  40  70  89 130 168 213 263 323 387
#     4   9  22  38  62  92 128 158 216 266 312 379
#     4   9  17  37  61  90 118 161 209 257 307 380
#
# _framework density 21.149546000000001
#
# number of rings (size 3 to 8) (size 9 to 14) (size 15 to 20)
#    0.000    1.714    2.857    1.714    4.000    3.429 
#    5.143    0.000    0.000    0.000    0.000    0.000 
#    0.000    0.000    0.000    0.000    0.000    0.000 
#
# Total GULP energy -156120.323252 kJ/mol
# GULP energy per Si atom -5575.725830 kJ/mol
# Density = 2.110141 g / cm^3
# Si number density = 21.149546 Si / 1000 Ang^3
#
#
#
# Elastic Constant Matrix: (Units=GPa)
#
#
# Indices 1 2 3 4 5 6 
#
# 1 47.3587 9.3597 34.5849 0.0000 8.1114 0.0000
# 2 9.3597 152.1305 46.4152 0.0000 -20.9529 0.0000
# 3 34.5849 46.4152 168.7797 0.0000 4.7042 0.0000
# 4 0.0000 0.0000 0.0000 32.0279 0.0000 -2.1435
# 5 8.1114 -20.9529 4.7042 0.0000 31.7181 0.0000
# 6 0.0000 0.0000 0.0000 -2.1435 0.0000 21.5929
#
#
#
# Elastic Compliance Matrix: (Units=1/GPa)
#
#
# Indices 1 2 3 4 5 6 
#
# 1 0.026000 -0.001026 -0.004861 0.000000 -0.006606 0.000000
# 2 -0.001026 0.008125 -0.002190 0.000000 0.005954 0.000000
# 3 -0.004861 -0.002190 0.007560 0.000000 -0.001325 0.000000
# 4 0.000000 0.000000 0.000000 0.031432 0.000000 0.003120
# 5 -0.006606 0.005954 -0.001325 0.000000 0.037347 0.000000
# 6 0.000000 0.000000 0.000000 0.003120 0.000000 0.046621
#
#
# Mechanical properties :
#
#
# Convention : Reuss Voigt Hill
#
# Bulk Modulus (GPa) = 39.17028 60.99872 50.08450
# Shear Modulus (GPa) = 27.51038 35.59506 31.55272
#
# Velocity S-wave (km/s) = 3.61051 4.10691 3.86668
# Velocity P-wave (km/s) = 5.99515 7.16890 6.60814
#
# Compressibility (1/GPa) = 0.02552956
#
# Stress axis : x y z
#
# Youngs Moduli (GPa) = 38.46185 123.08122 132.27157
#
# Poissons Ratio (x) = 0.12632 0.64301
# Poissons Ratio (y) = 0.03947 0.28967
# Poissons Ratio (z) = 0.18697 0.26955
#
# Static dielectric constant tensor:
#      x y z
#    x 1.853610 0.000000 0.019780 
#    y 0.000000 1.802430 0.000000 
#    z 0.019780 0.000000 1.741890 
# 
# From -- ./inp_files/65042.got.cif
#   From: 2010.05.17/outbox.cif.g08.bks.cpg/sg14_33_cif.got.tgz:65042.got - 2010.06.03 17:49:19.
