data_PCOD9243565
_publ_section_title
;
Structure prediction by ZEFSAII (Michael W. Deem and Ramdas Pophale) SiO2 
 PCOD9243565
Probable space group: P 21/C
;
_chemical_formula_sum "Si O2"
_cell_formula_units_Z 28
_cell_length_a 7.908515
_cell_length_b 11.463475
_cell_length_c 16.558879
_cell_angle_alpha 90.000000
_cell_angle_beta 129.251602
_cell_angle_gamma 90.000000
_cell_volume 1162.501337
_symmetry_space_group_name_H-M "P 21/C"
_symmetry_group_IT_number 14
_symmetry_cell_setting 'monoclinic'
loop_
_space_group_symop_operation_xyz
x,y,z
-x,1/2+y,1/2-z
-x,-y,-z
x,1/2-y,1/2+z
loop_
_atom_site_type_symbol
_atom_site_label
_atom_site_fract_x
_atom_site_fract_y
_atom_site_fract_z
Si Si1 0.950242 0.538616 0.576954
Si Si2 0.313218 0.068832 0.301714
Si Si3 0.842364 0.750338 0.136868
Si Si4 0.418526 0.298919 0.235264
Si Si5 0.783412 0.010888 0.385985
Si Si6 0.710478 0.171227 0.216837
Si Si7 0.515512 0.433761 0.406725
O O1 0.902252 0.677263 0.573601
O O2 0.727365 0.463483 0.522697
O O3 0.000000 0.500000 0.500000
O O4 0.125237 0.505596 0.699878
O O5 0.257843 0.121814 0.373677
O O6 0.332341 0.182558 0.249861
O O7 0.557193 0.017929 0.367719
O O8 0.660265 0.840899 0.114549
O O9 0.075259 0.732556 0.253594
O O10 0.230633 0.392588 0.169207
O O11 0.527551 0.264271 0.184151
O O12 0.584905 0.369855 0.343638
O O13 0.789596 0.119899 0.327433
O O14 0.000000 0.000000 0.500000
O O15 0.596276 0.058058 0.145292
#
# Coordination Sequence:
#
# PCOD9243565 Si02
#       7
#     4   4   4   4   4   4   4
#     4  12  23  41  70  98 125 169 230 277 314 390
#     4  10  23  41  62  92 130 169 209 272 338 383
#     4  11  23  39  60  90 133 169 203 263 331 382
#     4   9  19  37  61  89 124 164 209 267 326 379
#     4  10  21  39  61  88 121 161 214 261 313 396
#     4  10  20  38  60  87 125 166 205 258 324 380
#     4  10  22  39  60  94 127 160 216 272 317 378
#
# _framework density 24.085993999999999
#
# number of rings (size 3 to 8) (size 9 to 14) (size 15 to 20)
#    0.000    1.714    0.000    5.571    0.000    5.714 
#    0.000    5.000    0.000    0.000    0.000    0.000 
#    0.000    0.000    0.000    0.000    0.000    0.000 
#
# Total GULP energy -156059.464200 kJ/mol
# GULP energy per Si atom -5573.552293 kJ/mol
# Density = 2.403117 g / cm^3
# Si number density = 24.085994 Si / 1000 Ang^3
#
#
#
# Elastic Constant Matrix: (Units=GPa)
#
#
# Indices 1 2 3 4 5 6 
#
# 1 92.0910 26.4327 25.4123 0.0000 6.4128 0.0000
# 2 26.4327 97.8951 31.2491 0.0000 6.8374 0.0000
# 3 25.4123 31.2491 113.8196 0.0000 24.5205 0.0000
# 4 0.0000 0.0000 0.0000 28.2677 0.0000 4.9658
# 5 6.4128 6.8374 24.5205 0.0000 33.7857 0.0000
# 6 0.0000 0.0000 0.0000 4.9658 0.0000 34.7548
#
#
#
# Elastic Compliance Matrix: (Units=1/GPa)
#
#
# Indices 1 2 3 4 5 6 
#
# 1 0.012173 -0.002651 -0.001906 0.000000 -0.000391 0.000000
# 2 -0.002651 0.011774 -0.002650 0.000000 0.000044 0.000000
# 3 -0.001906 -0.002650 0.011552 0.000000 -0.007486 0.000000
# 4 0.000000 0.000000 0.000000 0.036287 0.000000 -0.005185
# 5 -0.000391 0.000044 -0.007486 0.000000 0.035096 0.000000
# 6 0.000000 0.000000 0.000000 -0.005185 0.000000 0.029514
#
#
# Mechanical properties :
#
#
# Convention : Reuss Voigt Hill
#
# Bulk Modulus (GPa) = 47.42852 52.22153 49.82503
# Shear Modulus (GPa) = 31.67823 34.07576 32.87699
#
# Velocity S-wave (km/s) = 3.63052 3.76540 3.69858
# Velocity P-wave (km/s) = 6.10805 6.37438 6.24264
#
# Compressibility (1/GPa) = 0.02108436
#
# Stress axis : x y z
#
# Youngs Moduli (GPa) = 82.14974 84.93508 86.56867
#
# Poissons Ratio (x) = 0.22518 0.16498
# Poissons Ratio (y) = 0.21779 0.22940
# Poissons Ratio (z) = 0.15656 0.22507
#
# Static dielectric constant tensor:
#      x y z
#    x 2.160090 0.000000 -0.036120 
#    y 0.000000 1.909730 0.000000 
#    z -0.036120 0.000000 1.973360 
# 
# From -- ./inp_files/65646.got.cif
#   From: 2010.05.17/outbox.cif.g08.bks.cpg/sg14_33_cif.got.tgz:65646.got - 2010.06.03 17:49:19.
