data_PCOD9243862
_publ_section_title
;
Structure prediction by ZEFSAII (Michael W. Deem and Ramdas Pophale) SiO2 
 PCOD9243862
Probable space group: P 21/C
;
_chemical_formula_sum "Si O2"
_cell_formula_units_Z 24
_cell_length_a 8.863973
_cell_length_b 7.463283
_cell_length_c 17.013071
_cell_angle_alpha 90.000000
_cell_angle_beta 121.872423
_cell_angle_gamma 90.000000
_cell_volume 955.793991
_symmetry_space_group_name_H-M "P 21/C"
_symmetry_group_IT_number 14
_symmetry_cell_setting 'monoclinic'
loop_
_space_group_symop_operation_xyz
x,y,z
-x,1/2+y,1/2-z
-x,-y,-z
x,1/2-y,1/2+z
loop_
_atom_site_type_symbol
_atom_site_label
_atom_site_fract_x
_atom_site_fract_y
_atom_site_fract_z
Si Si1 0.980403 0.309357 0.452213
Si Si2 0.147062 0.333858 0.322859
Si Si3 0.792789 0.077321 0.656115
Si Si4 0.578488 0.136308 0.083129
Si Si5 0.349109 0.894719 0.214305
Si Si6 0.702941 0.771474 0.367833
O O1 0.060320 0.338555 0.386468
O O2 0.107097 0.181644 0.540733
O O3 0.000000 0.500000 0.500000
O O4 0.769062 0.277044 0.378944
O O5 0.272775 0.501622 0.341528
O O6 0.994875 0.358626 0.214798
O O7 0.226688 0.134322 0.346139
O O8 0.673137 0.194546 0.565666
O O9 0.712722 0.154162 0.715492
O O10 0.413254 0.199889 0.090197
O O11 0.500000 0.000000 0.000000
O O12 0.563210 0.890989 0.279207
O O13 0.282415 0.095336 0.181543
#
# Coordination Sequence:
#
# PCOD9243862 Si02
#       6
#     4   4   4   4   4   4
#     4   9  19  39  62  79 118 165 198 251 312 365
#     4  11  20  38  64  88 122 161 209 253 307 374
#     4  10  22  38  62  93 121 162 207 254 307 370
#     4  11  22  38  61  90 122 161 204 259 312 363
#     4   9  21  37  59  84 116 157 202 247 307 370
#     4  10  20  39  58  84 119 155 203 252 310 364
#
# _framework density 25.110016000000002
#
# number of rings (size 3 to 8) (size 9 to 14) (size 15 to 20)
#    0.000    2.000    3.333    0.000    2.333    0.667 
#    0.000    0.833    0.000    0.000    0.000    0.000 
#    0.000    0.000    0.000    0.000    0.000    0.000 
#
# Total GULP energy -133698.794992 kJ/mol
# GULP energy per Si atom -5570.783125 kJ/mol
# Density = 2.505286 g / cm^3
# Si number density = 25.110016 Si / 1000 Ang^3
#
#
#
# Elastic Constant Matrix: (Units=GPa)
#
#
# Indices 1 2 3 4 5 6 
#
# 1 27.9345 21.1071 29.2505 0.0000 13.3921 0.0000
# 2 21.1071 125.2750 0.1390 0.0000 15.5686 0.0000
# 3 29.2505 0.1390 75.1532 0.0000 18.2223 0.0000
# 4 0.0000 0.0000 0.0000 29.6159 0.0000 14.2779
# 5 13.3921 15.5686 18.2223 0.0000 34.2795 0.0000
# 6 0.0000 0.0000 0.0000 14.2779 0.0000 29.8847
#
#
#
# Elastic Compliance Matrix: (Units=1/GPa)
#
#
# Indices 1 2 3 4 5 6 
#
# 1 0.079843 -0.012110 -0.028497 0.000000 -0.010544 0.000000
# 2 -0.012110 0.010370 0.005383 0.000000 -0.002840 0.000000
# 3 -0.028497 0.005383 0.025578 0.000000 -0.004908 0.000000
# 4 0.000000 0.000000 0.000000 0.043870 0.000000 -0.020960
# 5 -0.010544 -0.002840 -0.004908 0.000000 0.037190 0.000000
# 6 0.000000 0.000000 0.000000 -0.020960 0.000000 0.043476
#
#
# Mechanical properties :
#
#
# Convention : Reuss Voigt Hill
#
# Bulk Modulus (GPa) = 22.05474 36.59509 29.32492
# Shear Modulus (GPa) = 15.34264 30.61376 22.97820
#
# Velocity S-wave (km/s) = 2.47456 3.49547 3.02835
# Velocity P-wave (km/s) = 4.11909 5.55847 4.89201
#
# Compressibility (1/GPa) = 0.04534173
#
# Stress axis : x y z
#
# Youngs Moduli (GPa) = 12.52459 96.43364 39.09670
#
# Poissons Ratio (x) = 1.16785 1.11413
# Poissons Ratio (y) = 0.15168 -0.21045
# Poissons Ratio (z) = 0.35691 -0.51909
#
# Static dielectric constant tensor:
#      x y z
#    x 1.959230 0.000000 -0.044200 
#    y 0.000000 2.108270 0.000000 
#    z -0.044200 0.000000 2.333070 
# 
# From -- ./inp_files/66720.got.cif
#   From: 2010.05.17/outbox.cif.g08.bks.cpg/sg14_34_cif.got.tgz:66720.got - 2010.06.03 17:49:19.
