data_PCOD9243929
_publ_section_title
;
Structure prediction by ZEFSAII (Michael W. Deem and Ramdas Pophale) SiO2 
 PCOD9243929
Probable space group: P 21/C
;
_chemical_formula_sum "Si O2"
_cell_formula_units_Z 20
_cell_length_a 7.088141
_cell_length_b 11.772257
_cell_length_c 12.961374
_cell_angle_alpha 90.000000
_cell_angle_beta 130.637560
_cell_angle_gamma 90.000000
_cell_volume 820.721734
_symmetry_space_group_name_H-M "P 21/C"
_symmetry_group_IT_number 14
_symmetry_cell_setting 'monoclinic'
loop_
_space_group_symop_operation_xyz
x,y,z
-x,1/2+y,1/2-z
-x,-y,-z
x,1/2-y,1/2+z
loop_
_atom_site_type_symbol
_atom_site_label
_atom_site_fract_x
_atom_site_fract_y
_atom_site_fract_z
Si Si1 0.650358 0.209671 0.090453
Si Si2 0.017942 0.158289 0.601914
Si Si3 0.688027 0.596703 0.101868
Si Si4 0.973945 0.595835 0.407845
Si Si5 0.781695 0.429148 0.821171
O O1 0.882466 0.300964 0.159655
O O2 0.619570 0.151556 0.190428
O O3 0.759949 0.111871 0.055130
O O4 0.424938 0.279812 0.963157
O O5 0.810612 0.109047 0.449325
O O6 0.088401 0.277627 0.575306
O O7 0.235663 0.066239 0.690005
O O8 0.767704 0.573984 0.247672
O O9 0.942591 0.587021 0.128860
O O10 0.500000 0.500000 0.000000
O O11 0.000000 0.500000 0.500000
#
# Coordination Sequence:
#
# PCOD9243929 Si02
#       5
#     4   4   4   4   4
#     4   9  21  37  61  91 124 163 217 255 323 380
#     4   9  20  39  59  89 125 168 208 250 336 376
#     4  11  20  38  62  91 119 167 214 259 319 379
#     4   9  21  40  62  89 126 159 208 261 318 381
#     4  10  20  39  62  86 132 165 201 280 314 381
#
# _framework density 24.368797000000001
#
# number of rings (size 3 to 8) (size 9 to 14) (size 15 to 20)
#    1.200    1.200    2.000    0.000    2.800    0.000 
#    7.200    1.000    0.000    0.000    0.000    0.000 
#    0.000    0.000    0.000    0.000    0.000    0.000 
#
# Total GULP energy -111591.320951 kJ/mol
# GULP energy per Si atom -5579.566048 kJ/mol
# Density = 2.431333 g / cm^3
# Si number density = 24.368797 Si / 1000 Ang^3
#
#
#
# Elastic Constant Matrix: (Units=GPa)
#
#
# Indices 1 2 3 4 5 6 
#
# 1 41.1569 20.7441 19.2816 0.0000 4.2689 0.0000
# 2 20.7441 161.7198 96.6518 0.0000 -12.3391 0.0000
# 3 19.2816 96.6518 153.1386 0.0000 -11.9414 0.0000
# 4 0.0000 0.0000 0.0000 52.2108 0.0000 -8.7671
# 5 4.2689 -12.3391 -11.9414 0.0000 33.2265 0.0000
# 6 0.0000 0.0000 0.0000 -8.7671 0.0000 23.3451
#
#
#
# Elastic Compliance Matrix: (Units=1/GPa)
#
#
# Indices 1 2 3 4 5 6 
#
# 1 0.027168 -0.002563 -0.002212 0.000000 -0.005237 0.000000
# 2 -0.002563 0.010241 -0.005987 0.000000 0.001981 0.000000
# 3 -0.002212 -0.005987 0.010737 0.000000 0.001920 0.000000
# 4 0.000000 0.000000 0.000000 0.020442 0.000000 0.007677
# 5 -0.005237 0.001981 0.001920 0.000000 0.032195 0.000000
# 6 0.000000 0.000000 0.000000 0.007677 0.000000 0.045719
#
#
# Mechanical properties :
#
#
# Convention : Reuss Voigt Hill
#
# Bulk Modulus (GPa) = 37.55980 69.93003 53.74491
# Shear Modulus (GPa) = 28.26482 36.37899 32.32191
#
# Velocity S-wave (km/s) = 3.40939 3.86793 3.64588
# Velocity P-wave (km/s) = 5.56284 6.97902 6.31078
#
# Compressibility (1/GPa) = 0.02662421
#
# Stress axis : x y z
#
# Youngs Moduli (GPa) = 36.80769 97.64439 93.13999
#
# Poissons Ratio (x) = 0.25023 0.20600
# Poissons Ratio (y) = 0.09433 0.55758
# Poissons Ratio (z) = 0.08141 0.58455
#
# Static dielectric constant tensor:
#      x y z
#    x 2.102000 0.000000 -0.001060 
#    y 0.000000 2.000530 0.000000 
#    z -0.001060 0.000000 1.924880 
# 
# From -- ./inp_files/24339.got.cif
#   From: 2010.05.17/outbox.cif.g08.bks.cpg/sg14_13_cif.got.tgz:24339.got - 2010.06.03 17:49:19.
