data_PCOD9243416
_publ_section_title
;
Structure prediction by ZEFSAII (Michael W. Deem and Ramdas Pophale) SiO2 
 PCOD9243416
Probable space group: P 21/C
;
_chemical_formula_sum "Si O2"
_cell_formula_units_Z 24
_cell_length_a 24.081503
_cell_length_b 10.425391
_cell_length_c 13.141220
_cell_angle_alpha 90.000000
_cell_angle_beta 20.553799
_cell_angle_gamma 90.000000
_cell_volume 1158.313308
_symmetry_space_group_name_H-M "P 21/C"
_symmetry_group_IT_number 14
_symmetry_cell_setting 'monoclinic'
loop_
_space_group_symop_operation_xyz
x,y,z
-x,1/2+y,1/2-z
-x,-y,-z
x,1/2-y,1/2+z
loop_
_atom_site_type_symbol
_atom_site_label
_atom_site_fract_x
_atom_site_fract_y
_atom_site_fract_z
Si Si1 0.691512 0.487661 0.663730
Si Si2 0.856401 0.739356 0.291372
Si Si3 0.592067 0.633650 0.339349
Si Si4 0.409394 0.828222 0.503407
Si Si5 0.705767 0.614245 0.367994
Si Si6 0.205939 0.847992 0.215259
O O1 0.776727 0.621546 0.493167
O O2 0.746426 0.394658 0.478903
O O3 0.500000 0.500000 0.000000
O O4 0.720402 0.419394 0.722000
O O5 0.758856 0.863590 0.492860
O O6 0.814220 0.710983 0.246138
O O7 0.040485 0.725579 0.994568
O O8 0.500000 0.500000 0.500000
O O9 0.482868 0.734643 0.464738
O O10 0.643127 0.661858 0.367694
O O11 0.335580 0.740590 0.543677
O O12 0.551500 0.904143 0.204809
O O13 0.797115 0.478692 0.211962
#
# Coordination Sequence:
#
# PCOD9243416 Si02
#       6
#     4   4   4   4   4   4
#     4  11  19  39  64  88 120 163 222 252 298 388
#     4  10  24  39  62  95 122 167 208 260 323 365
#     4  11  21  39  63  90 127 164 209 254 316 381
#     4  11  22  36  64  94 118 168 211 254 317 370
#     4  10  20  37  64  87 120 168 208 258 304 376
#     4  11  22  39  61  93 131 157 208 271 313 365
#
# _framework density 20.719781999999999
#
# number of rings (size 3 to 8) (size 9 to 14) (size 15 to 20)
#    0.000    1.333    6.667    3.000    0.000    2.667 
#    0.000    0.000    0.000    2.000    0.000    0.000 
#    0.000    0.000    0.000    0.000    0.000    0.000 
#
# Total GULP energy -133840.068514 kJ/mol
# GULP energy per Si atom -5576.669521 kJ/mol
# Density = 2.067262 g / cm^3
# Si number density = 20.719782 Si / 1000 Ang^3
#
#
#
# Elastic Constant Matrix: (Units=GPa)
#
#
# Indices 1 2 3 4 5 6 
#
# 1 88.6760 9.0353 19.8763 0.0000 -10.8203 0.0000
# 2 9.0353 47.0474 18.6947 0.0000 -7.8884 0.0000
# 3 19.8763 18.6947 67.2931 0.0000 -20.6078 0.0000
# 4 0.0000 0.0000 0.0000 29.4145 0.0000 5.4341
# 5 -10.8203 -7.8884 -20.6078 0.0000 19.2911 0.0000
# 6 0.0000 0.0000 0.0000 5.4341 0.0000 16.4281
#
#
#
# Elastic Compliance Matrix: (Units=1/GPa)
#
#
# Indices 1 2 3 4 5 6 
#
# 1 0.012361 -0.000812 -0.002087 0.000000 0.004372 0.000000
# 2 -0.000812 0.024154 -0.005328 0.000000 0.003730 0.000000
# 3 -0.002087 -0.005328 0.023677 0.000000 0.021944 0.000000
# 4 0.000000 0.000000 0.000000 0.036210 0.000000 -0.011978
# 5 0.004372 0.003730 0.021944 0.000000 0.079257 0.000000
# 6 0.000000 0.000000 0.000000 -0.011978 0.000000 0.064833
#
#
# Mechanical properties :
#
#
# Convention : Reuss Voigt Hill
#
# Bulk Modulus (GPa) = 22.86309 33.13655 27.99982
# Shear Modulus (GPa) = 18.41462 23.38742 20.90102
#
# Velocity S-wave (km/s) = 2.98442 3.36333 3.17952
# Velocity P-wave (km/s) = 4.78895 5.57764 5.19828
#
# Compressibility (1/GPa) = 0.04373862
#
# Stress axis : x y z
#
# Youngs Moduli (GPa) = 80.90016 41.40174 42.23506
#
# Poissons Ratio (x) = 0.03360 0.08813
# Poissons Ratio (y) = 0.06566 0.22504
# Poissons Ratio (z) = 0.16880 0.22060
#
# Static dielectric constant tensor:
#      x y z
#    x 1.790100 0.000000 0.010880 
#    y 0.000000 1.810780 0.000000 
#    z 0.010880 0.000000 1.745580 
# 
# From -- ./inp_files/35892.got.cif
#   From: 2010.05.17/outbox.cif.g08.bks.cpg/sg14_18_cif.got.tgz:35892.got - 2010.06.03 17:49:19.
