data_PCOD9243010
_publ_section_title
;
Structure prediction by ZEFSAII (Michael W. Deem and Ramdas Pophale) SiO2 
 PCOD9243010
Probable space group: P 21/C
;
_chemical_formula_sum "Si O2"
_cell_formula_units_Z 32
_cell_length_a 32.785218
_cell_length_b 7.945966
_cell_length_c 17.461751
_cell_angle_alpha 90.000000
_cell_angle_beta 161.739132
_cell_angle_gamma 90.000000
_cell_volume 1425.390539
_symmetry_space_group_name_H-M "P 21/C"
_symmetry_group_IT_number 14
_symmetry_cell_setting 'monoclinic'
loop_
_space_group_symop_operation_xyz
x,y,z
-x,1/2+y,1/2-z
-x,-y,-z
x,1/2-y,1/2+z
loop_
_atom_site_type_symbol
_atom_site_label
_atom_site_fract_x
_atom_site_fract_y
_atom_site_fract_z
Si Si1 0.864805 0.245835 0.019457
Si Si2 0.628257 0.270595 0.852554
Si Si3 0.370761 0.595930 0.986658
Si Si4 0.855668 0.108975 0.660429
Si Si5 0.333012 0.262636 0.339859
Si Si6 0.892125 0.752251 0.806807
Si Si7 0.331852 0.411939 0.493079
Si Si8 0.092772 0.385306 0.325204
O O1 0.862553 0.385441 0.081461
O O2 0.970344 0.291667 0.144169
O O3 0.899491 0.071274 0.125034
O O4 0.728306 0.212405 0.735432
O O5 0.476406 0.290754 0.560539
O O6 0.657238 0.093229 0.946526
O O7 0.656365 0.400434 0.971407
O O8 0.724771 0.299301 0.955036
O O9 0.350378 0.408982 0.919679
O O10 0.519094 0.653555 0.238194
O O11 0.858630 0.924534 0.702276
O O12 0.980335 0.205966 0.916753
O O13 0.298818 0.401301 0.343481
O O14 0.221894 0.215884 0.081884
O O15 0.775293 0.691997 0.652116
O O16 0.917450 0.618377 0.784386
#
# Coordination Sequence:
#
# PCOD9243010 Si02
#       8
#     4   4   4   4   4   4   4   4
#     4  11  23  39  59  83 113 147 185 229 277 330
#     4  10  20  36  60  86 112 146 187 227 271 328
#     4   9  20  38  58  83 116 149 180 224 280 329
#     4  11  24  40  57  80 113 149 185 230 281 328
#     4   9  20  38  58  83 116 149 180 224 280 329
#     4  11  24  40  57  80 113 149 185 230 281 328
#     4  10  20  36  60  86 112 146 187 227 271 328
#     4  11  23  39  59  83 113 147 185 229 277 330
#
# _framework density 22.449985999999999
#
# number of rings (size 3 to 8) (size 9 to 14) (size 15 to 20)
#    0.000    1.750    0.000    3.750    0.000   12.000 
#    0.000    5.000    0.000    0.000    0.000    0.000 
#    0.000    0.000    0.000    0.000    0.000    0.000 
#
# Total GULP energy -179109.782131 kJ/mol
# GULP energy per Si atom -5597.180692 kJ/mol
# Density = 2.239889 g / cm^3
# Si number density = 22.449986 Si / 1000 Ang^3
#
#
#
# Elastic Constant Matrix: (Units=GPa)
#
#
# Indices 1 2 3 4 5 6 
#
# 1 78.9597 4.4781 50.3344 0.0000 13.9362 0.0000
# 2 4.4781 61.5130 15.2083 0.0000 8.2508 0.0000
# 3 50.3344 15.2083 69.1962 0.0000 13.5970 0.0000
# 4 0.0000 0.0000 0.0000 -1.8781 0.0000 -13.8081
# 5 13.9362 8.2508 13.5970 0.0000 27.2119 0.0000
# 6 0.0000 0.0000 0.0000 -13.8081 0.0000 30.9201
#
#
#
# Elastic Compliance Matrix: (Units=1/GPa)
#
#
# Indices 1 2 3 4 5 6 
#
# 1 0.024567 0.003210 -0.017645 0.000000 -0.004738 0.000000
# 2 0.003210 0.017950 -0.005420 0.000000 -0.004378 0.000000
# 3 -0.017645 -0.005420 0.029251 0.000000 -0.003936 0.000000
# 4 0.000000 0.000000 0.000000 -0.124310 0.000000 -0.055513
# 5 -0.004738 -0.004378 -0.003936 0.000000 0.042470 0.000000
# 6 0.000000 0.000000 0.000000 -0.055513 0.000000 0.007551
#
#
# Mechanical properties :
#
#
# Convention : Reuss Voigt Hill
#
# Bulk Modulus (GPa) = 31.19243 38.85671 35.02457
# Shear Modulus (GPa) = 104.44109 20.56067 62.50088
#
# Velocity S-wave (km/s) = 6.82808 3.02957 5.28209
# Velocity P-wave (km/s) = 8.72284 5.43907 7.26882
#
# Compressibility (1/GPa) = 0.03205906
#
# Stress axis : x y z
#
# Youngs Moduli (GPa) = 40.70519 55.70951 34.18657
#
# Poissons Ratio (x) = -0.17880 0.60321
# Poissons Ratio (y) = -0.13064 0.18528
# Poissons Ratio (z) = 0.71823 0.30192
#
# Static dielectric constant tensor:
#      x y z
#    x 1.767420 0.000000 -0.004590 
#    y 0.000000 1.882500 0.000000 
#    z -0.004590 0.000000 1.795760 
# 
# From -- ./inp_files/62696.got.cif
#   From: 2010.05.17/outbox.cif.g08.bks.cpg/sg14_32_cif.got.tgz:62696.got - 2010.06.03 17:49:19.
