data_PCOD9243003
_publ_section_title
;
Structure prediction by ZEFSAII (Michael W. Deem and Ramdas Pophale) SiO2 
 PCOD9243003
Probable space group: P 21/C
;
_chemical_formula_sum "Si O2"
_cell_formula_units_Z 20
_cell_length_a 9.347911
_cell_length_b 5.373170
_cell_length_c 27.830171
_cell_angle_alpha 90.000000
_cell_angle_beta 135.225698
_cell_angle_gamma 90.000000
_cell_volume 984.528991
_symmetry_space_group_name_H-M "P 21/C"
_symmetry_group_IT_number 14
_symmetry_cell_setting 'monoclinic'
loop_
_space_group_symop_operation_xyz
x,y,z
-x,1/2+y,1/2-z
-x,-y,-z
x,1/2-y,1/2+z
loop_
_atom_site_type_symbol
_atom_site_label
_atom_site_fract_x
_atom_site_fract_y
_atom_site_fract_z
Si Si1 0.316086 0.604515 0.578162
Si Si2 0.707002 0.120435 0.530760
Si Si3 0.856981 0.318640 0.662545
Si Si4 0.731292 0.685840 0.187922
Si Si5 0.080930 0.204208 0.482106
O O1 0.314362 0.745575 0.525874
O O2 0.505558 0.731359 0.649460
O O3 0.288633 0.321945 0.552866
O O4 0.114453 0.618341 0.563325
O O5 0.792739 0.295045 0.592346
O O6 0.500000 0.000000 0.500000
O O7 0.868169 0.904715 0.557238
O O8 0.785598 0.584507 0.665437
O O9 0.097630 0.304555 0.730153
O O10 0.757966 0.081190 0.667672
O O11 0.000000 0.000000 0.500000
#
# Coordination Sequence:
#
# PCOD9243003 Si02
#       5
#     4   4   4   4   4
#     4  10  20  36  60  82 115 159 190 238 297 354
#     4  11  20  33  60  90 114 144 198 250 288 338
#     4  10  22  36  57  90 119 147 194 245 289 345
#     4  10  21  38  58  84 120 157 188 236 300 350
#     4   9  21  36  54  83 116 149 194 238 291 348
#
# _framework density 20.31428
#
# number of rings (size 3 to 8) (size 9 to 14) (size 15 to 20)
#    0.000    2.000    2.000    1.200    5.600    1.600 
#    0.000    0.000   13.200    0.000    0.000    0.000 
#    0.000    0.000    0.000    0.000    0.000    0.000 
#
# Total GULP energy -111354.903541 kJ/mol
# GULP energy per Si atom -5567.745177 kJ/mol
# Density = 2.026804 g / cm^3
# Si number density = 20.314280 Si / 1000 Ang^3
#
#
#
# Elastic Constant Matrix: (Units=GPa)
#
#
# Indices 1 2 3 4 5 6 
#
# 1 88.3768 8.6617 21.7864 0.0000 9.2197 0.0000
# 2 8.6617 68.3531 -6.0841 0.0000 -0.3422 0.0000
# 3 21.7864 -6.0841 57.0743 0.0000 12.1456 0.0000
# 4 0.0000 0.0000 0.0000 25.7512 0.0000 2.1964
# 5 9.2197 -0.3422 12.1456 0.0000 28.7375 0.0000
# 6 0.0000 0.0000 0.0000 2.1964 0.0000 28.1306
#
#
#
# Elastic Compliance Matrix: (Units=1/GPa)
#
#
# Indices 1 2 3 4 5 6 
#
# 1 0.012899 -0.002062 -0.004678 0.000000 -0.002185 0.000000
# 2 -0.002062 0.015107 0.002438 0.000000 -0.000189 0.000000
# 3 -0.004678 0.002438 0.021143 0.000000 -0.007406 0.000000
# 4 0.000000 0.000000 0.000000 0.039093 0.000000 -0.003052
# 5 -0.002185 -0.000189 -0.007406 0.000000 0.038627 0.000000
# 6 0.000000 0.000000 0.000000 -0.003052 0.000000 0.035787
#
#
# Mechanical properties :
#
#
# Convention : Reuss Voigt Hill
#
# Bulk Modulus (GPa) = 24.66494 29.17024 26.91759
# Shear Modulus (GPa) = 27.05995 29.15321 28.10658
#
# Velocity S-wave (km/s) = 3.65371 3.79239 3.72370
# Velocity P-wave (km/s) = 5.47425 5.79370 5.63624
#
# Compressibility (1/GPa) = 0.04054338
#
# Stress axis : x y z
#
# Youngs Moduli (GPa) = 77.52808 66.19353 47.29766
#
# Poissons Ratio (x) = 0.13648 0.22128
# Poissons Ratio (y) = 0.15985 -0.11530
# Poissons Ratio (z) = 0.36270 -0.16136
#
# Static dielectric constant tensor:
#      x y z
#    x 1.754760 0.000000 0.090400 
#    y 0.000000 1.870630 0.000000 
#    z 0.090400 0.000000 1.754790 
# 
# From -- ./inp_files/53955.got.cif
#   From: 2010.05.17/outbox.cif.g08.bks.cpg/sg14_27_cif.got.tgz:53955.got - 2010.06.03 17:49:19.
