data_PCOD9243309
_publ_section_title
;
Structure prediction by ZEFSAII (Michael W. Deem and Ramdas Pophale) SiO2 
 PCOD9243309
Probable space group: P 21/C
;
_chemical_formula_sum "Si O2"
_cell_formula_units_Z 24
_cell_length_a 14.387820
_cell_length_b 8.697381
_cell_length_c 17.156345
_cell_angle_alpha 90.000000
_cell_angle_beta 145.611667
_cell_angle_gamma 90.000000
_cell_volume 1212.556999
_symmetry_space_group_name_H-M "P 21/C"
_symmetry_group_IT_number 14
_symmetry_cell_setting 'monoclinic'
loop_
_space_group_symop_operation_xyz
x,y,z
-x,1/2+y,1/2-z
-x,-y,-z
x,1/2-y,1/2+z
loop_
_atom_site_type_symbol
_atom_site_label
_atom_site_fract_x
_atom_site_fract_y
_atom_site_fract_z
Si Si1 0.153618 0.200056 0.029495
Si Si2 0.152315 0.914026 0.731508
Si Si3 0.346278 0.800675 0.733714
Si Si4 0.511592 0.890616 0.237084
Si Si5 0.016537 0.265094 0.088715
Si Si6 0.181973 0.590784 0.434809
O O1 0.320810 0.296118 0.151205
O O2 0.103561 0.159577 0.083975
O O3 0.006873 0.307793 0.895414
O O4 0.174134 0.058429 0.985258
O O5 0.310511 0.837620 0.798980
O O6 0.171583 0.937407 0.836538
O O7 0.117736 0.078846 0.668256
O O8 0.436543 0.643475 0.771206
O O9 0.163346 0.801026 0.570991
O O10 0.445155 0.938160 0.760497
O O11 0.360558 0.835832 0.077720
O O12 0.971195 0.191550 0.140168
#
# Coordination Sequence:
#
# PCOD9243309 Si02
#       6
#     4   4   4   4   4   4
#     4  11  20  39  60  83 112 157 193 224 277 343
#     4  11  21  39  59  86 116 149 186 236 288 330
#     4  10  20  37  61  81 111 152 193 229 277 345
#     4  11  20  37  58  84 109 154 192 229 274 342
#     4  10  20  38  62  80 115 154 192 224 277 348
#     4  11  24  35  58  91 118 141 189 244 282 323
#
# _framework density 19.792884000000001
#
# number of rings (size 3 to 8) (size 9 to 14) (size 15 to 20)
#    0.000    1.333    5.000    2.500    0.000    0.667 
#    0.000    0.000    0.000    2.000    0.000    0.000 
#    0.000    0.000    0.000    0.000    0.000    0.000 
#
# Total GULP energy -133818.368444 kJ/mol
# GULP energy per Si atom -5575.765352 kJ/mol
# Density = 1.974783 g / cm^3
# Si number density = 19.792884 Si / 1000 Ang^3
#
#
#
# Elastic Constant Matrix: (Units=GPa)
#
#
# Indices 1 2 3 4 5 6 
#
# 1 163.5432 36.9539 41.4099 0.0000 -7.4131 0.0000
# 2 36.9539 38.4964 7.1627 0.0000 4.9152 0.0000
# 3 41.4099 7.1627 40.5142 0.0000 12.2232 0.0000
# 4 0.0000 0.0000 0.0000 18.7798 0.0000 4.8928
# 5 -7.4131 4.9152 12.2232 0.0000 28.7042 0.0000
# 6 0.0000 0.0000 0.0000 4.8928 0.0000 39.0026
#
#
#
# Elastic Compliance Matrix: (Units=1/GPa)
#
#
# Indices 1 2 3 4 5 6 
#
# 1 0.012829 -0.011056 -0.014605 0.000000 0.011426 0.000000
# 2 -0.011056 0.036609 0.008699 0.000000 -0.012828 0.000000
# 3 -0.014605 0.008699 0.045506 0.000000 -0.024640 0.000000
# 4 0.000000 0.000000 0.000000 0.055048 0.000000 -0.006906
# 5 0.011426 -0.012828 -0.024640 0.000000 0.050478 0.000000
# 6 0.000000 0.000000 0.000000 -0.006906 0.000000 0.026506
#
#
# Mechanical properties :
#
#
# Convention : Reuss Voigt Hill
#
# Bulk Modulus (GPa) = 16.38818 45.95630 31.17224
# Shear Modulus (GPa) = 17.77839 27.76578 22.77208
#
# Velocity S-wave (km/s) = 3.00029 3.74948 3.39561
# Velocity P-wave (km/s) = 4.50556 6.48181 5.58184
#
# Compressibility (1/GPa) = 0.06101959
#
# Stress axis : x y z
#
# Youngs Moduli (GPa) = 77.94994 27.31568 21.97488
#
# Poissons Ratio (x) = 0.30201 0.32094
# Poissons Ratio (y) = 0.86182 -0.19115
# Poissons Ratio (z) = 1.13845 -0.23761
#
# Static dielectric constant tensor:
#      x y z
#    x 1.759080 0.000000 0.004520 
#    y 0.000000 1.745130 0.000000 
#    z 0.004520 0.000000 1.673320 
# 
# From -- ./inp_files/56994.got.cif
#   From: 2010.05.17/outbox.cif.g08.bks.cpg/sg14_29_cif.got.tgz:56994.got - 2010.06.03 17:49:19.
