data_PCOD9243241
_publ_section_title
;
Structure prediction by ZEFSAII (Michael W. Deem and Ramdas Pophale) SiO2 
 PCOD9243241
Probable space group: P 21/C
;
_chemical_formula_sum "Si O2"
_cell_formula_units_Z 28
_cell_length_a 6.030628
_cell_length_b 17.002638
_cell_length_c 14.092190
_cell_angle_alpha 90.000000
_cell_angle_beta 118.788789
_cell_angle_gamma 90.000000
_cell_volume 1266.368697
_symmetry_space_group_name_H-M "P 21/C"
_symmetry_group_IT_number 14
_symmetry_cell_setting 'monoclinic'
loop_
_space_group_symop_operation_xyz
x,y,z
-x,1/2+y,1/2-z
-x,-y,-z
x,1/2-y,1/2+z
loop_
_atom_site_type_symbol
_atom_site_label
_atom_site_fract_x
_atom_site_fract_y
_atom_site_fract_z
Si Si1 0.791075 0.904478 0.556886
Si Si2 0.770135 0.187490 0.083600
Si Si3 0.244146 0.234340 0.902382
Si Si4 0.470031 0.511419 0.843206
Si Si5 0.261858 0.828401 0.270977
Si Si6 0.695613 0.727676 0.301422
Si Si7 0.319511 0.585486 0.265663
O O1 0.750842 0.811911 0.531818
O O2 0.710231 0.952963 0.448210
O O3 0.078035 0.912160 0.648044
O O4 0.625665 0.939779 0.610376
O O5 0.759179 0.266415 0.147104
O O6 0.775627 0.107263 0.147993
O O7 0.043331 0.203573 0.092447
O O8 0.504700 0.187806 0.973333
O O9 0.250111 0.271498 0.798665
O O10 0.977042 0.188668 0.846801
O O11 0.265539 0.581684 0.804272
O O12 0.526444 0.487607 0.746181
O O13 0.537449 0.807512 0.285081
O O14 0.498511 0.659605 0.283497
#
# Coordination Sequence:
#
# PCOD9243241 Si02
#       7
#     4   4   4   4   4   4   4
#     4  11  21  37  61  91 125 153 190 252 307 358
#     4  10  21  36  60  84 120 158 198 245 292 354
#     4  11  20  39  61  89 120 157 203 248 294 354
#     4  11  23  37  59  94 123 154 193 251 308 358
#     4  10  22  38  60  88 121 155 204 245 291 362
#     4  10  20  37  59  84 117 162 197 245 290 356
#     4  11  20  38  57  87 123 161 194 241 306 356
#
# _framework density 22.110465000000001
#
# number of rings (size 3 to 8) (size 9 to 14) (size 15 to 20)
#    0.000    1.429    7.143    0.429    0.000    5.714 
#    0.000    0.714    0.000    4.286    0.000    0.000 
#    0.000    0.000    0.000    0.000    0.000    0.000 
#
# Total GULP energy -155989.681979 kJ/mol
# GULP energy per Si atom -5571.060071 kJ/mol
# Density = 2.206014 g / cm^3
# Si number density = 22.110465 Si / 1000 Ang^3
#
#
#
# Elastic Constant Matrix: (Units=GPa)
#
#
# Indices 1 2 3 4 5 6 
#
# 1 71.5673 11.7915 27.9972 0.0000 30.8852 0.0000
# 2 11.7915 56.5247 22.7662 0.0000 12.7537 0.0000
# 3 27.9972 22.7662 90.0261 0.0000 36.6149 0.0000
# 4 0.0000 0.0000 0.0000 19.4677 0.0000 1.0676
# 5 30.8852 12.7537 36.6149 0.0000 37.3749 0.0000
# 6 0.0000 0.0000 0.0000 1.0676 0.0000 24.3405
#
#
#
# Elastic Compliance Matrix: (Units=1/GPa)
#
#
# Indices 1 2 3 4 5 6 
#
# 1 0.021789 -0.000729 0.001048 0.000000 -0.018783 0.000000
# 2 -0.000729 0.019935 -0.003812 0.000000 -0.002466 0.000000
# 3 0.001048 -0.003812 0.019232 0.000000 -0.018406 0.000000
# 4 0.000000 0.000000 0.000000 0.051491 0.000000 -0.002258
# 5 -0.018783 -0.002466 -0.018406 0.000000 0.061151 0.000000
# 6 0.000000 0.000000 0.000000 -0.002258 0.000000 0.041183
#
#
# Mechanical properties :
#
#
# Convention : Reuss Voigt Hill
#
# Bulk Modulus (GPa) = 18.52891 38.13644 28.33267
# Shear Modulus (GPa) = 20.85445 26.60752 23.73098
#
# Velocity S-wave (km/s) = 3.07448 3.47275 3.27967
# Velocity P-wave (km/s) = 4.58275 5.77630 5.21379
#
# Compressibility (1/GPa) = 0.05396973
#
# Stress axis : x y z
#
# Youngs Moduli (GPa) = 45.89436 50.16292 51.99685
#
# Poissons Ratio (x) = 0.03658 -0.05447
# Poissons Ratio (y) = 0.03347 0.19819
# Poissons Ratio (z) = -0.04808 0.19120
#
# Static dielectric constant tensor:
#      x y z
#    x 1.928780 0.000000 -0.004600 
#    y 0.000000 1.823650 0.000000 
#    z -0.004600 0.000000 1.831740 
# 
# From -- ./inp_files/37764.got.cif
#   From: 2010.05.17/outbox.cif.g08.bks.cpg/sg14_19_cif.got.tgz:37764.got - 2010.06.03 17:49:19.
