data_PCOD9243741
_publ_section_title
;
Structure prediction by ZEFSAII (Michael W. Deem and Ramdas Pophale) SiO2 
 PCOD9243741
Probable space group: P 21/C
;
_chemical_formula_sum "Si O2"
_cell_formula_units_Z 28
_cell_length_a 13.335372
_cell_length_b 8.110241
_cell_length_c 17.468244
_cell_angle_alpha 90.000000
_cell_angle_beta 41.296395
_cell_angle_gamma 90.000000
_cell_volume 1246.815153
_symmetry_space_group_name_H-M "P 21/C"
_symmetry_group_IT_number 14
_symmetry_cell_setting 'monoclinic'
loop_
_space_group_symop_operation_xyz
x,y,z
-x,1/2+y,1/2-z
-x,-y,-z
x,1/2-y,1/2+z
loop_
_atom_site_type_symbol
_atom_site_label
_atom_site_fract_x
_atom_site_fract_y
_atom_site_fract_z
Si Si1 0.911439 0.857115 0.006361
Si Si2 0.677757 0.382965 0.140418
Si Si3 0.988216 0.530719 0.307549
Si Si4 0.843476 0.924744 0.666781
Si Si5 0.102498 0.821592 0.605455
Si Si6 0.656993 0.604134 0.422417
Si Si7 0.386482 0.245437 0.390890
O O1 0.891276 0.712949 0.078468
O O2 0.739290 0.869420 0.073065
O O3 0.994556 0.851105 0.877021
O O4 0.000000 0.000000 0.000000
O O5 0.785215 0.423787 0.150701
O O6 0.537166 0.297211 0.260346
O O7 0.646444 0.557924 0.116202
O O8 0.757819 0.278144 0.028051
O O9 0.000087 0.340293 0.323742
O O10 0.819412 0.535253 0.364256
O O11 0.121080 0.593169 0.175974
O O12 0.715728 0.864164 0.801162
O O13 0.000737 0.955786 0.619711
O O14 0.500000 0.500000 0.500000
O O15 0.614426 0.730953 0.516231
#
# Coordination Sequence:
#
# PCOD9243741 Si02
#       7
#     4   4   4   4   4   4   4
#     4  10  20  38  64  91 126 161 209 260 314 366
#     4  11  24  40  64  92 127 166 216 260 311 384
#     4  10  24  39  64  96 126 169 206 266 315 375
#     4  10  21  38  66  93 119 168 216 260 311 378
#     4  11  24  41  64  93 130 164 213 261 318 371
#     4  10  20  41  65  90 127 169 210 260 318 373
#     4  10  24  39  63  93 126 168 211 256 319 375
#
# _framework density 22.457218999999998
#
# number of rings (size 3 to 8) (size 9 to 14) (size 15 to 20)
#    0.000    1.714    2.857    0.429   12.000    0.000 
#    0.000    1.429    0.000    5.143    0.000    0.000 
#    0.000    0.000    0.000    0.000    0.000    0.000 
#
# Total GULP energy -155910.401982 kJ/mol
# GULP energy per Si atom -5568.228642 kJ/mol
# Density = 2.240610 g / cm^3
# Si number density = 22.457219 Si / 1000 Ang^3
#
#
#
# Elastic Constant Matrix: (Units=GPa)
#
#
# Indices 1 2 3 4 5 6 
#
# 1 56.5390 1.5678 25.8212 0.0000 25.9824 0.0000
# 2 1.5678 60.2565 26.0221 0.0000 11.2325 0.0000
# 3 25.8212 26.0221 185.1939 0.0000 32.9418 0.0000
# 4 0.0000 0.0000 0.0000 28.3049 0.0000 0.6291
# 5 25.9824 11.2325 32.9418 0.0000 32.4725 0.0000
# 6 0.0000 0.0000 0.0000 0.6291 0.0000 20.2841
#
#
#
# Elastic Compliance Matrix: (Units=1/GPa)
#
#
# Indices 1 2 3 4 5 6 
#
# 1 0.028769 0.003857 -0.000270 0.000000 -0.024079 0.000000
# 2 0.003857 0.018712 -0.001790 0.000000 -0.007743 0.000000
# 3 -0.000270 -0.001790 0.006760 0.000000 -0.006023 0.000000
# 4 0.000000 0.000000 0.000000 0.035354 0.000000 -0.001096
# 5 -0.024079 -0.007743 -0.006023 0.000000 0.058850 0.000000
# 6 0.000000 0.000000 0.000000 -0.001096 0.000000 0.049334
#
#
# Mechanical properties :
#
#
# Convention : Reuss Voigt Hill
#
# Bulk Modulus (GPa) = 17.29062 45.42351 31.35707
# Shear Modulus (GPa) = 23.42331 32.78418 28.10375
#
# Velocity S-wave (km/s) = 3.23308 3.82494 3.54140
# Velocity P-wave (km/s) = 4.65330 6.30694 5.54214
#
# Compressibility (1/GPa) = 0.05783482
#
# Stress axis : x y z
#
# Youngs Moduli (GPa) = 34.75983 53.44276 147.92508
#
# Poissons Ratio (x) = -0.20611 0.03993
# Poissons Ratio (y) = -0.13406 0.26474
# Poissons Ratio (z) = 0.00938 0.09564
#
# Static dielectric constant tensor:
#      x y z
#    x 1.901360 0.000000 0.020480 
#    y 0.000000 1.902340 0.000000 
#    z 0.020480 0.000000 1.886950 
# 
# From -- ./inp_files/59050.got.cif
#   From: 2010.05.17/outbox.cif.g08.bks.cpg/sg14_30_cif.got.tgz:59050.got - 2010.06.03 17:49:19.
