data_PCOD9243381
_publ_section_title
;
Structure prediction by ZEFSAII (Michael W. Deem and Ramdas Pophale) SiO2 
 PCOD9243381
Probable space group: P 21/C
;
_chemical_formula_sum "Si O2"
_cell_formula_units_Z 32
_cell_length_a 21.146598
_cell_length_b 8.575850
_cell_length_c 21.020487
_cell_angle_alpha 90.000000
_cell_angle_beta 24.906768
_cell_angle_gamma 90.000000
_cell_volume 1605.424913
_symmetry_space_group_name_H-M "P 21/C"
_symmetry_group_IT_number 14
_symmetry_cell_setting 'monoclinic'
loop_
_space_group_symop_operation_xyz
x,y,z
-x,1/2+y,1/2-z
-x,-y,-z
x,1/2-y,1/2+z
loop_
_atom_site_type_symbol
_atom_site_label
_atom_site_fract_x
_atom_site_fract_y
_atom_site_fract_z
Si Si1 0.654881 0.580625 0.719094
Si Si2 0.776669 0.355356 0.275750
Si Si3 0.750768 0.829812 0.865949
Si Si4 0.967504 0.631148 0.477089
Si Si5 0.321162 0.810370 0.506723
Si Si6 0.247238 0.518609 0.508644
Si Si7 0.929653 0.954388 0.244865
Si Si8 0.462076 0.650915 0.079173
O O1 0.791020 0.666621 0.630909
O O2 0.697680 0.557438 0.606782
O O3 0.635237 0.417479 0.773944
O O4 0.491504 0.656637 0.870189
O O5 0.781051 0.538880 0.285055
O O6 0.755873 0.281398 0.364900
O O7 0.635753 0.283759 0.366072
O O8 0.927496 0.280779 0.109395
O O9 0.888686 0.717600 0.758104
O O10 0.709156 0.916380 0.969969
O O11 0.616521 0.721714 0.963505
O O12 0.000000 0.500000 0.500000
O O13 0.016784 0.550508 0.365750
O O14 0.314055 0.691650 0.454874
O O15 0.220625 0.964715 0.590387
O O16 0.066822 0.538320 0.668806
O O17 0.500000 0.500000 0.000000
#
# Coordination Sequence:
#
# PCOD9243381 Si02
#       8
#     4   4   4   4   4   4   4   4
#     4  11  22  36  64  91 121 164 205 257 319 376
#     4  10  21  39  61  93 122 160 207 261 307 380
#     4  11  23  39  65  93 125 165 213 269 310 372
#     4  10  20  37  63  88 124 160 207 253 317 384
#     4  10  20  38  61  86 118 164 209 248 308 388
#     4  10  24  39  58  91 126 155 211 262 315 363
#     4  10  20  39  63  85 117 171 210 247 309 387
#     4  12  21  39  66  93 121 168 215 250 318 394
#
# _framework density 19.932417999999998
#
# number of rings (size 3 to 8) (size 9 to 14) (size 15 to 20)
#    0.000    1.500    3.750    1.875    1.750    1.000 
#    0.000    1.875    2.750    0.000    0.000    0.000 
#    0.000    0.000    0.000    0.000    0.000    0.000 
#
# Total GULP energy -178581.145033 kJ/mol
# GULP energy per Si atom -5580.660782 kJ/mol
# Density = 1.988705 g / cm^3
# Si number density = 19.932418 Si / 1000 Ang^3
#
#
#
# Elastic Constant Matrix: (Units=GPa)
#
#
# Indices 1 2 3 4 5 6 
#
# 1 87.9954 32.4509 22.3280 0.0000 -16.6404 0.0000
# 2 32.4509 87.5724 29.0074 0.0000 -15.6099 0.0000
# 3 22.3280 29.0074 81.4379 0.0000 -22.0252 0.0000
# 4 0.0000 0.0000 0.0000 15.1166 0.0000 -11.0591
# 5 -16.6404 -15.6099 -22.0252 0.0000 24.5303 0.0000
# 6 0.0000 0.0000 0.0000 -11.0591 0.0000 35.5511
#
#
#
# Elastic Compliance Matrix: (Units=1/GPa)
#
#
# Indices 1 2 3 4 5 6 
#
# 1 0.014208 -0.003853 -0.000765 0.000000 0.006499 0.000000
# 2 -0.003853 0.014559 -0.003078 0.000000 0.003887 0.000000
# 3 -0.000765 -0.003078 0.017057 0.000000 0.012837 0.000000
# 4 0.000000 0.000000 0.000000 0.085643 0.000000 0.026642
# 5 0.006499 0.003887 0.012837 0.000000 0.059175 0.000000
# 6 0.000000 0.000000 0.000000 0.026642 0.000000 0.036416
#
#
# Mechanical properties :
#
#
# Convention : Reuss Voigt Hill
#
# Bulk Modulus (GPa) = 32.85996 47.17537 40.01767
# Shear Modulus (GPa) = 19.79442 26.58758 23.19100
#
# Velocity S-wave (km/s) = 3.15473 3.65620 3.41468
# Velocity P-wave (km/s) = 5.45814 6.44537 5.97219
#
# Compressibility (1/GPa) = 0.03043217
#
# Stress axis : x y z
#
# Youngs Moduli (GPa) = 70.38082 68.68390 58.62527
#
# Poissons Ratio (x) = 0.26464 0.04487
# Poissons Ratio (y) = 0.27118 0.18046
# Poissons Ratio (z) = 0.05387 0.21142
#
# Static dielectric constant tensor:
#      x y z
#    x 1.716370 0.000000 0.003970 
#    y 0.000000 1.720770 0.000000 
#    z 0.003970 0.000000 1.714440 
# 
# From -- ./inp_files/74897.got.cif
#   From: 2010.05.17/outbox.cif.g08.bks.cpg/sg14_38_cif.got.tgz:74897.got - 2010.06.03 17:49:19.
