data_PCOD9243952
_publ_section_title
;
Structure prediction by ZEFSAII (Michael W. Deem and Ramdas Pophale) SiO2 
 PCOD9243952
Probable space group: P 21/C
;
_chemical_formula_sum "Si O2"
_cell_formula_units_Z 28
_cell_length_a 14.433514
_cell_length_b 11.058010
_cell_length_c 9.242988
_cell_angle_alpha 90.000000
_cell_angle_beta 118.267473
_cell_angle_gamma 90.000000
_cell_volume 1299.308558
_symmetry_space_group_name_H-M "P 21/C"
_symmetry_group_IT_number 14
_symmetry_cell_setting 'monoclinic'
loop_
_space_group_symop_operation_xyz
x,y,z
-x,1/2+y,1/2-z
-x,-y,-z
x,1/2-y,1/2+z
loop_
_atom_site_type_symbol
_atom_site_label
_atom_site_fract_x
_atom_site_fract_y
_atom_site_fract_z
Si Si1 0.746241 0.514610 0.386366
Si Si2 0.837908 0.182951 0.729560
Si Si3 0.880033 0.870779 0.553351
Si Si4 0.974493 0.520973 0.650306
Si Si5 0.234423 0.254835 0.270195
Si Si6 0.624059 0.506437 0.574357
Si Si7 0.775010 0.124048 0.390122
O O1 0.781239 0.417989 0.289855
O O2 0.721946 0.640123 0.287401
O O3 0.657098 0.478145 0.433336
O O4 0.850293 0.533067 0.563856
O O5 0.952968 0.137083 0.765289
O O6 0.768531 0.198129 0.534472
O O7 0.845700 0.299401 0.833832
O O8 0.869823 0.799048 0.395772
O O9 0.805465 0.799111 0.608820
O O10 0.982118 0.913458 0.717583
O O11 0.826781 0.998579 0.474880
O O12 0.000000 0.500000 0.500000
O O13 0.318680 0.363432 0.348861
O O14 0.500000 0.500000 0.500000
O O15 0.672922 0.410899 0.723832
#
# Coordination Sequence:
#
# PCOD9243952 Si02
#       7
#     4   4   4   4   4   4   4
#     4  11  21  43  68  98 133 184 222 284 340 405
#     4  10  20  40  66  96 145 177 214 272 343 412
#     4  10  20  39  63 100 134 181 227 272 338 412
#     4   9  18  37  61  98 138 174 224 260 329 417
#     4  11  20  41  70  93 134 177 225 286 334 409
#     4  11  26  47  67  96 131 170 240 294 345 400
#     4  10  21  42  65  96 136 178 224 277 343 412
#
# _framework density 21.549925000000002
#
# number of rings (size 3 to 8) (size 9 to 14) (size 15 to 20)
#    0.000    1.714    5.714    0.857    0.000    0.000 
#   23.143    4.286    0.000    0.000    0.000    0.000 
#    0.000    0.000    0.000    0.000    0.000    0.000 
#
# Total GULP energy -156382.866021 kJ/mol
# GULP energy per Si atom -5585.102358 kJ/mol
# Density = 2.150088 g / cm^3
# Si number density = 21.549925 Si / 1000 Ang^3
#
#
#
# Elastic Constant Matrix: (Units=GPa)
#
#
# Indices 1 2 3 4 5 6 
#
# 1 127.7564 36.6523 40.8699 0.0000 -4.3448 0.0000
# 2 36.6523 77.6620 41.5397 0.0000 -10.8484 0.0000
# 3 40.8699 41.5397 101.6934 0.0000 -23.2229 0.0000
# 4 0.0000 0.0000 0.0000 51.5526 0.0000 -15.4220
# 5 -4.3448 -10.8484 -23.2229 0.0000 26.9673 0.0000
# 6 0.0000 0.0000 0.0000 -15.4220 0.0000 23.2204
#
#
#
# Elastic Compliance Matrix: (Units=1/GPa)
#
#
# Indices 1 2 3 4 5 6 
#
# 1 0.009671 -0.003235 -0.003120 0.000000 -0.002430 0.000000
# 2 -0.003235 0.017581 -0.005459 0.000000 0.001850 0.000000
# 3 -0.003120 -0.005459 0.015810 0.000000 0.010916 0.000000
# 4 0.000000 0.000000 0.000000 0.024207 0.000000 0.016077
# 5 -0.002430 0.001850 0.010916 0.000000 0.046835 0.000000
# 6 0.000000 0.000000 0.000000 0.016077 0.000000 0.053743
#
#
# Mechanical properties :
#
#
# Convention : Reuss Voigt Hill
#
# Bulk Modulus (GPa) = 51.45517 60.58173 56.01845
# Shear Modulus (GPa) = 25.25830 32.88473 29.07152
#
# Velocity S-wave (km/s) = 3.42728 3.91062 3.67690
# Velocity P-wave (km/s) = 6.29212 6.96878 6.63907
#
# Compressibility (1/GPa) = 0.01943439
#
# Stress axis : x y z
#
# Youngs Moduli (GPa) = 103.40235 56.87866 63.24990
#
# Poissons Ratio (x) = 0.18398 0.19736
# Poissons Ratio (y) = 0.33447 0.34529
# Poissons Ratio (z) = 0.32265 0.31051
#
# Static dielectric constant tensor:
#      x y z
#    x 1.753060 0.000000 -0.002430 
#    y 0.000000 1.870930 0.000000 
#    z -0.002430 0.000000 1.835630 
# 
# From -- ./inp_files/15861.got.cif
#   From: 2010.05.17/outbox.cif.g08.bks.cpg/sg14_8_cif.got.tgz:15861.got - 2010.06.03 17:49:19.
