data_PCOD9243928
_publ_section_title
;
Structure prediction by ZEFSAII (Michael W. Deem and Ramdas Pophale) SiO2 
 PCOD9243928
Probable space group: P 21/C
;
_chemical_formula_sum "Si O2"
_cell_formula_units_Z 24
_cell_length_a 6.631957
_cell_length_b 24.161606
_cell_length_c 11.748081
_cell_angle_alpha 90.000000
_cell_angle_beta 40.326012
_cell_angle_gamma 90.000000
_cell_volume 1218.231895
_symmetry_space_group_name_H-M "P 21/C"
_symmetry_group_IT_number 14
_symmetry_cell_setting 'monoclinic'
loop_
_space_group_symop_operation_xyz
x,y,z
-x,1/2+y,1/2-z
-x,-y,-z
x,1/2-y,1/2+z
loop_
_atom_site_type_symbol
_atom_site_label
_atom_site_fract_x
_atom_site_fract_y
_atom_site_fract_z
Si Si1 0.534316 0.174643 0.600263
Si Si2 0.608143 0.549752 0.874041
Si Si3 0.983763 0.735340 0.256643
Si Si4 0.660486 0.074377 0.939249
Si Si5 0.515931 0.317081 0.377580
Si Si6 0.636983 0.502714 0.626352
O O1 0.500823 0.113098 0.561087
O O2 0.261330 0.218023 0.681578
O O3 0.509133 0.167300 0.747881
O O4 0.855473 0.201884 0.416216
O O5 0.490421 0.529032 0.801023
O O6 0.984431 0.553177 0.720357
O O7 0.500000 0.500000 0.000000
O O8 0.810682 0.696971 0.422827
O O9 0.263105 0.764493 0.203509
O O10 0.658552 0.136709 0.899451
O O11 0.439874 0.043314 0.944383
O O12 0.547026 0.057435 0.114633
O O13 0.000000 0.500000 0.500000
#
# Coordination Sequence:
#
# PCOD9243928 Si02
#       6
#     4   4   4   4   4   4
#     4  11  22  43  64  94 130 164 215 266 323 381
#     4  11  23  40  60  92 133 168 212 270 323 387
#     4  10  24  40  65  97 122 167 218 263 325 384
#     4  10  20  39  62  86 123 167 215 254 323 383
#     4  11  21  42  66  91 128 167 208 273 322 382
#     4   9  20  38  60  86 117 164 207 253 310 379
#
# _framework density 19.700682
#
# number of rings (size 3 to 8) (size 9 to 14) (size 15 to 20)
#    0.000    1.667    3.333    1.000    0.000    4.667 
#    3.000    1.667    0.000    0.000    0.000    0.000 
#    0.000    0.000    0.000    0.000    0.000    0.000 
#
# Total GULP energy -133671.076120 kJ/mol
# GULP energy per Si atom -5569.628172 kJ/mol
# Density = 1.965584 g / cm^3
# Si number density = 19.700682 Si / 1000 Ang^3
#
#
#
# Elastic Constant Matrix: (Units=GPa)
#
#
# Indices 1 2 3 4 5 6 
#
# 1 63.8954 26.0744 21.1801 0.0000 7.4266 0.0000
# 2 26.0744 112.6323 61.4029 0.0000 6.2251 0.0000
# 3 21.1801 61.4029 90.0502 0.0000 -1.4215 0.0000
# 4 0.0000 0.0000 0.0000 25.4231 0.0000 1.1197
# 5 7.4266 6.2251 -1.4215 0.0000 26.1403 0.0000
# 6 0.0000 0.0000 0.0000 1.1197 0.0000 32.9235
#
#
#
# Elastic Compliance Matrix: (Units=1/GPa)
#
#
# Indices 1 2 3 4 5 6 
#
# 1 0.018084 -0.002496 -0.002625 0.000000 -0.004686 0.000000
# 2 -0.002496 0.014883 -0.009614 0.000000 -0.003358 0.000000
# 3 -0.002625 -0.009614 0.018342 0.000000 0.004033 0.000000
# 4 0.000000 0.000000 0.000000 0.039393 0.000000 -0.001340
# 5 -0.004686 -0.003358 0.004033 0.000000 0.040605 0.000000
# 6 0.000000 0.000000 0.000000 -0.001340 0.000000 0.030419
#
#
# Mechanical properties :
#
#
# Convention : Reuss Voigt Hill
#
# Bulk Modulus (GPa) = 45.79300 53.76586 49.77943
# Shear Modulus (GPa) = 25.19166 27.42541 26.30853
#
# Velocity S-wave (km/s) = 3.57980 3.73514 3.65829
# Velocity P-wave (km/s) = 6.35464 6.77881 6.57015
#
# Compressibility (1/GPa) = 0.02183740
#
# Stress axis : x y z
#
# Youngs Moduli (GPa) = 55.29702 67.18908 54.51997
#
# Poissons Ratio (x) = 0.16772 0.14313
# Poissons Ratio (y) = 0.13804 0.52418
# Poissons Ratio (z) = 0.14517 0.64599
#
# Static dielectric constant tensor:
#      x y z
#    x 1.692360 0.000000 0.002040 
#    y 0.000000 1.819570 0.000000 
#    z 0.002040 0.000000 1.730100 
# 
# From -- ./inp_files/22047.got.cif
#   From: 2010.05.17/outbox.cif.g08.bks.cpg/sg14_12_cif.got.tgz:22047.got - 2010.06.03 17:49:19.
