data_PCOD9243904
_publ_section_title
;
Structure prediction by ZEFSAII (Michael W. Deem and Ramdas Pophale) SiO2 
 PCOD9243904
Probable space group: P 21/C
;
_chemical_formula_sum "Si O2"
_cell_formula_units_Z 32
_cell_length_a 17.470485
_cell_length_b 11.273851
_cell_length_c 25.380995
_cell_angle_alpha 90.000000
_cell_angle_beta 19.160459
_cell_angle_gamma 90.000000
_cell_volume 1640.756383
_symmetry_space_group_name_H-M "P 21/C"
_symmetry_group_IT_number 14
_symmetry_cell_setting 'monoclinic'
loop_
_space_group_symop_operation_xyz
x,y,z
-x,1/2+y,1/2-z
-x,-y,-z
x,1/2-y,1/2+z
loop_
_atom_site_type_symbol
_atom_site_label
_atom_site_fract_x
_atom_site_fract_y
_atom_site_fract_z
Si Si1 0.460103 0.631733 0.549037
Si Si2 0.394154 0.379458 0.428225
Si Si3 0.734940 0.512447 0.014884
Si Si4 0.003876 0.706829 0.784188
Si Si5 0.963190 0.720677 0.195121
Si Si6 0.226035 0.443380 0.378142
Si Si7 0.647321 0.729846 0.146180
Si Si8 0.730887 0.103083 0.048023
O O1 0.500000 0.500000 0.500000
O O2 0.460354 0.635174 0.612714
O O3 0.225659 0.681700 0.676081
O O4 0.690761 0.701983 0.381092
O O5 0.466173 0.305733 0.328765
O O6 0.357655 0.518075 0.440778
O O7 0.141150 0.321242 0.603013
O O8 0.910638 0.401295 0.904309
O O9 0.828014 0.594217 0.905868
O O10 0.467725 0.464214 0.188281
O O11 0.744877 0.609185 0.056477
O O12 0.069632 0.735686 0.681731
O O13 0.027330 0.829532 0.116168
O O14 0.181706 0.312589 0.431072
O O15 0.265121 0.517941 0.405227
O O16 0.000000 0.500000 0.500000
O O17 0.454944 0.700737 0.314717
#
# Coordination Sequence:
#
# PCOD9243904 Si02
#       8
#     4   4   4   4   4   4   4   4
#     4  11  21  39  64  92 120 161 220 256 306 384
#     4   9  21  40  63  90 123 167 201 266 322 371
#     4  10  20  40  61  86 127 163 200 260 316 368
#     4  10  22  40  61  90 126 161 205 265 319 367
#     4  11  22  37  64  89 124 166 207 260 320 369
#     4  10  21  40  65  92 119 163 212 260 319 380
#     4   9  19  40  63  86 125 167 201 255 323 368
#     4  10  20  39  61  85 128 161 205 253 324 376
#
# _framework density 19.5032
#
# number of rings (size 3 to 8) (size 9 to 14) (size 15 to 20)
#    0.000    2.000    2.500    0.750    1.750    1.000 
#   29.250    0.625    0.000    6.000    0.000    0.000 
#    0.000    0.000    0.000    0.000    0.000    0.000 
#
# Total GULP energy -178151.321416 kJ/mol
# GULP energy per Si atom -5567.228794 kJ/mol
# Density = 1.945881 g / cm^3
# Si number density = 19.503200 Si / 1000 Ang^3
#
#
#
# Elastic Constant Matrix: (Units=GPa)
#
#
# Indices 1 2 3 4 5 6 
#
# 1 59.6180 23.0307 26.9664 0.0000 -18.2224 0.0000
# 2 23.0307 70.1764 23.5348 0.0000 10.0742 0.0000
# 3 26.9664 23.5348 64.3438 0.0000 -6.4496 0.0000
# 4 0.0000 0.0000 0.0000 26.4244 0.0000 1.4911
# 5 -18.2224 10.0742 -6.4496 0.0000 23.2286 0.0000
# 6 0.0000 0.0000 0.0000 1.4911 0.0000 18.8120
#
#
#
# Elastic Compliance Matrix: (Units=1/GPa)
#
#
# Indices 1 2 3 4 5 6 
#
# 1 0.034440 -0.013664 -0.006309 0.000000 0.031192 0.000000
# 2 -0.013664 0.023696 -0.005189 0.000000 -0.022437 0.000000
# 3 -0.006309 -0.005189 0.020380 0.000000 0.002960 0.000000
# 4 0.000000 0.000000 0.000000 0.038014 0.000000 -0.003013
# 5 0.031192 -0.022437 0.002960 0.000000 0.078073 0.000000
# 6 0.000000 0.000000 0.000000 -0.003013 0.000000 0.053396
#
#
# Mechanical properties :
#
#
# Convention : Reuss Voigt Hill
#
# Bulk Modulus (GPa) = 35.47360 37.91136 36.69248
# Shear Modulus (GPa) = 16.24849 21.73340 18.99095
#
# Velocity S-wave (km/s) = 2.88951 3.34181 3.12386
# Velocity P-wave (km/s) = 5.41853 5.86268 5.64497
#
# Compressibility (1/GPa) = 0.02818998
#
# Stress axis : x y z
#
# Youngs Moduli (GPa) = 29.03624 42.20209 49.06673
#
# Poissons Ratio (x) = 0.57667 0.30957
# Poissons Ratio (y) = 0.39676 0.25462
# Poissons Ratio (z) = 0.18319 0.21900
#
# Static dielectric constant tensor:
#      x y z
#    x 1.770500 0.000000 0.036760 
#    y 0.000000 1.737610 0.000000 
#    z 0.036760 0.000000 1.726760 
# 
# From -- ./inp_files/77818.got.cif
#   From: 2010.05.17/outbox.cif.g08.bks.cpg/sg14_39_cif.got.tgz:77818.got - 2010.06.03 17:49:19.
