data_PCOD9243120
_publ_section_title
;
Structure prediction by ZEFSAII (Michael W. Deem and Ramdas Pophale) SiO2 
 PCOD9243120
Probable space group: P 21/C
;
_chemical_formula_sum "Si O2"
_cell_formula_units_Z 32
_cell_length_a 8.821291
_cell_length_b 19.774550
_cell_length_c 18.474974
_cell_angle_alpha 90.000000
_cell_angle_beta 28.783813
_cell_angle_gamma 90.000000
_cell_volume 1551.759357
_symmetry_space_group_name_H-M "P 21/C"
_symmetry_group_IT_number 14
_symmetry_cell_setting 'monoclinic'
loop_
_space_group_symop_operation_xyz
x,y,z
-x,1/2+y,1/2-z
-x,-y,-z
x,1/2-y,1/2+z
loop_
_atom_site_type_symbol
_atom_site_label
_atom_site_fract_x
_atom_site_fract_y
_atom_site_fract_z
Si Si1 0.015988 0.882351 0.497836
Si Si2 0.386217 0.777902 0.602828
Si Si3 0.025487 0.890399 0.001113
Si Si4 0.323114 0.591043 0.223127
Si Si5 0.803840 0.697440 0.794958
Si Si6 0.349225 0.444161 0.217812
Si Si7 0.593049 0.811268 0.777728
Si Si8 0.536769 0.291361 0.281642
O O1 0.285310 0.933444 0.412261
O O2 0.183944 0.837980 0.365183
O O3 0.682127 0.905701 0.604824
O O4 0.919608 0.839622 0.609900
O O5 0.264197 0.846757 0.692958
O O6 0.664764 0.800179 0.433742
O O7 0.479587 0.727613 0.628322
O O8 0.140911 0.733670 0.659412
O O9 0.094082 0.905467 0.888725
O O10 0.357474 0.870440 0.898799
O O11 0.846111 0.944622 0.125110
O O12 0.787905 0.826824 0.104790
O O13 0.296371 0.515739 0.201381
O O14 0.765980 0.622541 0.777591
O O15 0.616807 0.750647 0.823379
O O16 0.433853 0.778306 0.773551
#
# Coordination Sequence:
#
# PCOD9243120 Si02
#       8
#     4   4   4   4   4   4   4   4
#     4  10  20  36  64  96 115 155 206 260 311 353
#     4  12  25  38  59  91 123 160 203 251 311 366
#     4  10  20  36  64  92 113 155 208 262 307 347
#     4  11  23  39  60  88 127 164 204 252 310 372
#     4  12  25  38  59  91 123 160 203 251 311 366
#     4  11  23  39  60  88 127 164 204 252 310 372
#     4  11  20  36  66  88 121 151 206 265 303 349
#     4  11  20  36  66  88 121 151 206 265 303 349
#
# _framework density 20.621753999999999
#
# number of rings (size 3 to 8) (size 9 to 14) (size 15 to 20)
#    0.000    1.000    5.000    4.500    0.000    0.500 
#    0.000    0.000    0.000    8.250    0.000    0.000 
#    0.000    0.000    0.000    0.000    0.000    0.000 
#
# Total GULP energy -178530.113674 kJ/mol
# GULP energy per Si atom -5579.066052 kJ/mol
# Density = 2.057482 g / cm^3
# Si number density = 20.621754 Si / 1000 Ang^3
#
#
#
# Elastic Constant Matrix: (Units=GPa)
#
#
# Indices 1 2 3 4 5 6 
#
# 1 37.3077 3.2427 -0.3704 0.0000 1.2997 0.0000
# 2 3.2427 91.3148 14.1240 0.0000 0.9460 0.0000
# 3 -0.3704 14.1240 107.1488 0.0000 13.7328 0.0000
# 4 0.0000 0.0000 0.0000 5.8457 0.0000 3.9215
# 5 1.2997 0.9460 13.7328 0.0000 25.0765 0.0000
# 6 0.0000 0.0000 0.0000 3.9215 0.0000 22.8285
#
#
#
# Elastic Compliance Matrix: (Units=1/GPa)
#
#
# Indices 1 2 3 4 5 6 
#
# 1 0.026951 -0.001007 0.000430 0.000000 -0.001594 0.000000
# 2 -0.001007 0.011221 -0.001543 0.000000 0.000474 0.000000
# 3 0.000430 -0.001543 0.010253 0.000000 -0.005579 0.000000
# 4 0.000000 0.000000 0.000000 0.193347 0.000000 -0.033213
# 5 -0.001594 0.000474 -0.005579 0.000000 0.042998 0.000000
# 6 0.000000 0.000000 0.000000 -0.033213 0.000000 0.049510
#
#
# Mechanical properties :
#
#
# Convention : Reuss Voigt Hill
#
# Bulk Modulus (GPa) = 22.63230 29.97376 26.30303
# Shear Modulus (GPa) = 14.15434 25.33514 19.74474
#
# Velocity S-wave (km/s) = 2.62273 3.50889 3.09766
# Velocity P-wave (km/s) = 4.49114 5.56624 5.05734
#
# Compressibility (1/GPa) = 0.04418463
#
# Stress axis : x y z
#
# Youngs Moduli (GPa) = 37.10370 89.12108 97.53481
#
# Poissons Ratio (x) = 0.08976 -0.04197
# Poissons Ratio (y) = 0.03737 0.15053
# Poissons Ratio (z) = -0.01596 0.13754
#
# Static dielectric constant tensor:
#      x y z
#    x 1.778270 0.000000 0.000890 
#    y 0.000000 1.769320 0.000000 
#    z 0.000890 0.000000 1.772840 
# 
# From -- ./inp_files/56224.got.cif
#   From: 2010.05.17/outbox.cif.g08.bks.cpg/sg14_29_cif.got.tgz:56224.got - 2010.06.03 17:49:19.
