data_PCOD9243772
_publ_section_title
;
Structure prediction by ZEFSAII (Michael W. Deem and Ramdas Pophale) SiO2 
 PCOD9243772
Probable space group: P 21/C
;
_chemical_formula_sum "Si O2"
_cell_formula_units_Z 32
_cell_length_a 17.166468
_cell_length_b 14.516859
_cell_length_c 11.950150
_cell_angle_alpha 90.000000
_cell_angle_beta 149.108855
_cell_angle_gamma 90.000000
_cell_volume 1528.938901
_symmetry_space_group_name_H-M "P 21/C"
_symmetry_group_IT_number 14
_symmetry_cell_setting 'monoclinic'
loop_
_space_group_symop_operation_xyz
x,y,z
-x,1/2+y,1/2-z
-x,-y,-z
x,1/2-y,1/2+z
loop_
_atom_site_type_symbol
_atom_site_label
_atom_site_fract_x
_atom_site_fract_y
_atom_site_fract_z
Si Si1 0.247840 0.308718 0.476386
Si Si2 0.762270 0.611442 0.113847
Si Si3 0.108076 0.576722 0.189654
Si Si4 0.656549 0.945128 0.716959
Si Si5 0.666499 0.561650 0.603925
Si Si6 0.902251 0.103598 0.065104
Si Si7 0.104331 0.692366 0.970969
Si Si8 0.681986 0.465114 0.848548
O O1 0.291905 0.202105 0.520105
O O2 0.340584 0.375409 0.673477
O O3 0.260493 0.352355 0.367943
O O4 0.069153 0.311190 0.285418
O O5 0.707955 0.615006 0.173727
O O6 0.943723 0.603453 0.318024
O O7 0.695547 0.518198 0.980335
O O8 0.273680 0.528637 0.389371
O O9 0.060590 0.594536 0.257281
O O10 0.107004 0.662360 0.104519
O O11 0.000000 0.500000 0.000000
O O12 0.500000 0.000000 0.500000
O O13 0.787408 0.022047 0.895114
O O14 0.710962 0.539726 0.785734
O O15 0.486976 0.570872 0.377318
O O16 0.833085 0.205134 0.964450
O O17 0.200235 0.616700 0.023117
#
# Coordination Sequence:
#
# PCOD9243772 Si02
#       8
#     4   4   4   4   4   4   4   4
#     4  11  23  42  67  96 128 174 226 266 331 403
#     4  11  26  39  68  97 130 173 222 280 327 398
#     4  11  19  39  70  89 125 176 217 273 334 390
#     4  12  26  47  66  95 143 185 217 271 349 400
#     4  10  20  38  65  88 125 161 213 272 316 398
#     4  11  24  42  67  98 133 174 227 276 335 400
#     4  10  23  39  67 102 126 174 223 285 332 394
#     4  10  22  40  61  98 126 163 220 269 335 376
#
# _framework density 20.929546999999999
#
# number of rings (size 3 to 8) (size 9 to 14) (size 15 to 20)
#    0.000    1.250    2.500    3.375    1.750    5.000 
#    4.500    0.000    0.000    0.000    0.000    0.000 
#    0.000    0.000    0.000    0.000    0.000    0.000 
#
# Total GULP energy -178789.604487 kJ/mol
# GULP energy per Si atom -5587.175140 kJ/mol
# Density = 2.088191 g / cm^3
# Si number density = 20.929547 Si / 1000 Ang^3
#
#
#
# Elastic Constant Matrix: (Units=GPa)
#
#
# Indices 1 2 3 4 5 6 
#
# 1 76.4753 21.7478 10.2945 0.0000 -3.1428 0.0000
# 2 21.7478 109.9937 31.3465 0.0000 -7.0338 0.0000
# 3 10.2945 31.3465 45.4940 0.0000 4.0355 0.0000
# 4 0.0000 0.0000 0.0000 18.6650 0.0000 -13.1587
# 5 -3.1428 -7.0338 4.0355 0.0000 16.1665 0.0000
# 6 0.0000 0.0000 0.0000 -13.1587 0.0000 13.6846
#
#
#
# Elastic Compliance Matrix: (Units=1/GPa)
#
#
# Indices 1 2 3 4 5 6 
#
# 1 0.014022 -0.002068 -0.001953 0.000000 0.002314 0.000000
# 2 -0.002068 0.012455 -0.008753 0.000000 0.007202 0.000000
# 3 -0.001953 -0.008753 0.029478 0.000000 -0.011546 0.000000
# 4 0.000000 0.000000 0.000000 0.166336 0.000000 0.159943
# 5 0.002314 0.007202 -0.011546 0.000000 0.068322 0.000000
# 6 0.000000 0.000000 0.000000 0.159943 0.000000 0.226871
#
#
# Mechanical properties :
#
#
# Convention : Reuss Voigt Hill
#
# Bulk Modulus (GPa) = 32.88691 39.86007 36.37349
# Shear Modulus (GPa) = 9.03884 20.94149 14.99016
#
# Velocity S-wave (km/s) = 2.08040 3.16661 2.67913
# Velocity P-wave (km/s) = 4.63875 5.69703 5.19491
#
# Compressibility (1/GPa) = 0.03040723
#
# Stress axis : x y z
#
# Youngs Moduli (GPa) = 71.31549 80.28735 33.92343
#
# Poissons Ratio (x) = 0.16601 0.06627
# Poissons Ratio (y) = 0.14746 0.29693
# Poissons Ratio (z) = 0.13931 0.70275
#
# Static dielectric constant tensor:
#      x y z
#    x 1.771720 0.000000 0.002800 
#    y 0.000000 1.732380 0.000000 
#    z 0.002800 0.000000 1.763890 
# 
# From -- ./inp_files/34247.got.cif
#   From: 2010.05.17/outbox.cif.g08.bks.cpg/sg14_18_cif.got.tgz:34247.got - 2010.06.03 17:49:19.
