data_PCOD9243566
_publ_section_title
;
Structure prediction by ZEFSAII (Michael W. Deem and Ramdas Pophale) SiO2 
 PCOD9243566
Probable space group: P 21/C
;
_chemical_formula_sum "Si O2"
_cell_formula_units_Z 24
_cell_length_a 8.141336
_cell_length_b 13.728202
_cell_length_c 16.245792
_cell_angle_alpha 90.000000
_cell_angle_beta 151.424231
_cell_angle_gamma 90.000000
_cell_volume 868.498812
_symmetry_space_group_name_H-M "P 21/C"
_symmetry_group_IT_number 14
_symmetry_cell_setting 'monoclinic'
loop_
_space_group_symop_operation_xyz
x,y,z
-x,1/2+y,1/2-z
-x,-y,-z
x,1/2-y,1/2+z
loop_
_atom_site_type_symbol
_atom_site_label
_atom_site_fract_x
_atom_site_fract_y
_atom_site_fract_z
Si Si1 0.688649 0.613958 0.550498
Si Si2 0.098476 0.113928 0.668035
Si Si3 0.495454 0.286484 0.799401
Si Si4 0.641068 0.952476 0.476666
Si Si5 0.041300 0.460398 0.609337
Si Si6 0.312931 0.755122 0.296079
O O1 0.835904 0.625975 0.706499
O O2 0.743945 0.505558 0.537621
O O3 0.975597 0.680459 0.630618
O O4 0.334710 0.669228 0.374065
O O5 0.770388 0.169537 0.484080
O O6 0.419259 0.171027 0.772003
O O7 0.007612 0.000457 0.617556
O O8 0.143827 0.347293 0.658517
O O9 0.602076 0.297648 0.751988
O O10 0.387935 0.991806 0.296113
O O11 0.581862 0.838011 0.447015
O O12 0.500000 0.000000 0.500000
O O13 0.000000 0.500000 0.500000
#
# Coordination Sequence:
#
# PCOD9243566 Si02
#       6
#     4   4   4   4   4   4
#     4  11  22  39  67  89 125 165 212 249 308 374
#     4  11  23  40  62  93 122 168 204 257 308 371
#     4  11  24  38  64  92 126 156 210 260 308 363
#     4  10  21  40  63  87 123 169 203 242 319 379
#     4  10  20  38  60  88 119 168 196 244 311 382
#     4  11  22  40  63  94 122 164 207 258 307 370
#
# _framework density 27.633890000000001
#
# number of rings (size 3 to 8) (size 9 to 14) (size 15 to 20)
#    0.000    1.333    5.000    2.000    4.667    0.667 
#    0.000    3.333    0.000    4.000    0.000    0.000 
#    0.000    0.000    0.000    0.000    0.000    0.000 
#
# Total GULP energy -134295.118867 kJ/mol
# GULP energy per Si atom -5595.629953 kJ/mol
# Density = 2.757099 g / cm^3
# Si number density = 27.633890 Si / 1000 Ang^3
#
#
#
# Elastic Constant Matrix: (Units=GPa)
#
#
# Indices 1 2 3 4 5 6 
#
# 1 62.3908 23.2259 48.7546 0.0000 -25.1862 0.0000
# 2 23.2259 156.3141 32.9760 0.0000 -0.9491 0.0000
# 3 48.7546 32.9760 155.2917 0.0000 -28.9750 0.0000
# 4 0.0000 0.0000 0.0000 43.7788 0.0000 6.9894
# 5 -25.1862 -0.9491 -28.9750 0.0000 54.8859 0.0000
# 6 0.0000 0.0000 0.0000 6.9894 0.0000 45.2516
#
#
#
# Elastic Compliance Matrix: (Units=1/GPa)
#
#
# Indices 1 2 3 4 5 6 
#
# 1 0.024736 -0.002422 -0.005704 0.000000 0.008298 0.000000
# 2 -0.002422 0.006959 -0.001001 0.000000 -0.001519 0.000000
# 3 -0.005704 -0.001001 0.008820 0.000000 0.002022 0.000000
# 4 0.000000 0.000000 0.000000 0.023420 0.000000 -0.003617
# 5 0.008298 -0.001519 0.002022 0.000000 0.023068 0.000000
# 6 0.000000 0.000000 0.000000 -0.003617 0.000000 0.022657
#
#
# Mechanical properties :
#
#
# Convention : Reuss Voigt Hill
#
# Bulk Modulus (GPa) = 44.91783 64.87885 54.89834
# Shear Modulus (GPa) = 36.94550 46.71925 41.83238
#
# Velocity S-wave (km/s) = 3.66042 4.11621 3.89499
# Velocity P-wave (km/s) = 5.84421 6.79116 6.33540
#
# Compressibility (1/GPa) = 0.02226287
#
# Stress axis : x y z
#
# Youngs Moduli (GPa) = 40.42626 143.69561 113.38031
#
# Poissons Ratio (x) = 0.34801 0.64667
# Poissons Ratio (y) = 0.09791 0.11348
# Poissons Ratio (z) = 0.23057 0.14383
#
# Static dielectric constant tensor:
#      x y z
#    x 1.557360 0.000000 0.257470 
#    y 0.000000 2.139770 0.000000 
#    z 0.257470 0.000000 2.070560 
# 
# From -- ./inp_files/41332.got.cif
#   From: 2010.05.17/outbox.cif.g08.bks.cpg/sg14_21_cif.got.tgz:41332.got - 2010.06.03 17:49:19.
