data_PCOD9243599
_publ_section_title
;
Structure prediction by ZEFSAII (Michael W. Deem and Ramdas Pophale) SiO2 
 PCOD9243599
Probable space group: P 21/C
;
_chemical_formula_sum "Si O2"
_cell_formula_units_Z 32
_cell_length_a 9.319058
_cell_length_b 18.458518
_cell_length_c 10.640132
_cell_angle_alpha 90.000000
_cell_angle_beta 43.879679
_cell_angle_gamma 90.000000
_cell_volume 1268.646788
_symmetry_space_group_name_H-M "P 21/C"
_symmetry_group_IT_number 14
_symmetry_cell_setting 'monoclinic'
loop_
_space_group_symop_operation_xyz
x,y,z
-x,1/2+y,1/2-z
-x,-y,-z
x,1/2-y,1/2+z
loop_
_atom_site_type_symbol
_atom_site_label
_atom_site_fract_x
_atom_site_fract_y
_atom_site_fract_z
Si Si1 0.233513 0.332412 0.638493
Si Si2 0.133946 0.741012 0.723509
Si Si3 0.367253 0.679065 0.784770
Si Si4 0.773979 0.537609 0.855749
Si Si5 0.460497 0.820988 0.849355
Si Si6 0.347992 0.514944 0.797442
Si Si7 0.601791 0.117613 0.386650
Si Si8 0.796426 0.505577 0.394562
O O1 0.453860 0.323079 0.432247
O O2 0.322576 0.342179 0.723116
O O3 0.147080 0.408889 0.643375
O O4 0.083408 0.266546 0.697202
O O5 0.159763 0.710668 0.849555
O O6 0.253112 0.680208 0.566095
O O7 0.261295 0.817019 0.647131
O O8 0.465900 0.736021 0.815823
O O9 0.334793 0.598287 0.850460
O O10 0.742590 0.527907 0.026876
O O11 0.628263 0.604498 0.910749
O O12 0.695798 0.462662 0.842666
O O13 0.014177 0.540496 0.673856
O O14 0.425385 0.860542 0.741180
O O15 0.584670 0.497035 0.606400
O O16 0.237846 0.511867 0.731329
#
# Coordination Sequence:
#
# PCOD9243599 Si02
#       8
#     4   4   4   4   4   4   4   4
#     4  10  20  38  61  86 121 159 214 259 316 384
#     4  10  20  40  62  87 123 167 207 265 324 370
#     4   9  21  37  57  88 127 155 206 265 314 385
#     4  11  21  40  66  90 132 172 209 263 327 382
#     4  10  21  38  60  86 119 163 205 259 315 378
#     4  10  21  39  64  94 131 167 212 268 323 378
#     4  10  22  39  62  92 130 160 213 269 313 384
#     4  10  21  39  64  96 127 165 218 265 313 389
#
# _framework density 25.223728000000001
#
# number of rings (size 3 to 8) (size 9 to 14) (size 15 to 20)
#    0.000    2.000    1.250    1.875    0.000    3.000 
#    6.750    2.500    2.750    0.000    0.000    0.000 
#    0.000    0.000    0.000    0.000    0.000    0.000 
#
# Total GULP energy -178795.779902 kJ/mol
# GULP energy per Si atom -5587.368122 kJ/mol
# Density = 2.516632 g / cm^3
# Si number density = 25.223728 Si / 1000 Ang^3
#
#
#
# Elastic Constant Matrix: (Units=GPa)
#
#
# Indices 1 2 3 4 5 6 
#
# 1 75.9720 17.7341 25.0141 0.0000 -21.3594 0.0000
# 2 17.7341 62.1373 10.4825 0.0000 -10.6815 0.0000
# 3 25.0141 10.4825 34.5798 0.0000 -12.4603 0.0000
# 4 0.0000 0.0000 0.0000 35.8917 0.0000 0.1188
# 5 -21.3594 -10.6815 -12.4603 0.0000 33.7890 0.0000
# 6 0.0000 0.0000 0.0000 0.1188 0.0000 25.7769
#
#
#
# Elastic Compliance Matrix: (Units=1/GPa)
#
#
# Indices 1 2 3 4 5 6 
#
# 1 0.019320 -0.002440 -0.010509 0.000000 0.007566 0.000000
# 2 -0.002440 0.017750 -0.002479 0.000000 0.003155 0.000000
# 3 -0.010509 -0.002479 0.039898 0.000000 0.007286 0.000000
# 4 0.000000 0.000000 0.000000 0.027862 0.000000 -0.000128
# 5 0.007566 0.003155 0.007286 0.000000 0.038062 0.000000
# 6 0.000000 0.000000 0.000000 -0.000128 0.000000 0.038795
#
#
# Mechanical properties :
#
#
# Convention : Reuss Voigt Hill
#
# Bulk Modulus (GPa) = 21.68708 31.01674 26.35191
# Shear Modulus (GPa) = 21.93808 27.05543 24.49675
#
# Velocity S-wave (km/s) = 2.95233 3.27864 3.11976
# Velocity P-wave (km/s) = 4.49870 5.16294 4.84222
#
# Compressibility (1/GPa) = 0.04611040
#
# Stress axis : x y z
#
# Youngs Moduli (GPa) = 51.76035 56.33702 25.06414
#
# Poissons Ratio (x) = 0.13749 0.26341
# Poissons Ratio (y) = 0.12632 0.06213
# Poissons Ratio (z) = 0.54397 0.13965
#
# Static dielectric constant tensor:
#      x y z
#    x 2.095800 0.000000 0.045310 
#    y 0.000000 1.998540 0.000000 
#    z 0.045310 0.000000 2.112390 
# 
# From -- ./inp_files/26778.got.cif
#   From: 2010.05.17/outbox.cif.g08.bks.cpg/sg14_14_cif.got.tgz:26778.got - 2010.06.03 17:49:19.
