data_PCOD9243375
_publ_section_title
;
Structure prediction by ZEFSAII (Michael W. Deem and Ramdas Pophale) SiO2 
 PCOD9243375
Probable space group: P 21/C
;
_chemical_formula_sum "Si O2"
_cell_formula_units_Z 24
_cell_length_a 12.654251
_cell_length_b 8.179047
_cell_length_c 9.021666
_cell_angle_alpha 90.000000
_cell_angle_beta 99.451967
_cell_angle_gamma 90.000000
_cell_volume 921.063041
_symmetry_space_group_name_H-M "P 21/C"
_symmetry_group_IT_number 14
_symmetry_cell_setting 'monoclinic'
loop_
_space_group_symop_operation_xyz
x,y,z
-x,1/2+y,1/2-z
-x,-y,-z
x,1/2-y,1/2+z
loop_
_atom_site_type_symbol
_atom_site_label
_atom_site_fract_x
_atom_site_fract_y
_atom_site_fract_z
Si Si1 0.129375 0.008918 0.583375
Si Si2 0.768375 0.170563 0.174979
Si Si3 0.819369 0.959817 0.748443
Si Si4 0.582764 0.582333 0.227794
Si Si5 0.456529 0.762989 0.948087
Si Si6 0.010624 0.710271 0.424279
O O1 0.236901 0.956923 0.691744
O O2 0.847029 0.932218 0.579329
O O3 0.059453 0.840217 0.556626
O O4 0.065457 0.143988 0.663015
O O5 0.787363 0.350838 0.242907
O O6 0.663467 0.171511 0.051259
O O7 0.880513 0.142496 0.118934
O O8 0.708735 0.873806 0.766229
O O9 0.919960 0.928032 0.879934
O O10 0.563816 0.402583 0.154279
O O11 0.523411 0.609345 0.367872
O O12 0.523753 0.704745 0.102133
#
# Coordination Sequence:
#
# PCOD9243375 Si02
#       6
#     4   4   4   4   4   4
#     4  10  22  39  65  90 130 166 206 266 324 383
#     4  10  21  38  62  94 125 167 209 261 324 383
#     4  10  23  41  62  94 125 165 216 261 325 385
#     4  10  24  44  66  97 128 175 215 273 318 388
#     4  10  24  42  69  94 133 169 220 268 325 381
#     4  10  20  37  62  95 121 165 206 258 320 385
#
# _framework density 26.056849
#
# number of rings (size 3 to 8) (size 9 to 14) (size 15 to 20)
#    0.000    2.000    0.000    3.000   11.667    1.333 
#    3.000    3.333    0.000    0.000    0.000    0.000 
#    0.000    0.000    0.000    0.000    0.000    0.000 
#
# Total GULP energy -133956.782371 kJ/mol
# GULP energy per Si atom -5581.532599 kJ/mol
# Density = 2.599754 g / cm^3
# Si number density = 26.056849 Si / 1000 Ang^3
#
#
#
# Elastic Constant Matrix: (Units=GPa)
#
#
# Indices 1 2 3 4 5 6 
#
# 1 225.2691 18.9948 63.2560 0.0000 12.7043 0.0000
# 2 18.9948 26.4940 27.1815 0.0000 -9.1378 0.0000
# 3 63.2560 27.1815 83.4715 0.0000 -9.2790 0.0000
# 4 0.0000 0.0000 0.0000 36.1059 0.0000 -3.5113
# 5 12.7043 -9.1378 -9.2790 0.0000 29.8934 0.0000
# 6 0.0000 0.0000 0.0000 -3.5113 0.0000 32.8863
#
#
#
# Elastic Compliance Matrix: (Units=1/GPa)
#
#
# Indices 1 2 3 4 5 6 
#
# 1 0.006119 -0.000965 -0.004810 0.000000 -0.004389 0.000000
# 2 -0.000965 0.061327 -0.017721 0.000000 0.013656 0.000000
# 3 -0.004810 -0.017721 0.021773 0.000000 0.003386 0.000000
# 4 0.000000 0.000000 0.000000 0.027987 0.000000 0.002988
# 5 -0.004389 0.013656 0.003386 0.000000 0.040543 0.000000
# 6 0.000000 0.000000 0.000000 0.002988 0.000000 0.030727
#
#
# Mechanical properties :
#
#
# Convention : Reuss Voigt Hill
#
# Bulk Modulus (GPa) = 23.68250 61.56655 42.62452
# Shear Modulus (GPa) = 20.03661 34.83060 27.43361
#
# Velocity S-wave (km/s) = 2.77602 3.66008 3.24826
# Velocity P-wave (km/s) = 4.40267 6.44520 5.51925
#
# Compressibility (1/GPa) = 0.04222527
#
# Stress axis : x y z
#
# Youngs Moduli (GPa) = 163.43020 16.30600 45.92929
#
# Poissons Ratio (x) = 0.01574 0.22094
# Poissons Ratio (y) = 0.15774 0.81391
# Poissons Ratio (z) = 0.78618 0.28896
#
# Static dielectric constant tensor:
#      x y z
#    x 2.071570 0.000000 -0.010930 
#    y 0.000000 2.169050 0.000000 
#    z -0.010930 0.000000 2.088250 
# 
# From -- ./inp_files/28115.got.cif
#   From: 2010.05.17/outbox.cif.g08.bks.cpg/sg14_15_cif.got.tgz:28115.got - 2010.06.03 17:49:19.
