data_PCOD9243716
_publ_section_title
;
Structure prediction by ZEFSAII (Michael W. Deem and Ramdas Pophale) SiO2 
 PCOD9243716
Probable space group: P 21/C
;
_chemical_formula_sum "Si O2"
_cell_formula_units_Z 32
_cell_length_a 11.437726
_cell_length_b 21.666615
_cell_length_c 8.403820
_cell_angle_alpha 90.000000
_cell_angle_beta 135.296860
_cell_angle_gamma 90.000000
_cell_volume 1464.976438
_symmetry_space_group_name_H-M "P 21/C"
_symmetry_group_IT_number 14
_symmetry_cell_setting 'monoclinic'
loop_
_space_group_symop_operation_xyz
x,y,z
-x,1/2+y,1/2-z
-x,-y,-z
x,1/2-y,1/2+z
loop_
_atom_site_type_symbol
_atom_site_label
_atom_site_fract_x
_atom_site_fract_y
_atom_site_fract_z
Si Si1 0.470149 0.428067 0.498802
Si Si2 0.941108 0.922440 0.707335
Si Si3 0.652506 0.361727 0.955460
Si Si4 0.015354 0.860474 0.117088
Si Si5 0.332040 0.204623 0.288636
Si Si6 0.677538 0.836234 0.356739
Si Si7 0.857839 0.532806 0.646148
Si Si8 0.307035 0.990412 0.341694
O O1 0.500000 0.500000 0.500000
O O2 0.602328 0.394176 0.740598
O O3 0.453365 0.387886 0.324189
O O4 0.287250 0.432676 0.401035
O O5 0.858020 0.868173 0.527358
O O6 0.788637 0.965555 0.625476
O O7 0.019193 0.890749 0.941714
O O8 0.054848 0.969096 0.714978
O O9 0.488335 0.325336 0.849231
O O10 0.693023 0.419893 0.107052
O O11 0.823408 0.324768 0.157309
O O12 0.987420 0.915929 0.215711
O O13 0.844030 0.821326 0.946078
O O14 0.335453 0.277786 0.269753
O O15 0.347700 0.185479 0.487426
O O16 0.778838 0.508314 0.405237
O O17 0.500000 0.000000 0.500000
#
# Coordination Sequence:
#
# PCOD9243716 Si02
#       8
#     4   4   4   4   4   4   4   4
#     4  12  27  41  63 107 144 184 228 287 357 415
#     4  10  20  38  64 103 134 174 216 287 343 416
#     4  12  21  40  72  99 136 178 229 281 340 405
#     4  10  20  39  70 104 130 173 235 271 342 416
#     4  11  25  47  74  94 132 189 232 290 334 420
#     4  11  26  48  69  93 141 182 235 281 356 408
#     4  11  20  36  64  98 147 170 219 279 349 409
#     4  11  17  31  65 102 133 173 212 269 342 416
#
# _framework density 21.843354000000001
#
# number of rings (size 3 to 8) (size 9 to 14) (size 15 to 20)
#    0.000    1.000    5.000    3.750    1.750    0.500 
#    0.000    6.250    0.000    0.000    0.000    0.000 
#    0.000    0.000    0.000    0.000    0.000    0.000 
#
# Total GULP energy -178576.018736 kJ/mol
# GULP energy per Si atom -5580.500585 kJ/mol
# Density = 2.179364 g / cm^3
# Si number density = 21.843354 Si / 1000 Ang^3
#
#
#
# Elastic Constant Matrix: (Units=GPa)
#
#
# Indices 1 2 3 4 5 6 
#
# 1 32.1761 5.5723 36.2315 0.0000 11.4148 0.0000
# 2 5.5723 93.3668 47.0628 0.0000 -7.3060 0.0000
# 3 36.2315 47.0628 136.7747 0.0000 10.8543 0.0000
# 4 0.0000 0.0000 0.0000 34.4841 0.0000 -1.6181
# 5 11.4148 -7.3060 10.8543 0.0000 34.1219 0.0000
# 6 0.0000 0.0000 0.0000 -1.6181 0.0000 22.5604
#
#
#
# Elastic Compliance Matrix: (Units=1/GPa)
#
#
# Indices 1 2 3 4 5 6 
#
# 1 0.049599 0.002739 -0.013143 0.000000 -0.011825 0.000000
# 2 0.002739 0.013755 -0.005765 0.000000 0.003863 0.000000
# 3 -0.013143 -0.005765 0.012850 0.000000 -0.000925 0.000000
# 4 0.000000 0.000000 0.000000 0.029097 0.000000 0.002087
# 5 -0.011825 0.003863 -0.000925 0.000000 0.034384 0.000000
# 6 0.000000 0.000000 0.000000 0.002087 0.000000 0.044475
#
#
# Mechanical properties :
#
#
# Convention : Reuss Voigt Hill
#
# Bulk Modulus (GPa) = 22.79630 48.89452 35.84541
# Shear Modulus (GPa) = 21.63380 29.79669 25.71524
#
# Velocity S-wave (km/s) = 3.15049 3.69739 3.43484
# Velocity P-wave (km/s) = 4.86755 6.37655 5.67245
#
# Compressibility (1/GPa) = 0.04386676
#
# Stress axis : x y z
#
# Youngs Moduli (GPa) = 20.16171 72.69941 77.82074
#
# Poissons Ratio (x) = -0.19915 1.02279
# Poissons Ratio (y) = -0.05523 0.44866
# Poissons Ratio (z) = 0.26498 0.41913
#
# Static dielectric constant tensor:
#      x y z
#    x 1.929910 0.000000 0.092150 
#    y 0.000000 1.821150 0.000000 
#    z 0.092150 0.000000 1.910250 
# 
# From -- ./inp_files/14559.got.cif
#   From: 2010.05.17/outbox.cif.g08.bks.cpg/sg14_8_cif.got.tgz:14559.got - 2010.06.03 17:49:19.
