data_PCOD9243390
_publ_section_title
;
Structure prediction by ZEFSAII (Michael W. Deem and Ramdas Pophale) SiO2 
 PCOD9243390
Probable space group: P 21/C
;
_chemical_formula_sum "Si O2"
_cell_formula_units_Z 24
_cell_length_a 10.159130
_cell_length_b 19.306881
_cell_length_c 5.680751
_cell_angle_alpha 90.000000
_cell_angle_beta 69.793182
_cell_angle_gamma 90.000000
_cell_volume 1045.650192
_symmetry_space_group_name_H-M "P 21/C"
_symmetry_group_IT_number 14
_symmetry_cell_setting 'monoclinic'
loop_
_space_group_symop_operation_xyz
x,y,z
-x,1/2+y,1/2-z
-x,-y,-z
x,1/2-y,1/2+z
loop_
_atom_site_type_symbol
_atom_site_label
_atom_site_fract_x
_atom_site_fract_y
_atom_site_fract_z
Si Si1 0.731236 0.284311 0.324642
Si Si2 0.584090 0.764735 0.500952
Si Si3 0.164540 0.057389 0.218109
Si Si4 0.434635 0.083355 0.310016
Si Si5 0.132976 0.909902 0.488234
Si Si6 0.294848 0.522896 0.259455
O O1 0.773082 0.245110 0.054433
O O2 0.800365 0.358497 0.239433
O O3 0.560560 0.279940 0.425773
O O4 0.656576 0.756968 0.201961
O O5 0.545427 0.845020 0.564268
O O6 0.314153 0.091387 0.188624
O O7 0.029014 0.103598 0.349578
O O8 0.145066 0.988279 0.386568
O O9 0.178173 0.024588 0.952450
O O10 0.584307 0.052094 0.142289
O O11 0.371400 0.027911 0.530485
O O12 0.226806 0.912942 0.664869
#
# Coordination Sequence:
#
# PCOD9243390 Si02
#       6
#     4   4   4   4   4   4
#     4  10  22  40  63  94 119 168 215 266 306 373
#     4  10  22  37  61  88 120 166 211 263 314 371
#     4  10  22  38  62  92 125 166 197 275 322 372
#     4  10  22  37  57  94 123 157 215 256 323 378
#     4  10  22  39  62  93 123 160 220 252 321 383
#     4  10  20  37  63  91 122 165 200 268 314 378
#
# _framework density 22.952227000000001
#
# number of rings (size 3 to 8) (size 9 to 14) (size 15 to 20)
#    0.000    2.000    0.000    3.000    9.333    0.000 
#    0.000    1.667    0.000    0.000    0.000    0.000 
#    0.000    0.000    0.000    0.000    0.000    0.000 
#
# Total GULP energy -133924.374669 kJ/mol
# GULP energy per Si atom -5580.182278 kJ/mol
# Density = 2.289999 g / cm^3
# Si number density = 22.952227 Si / 1000 Ang^3
#
#
#
# Elastic Constant Matrix: (Units=GPa)
#
#
# Indices 1 2 3 4 5 6 
#
# 1 62.2380 33.0920 39.2493 0.0000 -11.5205 0.0000
# 2 33.0920 39.1110 6.2561 0.0000 3.4243 0.0000
# 3 39.2493 6.2561 103.8661 0.0000 11.1911 0.0000
# 4 0.0000 0.0000 0.0000 13.1785 0.0000 17.7240
# 5 -11.5205 3.4243 11.1911 0.0000 27.7094 0.0000
# 6 0.0000 0.0000 0.0000 17.7240 0.0000 -3.5442
#
#
#
# Elastic Compliance Matrix: (Units=1/GPa)
#
#
# Indices 1 2 3 4 5 6 
#
# 1 0.092522 -0.077876 -0.037067 0.000000 0.063062 0.000000
# 2 -0.077876 0.091556 0.029923 0.000000 -0.055778 0.000000
# 3 -0.037067 0.029923 0.024978 0.000000 -0.029197 0.000000
# 4 0.000000 0.000000 0.000000 0.009822 0.000000 0.049118
# 5 0.063062 -0.055778 -0.029197 0.000000 0.080992 0.000000
# 6 0.000000 0.000000 0.000000 0.049118 0.000000 -0.036521
#
#
# Mechanical properties :
#
#
# Convention : Reuss Voigt Hill
#
# Bulk Modulus (GPa) = 25.62898 40.26776 32.94837
# Shear Modulus (GPa) = 11.20084 15.90990 13.55537
#
# Velocity S-wave (km/s) = 2.21148 2.63568 2.43284
# Velocity P-wave (km/s) = 4.20849 5.18118 4.71996
#
# Compressibility (1/GPa) = 0.03901833
#
# Stress axis : x y z
#
# Youngs Moduli (GPa) = 10.80820 10.92223 40.03491
#
# Poissons Ratio (x) = 0.85058 1.48396
# Poissons Ratio (y) = 0.84170 -1.19797
# Poissons Ratio (z) = 0.40062 -0.32683
#
# Static dielectric constant tensor:
#      x y z
#    x 1.903360 0.000000 0.047780 
#    y 0.000000 1.875160 0.000000 
#    z 0.047780 0.000000 1.893870 
# 
# From -- ./inp_files/2811.got.cif
#   From: 2010.05.17/outbox.cif.g08.bks.cpg/sg14_2_cif.got.tgz:2811.got - 2010.06.03 17:49:19.
