data_PCOD9243369
_publ_section_title
;
Structure prediction by ZEFSAII (Michael W. Deem and Ramdas Pophale) SiO2 
 PCOD9243369
Probable space group: P 21/C
;
_chemical_formula_sum "Si O2"
_cell_formula_units_Z 32
_cell_length_a 22.340583
_cell_length_b 9.780628
_cell_length_c 17.610763
_cell_angle_alpha 90.000000
_cell_angle_beta 21.810580
_cell_angle_gamma 90.000000
_cell_volume 1429.697476
_symmetry_space_group_name_H-M "P 21/C"
_symmetry_group_IT_number 14
_symmetry_cell_setting 'monoclinic'
loop_
_space_group_symop_operation_xyz
x,y,z
-x,1/2+y,1/2-z
-x,-y,-z
x,1/2-y,1/2+z
loop_
_atom_site_type_symbol
_atom_site_label
_atom_site_fract_x
_atom_site_fract_y
_atom_site_fract_z
Si Si1 0.910847 0.573177 0.212856
Si Si2 0.802739 0.810041 0.230565
Si Si3 0.715983 0.105999 0.707126
Si Si4 0.061687 0.756547 0.311093
Si Si5 0.617616 0.183736 0.654337
Si Si6 0.421144 0.204179 0.134614
Si Si7 0.350368 0.414402 0.952200
Si Si8 0.802209 0.728065 0.481393
O O1 0.821368 0.670686 0.258496
O O2 0.911996 0.413213 0.194156
O O3 0.841122 0.604812 0.378907
O O4 0.097060 0.617302 0.996177
O O5 0.661296 0.784733 0.337026
O O6 0.745851 0.926529 0.355578
O O7 0.967536 0.823031 0.988773
O O8 0.675843 0.168692 0.672267
O O9 0.661727 0.946724 0.767462
O O10 0.606869 0.179050 0.898989
O O11 0.937912 0.749713 0.385195
O O12 0.230559 0.707970 0.079386
O O13 0.481503 0.296502 0.809488
O O14 0.556957 0.038420 0.695456
O O15 0.367035 0.279568 0.274662
O O16 0.216941 0.361006 0.049254
#
# Coordination Sequence:
#
# PCOD9243369 Si02
#       8
#     4   4   4   4   4   4   4   4
#     4  11  21  37  64  95 129 162 220 265 314 386
#     4  10  22  39  62  95 129 166 213 274 315 378
#     4  11  20  36  63  94 123 166 217 261 317 380
#     4  11  23  39  66  94 126 169 217 262 326 383
#     4  12  25  42  65  95 131 171 218 264 323 385
#     4  10  20  37  62  90 126 167 211 266 320 375
#     4  11  25  43  64  93 133 169 215 266 324 378
#     4  10  21  39  61  91 126 166 204 266 324 375
#
# _framework density 22.382359000000001
#
# number of rings (size 3 to 8) (size 9 to 14) (size 15 to 20)
#    0.000    1.250    6.250    0.375    3.500    1.500 
#    0.000    0.000    0.000    3.750    0.000    0.000 
#    0.000    0.000    0.000    0.000    0.000    0.000 
#
# Total GULP energy -178945.070520 kJ/mol
# GULP energy per Si atom -5592.033454 kJ/mol
# Density = 2.233142 g / cm^3
# Si number density = 22.382359 Si / 1000 Ang^3
#
#
#
# Elastic Constant Matrix: (Units=GPa)
#
#
# Indices 1 2 3 4 5 6 
#
# 1 59.4254 -8.8837 11.2399 0.0000 17.5234 0.0000
# 2 -8.8837 19.6966 9.3686 0.0000 -4.9828 0.0000
# 3 11.2399 9.3686 134.3846 0.0000 28.4213 0.0000
# 4 0.0000 0.0000 0.0000 38.1929 0.0000 4.4977
# 5 17.5234 -4.9828 28.4213 0.0000 32.0799 0.0000
# 6 0.0000 0.0000 0.0000 4.4977 0.0000 18.7451
#
#
#
# Elastic Compliance Matrix: (Units=1/GPa)
#
#
# Indices 1 2 3 4 5 6 
#
# 1 0.020900 0.006837 -0.000043 0.000000 -0.010317 0.000000
# 2 0.006837 0.060434 -0.007359 0.000000 0.012172 0.000000
# 3 -0.000043 -0.007359 0.010084 0.000000 -0.010054 0.000000
# 4 0.000000 0.000000 0.000000 0.026944 0.000000 -0.006465
# 5 -0.010317 0.012172 -0.010054 0.000000 0.047605 0.000000
# 6 0.000000 0.000000 0.000000 -0.006465 0.000000 0.054898
#
#
# Mechanical properties :
#
#
# Convention : Reuss Voigt Hill
#
# Bulk Modulus (GPa) = 11.07568 26.32849 18.70208
# Shear Modulus (GPa) = 19.83401 31.25569 25.54485
#
# Velocity S-wave (km/s) = 2.98005 3.74096 3.38197
# Velocity P-wave (km/s) = 4.09879 5.51799 4.86047
#
# Compressibility (1/GPa) = 0.09028793
#
# Stress axis : x y z
#
# Youngs Moduli (GPa) = 47.84644 16.54710 99.16432
#
# Poissons Ratio (x) = -0.11313 0.00425
# Poissons Ratio (y) = -0.32713 0.72978
# Poissons Ratio (z) = 0.00205 0.12177
#
# Static dielectric constant tensor:
#      x y z
#    x 1.809000 0.000000 0.035550 
#    y 0.000000 1.859180 0.000000 
#    z 0.035550 0.000000 1.843360 
# 
# From -- ./inp_files/61991.got.cif
#   From: 2010.05.17/outbox.cif.g08.bks.cpg/sg14_31_cif.got.tgz:61991.got - 2010.06.03 17:49:19.
