data_PCOD9243766
_publ_section_title
;
Structure prediction by ZEFSAII (Michael W. Deem and Ramdas Pophale) SiO2 
 PCOD9243766
Probable space group: P 21/C
;
_chemical_formula_sum "Si O2"
_cell_formula_units_Z 32
_cell_length_a 19.772128
_cell_length_b 8.648670
_cell_length_c 13.080878
_cell_angle_alpha 90.000000
_cell_angle_beta 146.893276
_cell_angle_gamma 90.000000
_cell_volume 1221.775872
_symmetry_space_group_name_H-M "P 21/C"
_symmetry_group_IT_number 14
_symmetry_cell_setting 'monoclinic'
loop_
_space_group_symop_operation_xyz
x,y,z
-x,1/2+y,1/2-z
-x,-y,-z
x,1/2-y,1/2+z
loop_
_atom_site_type_symbol
_atom_site_label
_atom_site_fract_x
_atom_site_fract_y
_atom_site_fract_z
Si Si1 0.203245 0.775936 0.550850
Si Si2 0.224043 0.148499 0.373618
Si Si3 0.462572 0.018479 0.334614
Si Si4 0.468190 0.342652 0.319405
Si Si5 0.778749 0.561514 0.363271
Si Si6 0.516634 0.168416 0.119443
Si Si7 0.994711 0.851759 0.424798
Si Si8 0.944765 0.349540 0.310111
O O1 0.216680 0.624005 0.635893
O O2 0.335831 0.854328 0.711182
O O3 0.095190 0.875794 0.464301
O O4 0.141757 0.734490 0.364389
O O5 0.340933 0.143919 0.595581
O O6 0.258400 0.126960 0.296225
O O7 0.141900 0.301893 0.280548
O O8 0.132485 0.007621 0.285829
O O9 0.528971 0.172388 0.375242
O O10 0.320574 0.073470 0.170959
O O11 0.500000 0.000000 0.500000
O O12 0.479854 0.839576 0.322908
O O13 0.533259 0.512409 0.388256
O O14 0.456577 0.332707 0.429852
O O15 0.916154 0.626643 0.555975
O O16 0.035576 0.712982 0.551822
O O17 0.000000 0.000000 0.500000
#
# Coordination Sequence:
#
# PCOD9243766 Si02
#       8
#     4   4   4   4   4   4   4   4
#     4  11  21  37  65  86 121 164 203 246 317 371
#     4  11  21  42  60  87 124 166 199 252 312 374
#     4   9  20  37  62  86 118 156 207 258 300 362
#     4  10  20  38  65  85 122 158 211 252 306 366
#     4  10  21  38  62  85 125 162 197 252 314 366
#     4   9  20  37  62  92 114 162 209 254 303 366
#     4  11  25  38  58  94 131 151 204 261 301 376
#     4  11  22  38  61  92 120 165 203 243 313 374
#
# _framework density 26.191385
#
# number of rings (size 3 to 8) (size 9 to 14) (size 15 to 20)
#    0.000    1.750    3.750    0.750    3.500    3.000 
#    0.000    0.000   41.250    0.000    0.000    0.000 
#    0.000    0.000    0.000    0.000    0.000    0.000 
#
# Total GULP energy -178718.420158 kJ/mol
# GULP energy per Si atom -5584.950630 kJ/mol
# Density = 2.613177 g / cm^3
# Si number density = 26.191385 Si / 1000 Ang^3
#
#
#
# Elastic Constant Matrix: (Units=GPa)
#
#
# Indices 1 2 3 4 5 6 
#
# 1 82.1230 23.6310 30.9614 0.0000 14.0437 0.0000
# 2 23.6310 171.9060 23.8944 0.0000 -13.4782 0.0000
# 3 30.9614 23.8944 186.7403 0.0000 -3.3777 0.0000
# 4 0.0000 0.0000 0.0000 34.3473 0.0000 -16.7777
# 5 14.0437 -13.4782 -3.3777 0.0000 32.0235 0.0000
# 6 0.0000 0.0000 0.0000 -16.7777 0.0000 41.4429
#
#
#
# Elastic Compliance Matrix: (Units=1/GPa)
#
#
# Indices 1 2 3 4 5 6 
#
# 1 0.015083 -0.002364 -0.002340 0.000000 -0.007856 0.000000
# 2 -0.002364 0.006486 -0.000371 0.000000 0.003727 0.000000
# 3 -0.002340 -0.000371 0.005817 0.000000 0.001484 0.000000
# 4 0.000000 0.000000 0.000000 0.036291 0.000000 0.014692
# 5 -0.007856 0.003727 0.001484 0.000000 0.036398 0.000000
# 6 0.000000 0.000000 0.000000 0.014692 0.000000 0.030078
#
#
# Mechanical properties :
#
#
# Convention : Reuss Voigt Hill
#
# Bulk Modulus (GPa) = 58.01718 66.41589 62.21654
# Shear Modulus (GPa) = 34.23536 45.71489 39.97513
#
# Velocity S-wave (km/s) = 3.61934 4.18235 3.91099
# Velocity P-wave (km/s) = 6.29805 6.98110 6.64835
#
# Compressibility (1/GPa) = 0.01723627
#
# Stress axis : x y z
#
# Youngs Moduli (GPa) = 66.29999 154.18162 171.90067
#
# Poissons Ratio (x) = 0.36449 0.40231
# Poissons Ratio (y) = 0.15674 0.06369
# Poissons Ratio (z) = 0.15517 0.05713
#
# Static dielectric constant tensor:
#      x y z
#    x 2.130070 0.000000 -0.004380 
#    y 0.000000 1.736370 0.000000 
#    z -0.004380 0.000000 2.082470 
# 
# From -- ./inp_files/51288.got.cif
#   From: 2010.05.17/outbox.cif.g08.bks.cpg/sg14_26_cif.got.tgz:51288.got - 2010.06.03 17:49:19.
