data_PCOD9243385
_publ_section_title
;
Structure prediction by ZEFSAII (Michael W. Deem and Ramdas Pophale) SiO2 
 PCOD9243385
Probable space group: P 21/C
;
_chemical_formula_sum "Si O2"
_cell_formula_units_Z 24
_cell_length_a 7.999140
_cell_length_b 7.898742
_cell_length_c 18.493017
_cell_angle_alpha 90.000000
_cell_angle_beta 131.273105
_cell_angle_gamma 90.000000
_cell_volume 878.174176
_symmetry_space_group_name_H-M "P 21/C"
_symmetry_group_IT_number 14
_symmetry_cell_setting 'monoclinic'
loop_
_space_group_symop_operation_xyz
x,y,z
-x,1/2+y,1/2-z
-x,-y,-z
x,1/2-y,1/2+z
loop_
_atom_site_type_symbol
_atom_site_label
_atom_site_fract_x
_atom_site_fract_y
_atom_site_fract_z
Si Si1 0.040909 0.452475 0.757014
Si Si2 0.856203 0.636440 0.369343
Si Si3 0.660304 0.253288 0.649105
Si Si4 0.939588 0.325318 0.944156
Si Si5 0.652536 0.828240 0.549593
Si Si6 0.430310 0.044226 0.713528
O O1 0.025782 0.447676 0.665991
O O2 0.134457 0.629739 0.812173
O O3 0.798469 0.409831 0.718217
O O4 0.242267 0.329296 0.841410
O O5 0.642981 0.513348 0.321296
O O6 0.010356 0.681903 0.481719
O O7 0.748215 0.815543 0.314537
O O8 0.512334 0.298620 0.538036
O O9 0.525336 0.140385 0.667968
O O10 0.694373 0.369857 0.845759
O O11 0.123010 0.317069 0.933784
O O12 0.000000 0.500000 0.000000
O O13 0.500000 0.000000 0.500000
#
# Coordination Sequence:
#
# PCOD9243385 Si02
#       6
#     4   4   4   4   4   4
#     4  10  24  36  63  90 125 160 203 254 300 362
#     4  10  22  39  60  94 122 160 207 250 304 359
#     4  10  21  41  60  92 120 161 204 249 305 360
#     4  10  20  37  63  90 117 163 207 244 300 364
#     4  10  21  37  62  90 120 158 209 246 297 368
#     4  10  22  39  65  91 122 157 208 254 301 361
#
# _framework density 27.329429999999999
#
# number of rings (size 3 to 8) (size 9 to 14) (size 15 to 20)
#    0.000    2.000    3.333    0.000   11.667    0.000 
#    0.000    1.667    0.000    0.000    0.000    0.000 
#    0.000    0.000    0.000    0.000    0.000    0.000 
#
# Total GULP energy -134074.637907 kJ/mol
# GULP energy per Si atom -5586.443246 kJ/mol
# Density = 2.726723 g / cm^3
# Si number density = 27.329430 Si / 1000 Ang^3
#
#
#
# Elastic Constant Matrix: (Units=GPa)
#
#
# Indices 1 2 3 4 5 6 
#
# 1 113.8993 12.6200 36.3225 0.0000 6.2047 0.0000
# 2 12.6200 101.4427 23.6289 0.0000 4.6355 0.0000
# 3 36.3225 23.6289 119.4339 0.0000 14.3623 0.0000
# 4 0.0000 0.0000 0.0000 51.5166 0.0000 16.3293
# 5 6.2047 4.6355 14.3623 0.0000 37.4439 0.0000
# 6 0.0000 0.0000 0.0000 16.3293 0.0000 27.5216
#
#
#
# Elastic Compliance Matrix: (Units=1/GPa)
#
#
# Indices 1 2 3 4 5 6 
#
# 1 0.009760 -0.000539 -0.002804 0.000000 -0.000475 0.000000
# 2 -0.000539 0.010373 -0.001829 0.000000 -0.000493 0.000000
# 3 -0.002804 -0.001829 0.009964 0.000000 -0.003131 0.000000
# 4 0.000000 0.000000 0.000000 0.023907 0.000000 -0.014185
# 5 -0.000475 -0.000493 -0.003131 0.000000 0.028047 0.000000
# 6 0.000000 0.000000 0.000000 -0.014185 0.000000 0.044751
#
#
# Mechanical properties :
#
#
# Convention : Reuss Voigt Hill
#
# Bulk Modulus (GPa) = 50.62783 53.32430 51.97607
# Shear Modulus (GPa) = 34.78689 40.77671 37.78180
#
# Velocity S-wave (km/s) = 3.57161 3.86689 3.72218
# Velocity P-wave (km/s) = 5.96437 6.28420 6.12637
#
# Compressibility (1/GPa) = 0.01975198
#
# Stress axis : x y z
#
# Youngs Moduli (GPa) = 102.46321 96.40011 100.36109
#
# Poissons Ratio (x) = 0.05198 0.28145
# Poissons Ratio (y) = 0.05525 0.18356
# Poissons Ratio (z) = 0.28734 0.17631
#
# Static dielectric constant tensor:
#      x y z
#    x 2.245270 0.000000 0.040810 
#    y 0.000000 2.308130 0.000000 
#    z 0.040810 0.000000 2.166470 
# 
# From -- ./inp_files/40516.got.cif
#   From: 2010.05.17/outbox.cif.g08.bks.cpg/sg14_21_cif.got.tgz:40516.got - 2010.06.03 17:49:19.
