data_PCOD9243811
_publ_section_title
;
Structure prediction by ZEFSAII (Michael W. Deem and Ramdas Pophale) SiO2 
 PCOD9243811
Probable space group: P 21/C
;
_chemical_formula_sum "Si O2"
_cell_formula_units_Z 30
_cell_length_a 10.416773
_cell_length_b 11.300186
_cell_length_c 13.146827
_cell_angle_alpha 90.000000
_cell_angle_beta 44.266165
_cell_angle_gamma 90.000000
_cell_volume 1080.166021
_symmetry_space_group_name_H-M "P 21/C"
_symmetry_group_IT_number 14
_symmetry_cell_setting 'monoclinic'
loop_
_space_group_symop_operation_xyz
x,y,z
-x,1/2+y,1/2-z
-x,-y,-z
x,1/2-y,1/2+z
loop_
_atom_site_type_symbol
_atom_site_label
_atom_site_fract_x
_atom_site_fract_y
_atom_site_fract_z
Si Si1 0.736346 0.710282 0.248270
Si Si2 0.947280 0.308133 0.289476
Si Si3 0.537518 0.388911 0.218470
Si Si4 0.459101 0.235499 0.951615
Si Si5 0.132758 0.579163 0.292445
Si Si6 0.231528 0.569105 0.456199
Si Si7 0.500000 0.000000 0.500000
Si Si8 0.190672 0.412376 0.994185
O O1 0.908501 0.778301 0.201534
O O2 0.588724 0.795766 0.272777
O O3 0.630887 0.659420 0.407401
O O4 0.818733 0.616577 0.120153
O O5 0.014793 0.405063 0.167462
O O6 0.911061 0.187064 0.254084
O O7 0.761885 0.344030 0.453315
O O8 0.589791 0.327321 0.295617
O O9 0.408388 0.493175 0.333504
O O10 0.683257 0.467237 0.068329
O O11 0.524632 0.358164 0.962714
O O12 0.295510 0.295306 0.977068
O O13 0.186221 0.625480 0.373884
O O14 0.288689 0.487626 0.166081
O O15 0.939709 0.513169 0.418497
#
# Coordination Sequence:
#
# PCOD9243811 Si02
#       8
#     4   4   4   4   4   4   2   4
#     4  10  20  38  66  96 138 187 240 305 361 428
#     4  11  23  41  67 101 143 192 241 300 375 445
#     4  11  23  41  70 103 138 188 244 299 365 443
#     4  10  21  39  68 101 133 178 237 298 360 427
#     4  11  24  44  71 103 138 189 249 307 376 445
#     4  11  22  41  68  98 141 185 233 300 369 441
#     4  12  24  44  74 102 130 174 242 302 360 440
#     4  10  21  39  65 100 142 190 243 298 362 436
#
# _framework density 27.773506999999999
#
# number of rings (size 3 to 8) (size 9 to 14) (size 15 to 20)
#    0.000    1.333    0.000    8.800    0.000    3.200 
#    0.000    6.667    0.000   17.600    0.000    0.000 
#    0.000    0.000    0.000    0.000    0.000    0.000 
#
# Total GULP energy -167439.178215 kJ/mol
# GULP energy per Si atom -5581.305941 kJ/mol
# Density = 2.771029 g / cm^3
# Si number density = 27.773507 Si / 1000 Ang^3
#
#
#
# Elastic Constant Matrix: (Units=GPa)
#
#
# Indices 1 2 3 4 5 6 
#
# 1 51.5904 28.8809 56.0446 0.0000 -6.0851 0.0000
# 2 28.8809 83.8368 76.3410 0.0000 12.7370 0.0000
# 3 56.0446 76.3410 191.0489 0.0000 27.9370 0.0000
# 4 0.0000 0.0000 0.0000 66.3026 0.0000 13.6369
# 5 -6.0851 12.7370 27.9370 0.0000 35.9288 0.0000
# 6 0.0000 0.0000 0.0000 13.6369 0.0000 31.0187
#
#
#
# Elastic Compliance Matrix: (Units=1/GPa)
#
#
# Indices 1 2 3 4 5 6 
#
# 1 0.036005 -0.004862 -0.011015 0.000000 0.016387 0.000000
# 2 -0.004862 0.019435 -0.005880 0.000000 -0.003141 0.000000
# 3 -0.011015 -0.005880 0.012167 0.000000 -0.009241 0.000000
# 4 0.000000 0.000000 0.000000 0.016582 0.000000 -0.007290
# 5 0.016387 -0.003141 -0.009241 0.000000 0.038908 0.000000
# 6 0.000000 0.000000 0.000000 -0.007290 0.000000 0.035443
#
#
# Mechanical properties :
#
#
# Convention : Reuss Voigt Hill
#
# Bulk Modulus (GPa) = 41.51064 72.11213 56.81139
# Shear Modulus (GPa) = 23.79991 37.66399 30.73195
#
# Velocity S-wave (km/s) = 2.93051 3.68654 3.33005
# Velocity P-wave (km/s) = 5.14092 6.64391 5.94014
#
# Compressibility (1/GPa) = 0.02409021
#
# Stress axis : x y z
#
# Youngs Moduli (GPa) = 27.77409 51.45467 82.19181
#
# Poissons Ratio (x) = 0.25019 0.90537
# Poissons Ratio (y) = 0.13505 0.48330
# Poissons Ratio (z) = 0.30594 0.30256
#
# Static dielectric constant tensor:
#      x y z
#    x 1.998880 0.000000 -0.225180 
#    y 0.000000 2.142510 0.000000 
#    z -0.225180 0.000000 2.069320 
# 
# From -- ./inp_files/32368.got.cif
#   From: 2010.05.17/outbox.cif.g08.bks.cpg/sg14_17_cif.got.tgz:32368.got - 2010.06.03 17:49:19.
