data_PCOD9243146
_publ_section_title
;
Structure prediction by ZEFSAII (Michael W. Deem and Ramdas Pophale) SiO2 
 PCOD9243146
Probable space group: P 21/C
;
_chemical_formula_sum "Si O2"
_cell_formula_units_Z 28
_cell_length_a 9.703681
_cell_length_b 16.192432
_cell_length_c 18.804711
_cell_angle_alpha 90.000000
_cell_angle_beta 152.929792
_cell_angle_gamma 90.000000
_cell_volume 1344.636448
_symmetry_space_group_name_H-M "P 21/C"
_symmetry_group_IT_number 14
_symmetry_cell_setting 'monoclinic'
loop_
_space_group_symop_operation_xyz
x,y,z
-x,1/2+y,1/2-z
-x,-y,-z
x,1/2-y,1/2+z
loop_
_atom_site_type_symbol
_atom_site_label
_atom_site_fract_x
_atom_site_fract_y
_atom_site_fract_z
Si Si1 0.954269 0.649649 0.292219
Si Si2 0.313487 0.789706 0.526543
Si Si3 0.093372 0.087272 0.074464
Si Si4 0.763843 0.143538 0.224650
Si Si5 0.301329 0.983480 0.682208
Si Si6 0.679103 0.831431 0.300376
Si Si7 0.174430 0.228694 0.999340
O O1 0.009751 0.604018 0.392740
O O2 0.099368 0.616100 0.287409
O O3 0.134208 0.735821 0.385847
O O4 0.590729 0.659808 0.119770
O O5 0.494075 0.729989 0.664398
O O6 0.031874 0.831458 0.437798
O O7 0.035971 0.161696 0.992010
O O8 0.459303 0.076187 0.246574
O O9 0.000000 0.000000 0.000000
O O10 0.956679 0.218005 0.349239
O O11 0.421652 0.178579 0.067420
O O12 0.771867 0.064981 0.279884
O O13 0.432954 0.075067 0.755533
O O14 0.000000 0.000000 0.500000
O O15 0.672297 0.794613 0.376416
#
# Coordination Sequence:
#
# PCOD9243146 Si02
#       7
#     4   4   4   4   4   4   4
#     4  11  22  41  62  93 135 162 209 263 321 373
#     4  10  20  36  66  94 116 169 211 255 312 372
#     4  11  24  40  65  94 123 167 215 260 307 380
#     4  11  25  41  61  97 131 167 206 268 321 378
#     4  11  23  39  61  93 124 163 213 258 312 372
#     4  11  20  38  67  93 119 159 218 263 300 368
#     4  11  22  40  67  92 125 165 220 255 310 383
#
# _framework density 20.823473
#
# number of rings (size 3 to 8) (size 9 to 14) (size 15 to 20)
#    0.000    1.143    4.286    3.429    2.000    0.000 
#    0.000   12.143    0.000    0.000    0.000    0.000 
#    0.000    0.000    0.000    0.000    0.000    0.000 
#
# Total GULP energy -156356.978716 kJ/mol
# GULP energy per Si atom -5584.177811 kJ/mol
# Density = 2.077608 g / cm^3
# Si number density = 20.823473 Si / 1000 Ang^3
#
#
#
# Elastic Constant Matrix: (Units=GPa)
#
#
# Indices 1 2 3 4 5 6 
#
# 1 164.3749 39.4004 14.1022 0.0000 7.2103 0.0000
# 2 39.4004 100.7279 6.0407 0.0000 -2.0062 0.0000
# 3 14.1022 6.0407 54.9530 0.0000 11.2505 0.0000
# 4 0.0000 0.0000 0.0000 41.6212 0.0000 0.2895
# 5 7.2103 -2.0062 11.2505 0.0000 22.9590 0.0000
# 6 0.0000 0.0000 0.0000 0.2895 0.0000 15.3761
#
#
#
# Elastic Compliance Matrix: (Units=1/GPa)
#
#
# Indices 1 2 3 4 5 6 
#
# 1 0.006899 -0.002670 -0.001096 0.000000 -0.001863 0.000000
# 2 -0.002670 0.011078 -0.001003 0.000000 0.002298 0.000000
# 3 -0.001096 -0.001003 0.020603 0.000000 -0.009840 0.000000
# 4 0.000000 0.000000 0.000000 0.024029 0.000000 -0.000452
# 5 -0.001863 0.002298 -0.009840 0.000000 0.049164 0.000000
# 6 0.000000 0.000000 0.000000 -0.000452 0.000000 0.065044
#
#
# Mechanical properties :
#
#
# Convention : Reuss Voigt Hill
#
# Bulk Modulus (GPa) = 34.43140 48.79359 41.61249
# Shear Modulus (GPa) = 25.50541 33.35876 29.43209
#
# Velocity S-wave (km/s) = 3.50357 4.00681 3.76361
# Velocity P-wave (km/s) = 5.73911 6.69992 6.23804
#
# Compressibility (1/GPa) = 0.02904326
#
# Stress axis : x y z
#
# Youngs Moduli (GPa) = 144.93989 90.26811 48.53605
#
# Poissons Ratio (x) = 0.24103 0.05317
# Poissons Ratio (y) = 0.38701 0.04868
# Poissons Ratio (z) = 0.15879 0.09054
#
# Static dielectric constant tensor:
#      x y z
#    x 1.749170 0.000000 0.062060 
#    y 0.000000 1.765360 0.000000 
#    z 0.062060 0.000000 1.813780 
# 
# From -- ./inp_files/56158.got.cif
#   From: 2010.05.17/outbox.cif.g08.bks.cpg/sg14_29_cif.got.tgz:56158.got - 2010.06.03 17:49:19.
