data_PCOD9243026
_publ_section_title
;
Structure prediction by ZEFSAII (Michael W. Deem and Ramdas Pophale) SiO2 
 PCOD9243026
Probable space group: P 21/C
;
_chemical_formula_sum "Si O2"
_cell_formula_units_Z 24
_cell_length_a 7.304267
_cell_length_b 25.944520
_cell_length_c 8.073405
_cell_angle_alpha 90.000000
_cell_angle_beta 142.317974
_cell_angle_gamma 90.000000
_cell_volume 935.229835
_symmetry_space_group_name_H-M "P 21/C"
_symmetry_group_IT_number 14
_symmetry_cell_setting 'monoclinic'
loop_
_space_group_symop_operation_xyz
x,y,z
-x,1/2+y,1/2-z
-x,-y,-z
x,1/2-y,1/2+z
loop_
_atom_site_type_symbol
_atom_site_label
_atom_site_fract_x
_atom_site_fract_y
_atom_site_fract_z
Si Si1 0.180996 0.305181 0.162655
Si Si2 0.733146 0.569250 0.102669
Si Si3 0.838632 0.590225 0.696608
Si Si4 0.151826 0.631694 0.604019
Si Si5 0.422786 0.973889 0.695232
Si Si6 0.822450 0.229499 0.091269
O O1 0.253441 0.364773 0.244503
O O2 0.482479 0.273047 0.408876
O O3 0.929231 0.285022 0.108606
O O4 0.046417 0.293034 0.887844
O O5 0.468405 0.610687 0.894450
O O6 0.711005 0.530634 0.931664
O O7 0.656955 0.534436 0.210335
O O8 0.040697 0.597485 0.367101
O O9 0.909983 0.619982 0.573930
O O10 0.602817 0.545952 0.482537
O O11 0.148197 0.564755 0.972511
O O12 0.164784 0.690408 0.555634
#
# Coordination Sequence:
#
# PCOD9243026 Si02
#       6
#     4   4   4   4   4   4
#     4  12  26  44  66  91 123 160 204 254 310 371
#     4   9  17  31  56  89 121 156 201 248 290 344
#     4  10  20  36  60  89 121 157 201 250 299 352
#     4  10  20  36  60  89 121 157 201 250 299 352
#     4   9  17  31  56  89 121 156 201 248 290 344
#     4  12  26  44  66  91 123 160 204 254 310 371
#
# _framework density 25.662140000000001
#
# number of rings (size 3 to 8) (size 9 to 14) (size 15 to 20)
#    0.000    1.667    0.000    5.000    0.000    8.000 
#    0.000    0.000    0.000   20.000    0.000    0.000 
#    0.000    0.000    0.000    0.000    0.000    0.000 
#
# Total GULP energy -134534.960667 kJ/mol
# GULP energy per Si atom -5605.623361 kJ/mol
# Density = 2.560373 g / cm^3
# Si number density = 25.662140 Si / 1000 Ang^3
#
#
#
# Elastic Constant Matrix: (Units=GPa)
#
#
# Indices 1 2 3 4 5 6 
#
# 1 379.3960 -400.9303 -411.7497 0.0000 132.9354 0.0000
# 2 -400.9303 620.2723 547.1648 0.0000 -177.8291 0.0000
# 3 -411.7497 547.1648 670.7292 0.0000 -172.0673 0.0000
# 4 0.0000 0.0000 0.0000 39.1319 0.0000 8.2004
# 5 132.9354 -177.8291 -172.0673 0.0000 97.3723 0.0000
# 6 0.0000 0.0000 0.0000 8.2004 0.0000 40.2779
#
#
#
# Elastic Compliance Matrix: (Units=1/GPa)
#
#
# Indices 1 2 3 4 5 6 
#
# 1 0.010163 0.003156 0.002897 0.000000 -0.002992 0.000000
# 2 0.003156 0.007758 -0.003406 0.000000 0.003840 0.000000
# 3 0.002897 -0.003406 0.006288 0.000000 0.000937 0.000000
# 4 0.000000 0.000000 0.000000 0.026693 0.000000 -0.005435
# 5 -0.002992 0.003840 0.000937 0.000000 0.023024 0.000000
# 6 0.000000 0.000000 0.000000 -0.005435 0.000000 0.025934
#
#
# Mechanical properties :
#
#
# Convention : Reuss Voigt Hill
#
# Bulk Modulus (GPa) = 33.89534 126.59635 80.24584
# Shear Modulus (GPa) = 47.89253 164.41726 106.15489
#
# Velocity S-wave (km/s) = 4.32472 8.01306 6.43864
# Velocity P-wave (km/s) = 6.17856 11.62115 9.30660
#
# Compressibility (1/GPa) = 0.02950258
#
# Stress axis : x y z
#
# Youngs Moduli (GPa) = 98.39398 128.90519 159.03733
#
# Poissons Ratio (x) = -0.40683 -0.46069
# Poissons Ratio (y) = -0.31054 0.54165
# Poissons Ratio (z) = -0.28502 0.43903
#
# Static dielectric constant tensor:
#      x y z
#    x 2.059880 0.000000 -0.067390 
#    y 0.000000 1.996340 0.000000 
#    z -0.067390 0.000000 1.931280 
# 
# From -- ./inp_files/11293.got.cif
#   From: 2010.05.17/outbox.cif.g08.bks.cpg/sg14_6_cif.got.tgz:11293.got - 2010.06.03 17:49:19.
