data_PCOD9243682
_publ_section_title
;
Structure prediction by ZEFSAII (Michael W. Deem and Ramdas Pophale) SiO2 
 PCOD9243682
Probable space group: P 21/C
;
_chemical_formula_sum "Si O2"
_cell_formula_units_Z 24
_cell_length_a 9.672328
_cell_length_b 7.621031
_cell_length_c 16.666768
_cell_angle_alpha 90.000000
_cell_angle_beta 69.524926
_cell_angle_gamma 90.000000
_cell_volume 1150.944423
_symmetry_space_group_name_H-M "P 21/C"
_symmetry_group_IT_number 14
_symmetry_cell_setting 'monoclinic'
loop_
_space_group_symop_operation_xyz
x,y,z
-x,1/2+y,1/2-z
-x,-y,-z
x,1/2-y,1/2+z
loop_
_atom_site_type_symbol
_atom_site_label
_atom_site_fract_x
_atom_site_fract_y
_atom_site_fract_z
Si Si1 0.168433 0.036241 0.486562
Si Si2 0.886221 0.892930 0.076500
Si Si3 0.587987 0.228005 0.834032
Si Si4 0.832402 0.233128 0.899218
Si Si5 0.376923 0.945668 0.925868
Si Si6 0.443602 0.600785 0.839566
O O1 0.179510 0.241669 0.468084
O O2 0.192751 0.933384 0.564582
O O3 0.278572 0.947432 0.401475
O O4 0.000000 0.000000 0.500000
O O5 0.994614 0.816060 0.123427
O O6 0.741959 0.009962 0.121931
O O7 0.000000 0.000000 0.000000
O O8 0.756183 0.211524 0.829147
O O9 0.539174 0.430861 0.842146
O O10 0.558028 0.144719 0.753519
O O11 0.482288 0.113113 0.914075
O O12 0.730786 0.115678 0.980324
O O13 0.476944 0.780031 0.880295
#
# Coordination Sequence:
#
# PCOD9243682 Si02
#       6
#     4   4   4   4   4   4
#     4   9  18  37  61  89 117 157 205 249 301 359
#     4   9  17  36  60  87 119 155 197 253 305 352
#     4  12  22  40  58  89 125 160 199 249 308 367
#     4   9  21  36  61  92 117 154 210 254 291 359
#     4  10  20  38  63  84 120 160 201 243 308 365
#     4  11  23  38  63  87 125 169 198 246 319 368
#
# _framework density 20.852440000000001
#
# number of rings (size 3 to 8) (size 9 to 14) (size 15 to 20)
#    0.000    2.000    3.333    1.500    0.000    2.667 
#    6.000    3.333    0.000    0.000    0.000    0.000 
#    0.000    0.000    0.000    0.000    0.000    0.000 
#
# Total GULP energy -133615.056865 kJ/mol
# GULP energy per Si atom -5567.294036 kJ/mol
# Density = 2.080498 g / cm^3
# Si number density = 20.852440 Si / 1000 Ang^3
#
#
#
# Elastic Constant Matrix: (Units=GPa)
#
#
# Indices 1 2 3 4 5 6 
#
# 1 105.2157 26.6941 -0.9044 0.0000 9.2577 0.0000
# 2 26.6941 120.8005 -2.0176 0.0000 7.4353 0.0000
# 3 -0.9044 -2.0176 13.1819 0.0000 1.6970 0.0000
# 4 0.0000 0.0000 0.0000 15.6693 0.0000 -9.3574
# 5 9.2577 7.4353 1.6970 0.0000 20.9107 0.0000
# 6 0.0000 0.0000 0.0000 -9.3574 0.0000 29.4939
#
#
#
# Elastic Compliance Matrix: (Units=1/GPa)
#
#
# Indices 1 2 3 4 5 6 
#
# 1 0.010375 -0.002035 0.000908 0.000000 -0.003944 0.000000
# 2 -0.002035 0.008900 0.001530 0.000000 -0.002388 0.000000
# 3 0.000908 0.001530 0.077085 0.000000 -0.007202 0.000000
# 4 0.000000 0.000000 0.000000 0.078737 0.000000 0.024981
# 5 -0.003944 -0.002388 -0.007202 0.000000 0.051002 0.000000
# 6 0.000000 0.000000 0.000000 0.024981 0.000000 0.041831
#
#
# Mechanical properties :
#
#
# Convention : Reuss Voigt Hill
#
# Bulk Modulus (GPa) = 10.29150 31.86026 21.07588
# Shear Modulus (GPa) = 16.69378 27.57653 22.13515
#
# Velocity S-wave (km/s) = 2.83250 3.64051 3.26162
# Velocity P-wave (km/s) = 3.95519 5.74310 4.93086
#
# Compressibility (1/GPa) = 0.09716757
#
# Stress axis : x y z
#
# Youngs Moduli (GPa) = 96.38258 112.35581 12.97265
#
# Poissons Ratio (x) = 0.22862 -0.01178
# Poissons Ratio (y) = 0.19612 -0.01985
# Poissons Ratio (z) = -0.08752 -0.17191
#
# Static dielectric constant tensor:
#      x y z
#    x 1.810990 0.000000 0.021150 
#    y 0.000000 1.888260 0.000000 
#    z 0.021150 0.000000 1.752540 
# 
# From -- ./inp_files/54488.got.cif
#   From: 2010.05.17/outbox.cif.g08.bks.cpg/sg14_28_cif.got.tgz:54488.got - 2010.06.03 17:49:19.
