data_PCOD9243698
_publ_section_title
;
Structure prediction by ZEFSAII (Michael W. Deem and Ramdas Pophale) SiO2 
 PCOD9243698
Probable space group: P 21/C
;
_chemical_formula_sum "Si O2"
_cell_formula_units_Z 32
_cell_length_a 25.498303
_cell_length_b 9.757902
_cell_length_c 12.026391
_cell_angle_alpha 90.000000
_cell_angle_beta 148.439685
_cell_angle_gamma 90.000000
_cell_volume 1566.149875
_symmetry_space_group_name_H-M "P 21/C"
_symmetry_group_IT_number 14
_symmetry_cell_setting 'monoclinic'
loop_
_space_group_symop_operation_xyz
x,y,z
-x,1/2+y,1/2-z
-x,-y,-z
x,1/2-y,1/2+z
loop_
_atom_site_type_symbol
_atom_site_label
_atom_site_fract_x
_atom_site_fract_y
_atom_site_fract_z
Si Si1 0.178394 0.821369 0.274154
Si Si2 0.323065 0.925719 0.961131
Si Si3 0.506797 0.147972 0.571010
Si Si4 0.823065 0.425719 0.461132
Si Si5 0.774782 0.791104 0.166581
Si Si6 0.678395 0.178632 0.274155
Si Si7 0.274782 0.291105 0.666581
Si Si8 0.006797 0.647973 0.071010
O O1 0.240017 0.687721 0.343096
O O2 0.169521 0.927421 0.158083
O O3 0.250000 0.877667 0.500000
O O4 0.072843 0.760322 0.124057
O O5 0.330479 0.927421 0.841916
O O6 0.286679 0.065714 0.949344
O O7 0.428553 0.877335 0.201191
O O8 0.572843 0.260322 0.624058
O O9 0.394251 0.194294 0.384505
O O10 0.500000 0.000000 0.500000
O O11 0.740017 0.312279 0.343097
O O12 0.786679 0.565714 0.449345
O O13 0.928553 0.377334 0.701192
O O14 0.750000 0.749999 0.249999
O O15 0.894251 0.805705 0.384505
O O16 0.750000 0.722953 0.999999
O O17 0.000000 0.500000 0.000000
#
# Coordination Sequence:
#
# PCOD9243698 Si02
#       8
#     4   4   4   4   4   4   4   4
#     4   9  19  37  64  92 115 154 212 260 299 361
#     4  10  20  38  63  90 120 158 208 259 303 366
#     4  11  20  38  65  87 122 166 207 245 314 374
#     4  10  20  38  63  90 120 158 208 259 303 366
#     4  12  26  43  62  91 131 167 205 258 317 373
#     4   9  19  37  64  92 115 154 212 260 299 361
#     4  12  26  43  62  91 131 167 205 258 317 373
#     4  11  20  38  65  87 122 166 207 245 314 374
#
# _framework density 20.432272000000001
#
# number of rings (size 3 to 8) (size 9 to 14) (size 15 to 20)
#    0.000    1.500    5.000    0.750    3.500    1.000 
#    4.500    1.250    0.000    0.000    0.000    0.000 
#    0.000    0.000    0.000    0.000    0.000    0.000 
#
# Total GULP energy -178345.387346 kJ/mol
# GULP energy per Si atom -5573.293355 kJ/mol
# Density = 2.038577 g / cm^3
# Si number density = 20.432272 Si / 1000 Ang^3
#
#
#
# Elastic Constant Matrix: (Units=GPa)
#
#
# Indices 1 2 3 4 5 6 
#
# 1 161.1903 22.8637 95.5052 0.0000 -12.3773 0.0000
# 2 22.8637 25.4103 2.5584 0.0000 -1.4641 0.0000
# 3 95.5052 2.5584 131.0978 0.0000 30.2406 0.0000
# 4 0.0000 0.0000 0.0000 16.2613 0.0000 -4.0061
# 5 -12.3773 -1.4641 30.2406 0.0000 46.3924 0.0000
# 6 0.0000 0.0000 0.0000 -4.0061 0.0000 11.1517
#
#
#
# Elastic Compliance Matrix: (Units=1/GPa)
#
#
# Indices 1 2 3 4 5 6 
#
# 1 0.021290 -0.016192 -0.019286 0.000000 0.017740 0.000000
# 2 -0.016192 0.051914 0.013419 0.000000 -0.011429 0.000000
# 3 -0.019286 0.013419 0.026488 0.000000 -0.021988 0.000000
# 4 0.000000 0.000000 0.000000 0.067466 0.000000 0.024237
# 5 0.017740 -0.011429 -0.021988 0.000000 0.040260 0.000000
# 6 0.000000 0.000000 0.000000 0.024237 0.000000 0.098379
#
#
# Mechanical properties :
#
#
# Convention : Reuss Voigt Hill
#
# Bulk Modulus (GPa) = 17.99407 62.17257 40.08332
# Shear Modulus (GPa) = 13.57078 27.87915 20.72496
#
# Velocity S-wave (km/s) = 2.57997 3.69788 3.18830
# Velocity P-wave (km/s) = 4.20723 6.98048 5.76315
#
# Compressibility (1/GPa) = 0.05557387
#
# Stress axis : x y z
#
# Youngs Moduli (GPa) = 46.97137 19.26270 37.75345
#
# Poissons Ratio (x) = 0.31190 0.72810
# Poissons Ratio (y) = 0.76056 -0.50662
# Poissons Ratio (z) = 0.90588 -0.25849
#
# Static dielectric constant tensor:
#      x y z
#    x 1.784800 0.000000 -0.064850 
#    y 0.000000 1.745560 0.000000 
#    z -0.064850 0.000000 1.711340 
# 
# From -- ./inp_files/35922.got.cif
#   From: 2010.05.17/outbox.cif.g08.bks.cpg/sg14_18_cif.got.tgz:35922.got - 2010.06.03 17:49:19.
