data_PCOD9243306
_publ_section_title
;
Structure prediction by ZEFSAII (Michael W. Deem and Ramdas Pophale) SiO2 
 PCOD9243306
Probable space group: P 21/C
;
_chemical_formula_sum "Si O2"
_cell_formula_units_Z 28
_cell_length_a 11.874814
_cell_length_b 20.673139
_cell_length_c 8.062212
_cell_angle_alpha 90.000000
_cell_angle_beta 34.646069
_cell_angle_gamma 90.000000
_cell_volume 1125.180134
_symmetry_space_group_name_H-M "P 21/C"
_symmetry_group_IT_number 14
_symmetry_cell_setting 'monoclinic'
loop_
_space_group_symop_operation_xyz
x,y,z
-x,1/2+y,1/2-z
-x,-y,-z
x,1/2-y,1/2+z
loop_
_atom_site_type_symbol
_atom_site_label
_atom_site_fract_x
_atom_site_fract_y
_atom_site_fract_z
Si Si1 0.464655 0.916903 0.173976
Si Si2 0.578159 0.114671 0.425471
Si Si3 0.011960 0.664074 0.877128
Si Si4 0.095708 0.536390 0.601055
Si Si5 0.007799 0.390585 0.763700
Si Si6 0.063227 0.699332 0.462564
Si Si7 0.363070 0.438620 0.874830
O O1 0.519158 0.881314 0.278071
O O2 0.231903 0.900552 0.425124
O O3 0.475880 0.993141 0.208842
O O4 0.587960 0.903640 0.858638
O O5 0.721821 0.175415 0.235555
O O6 0.440848 0.099589 0.438334
O O7 0.736933 0.054595 0.234062
O O8 0.936889 0.687909 0.785203
O O9 0.101122 0.730985 0.838242
O O10 0.121044 0.594965 0.703198
O O11 0.908925 0.643540 0.173718
O O12 0.101728 0.461997 0.641312
O O13 0.868856 0.547328 0.824212
O O14 0.018514 0.346919 0.585061
#
# Coordination Sequence:
#
# PCOD9243306 Si02
#       7
#     4   4   4   4   4   4   4
#     4   9  19  34  59  90 129 165 198 254 319 381
#     4  10  21  39  62  92 125 169 209 253 321 376
#     4  11  20  37  59  91 123 166 212 259 316 375
#     4  10  23  39  67 101 129 165 214 273 324 383
#     4  10  20  37  60  95 127 159 216 265 319 384
#     4  10  21  35  62  90 119 170 216 253 311 389
#     4  10  20  38  57  92 133 160 199 264 316 373
#
# _framework density 24.884903999999999
#
# number of rings (size 3 to 8) (size 9 to 14) (size 15 to 20)
#    0.000    2.000    1.429    2.571    0.000   11.429 
#    0.000    5.714    0.000   10.286    3.714    0.000 
#    0.000    0.000    0.000    0.000    0.000    0.000 
#
# Total GULP energy -156272.214430 kJ/mol
# GULP energy per Si atom -5581.150515 kJ/mol
# Density = 2.482826 g / cm^3
# Si number density = 24.884904 Si / 1000 Ang^3
#
#
#
# Elastic Constant Matrix: (Units=GPa)
#
#
# Indices 1 2 3 4 5 6 
#
# 1 169.0639 52.2404 83.9625 0.0000 34.2792 0.0000
# 2 52.2404 133.1498 14.3354 0.0000 6.2348 0.0000
# 3 83.9625 14.3354 102.2708 0.0000 16.0388 0.0000
# 4 0.0000 0.0000 0.0000 16.1452 0.0000 21.1060
# 5 34.2792 6.2348 16.0388 0.0000 46.1484 0.0000
# 6 0.0000 0.0000 0.0000 21.1060 0.0000 44.7882
#
#
#
# Elastic Compliance Matrix: (Units=1/GPa)
#
#
# Indices 1 2 3 4 5 6 
#
# 1 0.012729 -0.003752 -0.009013 0.000000 -0.005816 0.000000
# 2 -0.003752 0.008752 0.001694 0.000000 0.001016 0.000000
# 3 -0.009013 0.001694 0.016844 0.000000 0.000612 0.000000
# 4 0.000000 0.000000 0.000000 0.161310 0.000000 -0.076016
# 5 -0.005816 0.001016 0.000612 0.000000 0.025640 0.000000
# 6 0.000000 0.000000 0.000000 -0.076016 0.000000 0.058149
#
#
# Mechanical properties :
#
#
# Convention : Reuss Voigt Hill
#
# Bulk Modulus (GPa) = 61.78582 78.39566 70.09074
# Shear Modulus (GPa) = 16.07922 38.34610 27.21266
#
# Velocity S-wave (km/s) = 2.54469 3.92974 3.31046
# Velocity P-wave (km/s) = 5.78934 7.22234 6.54517
#
# Compressibility (1/GPa) = 0.01618494
#
# Stress axis : x y z
#
# Youngs Moduli (GPa) = 78.55817 114.25523 59.36906
#
# Poissons Ratio (x) = 0.42864 0.53507
# Poissons Ratio (y) = 0.29472 -0.10057
# Poissons Ratio (z) = 0.70801 -0.19354
#
# Static dielectric constant tensor:
#      x y z
#    x 2.019390 0.000000 0.005160 
#    y 0.000000 1.969600 0.000000 
#    z 0.005160 0.000000 2.075940 
# 
# From -- ./inp_files/14248.got.cif
#   From: 2010.05.17/outbox.cif.g08.bks.cpg/sg14_8_cif.got.tgz:14248.got - 2010.06.03 17:49:19.
