data_PCOD9243297
_publ_section_title
;
Structure prediction by ZEFSAII (Michael W. Deem and Ramdas Pophale) SiO2 
 PCOD9243297
Probable space group: P 21/C
;
_chemical_formula_sum "Si O2"
_cell_formula_units_Z 20
_cell_length_a 10.432261
_cell_length_b 9.382646
_cell_length_c 23.994687
_cell_angle_alpha 90.000000
_cell_angle_beta 25.223710
_cell_angle_gamma 90.000000
_cell_volume 1000.887155
_symmetry_space_group_name_H-M "P 21/C"
_symmetry_group_IT_number 14
_symmetry_cell_setting 'monoclinic'
loop_
_space_group_symop_operation_xyz
x,y,z
-x,1/2+y,1/2-z
-x,-y,-z
x,1/2-y,1/2+z
loop_
_atom_site_type_symbol
_atom_site_label
_atom_site_fract_x
_atom_site_fract_y
_atom_site_fract_z
Si Si1 0.934944 0.591544 0.809207
Si Si2 0.717897 0.138562 0.464639
Si Si3 0.195829 0.949143 0.088722
Si Si4 0.817012 0.917707 0.525012
Si Si5 0.180664 0.791274 0.802215
O O1 0.958964 0.436800 0.828685
O O2 0.990498 0.585738 0.722528
O O3 0.141538 0.701697 0.760357
O O4 0.589393 0.640210 0.950436
O O5 0.774508 0.302230 0.456600
O O6 0.706907 0.031910 0.521429
O O7 0.039548 0.073222 0.115692
O O8 0.500000 0.000000 0.000000
O O9 0.525658 0.841699 0.666765
O O10 0.043087 0.808895 0.404485
O O11 0.000000 0.000000 0.500000
#
# Coordination Sequence:
#
# PCOD9243297 Si02
#       5
#     4   4   4   4   4
#     4  10  20  37  60  92 135 162 208 268 338 384
#     4  10  22  37  61  92 130 176 205 270 330 386
#     4  12  21  33  62 102 132 166 212 267 339 404
#     4  11  26  49  67  92 135 181 226 274 323 390
#     4  11  23  43  70  97 129 174 223 273 333 396
#
# _framework density 19.982271999999998
#
# number of rings (size 3 to 8) (size 9 to 14) (size 15 to 20)
#    0.000    1.200    4.000    2.400    2.800    1.600 
#    0.000    2.000    0.000    0.000    0.000    0.000 
#    0.000    0.000    0.000    0.000    0.000    0.000 
#
# Total GULP energy -111637.251339 kJ/mol
# GULP energy per Si atom -5581.862567 kJ/mol
# Density = 1.993679 g / cm^3
# Si number density = 19.982272 Si / 1000 Ang^3
#
#
#
# Elastic Constant Matrix: (Units=GPa)
#
#
# Indices 1 2 3 4 5 6 
#
# 1 83.5400 52.5607 41.1161 0.0000 -14.3401 0.0000
# 2 52.5607 151.9108 55.9268 0.0000 -2.4046 0.0000
# 3 41.1161 55.9268 94.7393 0.0000 -12.5846 0.0000
# 4 0.0000 0.0000 0.0000 20.6281 0.0000 -11.0995
# 5 -14.3401 -2.4046 -12.5846 0.0000 23.9393 0.0000
# 6 0.0000 0.0000 0.0000 -11.0995 0.0000 35.0466
#
#
#
# Elastic Compliance Matrix: (Units=1/GPa)
#
#
# Indices 1 2 3 4 5 6 
#
# 1 0.018395 -0.004732 -0.004074 0.000000 0.008402 0.000000
# 2 -0.004732 0.009709 -0.004219 0.000000 -0.004077 0.000000
# 3 -0.004074 -0.004219 0.015517 0.000000 0.005293 0.000000
# 4 0.000000 0.000000 0.000000 0.058436 0.000000 0.018507
# 5 0.008402 -0.004077 0.005293 0.000000 0.049178 0.000000
# 6 0.000000 0.000000 0.000000 0.018507 0.000000 0.034395
#
#
# Mechanical properties :
#
#
# Convention : Reuss Voigt Hill
#
# Bulk Modulus (GPa) = 56.91279 69.93305 63.42292
# Shear Modulus (GPa) = 22.98470 27.96189 25.47329
#
# Velocity S-wave (km/s) = 3.39522 3.74483 3.57430
# Velocity P-wave (km/s) = 6.62673 7.33293 6.98875
#
# Compressibility (1/GPa) = 0.01757074
#
# Stress axis : x y z
#
# Youngs Moduli (GPa) = 54.36376 102.99910 64.44452
#
# Poissons Ratio (x) = 0.48736 0.26254
# Poissons Ratio (y) = 0.25723 0.27192
# Poissons Ratio (z) = 0.22147 0.43460
#
# Static dielectric constant tensor:
#      x y z
#    x 1.665880 0.000000 0.001440 
#    y 0.000000 1.764420 0.000000 
#    z 0.001440 0.000000 1.887590 
# 
# From -- ./inp_files/11787.got.cif
#   From: 2010.05.17/outbox.cif.g08.bks.cpg/sg14_6_cif.got.tgz:11787.got - 2010.06.03 17:49:19.
