data_PCOD9243849
_publ_section_title
;
Structure prediction by ZEFSAII (Michael W. Deem and Ramdas Pophale) SiO2 
 PCOD9243849
Probable space group: P 21/C
;
_chemical_formula_sum "Si O2"
_cell_formula_units_Z 26
_cell_length_a 15.107239
_cell_length_b 4.915344
_cell_length_c 18.105737
_cell_angle_alpha 90.000000
_cell_angle_beta 51.090943
_cell_angle_gamma 90.000000
_cell_volume 1046.200992
_symmetry_space_group_name_H-M "P 21/C"
_symmetry_group_IT_number 14
_symmetry_cell_setting 'monoclinic'
loop_
_space_group_symop_operation_xyz
x,y,z
-x,1/2+y,1/2-z
-x,-y,-z
x,1/2-y,1/2+z
loop_
_atom_site_type_symbol
_atom_site_label
_atom_site_fract_x
_atom_site_fract_y
_atom_site_fract_z
Si Si1 0.679181 0.208009 0.812693
Si Si2 0.842038 0.321736 0.996800
Si Si3 0.639973 0.609005 0.184502
Si Si4 0.548651 0.984383 0.589345
Si Si5 0.693019 0.482705 0.466533
Si Si6 0.000000 0.500000 0.000000
Si Si7 0.828288 0.533291 0.632383
O O1 0.570695 0.402066 0.883785
O O2 0.784979 0.386402 0.728089
O O3 0.640853 0.006360 0.766434
O O4 0.707515 0.051332 0.872115
O O5 0.725709 0.430318 0.090563
O O6 0.805361 0.125521 0.950869
O O7 0.895951 0.185816 0.045230
O O8 0.933192 0.559437 0.951109
O O9 0.533486 0.576810 0.185785
O O10 0.709053 0.890907 0.153672
O O11 0.648168 0.780231 0.510000
O O12 0.589856 0.283759 0.546696
O O13 0.101021 0.306559 0.902919
#
# Coordination Sequence:
#
# PCOD9243849 Si02
#       7
#     4   4   4   4   4   2   4
#     4  11  25  36  65  95 140 177 228 289 346 409
#     4   9  19  39  64  92 124 169 229 274 345 418
#     4   9  21  36  59  92 128 170 223 282 328 409
#     4  11  24  41  64  93 139 186 232 266 351 423
#     4  11  24  43  63  97 137 188 222 287 347 428
#     4  10  20  38  72  94 122 172 232 290 346 412
#     4  10  20  39  61  97 125 167 226 287 340 406
#
# _framework density 24.851824000000001
#
# number of rings (size 3 to 8) (size 9 to 14) (size 15 to 20)
#    0.000    1.846    1.538    1.385    6.462    0.000 
#    0.000    0.000   10.154    0.000    0.000    0.000 
#    0.000    0.000    0.000    0.000    0.000    0.000 
#
# Total GULP energy -144844.665289 kJ/mol
# GULP energy per Si atom -5570.948665 kJ/mol
# Density = 2.479526 g / cm^3
# Si number density = 24.851824 Si / 1000 Ang^3
#
#
#
# Elastic Constant Matrix: (Units=GPa)
#
#
# Indices 1 2 3 4 5 6 
#
# 1 111.4272 7.0091 43.1143 0.0000 6.4083 0.0000
# 2 7.0091 101.2628 31.4824 0.0000 8.0204 0.0000
# 3 43.1143 31.4824 97.5202 0.0000 23.5236 0.0000
# 4 0.0000 0.0000 0.0000 41.6838 0.0000 -0.9963
# 5 6.4083 8.0204 23.5236 0.0000 44.5910 0.0000
# 6 0.0000 0.0000 0.0000 -0.9963 0.0000 34.4658
#
#
#
# Elastic Compliance Matrix: (Units=1/GPa)
#
#
# Indices 1 2 3 4 5 6 
#
# 1 0.010936 0.000824 -0.005369 0.000000 0.001113 0.000000
# 2 0.000824 0.011040 -0.003920 0.000000 -0.000036 0.000000
# 3 -0.005369 -0.003920 0.015511 0.000000 -0.006706 0.000000
# 4 0.000000 0.000000 0.000000 0.024007 0.000000 0.000694
# 5 0.001113 -0.000036 -0.006706 0.000000 0.025810 0.000000
# 6 0.000000 0.000000 0.000000 0.000694 0.000000 0.029034
#
#
# Mechanical properties :
#
#
# Convention : Reuss Voigt Hill
#
# Bulk Modulus (GPa) = 48.64400 52.60240 50.62320
# Shear Modulus (GPa) = 35.68353 39.38841 37.53597
#
# Velocity S-wave (km/s) = 3.79337 3.98544 3.89059
# Velocity P-wave (km/s) = 6.22915 6.51081 6.37154
#
# Compressibility (1/GPa) = 0.02055752
#
# Stress axis : x y z
#
# Youngs Moduli (GPa) = 91.43922 90.58212 64.46973
#
# Poissons Ratio (x) = -0.07466 0.34617
# Poissons Ratio (y) = -0.07537 0.25269
# Poissons Ratio (z) = 0.49098 0.35504
#
# Static dielectric constant tensor:
#      x y z
#    x 2.273840 0.000000 -0.083360 
#    y 0.000000 2.298850 0.000000 
#    z -0.083360 0.000000 2.041380 
# 
# From -- ./inp_files/58407.got.cif
#   From: 2010.05.17/outbox.cif.g08.bks.cpg/sg14_30_cif.got.tgz:58407.got - 2010.06.03 17:49:19.
