data_PCOD9243137
_publ_section_title
;
Structure prediction by ZEFSAII (Michael W. Deem and Ramdas Pophale) SiO2 
 PCOD9243137
Probable space group: P 21/C
;
_chemical_formula_sum "Si O2"
_cell_formula_units_Z 32
_cell_length_a 20.282740
_cell_length_b 8.323644
_cell_length_c 10.595509
_cell_angle_alpha 90.000000
_cell_angle_beta 55.917704
_cell_angle_gamma 90.000000
_cell_volume 1481.544680
_symmetry_space_group_name_H-M "P 21/C"
_symmetry_group_IT_number 14
_symmetry_cell_setting 'monoclinic'
loop_
_space_group_symop_operation_xyz
x,y,z
-x,1/2+y,1/2-z
-x,-y,-z
x,1/2-y,1/2+z
loop_
_atom_site_type_symbol
_atom_site_label
_atom_site_fract_x
_atom_site_fract_y
_atom_site_fract_z
Si Si1 0.898109 0.649726 0.086466
Si Si2 0.946107 0.528305 0.434401
Si Si3 0.612161 0.100034 0.963933
Si Si4 0.253665 0.125842 0.105155
Si Si5 0.325265 0.185668 0.764936
Si Si6 0.051652 0.840183 0.590884
Si Si7 0.439169 0.446399 0.723046
Si Si8 0.582921 0.036720 0.477607
O O1 0.839377 0.616301 0.266458
O O2 0.987181 0.661672 0.046472
O O3 0.886040 0.825323 0.034888
O O4 0.891549 0.491990 0.004268
O O5 0.917572 0.345256 0.429310
O O6 0.000000 0.500000 0.500000
O O7 0.002937 0.602653 0.265811
O O8 0.607120 0.070128 0.818465
O O9 0.596209 0.283482 0.006295
O O10 0.693213 0.033998 0.934609
O O11 0.532715 0.015688 0.106223
O O12 0.284567 0.231391 0.189490
O O13 0.275678 0.194377 0.945595
O O14 0.408890 0.278417 0.697904
O O15 0.348517 0.009792 0.694244
O O16 0.415912 0.439954 0.893129
O O17 0.500000 0.000000 0.500000
#
# Coordination Sequence:
#
# PCOD9243137 Si02
#       8
#     4   4   4   4   4   4   4   4
#     4  10  23  41  66  93 133 174 212 270 329 388
#     4  10  20  36  66 100 128 165 216 267 317 384
#     4  10  24  39  62  88 131 161 210 273 322 390
#     4  11  25  44  62  93 131 170 210 267 338 390
#     4  11  23  43  64  89 124 169 215 262 326 396
#     4  10  20  40  67  99 128 167 221 265 315 393
#     4  10  22  40  60  91 118 162 218 267 317 381
#     4  12  23  36  67  91 117 165 220 269 322 379
#
# _framework density 21.599077999999999
#
# number of rings (size 3 to 8) (size 9 to 14) (size 15 to 20)
#    0.000    1.500    3.750    0.750    5.250    0.000 
#    2.250    0.000    0.000    0.000    0.000    0.000 
#    0.000    0.000    0.000    0.000    0.000    0.000 
#
# Total GULP energy -178421.609645 kJ/mol
# GULP energy per Si atom -5575.675301 kJ/mol
# Density = 2.154992 g / cm^3
# Si number density = 21.599078 Si / 1000 Ang^3
#
#
#
# Elastic Constant Matrix: (Units=GPa)
#
#
# Indices 1 2 3 4 5 6 
#
# 1 38.3707 18.2117 9.0130 0.0000 9.1148 0.0000
# 2 18.2117 114.0113 20.3335 0.0000 -2.9755 0.0000
# 3 9.0130 20.3335 120.1380 0.0000 13.9561 0.0000
# 4 0.0000 0.0000 0.0000 29.7021 0.0000 2.8275
# 5 9.1148 -2.9755 13.9561 0.0000 35.7554 0.0000
# 6 0.0000 0.0000 0.0000 2.8275 0.0000 11.7853
#
#
#
# Elastic Compliance Matrix: (Units=1/GPa)
#
#
# Indices 1 2 3 4 5 6 
#
# 1 0.030439 -0.004979 -0.000515 0.000000 -0.007973 0.000000
# 2 -0.004979 0.009927 -0.001624 0.000000 0.002729 0.000000
# 3 -0.000515 -0.001624 0.009048 0.000000 -0.003535 0.000000
# 4 0.000000 0.000000 0.000000 0.034455 0.000000 -0.008266
# 5 -0.007973 0.002729 -0.003535 0.000000 0.031607 0.000000
# 6 0.000000 0.000000 0.000000 -0.008266 0.000000 0.086834
#
#
# Mechanical properties :
#
#
# Convention : Reuss Voigt Hill
#
# Bulk Modulus (GPa) = 28.42497 40.84850 34.63673
# Shear Modulus (GPa) = 21.90373 30.44602 26.17487
#
# Velocity S-wave (km/s) = 3.18796 3.75853 3.48494
# Velocity P-wave (km/s) = 5.17103 6.14725 5.68015
#
# Compressibility (1/GPa) = 0.03518033
#
# Stress axis : x y z
#
# Youngs Moduli (GPa) = 32.85219 100.73425 110.52285
#
# Poissons Ratio (x) = 0.50151 0.05690
# Poissons Ratio (y) = 0.16356 0.17946
# Poissons Ratio (z) = 0.01691 0.16356
#
# Static dielectric constant tensor:
#      x y z
#    x 1.809410 0.000000 -0.010330 
#    y 0.000000 1.870630 0.000000 
#    z -0.010330 0.000000 1.777080 
# 
# From -- ./inp_files/35650.got.cif
#   From: 2010.05.17/outbox.cif.g08.bks.cpg/sg14_18_cif.got.tgz:35650.got - 2010.06.03 17:49:19.
