data_PCOD9243334
_publ_section_title
;
Structure prediction by ZEFSAII (Michael W. Deem and Ramdas Pophale) SiO2 
 PCOD9243334
Probable space group: P 21/C
;
_chemical_formula_sum "Si O2"
_cell_formula_units_Z 24
_cell_length_a 14.678272
_cell_length_b 5.443576
_cell_length_c 14.763265
_cell_angle_alpha 90.000000
_cell_angle_beta 74.272296
_cell_angle_gamma 90.000000
_cell_volume 1135.454680
_symmetry_space_group_name_H-M "P 21/C"
_symmetry_group_IT_number 14
_symmetry_cell_setting 'monoclinic'
loop_
_space_group_symop_operation_xyz
x,y,z
-x,1/2+y,1/2-z
-x,-y,-z
x,1/2-y,1/2+z
loop_
_atom_site_type_symbol
_atom_site_label
_atom_site_fract_x
_atom_site_fract_y
_atom_site_fract_z
Si Si1 0.299734 0.887295 0.758705
Si Si2 0.115226 0.651265 0.777045
Si Si3 0.396190 0.373500 0.774157
Si Si4 0.539091 0.962117 0.389196
Si Si5 0.933059 0.584857 0.383799
Si Si6 0.926741 0.804411 0.561801
O O1 0.187882 0.868962 0.776177
O O2 0.333174 0.127379 0.804849
O O3 0.355541 0.926193 0.649148
O O4 0.338306 0.626946 0.785058
O O5 0.004360 0.723396 0.815486
O O6 0.132969 0.448890 0.848998
O O7 0.130456 0.539886 0.674331
O O8 0.446939 0.306163 0.663418
O O9 0.472622 0.401670 0.833136
O O10 0.500000 0.000000 0.500000
O O11 0.007440 0.392502 0.406017
O O12 0.879252 0.691601 0.485296
O O13 0.000000 0.000000 0.500000
#
# Coordination Sequence:
#
# PCOD9243334 Si02
#       6
#     4   4   4   4   4   4
#     4  10  23  40  64  97 137 165 222 277 326 398
#     4  11  21  37  67  88 130 173 222 275 331 388
#     4  10  21  44  63  99 133 170 215 272 331 410
#     4  10  21  43  74  95 136 177 217 267 349 409
#     4  10  20  37  61  88 120 175 221 268 330 398
#     4   9  20  37  57  86 117 164 219 268 333 381
#
# _framework density 21.136907000000001
#
# number of rings (size 3 to 8) (size 9 to 14) (size 15 to 20)
#    1.000    1.000    3.333    0.000    2.333    0.667 
#    0.000    6.667    0.000    0.000    0.000    0.000 
#    0.000    0.000    0.000    0.000    0.000    0.000 
#
# Total GULP energy -133647.597310 kJ/mol
# GULP energy per Si atom -5568.649888 kJ/mol
# Density = 2.108880 g / cm^3
# Si number density = 21.136907 Si / 1000 Ang^3
#
#
#
# Elastic Constant Matrix: (Units=GPa)
#
#
# Indices 1 2 3 4 5 6 
#
# 1 43.1863 5.6045 4.3277 0.0000 -5.2174 0.0000
# 2 5.6045 88.8840 11.9041 0.0000 3.1673 0.0000
# 3 4.3277 11.9041 91.9446 0.0000 16.2010 0.0000
# 4 0.0000 0.0000 0.0000 29.8761 0.0000 -2.2380
# 5 -5.2174 3.1673 16.2010 0.0000 10.3277 0.0000
# 6 0.0000 0.0000 0.0000 -2.2380 0.0000 34.2006
#
#
#
# Elastic Compliance Matrix: (Units=1/GPa)
#
#
# Indices 1 2 3 4 5 6 
#
# 1 0.026456 -0.001790 -0.004789 0.000000 0.021427 0.000000
# 2 -0.001790 0.011590 -0.000872 0.000000 -0.003092 0.000000
# 3 -0.004789 -0.000872 0.016022 0.000000 -0.027286 0.000000
# 4 0.000000 0.000000 0.000000 0.033636 0.000000 0.002201
# 5 0.021427 -0.003092 -0.027286 0.000000 0.151404 0.000000
# 6 0.000000 0.000000 0.000000 0.002201 0.000000 0.029383
#
#
# Mechanical properties :
#
#
# Convention : Reuss Voigt Hill
#
# Bulk Modulus (GPa) = 25.53147 29.74306 27.63726
# Shear Modulus (GPa) = 16.86625 28.35944 22.61284
#
# Velocity S-wave (km/s) = 2.82787 3.66690 3.27437
# Velocity P-wave (km/s) = 4.77156 5.65954 5.23441
#
# Compressibility (1/GPa) = 0.03916735
#
# Stress axis : x y z
#
# Youngs Moduli (GPa) = 37.79810 86.27821 62.41298
#
# Poissons Ratio (x) = 0.15447 0.29889
# Poissons Ratio (y) = 0.06767 0.05440
# Poissons Ratio (z) = 0.18101 0.07520
#
# Static dielectric constant tensor:
#      x y z
#    x 1.753740 0.000000 -0.023920 
#    y 0.000000 1.865490 0.000000 
#    z -0.023920 0.000000 1.768510 
# 
# From -- ./inp_files/45674.got.cif
#   From: 2010.05.17/outbox.cif.g08.bks.cpg/sg14_23_cif.got.tgz:45674.got - 2010.06.03 17:49:19.
