data_PCOD9243549
_publ_section_title
;
Structure prediction by ZEFSAII (Michael W. Deem and Ramdas Pophale) SiO2 
 PCOD9243549
Probable space group: P 21/C
;
_chemical_formula_sum "Si O2"
_cell_formula_units_Z 30
_cell_length_a 4.765100
_cell_length_b 23.061767
_cell_length_c 11.292512
_cell_angle_alpha 90.000000
_cell_angle_beta 88.954162
_cell_angle_gamma 90.000000
_cell_volume 1240.745778
_symmetry_space_group_name_H-M "P 21/C"
_symmetry_group_IT_number 14
_symmetry_cell_setting 'monoclinic'
loop_
_space_group_symop_operation_xyz
x,y,z
-x,1/2+y,1/2-z
-x,-y,-z
x,1/2-y,1/2+z
loop_
_atom_site_type_symbol
_atom_site_label
_atom_site_fract_x
_atom_site_fract_y
_atom_site_fract_z
Si Si1 0.951126 0.362411 0.754952
Si Si2 0.400080 0.836404 0.333919
Si Si3 0.483292 0.203091 0.181151
Si Si4 0.631523 0.603517 0.048445
Si Si5 0.748379 0.389320 0.522280
Si Si6 0.726865 0.910089 0.135205
Si Si7 0.500000 0.000000 0.500000
Si Si8 0.010492 0.943195 0.349269
O O1 0.156665 0.311772 0.698141
O O2 0.132705 0.382987 0.861647
O O3 0.881320 0.406254 0.648367
O O4 0.652285 0.332400 0.782784
O O5 0.413741 0.768321 0.313907
O O6 0.542870 0.846645 0.460659
O O7 0.567819 0.866451 0.225371
O O8 0.118668 0.875604 0.344365
O O9 0.592929 0.170505 0.061946
O O10 0.389627 0.559001 0.082648
O O11 0.273309 0.520499 0.887585
O O12 0.011449 0.381925 0.434763
O O13 0.510521 0.426914 0.458736
O O14 0.871501 0.955269 0.223817
O O15 0.237256 0.054230 0.549530
#
# Coordination Sequence:
#
# PCOD9243549 Si02
#       8
#     4   4   4   4   4   4   2   4
#     4  10  23  41  60  90 130 173 215 254 321 380
#     4  10  23  38  61  93 129 164 220 269 317 376
#     4  10  23  40  56  94 126 178 219 251 317 377
#     4  10  23  41  66  95 131 165 215 279 329 387
#     4  10  20  38  60  85 124 176 208 251 301 381
#     4  11  20  39  61  89 124 163 215 260 313 372
#     4  10  22  42  70  98 124 164 216 276 352 374
#     4  10  22  41  65  98 123 167 207 279 329 388
#
# _framework density 24.179006999999999
#
# number of rings (size 3 to 8) (size 9 to 14) (size 15 to 20)
#    0.800    1.067    2.667    0.400    7.467    1.067 
#    4.800    0.000    0.000    1.600    0.000    0.000 
#    0.000    0.000    0.000    0.000    0.000    0.000 
#
# Total GULP energy -167004.406076 kJ/mol
# GULP energy per Si atom -5566.813536 kJ/mol
# Density = 2.412397 g / cm^3
# Si number density = 24.179007 Si / 1000 Ang^3
#
#
#
# Elastic Constant Matrix: (Units=GPa)
#
#
# Indices 1 2 3 4 5 6 
#
# 1 144.3766 -0.8480 17.0199 0.0000 20.1680 0.0000
# 2 -0.8480 68.9356 9.8616 0.0000 30.3403 0.0000
# 3 17.0199 9.8616 106.8477 0.0000 51.3345 0.0000
# 4 0.0000 0.0000 0.0000 17.0868 0.0000 3.0805
# 5 20.1680 30.3403 51.3345 0.0000 61.8071 0.0000
# 6 0.0000 0.0000 0.0000 3.0805 0.0000 25.1537
#
#
#
# Elastic Compliance Matrix: (Units=1/GPa)
#
#
# Indices 1 2 3 4 5 6 
#
# 1 0.007379 0.001565 0.000343 0.000000 -0.003461 0.000000
# 2 0.001565 0.020182 0.004814 0.000000 -0.014416 0.000000
# 3 0.000343 0.004814 0.016722 0.000000 -0.016364 0.000000
# 4 0.000000 0.000000 0.000000 0.059846 0.000000 -0.007329
# 5 -0.003461 -0.014416 -0.016364 0.000000 0.037976 0.000000
# 6 0.000000 0.000000 0.000000 -0.007329 0.000000 0.040653
#
#
# Mechanical properties :
#
#
# Convention : Reuss Voigt Hill
#
# Bulk Modulus (GPa) = 17.32327 41.35853 29.34090
# Shear Modulus (GPa) = 26.51733 40.41795 33.46764
#
# Velocity S-wave (km/s) = 3.31525 4.09297 3.72447
# Velocity P-wave (km/s) = 4.67276 6.28322 5.53685
#
# Compressibility (1/GPa) = 0.05772582
#
# Stress axis : x y z
#
# Youngs Moduli (GPa) = 135.52872 49.54987 59.80119
#
# Poissons Ratio (x) = -0.07753 -0.02050
# Poissons Ratio (y) = -0.21207 -0.28789
# Poissons Ratio (z) = -0.04647 -0.23854
#
# Static dielectric constant tensor:
#      x y z
#    x 1.982140 0.000000 -0.056280 
#    y 0.000000 1.287270 0.000000 
#    z -0.056280 0.000000 2.041710 
# 
# From -- ./inp_files/22003.got.cif
#   From: 2010.05.17/outbox.cif.g08.bks.cpg/sg14_12_cif.got.tgz:22003.got - 2010.06.03 17:49:19.
