data_PCOD9243220
_publ_section_title
;
Structure prediction by ZEFSAII (Michael W. Deem and Ramdas Pophale) SiO2 
 PCOD9243220
Probable space group: P 21/C
;
_chemical_formula_sum "Si O2"
_cell_formula_units_Z 26
_cell_length_a 21.293350
_cell_length_b 4.919577
_cell_length_c 27.207659
_cell_angle_alpha 90.000000
_cell_angle_beta 157.656069
_cell_angle_gamma 90.000000
_cell_volume 1083.516599
_symmetry_space_group_name_H-M "P 21/C"
_symmetry_group_IT_number 14
_symmetry_cell_setting 'monoclinic'
loop_
_space_group_symop_operation_xyz
x,y,z
-x,1/2+y,1/2-z
-x,-y,-z
x,1/2-y,1/2+z
loop_
_atom_site_type_symbol
_atom_site_label
_atom_site_fract_x
_atom_site_fract_y
_atom_site_fract_z
Si Si1 0.500000 0.000000 0.500000
Si Si2 0.558102 0.142828 0.453249
Si Si3 0.251154 0.031400 0.838631
Si Si4 0.486578 0.014284 0.818475
Si Si5 0.802115 0.730329 0.096008
Si Si6 0.061663 0.237971 0.905340
Si Si7 0.725342 0.245199 0.410280
O O1 0.484902 0.892050 0.430220
O O2 0.331231 0.208816 0.371546
O O3 0.615769 0.297865 0.546655
O O4 0.442396 0.275971 0.329638
O O5 0.733445 0.074593 0.554552
O O6 0.169352 0.145544 0.829858
O O7 0.113786 0.867841 0.709261
O O8 0.347451 0.821766 0.695798
O O9 0.572809 0.162987 0.834510
O O10 0.634953 0.855876 0.951990
O O11 0.935184 0.802791 0.151583
O O12 0.198187 0.468684 0.013745
O O13 0.131962 0.971231 0.982198
#
# Coordination Sequence:
#
# PCOD9243220 Si02
#       7
#     2   4   4   4   4   4   4
#     4  10  22  42  64  90 118 176 234 286 326 386
#     4  10  20  38  62  92 118 168 221 277 329 380
#     4  10  23  37  63  87 129 166 217 273 337 403
#     4  10  20  37  58  91 129 171 215 263 316 412
#     4   9  20  33  57  91 123 163 205 258 335 392
#     4  11  24  37  57  98 134 172 202 266 340 418
#     4  11  23  36  61  91 137 174 209 257 333 408
#
# _framework density 23.995939
#
# number of rings (size 3 to 8) (size 9 to 14) (size 15 to 20)
#    0.000    1.846    1.538    2.308    8.615    0.000 
#    0.000    0.000    0.000    1.846    0.000    0.000 
#    0.000    0.000    0.000    0.000    0.000    0.000 
#
# Total GULP energy -144831.906331 kJ/mol
# GULP energy per Si atom -5570.457936 kJ/mol
# Density = 2.394132 g / cm^3
# Si number density = 23.995939 Si / 1000 Ang^3
#
#
#
# Elastic Constant Matrix: (Units=GPa)
#
#
# Indices 1 2 3 4 5 6 
#
# 1 60.9262 18.4979 40.8541 0.0000 -14.7176 0.0000
# 2 18.4979 90.8825 34.8010 0.0000 -10.7350 0.0000
# 3 40.8541 34.8010 94.8235 0.0000 -15.2646 0.0000
# 4 0.0000 0.0000 0.0000 63.4196 0.0000 -5.6932
# 5 -14.7176 -10.7350 -15.2646 0.0000 19.1163 0.0000
# 6 0.0000 0.0000 0.0000 -5.6932 0.0000 32.9518
#
#
#
# Elastic Compliance Matrix: (Units=1/GPa)
#
#
# Indices 1 2 3 4 5 6 
#
# 1 0.025424 -0.000331 -0.008849 0.000000 0.012322 0.000000
# 2 -0.000331 0.013071 -0.004032 0.000000 0.003866 0.000000
# 3 -0.008849 -0.004032 0.016498 0.000000 0.004097 0.000000
# 4 0.000000 0.000000 0.000000 0.016016 0.000000 0.002767
# 5 0.012322 0.003866 0.004097 0.000000 0.067240 0.000000
# 6 0.000000 0.000000 0.000000 0.002767 0.000000 0.030825
#
#
# Mechanical properties :
#
#
# Convention : Reuss Voigt Hill
#
# Bulk Modulus (GPa) = 35.00302 48.32646 41.66474
# Shear Modulus (GPa) = 24.38764 33.26282 28.82523
#
# Velocity S-wave (km/s) = 3.19144 3.72719 3.46967
# Velocity P-wave (km/s) = 5.31029 6.22139 5.78381
#
# Compressibility (1/GPa) = 0.02856896
#
# Stress axis : x y z
#
# Youngs Moduli (GPa) = 39.33318 76.50363 60.61450
#
# Poissons Ratio (x) = 0.02531 0.53636
# Poissons Ratio (y) = 0.01301 0.24442
# Poissons Ratio (z) = 0.34805 0.30850
#
# Static dielectric constant tensor:
#      x y z
#    x 2.528310 0.000000 0.100940 
#    y 0.000000 2.651690 0.000000 
#    z 0.100940 0.000000 1.921190 
# 
# From -- ./inp_files/78109.got.cif
#   From: 2010.05.17/outbox.cif.g08.bks.cpg/sg14_40_cif.got.tgz:78109.got - 2010.06.03 17:49:19.
