data_PCOD9243734
_publ_section_title
;
Structure prediction by ZEFSAII (Michael W. Deem and Ramdas Pophale) SiO2 
 PCOD9243734
Probable space group: P 21/C
;
_chemical_formula_sum "Si O2"
_cell_formula_units_Z 26
_cell_length_a 21.046823
_cell_length_b 9.062129
_cell_length_c 10.333514
_cell_angle_alpha 90.000000
_cell_angle_beta 147.784676
_cell_angle_gamma 90.000000
_cell_volume 1050.692425
_symmetry_space_group_name_H-M "P 21/C"
_symmetry_group_IT_number 14
_symmetry_cell_setting 'monoclinic'
loop_
_space_group_symop_operation_xyz
x,y,z
-x,1/2+y,1/2-z
-x,-y,-z
x,1/2-y,1/2+z
loop_
_atom_site_type_symbol
_atom_site_label
_atom_site_fract_x
_atom_site_fract_y
_atom_site_fract_z
Si Si1 0.791384 0.455144 0.324887
Si Si2 0.363606 0.068657 0.111389
Si Si3 0.000000 0.500000 0.500000
Si Si4 0.182817 0.284404 0.452790
Si Si5 0.710038 0.483880 0.780371
Si Si6 0.411105 0.803609 0.387109
Si Si7 0.063628 0.797165 0.350715
O O1 0.864587 0.450199 0.319527
O O2 0.771997 0.617114 0.348945
O O3 0.668109 0.368806 0.130001
O O4 0.879965 0.363918 0.575529
O O5 0.231849 0.130278 0.913987
O O6 0.454427 0.184533 0.332122
O O7 0.388614 0.916921 0.231192
O O8 0.373718 0.042801 0.978115
O O9 0.992191 0.380362 0.367154
O O10 0.236965 0.122915 0.554452
O O11 0.040840 0.272570 0.224091
O O12 0.637187 0.357637 0.728010
O O13 0.825512 0.399809 0.917748
#
# Coordination Sequence:
#
# PCOD9243734 Si02
#       7
#     4   4   2   4   4   4   4
#     4   9  20  37  61  90 126 166 212 262 323 396
#     4  10  23  44  67  92 133 173 213 279 331 377
#     4  10  20  38  64  90 132 176 214 278 334 382
#     4  10  21  38  60  96 129 162 217 264 319 397
#     4  11  24  41  67  98 128 172 224 267 327 399
#     4   9  22  44  65  92 127 172 223 266 327 398
#     4  10  22  40  62  96 131 169 220 267 328 401
#
# _framework density 24.745587
#
# number of rings (size 3 to 8) (size 9 to 14) (size 15 to 20)
#    0.000    2.154    0.000    1.846    0.000   17.231 
#    0.000    1.538    0.000    0.000    0.000    0.000 
#    0.000    0.000    0.000    0.000    0.000    0.000 
#
# Total GULP energy -144906.554195 kJ/mol
# GULP energy per Si atom -5573.329008 kJ/mol
# Density = 2.468926 g / cm^3
# Si number density = 24.745587 Si / 1000 Ang^3
#
#
#
# Elastic Constant Matrix: (Units=GPa)
#
#
# Indices 1 2 3 4 5 6 
#
# 1 54.6843 5.5518 4.1889 0.0000 8.1879 0.0000
# 2 5.5518 125.5167 31.6649 0.0000 -2.9695 0.0000
# 3 4.1889 31.6649 62.4297 0.0000 1.2052 0.0000
# 4 0.0000 0.0000 0.0000 8.5341 0.0000 30.4193
# 5 8.1879 -2.9695 1.2052 0.0000 32.4392 0.0000
# 6 0.0000 0.0000 0.0000 30.4193 0.0000 21.1673
#
#
#
# Elastic Compliance Matrix: (Units=1/GPa)
#
#
# Indices 1 2 3 4 5 6 
#
# 1 0.019155 -0.000759 -0.000806 0.000000 -0.004875 0.000000
# 2 -0.000759 0.009199 -0.004638 0.000000 0.001206 0.000000
# 3 -0.000806 -0.004638 0.018442 0.000000 -0.000906 0.000000
# 4 0.000000 0.000000 0.000000 -0.028424 0.000000 0.040848
# 5 -0.004875 0.001206 -0.000906 0.000000 0.032201 0.000000
# 6 0.000000 0.000000 0.000000 0.040848 0.000000 -0.011460
#
#
# Mechanical properties :
#
#
# Convention : Reuss Voigt Hill
#
# Bulk Modulus (GPa) = 29.07851 36.16023 32.61937
# Shear Modulus (GPa) = 79.38423 25.84311 52.61367
#
# Velocity S-wave (km/s) = 5.67008 3.23515 4.61606
# Velocity P-wave (km/s) = 7.39208 5.34785 6.45145
#
# Compressibility (1/GPa) = 0.03438966
#
# Stress axis : x y z
#
# Youngs Moduli (GPa) = 52.20440 108.70365 54.22348
#
# Poissons Ratio (x) = 0.08253 0.04371
# Poissons Ratio (y) = 0.03964 0.25151
# Poissons Ratio (z) = 0.04208 0.50420
#
# Static dielectric constant tensor:
#      x y z
#    x 1.930730 0.000000 0.060110 
#    y 0.000000 2.089830 0.000000 
#    z 0.060110 0.000000 1.830060 
# 
# From -- ./inp_files/35803.got.cif
#   From: 2010.05.17/outbox.cif.g08.bks.cpg/sg14_18_cif.got.tgz:35803.got - 2010.06.03 17:49:19.
