data_PCOD9243974
_publ_section_title
;
Structure prediction by ZEFSAII (Michael W. Deem and Ramdas Pophale) SiO2 
 PCOD9243974
Probable space group: P 21/C
;
_chemical_formula_sum "Si O2"
_cell_formula_units_Z 24
_cell_length_a 9.943084
_cell_length_b 13.143830
_cell_length_c 14.789445
_cell_angle_alpha 90.000000
_cell_angle_beta 29.408304
_cell_angle_gamma 90.000000
_cell_volume 949.080299
_symmetry_space_group_name_H-M "P 21/C"
_symmetry_group_IT_number 14
_symmetry_cell_setting 'monoclinic'
loop_
_space_group_symop_operation_xyz
x,y,z
-x,1/2+y,1/2-z
-x,-y,-z
x,1/2-y,1/2+z
loop_
_atom_site_type_symbol
_atom_site_label
_atom_site_fract_x
_atom_site_fract_y
_atom_site_fract_z
Si Si1 0.343321 0.212473 0.371338
Si Si2 0.113965 0.085658 0.801304
Si Si3 0.042113 0.010009 0.282227
Si Si4 0.087328 0.789868 0.532067
Si Si5 0.569590 0.499402 0.722656
Si Si6 0.527965 0.124312 0.893514
O O1 0.067359 0.227513 0.474515
O O2 0.381907 0.093298 0.361418
O O3 0.405030 0.269945 0.429010
O O4 0.601530 0.250591 0.159006
O O5 0.066855 0.205771 0.815629
O O6 0.341759 0.061257 0.741832
O O7 0.148433 0.020997 0.690226
O O8 0.840281 0.045177 0.013773
O O9 0.943710 0.095342 0.411934
O O10 0.184766 0.902478 0.227602
O O11 0.295668 0.072208 0.089230
O O12 0.438379 0.563366 0.719906
#
# Coordination Sequence:
#
# PCOD9243974 Si02
#       6
#     4   4   4   4   4   4
#     4  11  23  40  66  92 122 166 213 258 302 379
#     4   9  19  36  61  85 122 166 201 247 307 379
#     4  10  22  39  62  93 128 165 203 260 318 372
#     4  11  23  42  63  93 127 162 210 262 311 365
#     4   9  17  36  61  85 117 165 208 235 306 381
#     4  10  20  39  63  89 124 167 209 248 315 377
#
# _framework density 25.287638999999999
#
# number of rings (size 3 to 8) (size 9 to 14) (size 15 to 20)
#    0.000    2.000    3.333    0.000    4.667    2.000 
#    0.000    0.833    0.000    0.000    0.000    0.000 
#    0.000    0.000    0.000    0.000    0.000    0.000 
#
# Total GULP energy -134093.230662 kJ/mol
# GULP energy per Si atom -5587.217944 kJ/mol
# Density = 2.523008 g / cm^3
# Si number density = 25.287639 Si / 1000 Ang^3
#
#
#
# Elastic Constant Matrix: (Units=GPa)
#
#
# Indices 1 2 3 4 5 6 
#
# 1 106.3861 13.4443 21.2784 0.0000 -17.6498 0.0000
# 2 13.4443 115.9443 -7.6021 0.0000 -2.6870 0.0000
# 3 21.2784 -7.6021 78.6972 0.0000 7.8579 0.0000
# 4 0.0000 0.0000 0.0000 29.8711 0.0000 10.1317
# 5 -17.6498 -2.6870 7.8579 0.0000 33.8399 0.0000
# 6 0.0000 0.0000 0.0000 10.1317 0.0000 49.2514
#
#
#
# Elastic Compliance Matrix: (Units=1/GPa)
#
#
# Indices 1 2 3 4 5 6 
#
# 1 0.011492 -0.001432 -0.003924 0.000000 0.006791 0.000000
# 2 -0.001432 0.008867 0.001278 0.000000 -0.000340 0.000000
# 3 -0.003924 0.001278 0.014420 0.000000 -0.005293 0.000000
# 4 0.000000 0.000000 0.000000 0.035988 0.000000 -0.007403
# 5 0.006791 -0.000340 -0.005293 0.000000 0.034295 0.000000
# 6 0.000000 0.000000 0.000000 -0.007403 0.000000 0.021827
#
#
# Mechanical properties :
#
#
# Convention : Reuss Voigt Hill
#
# Bulk Modulus (GPa) = 37.56300 39.47432 38.51866
# Shear Modulus (GPa) = 34.74141 40.85293 37.79717
#
# Velocity S-wave (km/s) = 3.71057 4.02373 3.87032
# Velocity P-wave (km/s) = 5.76579 6.10174 5.93614
#
# Compressibility (1/GPa) = 0.02662194
#
# Stress axis : x y z
#
# Youngs Moduli (GPa) = 87.01504 112.77975 69.34884
#
# Poissons Ratio (x) = 0.16155 0.27211
# Poissons Ratio (y) = 0.12465 -0.08861
# Poissons Ratio (z) = 0.34143 -0.14411
#
# Static dielectric constant tensor:
#      x y z
#    x 1.907850 0.000000 0.021410 
#    y 0.000000 2.070790 0.000000 
#    z 0.021410 0.000000 2.067210 
# 
# From -- ./inp_files/41076.got.cif
#   From: 2010.05.17/outbox.cif.g08.bks.cpg/sg14_21_cif.got.tgz:41076.got - 2010.06.03 17:49:19.
