data_PCOD9243076
_publ_section_title
;
Structure prediction by ZEFSAII (Michael W. Deem and Ramdas Pophale) SiO2 
 PCOD9243076
Probable space group: P 21/C
;
_chemical_formula_sum "Si O2"
_cell_formula_units_Z 26
_cell_length_a 19.305454
_cell_length_b 4.863023
_cell_length_c 10.686694
_cell_angle_alpha 90.000000
_cell_angle_beta 64.234811
_cell_angle_gamma 90.000000
_cell_volume 903.552682
_symmetry_space_group_name_H-M "P 21/C"
_symmetry_group_IT_number 14
_symmetry_cell_setting 'monoclinic'
loop_
_space_group_symop_operation_xyz
x,y,z
-x,1/2+y,1/2-z
-x,-y,-z
x,1/2-y,1/2+z
loop_
_atom_site_type_symbol
_atom_site_label
_atom_site_fract_x
_atom_site_fract_y
_atom_site_fract_z
Si Si1 0.362911 0.653774 0.940816
Si Si2 0.000000 0.000000 0.000000
Si Si3 0.170634 0.273416 0.346598
Si Si4 0.045901 0.915326 0.675856
Si Si5 0.517339 0.750416 0.893692
Si Si6 0.332899 0.166798 0.125726
Si Si7 0.198179 0.766657 0.472704
O O1 0.365812 0.344121 0.985950
O O2 0.288674 0.683677 0.913056
O O3 0.338294 0.852786 0.077278
O O4 0.450798 0.741144 0.839787
O O5 0.913353 0.884201 0.119780
O O6 0.037171 0.756443 0.055875
O O7 0.248127 0.291702 0.207219
O O8 0.187756 0.443481 0.460659
O O9 0.172575 0.950811 0.374919
O O10 0.137141 0.875720 0.624057
O O11 0.991635 0.723633 0.811627
O O12 0.609188 0.772824 0.804133
O O13 0.500000 0.500000 0.000000
O O14 0.500000 0.000000 0.000000
#
# Coordination Sequence:
#
# PCOD9243076 Si02
#       7
#     4   2   4   4   4   4   4
#     4  10  20  36  62  88 120 157 200 259 301 359
#     4  10  26  44  64  90 132 164 208 274 320 358
#     4  11  24  41  60  87 123 162 199 257 317 374
#     4  11  25  42  66  91 122 165 215 258 317 388
#     4   8  16  32  54  86 119 150 199 250 297 358
#     4  10  20  36  62  89 114 163 210 241 301 387
#     4  11  24  41  58  90 125 152 202 262 312 367
#
# _framework density 28.775302
#
# number of rings (size 3 to 8) (size 9 to 14) (size 15 to 20)
#    0.000    1.846    0.000    3.692    4.308    5.538 
#    0.000    1.538    0.000    0.000    0.000    0.000 
#    0.000    0.000    0.000    0.000    0.000    0.000 
#
# Total GULP energy -144886.673106 kJ/mol
# GULP energy per Si atom -5572.564350 kJ/mol
# Density = 2.870981 g / cm^3
# Si number density = 28.775302 Si / 1000 Ang^3
#
#
#
# Elastic Constant Matrix: (Units=GPa)
#
#
# Indices 1 2 3 4 5 6 
#
# 1 161.1330 25.3163 42.3810 0.0000 -69.8780 0.0000
# 2 25.3163 140.5545 9.6759 0.0000 -16.6570 0.0000
# 3 42.3810 9.6759 105.1977 0.0000 -36.4434 0.0000
# 4 0.0000 0.0000 0.0000 33.4264 0.0000 -21.9728
# 5 -69.8780 -16.6570 -36.4434 0.0000 43.3396 0.0000
# 6 0.0000 0.0000 0.0000 -21.9728 0.0000 34.8359
#
#
#
# Elastic Compliance Matrix: (Units=1/GPa)
#
#
# Indices 1 2 3 4 5 6 
#
# 1 0.022311 0.000415 0.004925 0.000000 0.040273 0.000000
# 2 0.000415 0.007476 0.000525 0.000000 0.003984 0.000000
# 3 0.004925 0.000525 0.014526 0.000000 0.020358 0.000000
# 4 0.000000 0.000000 0.000000 0.051106 0.000000 0.032235
# 5 0.040273 0.003984 0.020358 0.000000 0.106657 0.000000
# 6 0.000000 0.000000 0.000000 0.032235 0.000000 0.049039
#
#
# Mechanical properties :
#
#
# Convention : Reuss Voigt Hill
#
# Bulk Modulus (GPa) = 17.84310 62.40350 40.12330
# Shear Modulus (GPa) = 19.37506 44.28786 31.83146
#
# Velocity S-wave (km/s) = 2.59766 3.92738 3.32958
# Velocity P-wave (km/s) = 3.90018 6.50379 5.36240
#
# Compressibility (1/GPa) = 0.05604408
#
# Stress axis : x y z
#
# Youngs Moduli (GPa) = 44.82193 133.76274 68.84324
#
# Poissons Ratio (x) = -0.05553 -0.33907
# Poissons Ratio (y) = -0.01861 -0.03617
# Poissons Ratio (z) = -0.22076 -0.07029
#
# Static dielectric constant tensor:
#      x y z
#    x 2.525170 0.000000 0.141040 
#    y 0.000000 2.027000 0.000000 
#    z 0.141040 0.000000 2.437280 
# 
# From -- ./inp_files/45958.got.cif
#   From: 2010.05.17/outbox.cif.g08.bks.cpg/sg14_23_cif.got.tgz:45958.got - 2010.06.03 17:49:19.
