data_PCOD9243703
_publ_section_title
;
Structure prediction by ZEFSAII (Michael W. Deem and Ramdas Pophale) SiO2 
 PCOD9243703
Probable space group: P 21/C
;
_chemical_formula_sum "Si O2"
_cell_formula_units_Z 20
_cell_length_a 4.876041
_cell_length_b 11.252620
_cell_length_c 16.897931
_cell_angle_alpha 90.000000
_cell_angle_beta 54.751662
_cell_angle_gamma 90.000000
_cell_volume 757.172640
_symmetry_space_group_name_H-M "P 21/C"
_symmetry_group_IT_number 14
_symmetry_cell_setting 'monoclinic'
loop_
_space_group_symop_operation_xyz
x,y,z
-x,1/2+y,1/2-z
-x,-y,-z
x,1/2-y,1/2+z
loop_
_atom_site_type_symbol
_atom_site_label
_atom_site_fract_x
_atom_site_fract_y
_atom_site_fract_z
Si Si1 0.064839 0.208164 0.625429
Si Si2 0.000000 0.000000 0.500000
Si Si3 0.933443 0.791836 0.625429
Si Si4 0.512237 0.365261 0.651336
Si Si5 0.617584 0.365260 0.348664
Si Si6 0.500000 0.500000 0.000000
O O1 0.385988 0.270217 0.608857
O O2 0.153572 0.101381 0.551080
O O3 0.867683 0.317031 0.619691
O O4 0.830450 0.152711 0.732420
O O5 0.857890 0.101382 0.448920
O O6 0.424691 0.000000 0.412654
O O7 0.739871 0.847289 0.732420
O O8 0.678580 0.729784 0.608858
O O9 0.153550 0.682968 0.619691
O O10 0.498797 0.500000 0.625601
#
# Coordination Sequence:
#
# PCOD9243703 Si02
#       6
#     4   2   4   4   4   2
#     4  10  22  37  61  97 128 169 220 276 337 399
#     4  12  24  40  64  92 130 168 216 270 330 400
#     4  10  22  37  61  97 128 169 220 276 337 399
#     4  10  20  38  63  92 129 168 221 280 333 391
#     4  10  20  38  63  92 129 168 221 280 333 391
#     4  12  24  40  64  92 130 168 216 270 330 400
#
# _framework density 26.414055000000001
#
# number of rings (size 3 to 8) (size 9 to 14) (size 15 to 20)
#    0.000    1.600    0.000    4.800    0.000    6.400 
#    0.000    0.000    0.000   24.000    0.000    0.000 
#    0.000    0.000    0.000    0.000    0.000    0.000 
#
# Total GULP energy -111778.594024 kJ/mol
# GULP energy per Si atom -5588.929701 kJ/mol
# Density = 2.635394 g / cm^3
# Si number density = 26.414055 Si / 1000 Ang^3
#
#
#
# Elastic Constant Matrix: (Units=GPa)
#
#
# Indices 1 2 3 4 5 6 
#
# 1 168.1397 -14.4837 -7.3337 0.0000 5.4508 0.0000
# 2 -14.4837 200.5889 47.0501 0.0000 -2.6295 0.0000
# 3 -7.3337 47.0501 108.7170 0.0000 -2.9121 0.0000
# 4 0.0000 0.0000 0.0000 49.3446 0.0000 -3.5827
# 5 5.4508 -2.6295 -2.9121 0.0000 24.3073 0.0000
# 6 0.0000 0.0000 0.0000 -3.5827 0.0000 -34.4990
#
#
#
# Elastic Compliance Matrix: (Units=1/GPa)
#
#
# Indices 1 2 3 4 5 6 
#
# 1 0.006030 0.000369 0.000213 0.000000 -0.001287 0.000000
# 2 0.000369 0.005573 -0.002381 0.000000 0.000235 0.000000
# 3 0.000213 -0.002381 0.010268 0.000000 0.000925 0.000000
# 4 0.000000 0.000000 0.000000 0.020114 0.000000 -0.002089
# 5 -0.001287 0.000235 0.000925 0.000000 0.041565 0.000000
# 6 0.000000 0.000000 0.000000 -0.002089 0.000000 -0.028769
#
#
# Mechanical properties :
#
#
# Convention : Reuss Voigt Hill
#
# Bulk Modulus (GPa) = 54.72735 58.65677 56.69206
# Shear Modulus (GPa) = 77.55494 37.97810 57.76652
#
# Velocity S-wave (km/s) = 5.42448 3.79595 4.68157
# Velocity P-wave (km/s) = 7.74579 6.43950 7.12266
#
# Compressibility (1/GPa) = 0.01827240
#
# Stress axis : x y z
#
# Youngs Moduli (GPa) = 165.83224 179.42097 97.39259
#
# Poissons Ratio (x) = -0.06614 -0.02072
# Poissons Ratio (y) = -0.06113 0.23188
# Poissons Ratio (z) = -0.03528 0.42718
#
# Static dielectric constant tensor:
#      x y z
#    x 2.267910 0.000000 0.010380 
#    y 0.000000 1.722470 0.000000 
#    z 0.010380 0.000000 2.025160 
# 
# From -- ./inp_files/62997.got.cif
#   From: 2010.05.17/outbox.cif.g08.bks.cpg/sg14_32_cif.got.tgz:62997.got - 2010.06.03 17:49:19.
