data_PCOD9243702
_publ_section_title
;
Structure prediction by ZEFSAII (Michael W. Deem and Ramdas Pophale) SiO2 
 PCOD9243702
Probable space group: P 21/C
;
_chemical_formula_sum "Si O2"
_cell_formula_units_Z 32
_cell_length_a 11.333509
_cell_length_b 17.973505
_cell_length_c 10.291728
_cell_angle_alpha 90.000000
_cell_angle_beta 37.014642
_cell_angle_gamma 90.000000
_cell_volume 1262.105727
_symmetry_space_group_name_H-M "P 21/C"
_symmetry_group_IT_number 14
_symmetry_cell_setting 'monoclinic'
loop_
_space_group_symop_operation_xyz
x,y,z
-x,1/2+y,1/2-z
-x,-y,-z
x,1/2-y,1/2+z
loop_
_atom_site_type_symbol
_atom_site_label
_atom_site_fract_x
_atom_site_fract_y
_atom_site_fract_z
Si Si1 0.260755 0.963912 0.069603
Si Si2 0.060856 0.768675 0.558683
Si Si3 0.883915 0.668130 0.434158
Si Si4 0.758013 0.630743 0.790279
Si Si5 0.693597 0.823078 0.619320
Si Si6 0.275551 0.015526 0.340908
Si Si7 0.714730 0.203974 0.907025
Si Si8 0.904571 0.029751 0.248818
O O1 0.223886 0.876951 0.095647
O O2 0.125089 0.003920 0.086659
O O3 0.210777 0.989163 0.258389
O O4 0.489540 0.980481 0.855142
O O5 0.206056 0.760072 0.554193
O O6 0.196449 0.784593 0.314407
O O7 0.908811 0.830426 0.754354
O O8 0.934468 0.692549 0.649147
O O9 0.704875 0.639664 0.684763
O O10 0.848211 0.756648 0.484238
O O11 0.058160 0.613229 0.332975
O O12 0.808147 0.543056 0.767073
O O13 0.625572 0.657784 0.029704
O O14 0.791522 0.900175 0.574580
O O15 0.520282 0.801315 0.869877
O O16 0.203318 0.964201 0.519395
#
# Coordination Sequence:
#
# PCOD9243702 Si02
#       8
#     4   4   4   4   4   4   4   4
#     4  10  20  38  63  92 124 161 218 264 321 378
#     4  11  22  39  65  89 127 164 210 258 321 385
#     4  11  23  40  60  95 121 170 217 255 313 396
#     4  10  21  41  61  85 127 168 208 260 317 384
#     4   9  23  39  63  89 127 164 209 268 321 370
#     4   9  20  38  61  92 124 162 208 271 315 373
#     4  11  22  41  64  95 126 166 206 268 326 377
#     4  11  21  38  62  87 124 173 206 264 320 377
#
# _framework density 25.354452999999999
#
# number of rings (size 3 to 8) (size 9 to 14) (size 15 to 20)
#    0.000    1.750    2.500    1.500    1.750    2.000 
#    6.750    0.000    0.000    3.750    0.000    0.000 
#    0.000    0.000    0.000    0.000    0.000    0.000 
#
# Total GULP energy -178350.628055 kJ/mol
# GULP energy per Si atom -5573.457127 kJ/mol
# Density = 2.529674 g / cm^3
# Si number density = 25.354453 Si / 1000 Ang^3
#
#
#
# Elastic Constant Matrix: (Units=GPa)
#
#
# Indices 1 2 3 4 5 6 
#
# 1 36.6550 13.8898 27.8895 0.0000 17.6045 0.0000
# 2 13.8898 82.8288 42.5164 0.0000 18.2587 0.0000
# 3 27.8895 42.5164 150.2828 0.0000 37.0202 0.0000
# 4 0.0000 0.0000 0.0000 41.0830 0.0000 7.1924
# 5 17.6045 18.2587 37.0202 0.0000 45.8431 0.0000
# 6 0.0000 0.0000 0.0000 7.1924 0.0000 23.3875
#
#
#
# Elastic Compliance Matrix: (Units=1/GPa)
#
#
# Indices 1 2 3 4 5 6 
#
# 1 0.035535 -0.001914 -0.003594 0.000000 -0.009981 0.000000
# 2 -0.001914 0.014564 -0.003142 0.000000 -0.002528 0.000000
# 3 -0.003594 -0.003142 0.009440 0.000000 -0.004991 0.000000
# 4 0.000000 0.000000 0.000000 0.025726 0.000000 -0.007912
# 5 -0.009981 -0.002528 -0.004991 0.000000 0.030684 0.000000
# 6 0.000000 0.000000 0.000000 -0.007912 0.000000 0.045191
#
#
# Mechanical properties :
#
#
# Convention : Reuss Voigt Hill
#
# Bulk Modulus (GPa) = 23.67536 48.70642 36.19089
# Shear Modulus (GPa) = 25.97124 34.42746 30.19935
#
# Velocity S-wave (km/s) = 3.20398 3.68889 3.45496
# Velocity P-wave (km/s) = 4.80056 6.11521 5.49733
#
# Compressibility (1/GPa) = 0.04223800
#
# Stress axis : x y z
#
# Youngs Moduli (GPa) = 28.14111 68.66073 105.93579
#
# Poissons Ratio (x) = 0.13140 0.38078
# Poissons Ratio (y) = 0.05385 0.33290
# Poissons Ratio (z) = 0.10115 0.21576
#
# Static dielectric constant tensor:
#      x y z
#    x 2.067670 0.000000 0.049400 
#    y 0.000000 2.033780 0.000000 
#    z 0.049400 0.000000 2.108220 
# 
# From -- ./inp_files/33031.got.cif
#   From: 2010.05.17/outbox.cif.g08.bks.cpg/sg14_17_cif.got.tgz:33031.got - 2010.06.03 17:49:19.
