data_PCOD9243337
_publ_section_title
;
Structure prediction by ZEFSAII (Michael W. Deem and Ramdas Pophale) SiO2 
 PCOD9243337
Probable space group: P 21/C
;
_chemical_formula_sum "Si O2"
_cell_formula_units_Z 32
_cell_length_a 21.291528
_cell_length_b 15.631503
_cell_length_c 8.928561
_cell_angle_alpha 90.000000
_cell_angle_beta 34.337338
_cell_angle_gamma 90.000000
_cell_volume 1676.168334
_symmetry_space_group_name_H-M "P 21/C"
_symmetry_group_IT_number 14
_symmetry_cell_setting 'monoclinic'
loop_
_space_group_symop_operation_xyz
x,y,z
-x,1/2+y,1/2-z
-x,-y,-z
x,1/2-y,1/2+z
loop_
_atom_site_type_symbol
_atom_site_label
_atom_site_fract_x
_atom_site_fract_y
_atom_site_fract_z
Si Si1 0.508791 0.609410 0.813335
Si Si2 0.750124 0.353333 0.334568
Si Si3 0.886906 0.503653 0.923906
Si Si4 0.854513 0.014683 0.131813
Si Si5 0.260658 0.166865 0.287998
Si Si6 0.267554 0.674545 0.276051
Si Si7 0.279151 0.343640 0.107318
Si Si8 0.501972 0.591573 0.181770
O O1 0.619862 0.640722 0.514887
O O2 0.485786 0.510215 0.818546
O O3 0.400094 0.664152 0.986685
O O4 0.524438 0.611053 0.962248
O O5 0.773289 0.265694 0.202007
O O6 0.750336 0.336385 0.511522
O O7 0.625389 0.383700 0.536554
O O8 0.834651 0.428067 0.124399
O O9 0.859378 0.483982 0.803339
O O10 0.019386 0.510114 0.674936
O O11 0.827400 0.593191 0.079931
O O12 0.793738 0.097900 0.188628
O O13 0.787242 0.929510 0.219331
O O14 0.232691 0.260171 0.280793
O O15 0.269347 0.169252 0.449643
O O16 0.407467 0.358426 0.900042
#
# Coordination Sequence:
#
# PCOD9243337 Si02
#       8
#     4   4   4   4   4   4   4   4
#     4  10  20  37  61  90 123 155 192 240 295 356
#     4  11  23  39  62  90 122 158 196 243 296 354
#     4  10  23  43  63  86 118 156 202 251 297 348
#     4  10  23  43  63  86 118 156 202 251 297 348
#     4  11  23  38  61  89 120 157 196 243 296 355
#     4  11  23  39  62  90 122 158 196 243 296 354
#     4  11  23  38  61  89 120 157 196 243 296 355
#     4  10  20  37  61  90 123 155 192 240 295 356
#
# _framework density 19.091162000000001
#
# number of rings (size 3 to 8) (size 9 to 14) (size 15 to 20)
#    0.000    1.500    2.500    2.250    0.000    7.000 
#    0.000    2.500    0.000    0.000    0.000    0.000 
#    0.000    0.000    0.000    0.000    0.000    0.000 
#
# Total GULP energy -178928.570886 kJ/mol
# GULP energy per Si atom -5591.517840 kJ/mol
# Density = 1.904771 g / cm^3
# Si number density = 19.091162 Si / 1000 Ang^3
#
#
#
# Elastic Constant Matrix: (Units=GPa)
#
#
# Indices 1 2 3 4 5 6 
#
# 1 20.9377 -2.7798 3.9043 0.0000 -8.0677 0.0000
# 2 -2.7798 63.6896 5.2628 0.0000 10.7620 0.0000
# 3 3.9043 5.2628 75.1001 0.0000 -7.7498 0.0000
# 4 0.0000 0.0000 0.0000 17.5825 0.0000 15.1665
# 5 -8.0677 10.7620 -7.7498 0.0000 13.0724 0.0000
# 6 0.0000 0.0000 0.0000 15.1665 0.0000 17.7434
#
#
#
# Elastic Compliance Matrix: (Units=1/GPa)
#
#
# Indices 1 2 3 4 5 6 
#
# 1 0.063922 -0.004841 0.001596 0.000000 0.044382 0.000000
# 2 -0.004841 0.019268 -0.003242 0.000000 -0.020772 0.000000
# 3 0.001596 -0.003242 0.014739 0.000000 0.012392 0.000000
# 4 0.000000 0.000000 0.000000 0.216516 0.000000 -0.185072
# 5 0.044382 -0.020772 0.012392 0.000000 0.128335 0.000000
# 6 0.000000 0.000000 0.000000 -0.185072 0.000000 0.214553
#
#
# Mechanical properties :
#
#
# Convention : Reuss Voigt Hill
#
# Bulk Modulus (GPa) = 11.77124 19.16691 15.46907
# Shear Modulus (GPa) = 7.15691 19.90233 13.52962
#
# Velocity S-wave (km/s) = 1.93828 3.23226 2.66500
# Velocity P-wave (km/s) = 3.34491 4.89811 4.19404
#
# Compressibility (1/GPa) = 0.08495283
#
# Stress axis : x y z
#
# Youngs Moduli (GPa) = 15.64414 51.90011 67.84948
#
# Poissons Ratio (x) = 0.25127 -0.10829
# Poissons Ratio (y) = 0.07574 0.21997
# Poissons Ratio (z) = -0.02497 0.16827
#
# Static dielectric constant tensor:
#      x y z
#    x 1.634770 0.000000 0.003570 
#    y 0.000000 1.651770 0.000000 
#    z 0.003570 0.000000 1.635240 
# 
# From -- ./inp_files/19525.got.cif
#   From: 2010.05.17/outbox.cif.g08.bks.cpg/sg14_10_cif.got.tgz:19525.got - 2010.06.03 17:49:19.
