data_PCOD9243154
_publ_section_title
;
Structure prediction by ZEFSAII (Michael W. Deem and Ramdas Pophale) SiO2 
 PCOD9243154
Probable space group: P 21/C
;
_chemical_formula_sum "Si O2"
_cell_formula_units_Z 28
_cell_length_a 14.095684
_cell_length_b 13.892795
_cell_length_c 8.908848
_cell_angle_alpha 90.000000
_cell_angle_beta 46.335047
_cell_angle_gamma 90.000000
_cell_volume 1262.029772
_symmetry_space_group_name_H-M "P 21/C"
_symmetry_group_IT_number 14
_symmetry_cell_setting 'monoclinic'
loop_
_space_group_symop_operation_xyz
x,y,z
-x,1/2+y,1/2-z
-x,-y,-z
x,1/2-y,1/2+z
loop_
_atom_site_type_symbol
_atom_site_label
_atom_site_fract_x
_atom_site_fract_y
_atom_site_fract_z
Si Si1 0.058303 0.705425 0.215064
Si Si2 0.871206 0.753079 0.677440
Si Si3 0.424032 0.051076 0.357279
Si Si4 0.177812 0.968127 0.460843
Si Si5 0.103687 0.931511 0.198501
Si Si6 0.326067 0.052870 0.808635
Si Si7 0.312069 0.281396 0.870956
O O1 0.100871 0.817200 0.163188
O O2 0.964628 0.696727 0.461573
O O3 0.966696 0.682336 0.171190
O O4 0.169448 0.627631 0.074476
O O5 0.760146 0.807367 0.704968
O O6 0.792945 0.693059 0.884986
O O7 0.366716 0.045612 0.589344
O O8 0.439505 0.161518 0.282888
O O9 0.315628 0.013052 0.359511
O O10 0.559398 0.995039 0.217643
O O11 0.165096 0.944725 0.297944
O O12 0.046524 0.030777 0.638886
O O13 0.193135 0.995154 0.989805
O O14 0.321095 0.166242 0.852727
#
# Coordination Sequence:
#
# PCOD9243154 Si02
#       7
#     4   4   4   4   4   4   4
#     4  11  22  39  62 104 142 178 218 290 340 398
#     4  10  20  36  68  94 136 178 222 264 340 394
#     4  11  27  47  69 100 137 182 230 278 339 407
#     4  11  25  42  68 102 138 174 228 283 337 403
#     4  11  25  42  68 102 138 174 228 283 337 403
#     4  11  27  47  69 100 137 182 230 278 339 407
#     4  11  22  43  68  96 132 184 224 278 324 416
#
# _framework density 22.186481000000001
#
# number of rings (size 3 to 8) (size 9 to 14) (size 15 to 20)
#    0.000    1.143    2.857    3.429    8.000    2.286 
#    0.000    2.857    0.000    0.000    0.000    0.000 
#    0.000    0.000    0.000    0.000    0.000    0.000 
#
# Total GULP energy -156383.963616 kJ/mol
# GULP energy per Si atom -5585.141558 kJ/mol
# Density = 2.213598 g / cm^3
# Si number density = 22.186481 Si / 1000 Ang^3
#
#
#
# Elastic Constant Matrix: (Units=GPa)
#
#
# Indices 1 2 3 4 5 6 
#
# 1 107.9360 26.7112 14.0957 0.0000 4.5096 0.0000
# 2 26.7112 123.2192 9.9490 0.0000 -10.1940 0.0000
# 3 14.0957 9.9490 51.3553 0.0000 10.7611 0.0000
# 4 0.0000 0.0000 0.0000 19.2888 0.0000 -2.7717
# 5 4.5096 -10.1940 10.7611 0.0000 31.6996 0.0000
# 6 0.0000 0.0000 0.0000 -2.7717 0.0000 35.1065
#
#
#
# Elastic Compliance Matrix: (Units=1/GPa)
#
#
# Indices 1 2 3 4 5 6 
#
# 1 0.010125 -0.002147 -0.002064 0.000000 -0.001430 0.000000
# 2 -0.002147 0.009063 -0.001982 0.000000 0.003893 0.000000
# 3 -0.002064 -0.001982 0.022064 0.000000 -0.007834 0.000000
# 4 0.000000 0.000000 0.000000 0.052438 0.000000 0.004140
# 5 -0.001430 0.003893 -0.007834 0.000000 0.035661 0.000000
# 6 0.000000 0.000000 0.000000 0.004140 0.000000 0.028812
#
#
# Mechanical properties :
#
#
# Convention : Reuss Voigt Hill
#
# Bulk Modulus (GPa) = 34.64105 42.66916 38.65511
# Shear Modulus (GPa) = 27.75144 32.66930 30.21037
#
# Velocity S-wave (km/s) = 3.54054 3.84146 3.69407
# Velocity P-wave (km/s) = 5.68871 6.24096 5.97122
#
# Compressibility (1/GPa) = 0.02886748
#
# Stress axis : x y z
#
# Youngs Moduli (GPa) = 98.76332 110.33790 45.32235
#
# Poissons Ratio (x) = 0.23685 0.09353
# Poissons Ratio (y) = 0.21201 0.08984
# Poissons Ratio (z) = 0.20380 0.21872
#
# Static dielectric constant tensor:
#      x y z
#    x 1.832490 0.000000 0.012080 
#    y 0.000000 1.908260 0.000000 
#    z 0.012080 0.000000 1.817690 
# 
# From -- ./inp_files/16187.got.cif
#   From: 2010.05.17/outbox.cif.g08.bks.cpg/sg14_9_cif.got.tgz:16187.got - 2010.06.03 17:49:19.
