data_PCOD9243859
_publ_section_title
;
Structure prediction by ZEFSAII (Michael W. Deem and Ramdas Pophale) SiO2 
 PCOD9243859
Probable space group: P 21/C
;
_chemical_formula_sum "Si O2"
_cell_formula_units_Z 32
_cell_length_a 17.012023
_cell_length_b 9.896415
_cell_length_c 16.717879
_cell_angle_alpha 90.000000
_cell_angle_beta 33.210650
_cell_angle_gamma 90.000000
_cell_volume 1541.603351
_symmetry_space_group_name_H-M "P 21/C"
_symmetry_group_IT_number 14
_symmetry_cell_setting 'monoclinic'
loop_
_space_group_symop_operation_xyz
x,y,z
-x,1/2+y,1/2-z
-x,-y,-z
x,1/2-y,1/2+z
loop_
_atom_site_type_symbol
_atom_site_label
_atom_site_fract_x
_atom_site_fract_y
_atom_site_fract_z
Si Si1 0.719529 0.364599 0.997412
Si Si2 0.584152 0.102818 0.029248
Si Si3 0.288472 0.196024 0.336181
Si Si4 0.812242 0.981848 0.098608
Si Si5 0.878687 0.083132 0.211329
Si Si6 0.416440 0.418646 0.327185
Si Si7 0.090748 0.937755 0.527697
Si Si8 0.158739 0.617854 0.791198
O O1 0.662793 0.222577 0.012007
O O2 0.779580 0.450474 0.871265
O O3 0.580689 0.427766 0.159079
O O4 0.848651 0.352938 0.950591
O O5 0.673716 0.100457 0.871557
O O6 0.418296 0.144818 0.170434
O O7 0.597428 0.968288 0.070965
O O8 0.207652 0.322062 0.364520
O O9 0.359011 0.268815 0.354136
O O10 0.183143 0.076196 0.447048
O O11 0.684921 0.009488 0.144568
O O12 0.805189 0.058900 0.187991
O O13 0.968580 0.991892 0.924732
O O14 0.898813 0.244957 0.200221
O O15 0.123345 0.871173 0.414746
O O16 0.927534 0.988394 0.668613
#
# Coordination Sequence:
#
# PCOD9243859 Si02
#       8
#     4   4   4   4   4   4   4   4
#     4  10  22  36  59  85 113 145 192 239 279 341
#     4  10  20  39  57  86 112 150 195 228 285 338
#     4   9  19  37  56  80 119 146 180 236 276 336
#     4   9  20  36  61  78 115 151 182 235 283 331
#     4  10  20  40  57  85 111 149 194 231 282 336
#     4   9  19  36  59  79 112 151 183 235 277 333
#     4  11  21  39  56  80 118 150 182 239 291 326
#     4  10  23  37  58  81 116 148 191 235 282 344
#
# _framework density 20.757611000000001
#
# number of rings (size 3 to 8) (size 9 to 14) (size 15 to 20)
#    0.750    1.500    2.500    0.000    3.500    1.000 
#    0.000    1.250    0.000    0.000    0.000    0.000 
#    0.000    0.000    0.000    0.000    0.000    0.000 
#
# Total GULP energy -178328.599666 kJ/mol
# GULP energy per Si atom -5572.768740 kJ/mol
# Density = 2.071037 g / cm^3
# Si number density = 20.757611 Si / 1000 Ang^3
#
#
#
# Elastic Constant Matrix: (Units=GPa)
#
#
# Indices 1 2 3 4 5 6 
#
# 1 25.2341 -4.1541 -14.2075 0.0000 0.2909 0.0000
# 2 -4.1541 24.6749 5.2959 0.0000 -0.4491 0.0000
# 3 -14.2075 5.2959 68.4284 0.0000 5.9506 0.0000
# 4 0.0000 0.0000 0.0000 17.8167 0.0000 -0.1837
# 5 0.2909 -0.4491 5.9506 0.0000 15.7915 0.0000
# 6 0.0000 0.0000 0.0000 -0.1837 0.0000 32.5859
#
#
#
# Elastic Compliance Matrix: (Units=1/GPa)
#
#
# Indices 1 2 3 4 5 6 
#
# 1 0.045937 0.005623 0.009473 0.000000 -0.004256 0.000000
# 2 0.005623 0.041992 -0.002251 0.000000 0.001939 0.000000
# 3 0.009473 -0.002251 0.017344 0.000000 -0.006774 0.000000
# 4 0.000000 0.000000 0.000000 0.056130 0.000000 0.000316
# 5 -0.004256 0.001939 -0.006774 0.000000 0.066011 0.000000
# 6 0.000000 0.000000 0.000000 0.000316 0.000000 0.030690
#
#
# Mechanical properties :
#
#
# Convention : Reuss Voigt Hill
#
# Bulk Modulus (GPa) = 7.63574 10.24507 8.94041
# Shear Modulus (GPa) = 18.11139 21.99904 20.05521
#
# Velocity S-wave (km/s) = 2.95705 3.25900 3.11169
# Velocity P-wave (km/s) = 3.91731 4.37124 4.15049
#
# Compressibility (1/GPa) = 0.13096309
#
# Stress axis : x y z
#
# Youngs Moduli (GPa) = 21.76887 23.81396 57.65716
#
# Poissons Ratio (x) = -0.13391 -0.54617
# Poissons Ratio (y) = -0.12241 0.12978
# Poissons Ratio (z) = -0.20621 0.05360
#
# Static dielectric constant tensor:
#      x y z
#    x 1.758350 0.000000 -0.010340 
#    y 0.000000 1.761200 0.000000 
#    z -0.010340 0.000000 1.742730 
# 
# From -- ./inp_files/60520.got.cif
#   From: 2010.05.17/outbox.cif.g08.bks.cpg/sg14_31_cif.got.tgz:60520.got - 2010.06.03 17:49:19.
