data_PCOD9243923
_publ_section_title
;
Structure prediction by ZEFSAII (Michael W. Deem and Ramdas Pophale) SiO2 
 PCOD9243923
Probable space group: P 21/C
;
_chemical_formula_sum "Si O2"
_cell_formula_units_Z 32
_cell_length_a 12.661420
_cell_length_b 16.397497
_cell_length_c 9.743719
_cell_angle_alpha 90.000000
_cell_angle_beta 50.030830
_cell_angle_gamma 90.000000
_cell_volume 1550.367560
_symmetry_space_group_name_H-M "P 21/C"
_symmetry_group_IT_number 14
_symmetry_cell_setting 'monoclinic'
loop_
_space_group_symop_operation_xyz
x,y,z
-x,1/2+y,1/2-z
-x,-y,-z
x,1/2-y,1/2+z
loop_
_atom_site_type_symbol
_atom_site_label
_atom_site_fract_x
_atom_site_fract_y
_atom_site_fract_z
Si Si1 0.571749 0.569445 0.844475
Si Si2 0.880851 0.388385 0.852603
Si Si3 0.828995 0.667635 0.743918
Si Si4 0.970280 0.033973 0.876213
Si Si5 0.650842 0.163694 0.342596
Si Si6 0.224756 0.841953 0.264338
Si Si7 0.061756 0.237206 0.599686
Si Si8 0.341955 0.556010 0.426607
O O1 0.718325 0.601562 0.782384
O O2 0.576595 0.525327 0.691588
O O3 0.500000 0.500000 0.000000
O O4 0.475244 0.647415 0.949161
O O5 0.948001 0.477404 0.797506
O O6 0.776719 0.383507 0.811073
O O7 0.992423 0.317006 0.729871
O O8 0.803903 0.372573 0.058749
O O9 0.974521 0.624291 0.654453
O O10 0.813432 0.706037 0.906986
O O11 0.863378 0.733558 0.600896
O O12 0.812788 0.029324 0.975948
O O13 0.000000 0.000000 0.000000
O O14 0.696485 0.256252 0.294506
O O15 0.622532 0.125605 0.216262
O O16 0.319365 0.902737 0.093785
O O17 0.071384 0.820198 0.328688
#
# Coordination Sequence:
#
# PCOD9243923 Si02
#       8
#     4   4   4   4   4   4   4   4
#     4  10  22  41  65  86 114 165 220 249 285 371
#     4  11  21  35  62  91 125 159 203 252 312 369
#     4  12  22  40  62  92 127 157 206 256 311 368
#     4  12  18  34  64  89 117 163 198 241 304 373
#     4  10  20  39  62  83 115 170 215 245 295 367
#     4  11  22  36  58  95 130 153 200 265 313 362
#     4  11  21  37  62  95 126 157 197 262 323 362
#     4  11  20  37  62  89 117 160 209 254 297 367
#
# _framework density 20.640266
#
# number of rings (size 3 to 8) (size 9 to 14) (size 15 to 20)
#    0.000    1.000    6.250    3.000    0.000    0.500 
#    6.750    0.625    0.000    0.000    0.000    0.000 
#    0.000    0.000    0.000    0.000    0.000    0.000 
#
# Total GULP energy -178239.565853 kJ/mol
# GULP energy per Si atom -5569.986433 kJ/mol
# Density = 2.059329 g / cm^3
# Si number density = 20.640266 Si / 1000 Ang^3
#
#
#
# Elastic Constant Matrix: (Units=GPa)
#
#
# Indices 1 2 3 4 5 6 
#
# 1 16.4635 1.6049 8.1702 0.0000 1.3492 0.0000
# 2 1.6049 26.3825 26.9815 0.0000 10.2617 0.0000
# 3 8.1702 26.9815 86.9004 0.0000 10.0094 0.0000
# 4 0.0000 0.0000 0.0000 44.2264 0.0000 -5.7746
# 5 1.3492 10.2617 10.0094 0.0000 28.0647 0.0000
# 6 0.0000 0.0000 0.0000 -5.7746 0.0000 10.0949
#
#
#
# Elastic Compliance Matrix: (Units=1/GPa)
#
#
# Indices 1 2 3 4 5 6 
#
# 1 0.064013 0.004135 -0.007064 0.000000 -0.002070 0.000000
# 2 0.004135 0.062366 -0.017836 0.000000 -0.016641 0.000000
# 3 -0.007064 -0.017836 0.017644 0.000000 0.000568 0.000000
# 4 0.000000 0.000000 0.000000 0.024436 0.000000 0.013978
# 5 -0.002070 -0.016641 0.000568 0.000000 0.041613 0.000000
# 6 0.000000 0.000000 0.000000 0.013978 0.000000 0.107056
#
#
# Mechanical properties :
#
#
# Convention : Reuss Voigt Hill
#
# Bulk Modulus (GPa) = 9.75670 22.58438 16.17054
# Shear Modulus (GPa) = 12.72846 22.67653 17.70249
#
# Velocity S-wave (km/s) = 2.48600 3.31819 2.93177
# Velocity P-wave (km/s) = 3.60244 5.06421 4.39453
#
# Compressibility (1/GPa) = 0.10249372
#
# Stress axis : x y z
#
# Youngs Moduli (GPa) = 15.62193 16.03446 56.67685
#
# Poissons Ratio (x) = -0.06631 0.40036
# Poissons Ratio (y) = -0.06460 1.01088
# Poissons Ratio (z) = 0.11035 0.28599
#
# Static dielectric constant tensor:
#      x y z
#    x 1.655920 0.000000 -0.041770 
#    y 0.000000 -3.662920 0.000000 
#    z -0.041770 0.000000 1.823650 
# 
# From -- ./inp_files/16568.got.cif
#   From: 2010.05.17/outbox.cif.g08.bks.cpg/sg14_9_cif.got.tgz:16568.got - 2010.06.03 17:49:19.
