data_PCOD9243737
_publ_section_title
;
Structure prediction by ZEFSAII (Michael W. Deem and Ramdas Pophale) SiO2 
 PCOD9243737
Probable space group: P 21/C
;
_chemical_formula_sum "Si O2"
_cell_formula_units_Z 28
_cell_length_a 9.444174
_cell_length_b 10.685501
_cell_length_c 18.277483
_cell_angle_alpha 90.000000
_cell_angle_beta 40.457438
_cell_angle_gamma 90.000000
_cell_volume 1196.855326
_symmetry_space_group_name_H-M "P 21/C"
_symmetry_group_IT_number 14
_symmetry_cell_setting 'monoclinic'
loop_
_space_group_symop_operation_xyz
x,y,z
-x,1/2+y,1/2-z
-x,-y,-z
x,1/2-y,1/2+z
loop_
_atom_site_type_symbol
_atom_site_label
_atom_site_fract_x
_atom_site_fract_y
_atom_site_fract_z
Si Si1 0.425391 0.196644 0.153817
Si Si2 0.901804 0.933219 0.923357
Si Si3 0.320491 0.986997 0.855856
Si Si4 0.899364 0.177815 0.691078
Si Si5 0.955763 0.091886 0.379403
Si Si6 0.676031 0.106603 0.630193
Si Si7 0.300183 0.830807 0.081040
O O1 0.635466 0.132515 0.110487
O O2 0.200358 0.141168 0.269604
O O3 0.473396 0.334449 0.163698
O O4 0.468827 0.173060 0.051327
O O5 0.120790 0.978350 0.879283
O O6 0.965376 0.805495 0.858102
O O7 0.821249 0.045375 0.902546
O O8 0.738140 0.912657 0.057342
O O9 0.544257 0.998162 0.723299
O O10 0.785613 0.175356 0.656487
O O11 0.716896 0.167977 0.825580
O O12 0.044930 0.052872 0.645009
O O13 0.866935 0.085224 0.497153
O O14 0.811748 0.199738 0.398511
#
# Coordination Sequence:
#
# PCOD9243737 Si02
#       7
#     4   4   4   4   4   4   4
#     4  10  21  40  63  87 123 165 209 255 309 368
#     4  10  22  41  66  91 125 169 209 248 308 375
#     4  10  20  38  64  91 122 164 210 257 302 372
#     4  12  23  40  64  97 125 161 211 258 308 373
#     4  11  24  43  64  92 129 163 205 268 315 355
#     4  11  23  38  63  96 126 158 207 268 317 358
#     4  10  24  44  61  88 131 172 203 246 315 379
#
# _framework density 23.394641
#
# number of rings (size 3 to 8) (size 9 to 14) (size 15 to 20)
#    0.000    1.429    2.857    2.143    4.000    0.571 
#    2.571    0.000    0.000    5.143    0.000    0.000 
#    0.000    0.000    0.000    0.000    0.000    0.000 
#
# Total GULP energy -156191.741137 kJ/mol
# GULP energy per Si atom -5578.276469 kJ/mol
# Density = 2.334139 g / cm^3
# Si number density = 23.394641 Si / 1000 Ang^3
#
#
#
# Elastic Constant Matrix: (Units=GPa)
#
#
# Indices 1 2 3 4 5 6 
#
# 1 55.5592 13.0048 58.0742 0.0000 3.6790 0.0000
# 2 13.0048 97.8529 45.8641 0.0000 4.9731 0.0000
# 3 58.0742 45.8641 186.4099 0.0000 26.3226 0.0000
# 4 0.0000 0.0000 0.0000 27.5818 0.0000 11.1629
# 5 3.6790 4.9731 26.3226 0.0000 38.4575 0.0000
# 6 0.0000 0.0000 0.0000 11.1629 0.0000 8.2605
#
#
#
# Elastic Compliance Matrix: (Units=1/GPa)
#
#
# Indices 1 2 3 4 5 6 
#
# 1 0.027135 0.000464 -0.009069 0.000000 0.003552 0.000000
# 2 0.000464 0.011568 -0.003070 0.000000 0.000561 0.000000
# 3 -0.009069 -0.003070 0.009705 0.000000 -0.005378 0.000000
# 4 0.000000 0.000000 0.000000 0.080021 0.000000 -0.108136
# 5 0.003552 0.000561 -0.005378 0.000000 0.029271 0.000000
# 6 0.000000 0.000000 0.000000 -0.108136 0.000000 0.267189
#
#
# Mechanical properties :
#
#
# Convention : Reuss Voigt Hill
#
# Bulk Modulus (GPa) = 39.90863 63.74537 51.82700
# Shear Modulus (GPa) = 10.95071 29.71855 20.33463
#
# Velocity S-wave (km/s) = 2.16588 3.56801 2.95142
# Velocity P-wave (km/s) = 4.83225 6.65442 5.81515
#
# Compressibility (1/GPa) = 0.02505724
#
# Stress axis : x y z
#
# Youngs Moduli (GPa) = 36.85292 86.44411 103.04259
#
# Poissons Ratio (x) = -0.04012 0.93453
# Poissons Ratio (y) = -0.01710 0.31634
# Poissons Ratio (z) = 0.33423 0.26538
#
# Static dielectric constant tensor:
#      x y z
#    x 1.914920 0.000000 0.012820 
#    y 0.000000 1.939770 0.000000 
#    z 0.012820 0.000000 1.911140 
# 
# From -- ./inp_files/67314.got.cif
#   From: 2010.05.17/outbox.cif.g08.bks.cpg/sg14_34_cif.got.tgz:67314.got - 2010.06.03 17:49:19.
