data_PCOD9243250
_publ_section_title
;
Structure prediction by ZEFSAII (Michael W. Deem and Ramdas Pophale) SiO2 
 PCOD9243250
Probable space group: P 21/C
;
_chemical_formula_sum "Si O2"
_cell_formula_units_Z 32
_cell_length_a 20.503972
_cell_length_b 5.110269
_cell_length_c 12.639148
_cell_angle_alpha 90.000000
_cell_angle_beta 93.393859
_cell_angle_gamma 90.000000
_cell_volume 1322.017541
_symmetry_space_group_name_H-M "P 21/C"
_symmetry_group_IT_number 14
_symmetry_cell_setting 'monoclinic'
loop_
_space_group_symop_operation_xyz
x,y,z
-x,1/2+y,1/2-z
-x,-y,-z
x,1/2-y,1/2+z
loop_
_atom_site_type_symbol
_atom_site_label
_atom_site_fract_x
_atom_site_fract_y
_atom_site_fract_z
Si Si1 0.139071 0.293513 0.611171
Si Si2 0.959400 0.014093 0.726820
Si Si3 0.372472 0.387880 0.094609
Si Si4 0.348958 0.685165 0.315628
Si Si5 0.732543 0.296523 0.031715
Si Si6 0.491519 0.865764 0.322065
Si Si7 0.724525 0.979447 0.834275
Si Si8 0.875175 0.196578 0.526927
O O1 0.098197 0.404248 0.704582
O O2 0.215569 0.281673 0.653184
O O3 0.127572 0.505233 0.515376
O O4 0.117929 0.011124 0.567541
O O5 0.931047 0.136681 0.616655
O O6 0.996225 0.256883 0.786130
O O7 0.359804 0.531169 0.207350
O O8 0.449897 0.383378 0.088056
O O9 0.342700 0.107663 0.116848
O O10 0.327509 0.510011 0.000192
O O11 0.302834 0.569475 0.402055
O O12 0.421153 0.772571 0.355508
O O13 0.300179 0.923839 0.280200
O O14 0.804873 0.368325 0.075669
O O15 0.749411 0.204936 0.913629
O O16 0.513500 0.643010 0.238955
#
# Coordination Sequence:
#
# PCOD9243250 Si02
#       8
#     4   4   4   4   4   4   4   4
#     4  11  24  44  71  96 135 175 214 267 329 372
#     4  12  27  46  69 104 135 171 218 261 313 395
#     4  10  20  38  60  85 124 165 210 267 319 378
#     4  10  21  37  60  87 123 171 209 266 328 372
#     4  10  22  39  61  94 124 158 219 266 312 377
#     4  10  20  37  59  86 124 170 215 259 325 389
#     4  10  20  40  61  89 124 165 209 267 314 375
#     4  11  24  45  68 100 132 175 215 267 319 388
#
# _framework density 24.205428000000001
#
# number of rings (size 3 to 8) (size 9 to 14) (size 15 to 20)
#    0.000    1.500    2.500    2.250    0.000    4.500 
#    6.750    0.625    0.000    0.000    0.000    0.000 
#    0.000    0.000    0.000    0.000    0.000    0.000 
#
# Total GULP energy -178540.197243 kJ/mol
# GULP energy per Si atom -5579.381164 kJ/mol
# Density = 2.415034 g / cm^3
# Si number density = 24.205428 Si / 1000 Ang^3
#
#
#
# Elastic Constant Matrix: (Units=GPa)
#
#
# Indices 1 2 3 4 5 6 
#
# 1 71.7062 10.0846 21.0064 0.0000 14.6846 0.0000
# 2 10.0846 79.5899 1.9903 0.0000 3.9203 0.0000
# 3 21.0064 1.9903 42.8193 0.0000 2.4525 0.0000
# 4 0.0000 0.0000 0.0000 22.7470 0.0000 7.5623
# 5 14.6846 3.9203 2.4525 0.0000 36.0457 0.0000
# 6 0.0000 0.0000 0.0000 7.5623 0.0000 28.5082
#
#
#
# Elastic Compliance Matrix: (Units=1/GPa)
#
#
# Indices 1 2 3 4 5 6 
#
# 1 0.017988 -0.001746 -0.008367 0.000000 -0.006569 0.000000
# 2 -0.001746 0.012813 0.000301 0.000000 -0.000703 0.000000
# 3 -0.008367 0.000301 0.027358 0.000000 0.001514 0.000000
# 4 0.000000 0.000000 0.000000 0.048214 0.000000 -0.012790
# 5 -0.006569 -0.000703 0.001514 0.000000 0.030392 0.000000
# 6 0.000000 0.000000 0.000000 -0.012790 0.000000 0.038470
#
#
# Mechanical properties :
#
#
# Convention : Reuss Voigt Hill
#
# Bulk Modulus (GPa) = 25.95084 28.91978 27.43531
# Shear Modulus (GPa) = 24.07279 28.19578 26.13429
#
# Velocity S-wave (km/s) = 3.15702 3.41670 3.28942
# Velocity P-wave (km/s) = 4.90239 5.24773 5.07800
#
# Compressibility (1/GPa) = 0.03853440
#
# Stress axis : x y z
#
# Youngs Moduli (GPa) = 55.59338 78.04717 36.55248
#
# Poissons Ratio (x) = 0.13630 0.30584
# Poissons Ratio (y) = 0.09709 -0.01102
# Poissons Ratio (z) = 0.46515 -0.02353
#
# Static dielectric constant tensor:
#      x y z
#    x 1.953460 0.000000 -0.015840 
#    y 0.000000 2.017060 0.000000 
#    z -0.015840 0.000000 2.137100 
# 
# From -- ./inp_files/34725.got.cif
#   From: 2010.05.17/outbox.cif.g08.bks.cpg/sg14_18_cif.got.tgz:34725.got - 2010.06.03 17:49:19.
