data_PCOD9243035
_publ_section_title
;
Structure prediction by ZEFSAII (Michael W. Deem and Ramdas Pophale) SiO2 
 PCOD9243035
Probable space group: P 21/C
;
_chemical_formula_sum "Si O2"
_cell_formula_units_Z 30
_cell_length_a 13.667310
_cell_length_b 16.112539
_cell_length_c 8.323414
_cell_angle_alpha 90.000000
_cell_angle_beta 142.863679
_cell_angle_gamma 90.000000
_cell_volume 1106.571270
_symmetry_space_group_name_H-M "P 21/C"
_symmetry_group_IT_number 14
_symmetry_cell_setting 'monoclinic'
loop_
_space_group_symop_operation_xyz
x,y,z
-x,1/2+y,1/2-z
-x,-y,-z
x,1/2-y,1/2+z
loop_
_atom_site_type_symbol
_atom_site_label
_atom_site_fract_x
_atom_site_fract_y
_atom_site_fract_z
Si Si1 0.711725 0.778515 0.748110
Si Si2 0.117871 0.587626 0.631773
Si Si3 0.500000 0.000000 0.000000
Si Si4 0.089221 0.086558 0.812313
Si Si5 0.797610 0.085065 0.206586
Si Si6 0.801997 0.870140 0.539013
Si Si7 0.584406 0.983333 0.413262
Si Si8 0.378740 0.664149 0.795919
O O1 0.751336 0.816772 0.627796
O O2 0.797008 0.691629 0.886963
O O3 0.518294 0.770448 0.505570
O O4 0.779784 0.844658 0.966246
O O5 0.976638 0.594980 0.313707
O O6 0.249050 0.658698 0.768150
O O7 0.026642 0.584100 0.680143
O O8 0.244121 0.510402 0.790967
O O9 0.492305 0.047470 0.182662
O O10 0.342953 0.940377 0.854616
O O11 0.960047 0.110998 0.507919
O O12 0.160506 0.998928 0.841629
O O13 0.728800 0.157863 0.003633
O O14 0.649849 0.934407 0.330935
O O15 0.486317 0.922483 0.402494
#
# Coordination Sequence:
#
# PCOD9243035 Si02
#       8
#     4   4   2   4   4   4   4   4
#     4  10  24  46  61  91 128 179 220 271 323 406
#     4  11  22  40  68 103 126 171 215 287 331 396
#     4  10  20  36  60  94 130 164 208 264 330 384
#     4  10  23  39  64  95 139 165 223 266 333 397
#     4  10  22  38  61 101 130 175 211 275 329 393
#     4  10  24  43  67  87 130 176 220 268 330 396
#     4  10  21  39  65  99 131 163 220 271 338 391
#     4  10  24  38  67  99 135 167 218 275 337 394
#
# _framework density 27.110769999999999
#
# number of rings (size 3 to 8) (size 9 to 14) (size 15 to 20)
#    0.000    1.867    1.333    0.800   11.200    2.133 
#    0.000    9.333    0.000    0.000    0.000    0.000 
#    0.000    0.000    0.000    0.000    0.000    0.000 
#
# Total GULP energy -167324.890054 kJ/mol
# GULP energy per Si atom -5577.496335 kJ/mol
# Density = 2.704906 g / cm^3
# Si number density = 27.110770 Si / 1000 Ang^3
#
#
#
# Elastic Constant Matrix: (Units=GPa)
#
#
# Indices 1 2 3 4 5 6 
#
# 1 159.5109 38.3675 58.6499 0.0000 28.6681 0.0000
# 2 38.3675 53.5498 37.7205 0.0000 1.4595 0.0000
# 3 58.6499 37.7205 198.6410 0.0000 14.1025 0.0000
# 4 0.0000 0.0000 0.0000 37.7109 0.0000 -2.8099
# 5 28.6681 1.4595 14.1025 0.0000 40.9026 0.0000
# 6 0.0000 0.0000 0.0000 -2.8099 0.0000 21.6729
#
#
#
# Elastic Compliance Matrix: (Units=1/GPa)
#
#
# Indices 1 2 3 4 5 6 
#
# 1 0.009070 -0.005475 -0.001231 0.000000 -0.005737 0.000000
# 2 -0.005475 0.024880 -0.003401 0.000000 0.004122 0.000000
# 3 -0.001231 -0.003401 0.006123 0.000000 -0.001127 0.000000
# 4 0.000000 0.000000 0.000000 0.026776 0.000000 0.003472
# 5 -0.005737 0.004122 -0.001127 0.000000 0.028711 0.000000
# 6 0.000000 0.000000 0.000000 0.003472 0.000000 0.046591
#
#
# Mechanical properties :
#
#
# Convention : Reuss Voigt Hill
#
# Bulk Modulus (GPa) = 50.35208 75.68638 63.01923
# Shear Modulus (GPa) = 29.58861 38.52154 34.05508
#
# Velocity S-wave (km/s) = 3.30721 3.77356 3.54806
# Velocity P-wave (km/s) = 5.76165 6.85306 6.33092
#
# Compressibility (1/GPa) = 0.01986015
#
# Stress axis : x y z
#
# Youngs Moduli (GPa) = 110.25663 40.19301 163.30698
#
# Poissons Ratio (x) = 0.22005 0.20102
# Poissons Ratio (y) = 0.60364 0.55535
# Poissons Ratio (z) = 0.13572 0.13668
#
# Static dielectric constant tensor:
#      x y z
#    x 2.241870 0.000000 -0.151970 
#    y 0.000000 2.364130 0.000000 
#    z -0.151970 0.000000 2.418560 
# 
# From -- ./inp_files/14452.got.cif
#   From: 2010.05.17/outbox.cif.g08.bks.cpg/sg14_8_cif.got.tgz:14452.got - 2010.06.03 17:49:19.
