data_PCOD9243546
_publ_section_title
;
Structure prediction by ZEFSAII (Michael W. Deem and Ramdas Pophale) SiO2 
 PCOD9243546
Probable space group: P 21/C
;
_chemical_formula_sum "Si O2"
_cell_formula_units_Z 20
_cell_length_a 5.630083
_cell_length_b 19.851183
_cell_length_c 9.245722
_cell_angle_alpha 90.000000
_cell_angle_beta 128.056747
_cell_angle_gamma 90.000000
_cell_volume 813.650253
_symmetry_space_group_name_H-M "P 21/C"
_symmetry_group_IT_number 14
_symmetry_cell_setting 'monoclinic'
loop_
_space_group_symop_operation_xyz
x,y,z
-x,1/2+y,1/2-z
-x,-y,-z
x,1/2-y,1/2+z
loop_
_atom_site_type_symbol
_atom_site_label
_atom_site_fract_x
_atom_site_fract_y
_atom_site_fract_z
Si Si1 0.400565 0.230078 0.802613
Si Si2 0.411410 0.850015 0.786057
Si Si3 0.618587 0.976766 0.698829
Si Si4 0.313673 0.560001 0.503278
Si Si5 0.806200 0.277124 0.218329
O O1 0.335004 0.297155 0.676179
O O2 0.627058 0.189013 0.782806
O O3 0.099219 0.197046 0.748931
O O4 0.575599 0.263588 0.001691
O O5 0.414723 0.915927 0.688003
O O6 0.433072 0.876401 0.958196
O O7 0.131287 0.797789 0.688548
O O8 0.959845 0.947798 0.831888
O O9 0.500000 0.000000 0.500000
O O10 0.635497 0.041358 0.810913
O O11 0.500000 0.500000 0.500000
#
# Coordination Sequence:
#
# PCOD9243546 Si02
#       5
#     4   4   4   4   4
#     4  10  21  39  62  84 121 155 197 245 294 355
#     4   9  21  35  60  80 123 152 198 239 302 352
#     4  10  20  38  60  85 118 155 201 245 298 353
#     4   9  19  38  58  83 118 156 190 248 296 352
#     4  10  21  39  61  86 119 157 196 245 296 350
#
# _framework density 24.580584999999999
#
# number of rings (size 3 to 8) (size 9 to 14) (size 15 to 20)
#    1.200    1.200    0.000    2.400    0.000    3.200 
#    3.600    4.000    0.000    0.000    0.000    0.000 
#    0.000    0.000    0.000    0.000    0.000    0.000 
#
# Total GULP energy -111395.727631 kJ/mol
# GULP energy per Si atom -5569.786382 kJ/mol
# Density = 2.452464 g / cm^3
# Si number density = 24.580585 Si / 1000 Ang^3
#
#
#
# Elastic Constant Matrix: (Units=GPa)
#
#
# Indices 1 2 3 4 5 6 
#
# 1 176.2784 19.0694 64.1526 0.0000 -26.2617 0.0000
# 2 19.0694 116.2639 20.2589 0.0000 -6.6778 0.0000
# 3 64.1526 20.2589 132.3700 0.0000 -23.9152 0.0000
# 4 0.0000 0.0000 0.0000 21.3242 0.0000 -7.6291
# 5 -26.2617 -6.6778 -23.9152 0.0000 31.7232 0.0000
# 6 0.0000 0.0000 0.0000 -7.6291 0.0000 24.2196
#
#
#
# Elastic Compliance Matrix: (Units=1/GPa)
#
#
# Indices 1 2 3 4 5 6 
#
# 1 0.007309 -0.000495 -0.002769 0.000000 0.003859 0.000000
# 2 -0.000495 0.008896 -0.000993 0.000000 0.000715 0.000000
# 3 -0.002769 -0.000993 0.009952 0.000000 0.005001 0.000000
# 4 0.000000 0.000000 0.000000 0.052851 0.000000 0.016648
# 5 0.003859 0.000715 0.005001 0.000000 0.038638 0.000000
# 6 0.000000 0.000000 0.000000 0.016648 0.000000 0.046533
#
#
# Mechanical properties :
#
#
# Convention : Reuss Voigt Hill
#
# Bulk Modulus (GPa) = 56.67605 70.20824 63.44214
# Shear Modulus (GPa) = 27.99950 36.88215 32.44082
#
# Velocity S-wave (km/s) = 3.37870 3.87778 3.63681
# Velocity P-wave (km/s) = 6.19097 6.97668 6.59553
#
# Compressibility (1/GPa) = 0.01764414
#
# Stress axis : x y z
#
# Youngs Moduli (GPa) = 136.81536 112.40646 100.47962
#
# Poissons Ratio (x) = 0.05560 0.27828
# Poissons Ratio (y) = 0.06767 0.09974
# Poissons Ratio (z) = 0.37891 0.11158
#
# Static dielectric constant tensor:
#      x y z
#    x 2.028050 0.000000 -0.027000 
#    y 0.000000 2.020950 0.000000 
#    z -0.027000 0.000000 2.012610 
# 
# From -- ./inp_files/6466.got.cif
#   From: 2010.05.17/outbox.cif.g08.bks.cpg/sg14_4_cif.got.tgz:6466.got - 2010.06.03 17:49:19.
