data_PCOD9243917
_publ_section_title
;
Structure prediction by ZEFSAII (Michael W. Deem and Ramdas Pophale) SiO2 
 PCOD9243917
Probable space group: P 21/C
;
_chemical_formula_sum "Si O2"
_cell_formula_units_Z 30
_cell_length_a 24.270386
_cell_length_b 9.245819
_cell_length_c 20.946185
_cell_angle_alpha 90.000000
_cell_angle_beta 16.141951
_cell_angle_gamma 90.000000
_cell_volume 1306.772514
_symmetry_space_group_name_H-M "P 21/C"
_symmetry_group_IT_number 14
_symmetry_cell_setting 'monoclinic'
loop_
_space_group_symop_operation_xyz
x,y,z
-x,1/2+y,1/2-z
-x,-y,-z
x,1/2-y,1/2+z
loop_
_atom_site_type_symbol
_atom_site_label
_atom_site_fract_x
_atom_site_fract_y
_atom_site_fract_z
Si Si1 0.489091 0.141732 0.946321
Si Si2 0.292378 0.845511 0.176281
Si Si3 0.294613 0.148236 0.571595
Si Si4 0.897311 0.725296 0.049365
Si Si5 0.144883 0.174512 0.118206
Si Si6 0.117159 0.661080 0.681403
Si Si7 0.439288 0.668588 0.903548
Si Si8 0.000000 0.000000 0.000000
O O1 0.461532 0.250225 0.918799
O O2 0.319029 0.186338 0.186655
O O3 0.421004 0.979097 0.005814
O O4 0.682567 0.153935 0.775225
O O5 0.065144 0.848587 0.407661
O O6 0.372435 0.701694 0.051201
O O7 0.192981 0.238226 0.628943
O O8 0.388547 0.997328 0.444718
O O9 0.135706 0.105412 0.802790
O O10 0.946234 0.668867 0.925179
O O11 0.940090 0.896082 0.005597
O O12 0.950321 0.237807 0.301480
O O13 0.136394 0.004173 0.140117
O O14 0.333112 0.198115 0.862517
O O15 0.307832 0.727269 0.505085
#
# Coordination Sequence:
#
# PCOD9243917 Si02
#       8
#     4   4   4   4   4   4   4   2
#     4  10  22  37  62  94 127 168 215 265 326 400
#     4  10  20  39  61  92 129 168 217 264 330 393
#     4  11  22  42  66  99 132 176 223 275 341 392
#     4  10  20  40  63  90 127 169 208 276 323 389
#     4  12  26  44  69  97 134 182 225 280 333 409
#     4  11  24  44  68  99 132 176 230 271 341 396
#     4  11  23  45  66  95 136 173 221 283 332 402
#     4  10  20  40  66  94 130 166 216 276 324 390
#
# _framework density 22.957324
#
# number of rings (size 3 to 8) (size 9 to 14) (size 15 to 20)
#    0.000    1.333    2.667    4.400    0.000    1.600 
#    2.400    9.333    0.000    0.000    0.000    0.000 
#    0.000    0.000    0.000    0.000    0.000    0.000 
#
# Total GULP energy -167295.323715 kJ/mol
# GULP energy per Si atom -5576.510790 kJ/mol
# Density = 2.290507 g / cm^3
# Si number density = 22.957324 Si / 1000 Ang^3
#
#
#
# Elastic Constant Matrix: (Units=GPa)
#
#
# Indices 1 2 3 4 5 6 
#
# 1 84.2853 19.5774 -0.2121 0.0000 -37.0068 0.0000
# 2 19.5774 122.5019 -4.7322 0.0000 -24.0308 0.0000
# 3 -0.2121 -4.7322 31.3442 0.0000 -2.0445 0.0000
# 4 0.0000 0.0000 0.0000 21.1264 0.0000 0.2112
# 5 -37.0068 -24.0308 -2.0445 0.0000 25.8543 0.0000
# 6 0.0000 0.0000 0.0000 0.2112 0.0000 33.6749
#
#
#
# Elastic Compliance Matrix: (Units=1/GPa)
#
#
# Indices 1 2 3 4 5 6 
#
# 1 0.035001 0.005489 0.004690 0.000000 0.055572 0.000000
# 2 0.005489 0.010987 0.002889 0.000000 0.018297 0.000000
# 3 0.004690 0.002889 0.033156 0.000000 0.012021 0.000000
# 4 0.000000 0.000000 0.000000 0.047337 0.000000 -0.000297
# 5 0.055572 0.018297 0.012021 0.000000 0.136178 0.000000
# 6 0.000000 0.000000 0.000000 -0.000297 0.000000 0.029698
#
#
# Mechanical properties :
#
#
# Convention : Reuss Voigt Hill
#
# Bulk Modulus (GPa) = 9.49841 29.71085 19.60463
# Shear Modulus (GPa) = 16.59404 31.03100 23.81252
#
# Velocity S-wave (km/s) = 2.69145 3.68051 3.22413
# Velocity P-wave (km/s) = 3.71550 5.57059 4.73478
#
# Compressibility (1/GPa) = 0.10528073
#
# Stress axis : x y z
#
# Youngs Moduli (GPa) = 28.57066 91.01833 30.16051
#
# Poissons Ratio (x) = -0.49959 -0.14146
# Poissons Ratio (y) = -0.15682 -0.08714
# Poissons Ratio (z) = -0.13401 -0.26298
#
# Static dielectric constant tensor:
#      x y z
#    x 1.782850 0.000000 0.022140 
#    y 0.000000 1.892270 0.000000 
#    z 0.022140 0.000000 1.895500 
# 
# From -- ./inp_files/70218.got.cif
#   From: 2010.05.17/outbox.cif.g08.bks.cpg/sg14_36_cif.got.tgz:70218.got - 2010.06.03 17:49:19.
