data_PCOD9243287
_publ_section_title
;
Structure prediction by ZEFSAII (Michael W. Deem and Ramdas Pophale) SiO2 
 PCOD9243287
Probable space group: P 21/C
;
_chemical_formula_sum "Si O2"
_cell_formula_units_Z 32
_cell_length_a 21.164957
_cell_length_b 14.546594
_cell_length_c 14.163839
_cell_angle_alpha 90.000000
_cell_angle_beta 156.402899
_cell_angle_gamma 90.000000
_cell_volume 1745.613826
_symmetry_space_group_name_H-M "P 21/C"
_symmetry_group_IT_number 14
_symmetry_cell_setting 'monoclinic'
loop_
_space_group_symop_operation_xyz
x,y,z
-x,1/2+y,1/2-z
-x,-y,-z
x,1/2-y,1/2+z
loop_
_atom_site_type_symbol
_atom_site_label
_atom_site_fract_x
_atom_site_fract_y
_atom_site_fract_z
Si Si1 0.874046 0.149420 0.573811
Si Si2 0.377168 0.305158 0.235917
Si Si3 0.979313 0.211748 0.372557
Si Si4 0.877169 0.805161 0.235921
Si Si5 0.479316 0.711752 0.372563
Si Si6 0.825210 0.952087 0.452506
Si Si7 0.325213 0.452087 0.452507
Si Si8 0.374049 0.649418 0.573817
O O1 0.948531 0.200015 0.766032
O O2 0.688802 0.173129 0.322077
O O3 0.963497 0.189205 0.605498
O O4 0.896760 0.040020 0.601297
O O5 0.412966 0.266747 0.389273
O O6 0.536502 0.310792 0.394499
O O7 0.249999 0.249999 0.999998
O O8 0.307899 0.406150 0.164080
O O9 0.087032 0.233249 0.610721
O O10 0.059464 0.131102 0.419870
O O11 0.811196 0.173125 0.177917
O O12 0.807898 0.906153 0.164082
O O13 0.559465 0.631105 0.419874
O O14 0.448534 0.799989 0.266039
O O15 0.749997 0.984625 0.249998
O O16 0.396767 0.540018 0.601303
#
# Coordination Sequence:
#
# PCOD9243287 Si02
#       8
#     4   4   4   4   4   4   4   4
#     4  11  21  36  60  85 117 146 188 241 282 327
#     4  11  21  37  60  82 116 153 187 230 285 335
#     4  10  22  37  57  88 116 147 190 235 285 334
#     4  11  21  37  60  82 116 153 187 230 285 335
#     4  10  22  37  57  88 116 147 190 235 285 334
#     4  10  20  37  60  87 110 149 197 233 276 341
#     4  10  20  37  60  87 110 149 197 233 276 341
#     4  11  21  36  60  85 117 146 188 241 282 327
#
# _framework density 18.331658999999998
#
# number of rings (size 3 to 8) (size 9 to 14) (size 15 to 20)
#    0.000    1.500    2.500    3.750    0.000    4.000 
#    0.000    1.250    0.000    3.000    0.000    0.000 
#    0.000    0.000    0.000    0.000    0.000    0.000 
#
# Total GULP energy -178638.095920 kJ/mol
# GULP energy per Si atom -5582.440498 kJ/mol
# Density = 1.828994 g / cm^3
# Si number density = 18.331659 Si / 1000 Ang^3
#
#
#
# Elastic Constant Matrix: (Units=GPa)
#
#
# Indices 1 2 3 4 5 6 
#
# 1 104.7777 41.0875 36.1137 0.0000 7.4445 0.0000
# 2 41.0875 91.7161 54.0634 0.0000 -21.8682 0.0000
# 3 36.1137 54.0634 86.5151 0.0000 -15.0286 0.0000
# 4 0.0000 0.0000 0.0000 20.4856 0.0000 -1.9551
# 5 7.4445 -21.8682 -15.0286 0.0000 38.0894 0.0000
# 6 0.0000 0.0000 0.0000 -1.9551 0.0000 20.3347
#
#
#
# Elastic Compliance Matrix: (Units=1/GPa)
#
#
# Indices 1 2 3 4 5 6 
#
# 1 0.013473 -0.005874 -0.003217 0.000000 -0.007275 0.000000
# 2 -0.005874 0.021237 -0.009127 0.000000 0.009740 0.000000
# 3 -0.003217 -0.009127 0.019114 0.000000 0.002930 0.000000
# 4 0.000000 0.000000 0.000000 0.049267 0.000000 0.004737
# 5 -0.007275 0.009740 0.002930 0.000000 0.034424 0.000000
# 6 0.000000 0.000000 0.000000 0.004737 0.000000 0.049632
#
#
# Mechanical properties :
#
#
# Convention : Reuss Voigt Hill
#
# Bulk Modulus (GPa) = 57.51185 60.61535 59.06360
# Shear Modulus (GPa) = 21.79784 25.89825 23.84805
#
# Velocity S-wave (km/s) = 3.45205 3.76275 3.61074
# Velocity P-wave (km/s) = 6.87967 7.21217 7.04788
#
# Compressibility (1/GPa) = 0.01738772
#
# Stress axis : x y z
#
# Youngs Moduli (GPa) = 74.22140 47.08728 52.31699
#
# Poissons Ratio (x) = 0.27659 0.16831
# Poissons Ratio (y) = 0.43598 0.47751
# Poissons Ratio (z) = 0.23878 0.42978
#
# Static dielectric constant tensor:
#      x y z
#    x 1.644420 0.000000 0.025250 
#    y 0.000000 1.606390 0.000000 
#    z 0.025250 0.000000 1.639850 
# 
# From -- ./inp_files/34166.got.cif
#   From: 2010.05.17/outbox.cif.g08.bks.cpg/sg14_18_cif.got.tgz:34166.got - 2010.06.03 17:49:19.
