data_PCOD9243142
_publ_section_title
;
Structure prediction by ZEFSAII (Michael W. Deem and Ramdas Pophale) SiO2 
 PCOD9243142
Probable space group: P 21/C
;
_chemical_formula_sum "Si O2"
_cell_formula_units_Z 32
_cell_length_a 16.289933
_cell_length_b 10.673070
_cell_length_c 8.776561
_cell_angle_alpha 90.000000
_cell_angle_beta 67.244155
_cell_angle_gamma 90.000000
_cell_volume 1407.148804
_symmetry_space_group_name_H-M "P 21/C"
_symmetry_group_IT_number 14
_symmetry_cell_setting 'monoclinic'
loop_
_space_group_symop_operation_xyz
x,y,z
-x,1/2+y,1/2-z
-x,-y,-z
x,1/2-y,1/2+z
loop_
_atom_site_type_symbol
_atom_site_label
_atom_site_fract_x
_atom_site_fract_y
_atom_site_fract_z
Si Si1 0.315374 0.897961 0.886370
Si Si2 0.661084 0.925271 0.637910
Si Si3 0.931311 0.311929 0.071061
Si Si4 0.596029 0.754058 0.953491
Si Si5 0.969876 0.511819 0.784699
Si Si6 0.118663 0.973996 0.953655
Si Si7 0.521142 0.925023 0.274126
Si Si8 0.733853 0.143019 0.742760
O O1 0.222734 0.967279 0.913588
O O2 0.305367 0.762727 0.815756
O O3 0.400032 0.973893 0.768643
O O4 0.320641 0.884966 0.065321
O O5 0.645301 0.838171 0.795002
O O6 0.665801 0.834424 0.491180
O O7 0.571540 0.006468 0.679202
O O8 0.734519 0.026332 0.626758
O O9 0.923737 0.166692 0.032421
O O10 0.835160 0.332953 0.218649
O O11 0.006265 0.367123 0.129667
O O12 0.938567 0.399323 0.916371
O O13 0.526729 0.666461 0.913966
O O14 0.545622 0.840144 0.110943
O O15 0.901686 0.534958 0.695502
O O16 0.061201 0.470289 0.633040
#
# Coordination Sequence:
#
# PCOD9243142 Si02
#       8
#     4   4   4   4   4   4   4   4
#     4  11  25  40  66  99 126 163 216 273 314 370
#     4  11  24  42  69  92 133 169 220 259 316 387
#     4  10  21  39  64  92 125 158 207 261 308 366
#     4  10  24  42  62  90 128 180 196 274 314 364
#     4  10  20  36  66  86 122 160 190 252 322 374
#     4  10  21  39  64  92 125 158 207 261 308 366
#     4  11  24  42  69  92 133 169 220 259 316 387
#     4  11  25  40  66  99 126 163 216 273 314 370
#
# _framework density 22.741019999999999
#
# number of rings (size 3 to 8) (size 9 to 14) (size 15 to 20)
#    0.000    1.500    2.500    1.500   10.500    0.000 
#    0.000    0.000   55.000    0.000    0.000    0.000 
#    0.000    0.000    0.000    0.000    0.000    0.000 
#
# Total GULP energy -179076.987449 kJ/mol
# GULP energy per Si atom -5596.155858 kJ/mol
# Density = 2.268926 g / cm^3
# Si number density = 22.741020 Si / 1000 Ang^3
#
#
#
# Elastic Constant Matrix: (Units=GPa)
#
#
# Indices 1 2 3 4 5 6 
#
# 1 54.4219 28.9964 12.0807 0.0000 10.8722 0.0000
# 2 28.9964 83.9666 15.6908 0.0000 5.5108 0.0000
# 3 12.0807 15.6908 66.8646 0.0000 19.5632 0.0000
# 4 0.0000 0.0000 0.0000 39.0008 0.0000 18.3495
# 5 10.8722 5.5108 19.5632 0.0000 29.9225 0.0000
# 6 0.0000 0.0000 0.0000 18.3495 0.0000 37.4825
#
#
#
# Elastic Compliance Matrix: (Units=1/GPa)
#
#
# Indices 1 2 3 4 5 6 
#
# 1 0.024000 -0.007741 -0.000477 0.000000 -0.006983 0.000000
# 2 -0.007741 0.014958 -0.002632 0.000000 0.001779 0.000000
# 3 -0.000477 -0.002632 0.019125 0.000000 -0.011846 0.000000
# 4 0.000000 0.000000 0.000000 0.033314 0.000000 -0.016309
# 5 -0.006983 0.001779 -0.011846 0.000000 0.043374 0.000000
# 6 0.000000 0.000000 0.000000 -0.016309 0.000000 0.034663
#
#
# Mechanical properties :
#
#
# Convention : Reuss Voigt Hill
#
# Bulk Modulus (GPa) = 27.48397 35.42097 31.45247
# Shear Modulus (GPa) = 24.59898 31.18017 27.88958
#
# Velocity S-wave (km/s) = 3.29249 3.70685 3.50580
# Velocity P-wave (km/s) = 5.15421 5.82500 5.49984
#
# Compressibility (1/GPa) = 0.03638485
#
# Stress axis : x y z
#
# Youngs Moduli (GPa) = 41.66649 66.85529 52.28684
#
# Poissons Ratio (x) = 0.51750 0.02492
# Poissons Ratio (y) = 0.32253 0.13761
# Poissons Ratio (z) = 0.01986 0.17595
#
# Static dielectric constant tensor:
#      x y z
#    x 1.821550 0.000000 0.025500 
#    y 0.000000 1.859390 0.000000 
#    z 0.025500 0.000000 1.857280 
# 
# From -- ./inp_files/15776.got.cif
#   From: 2010.05.17/outbox.cif.g08.bks.cpg/sg14_8_cif.got.tgz:15776.got - 2010.06.03 17:49:19.
