data_PCOD9243870
_publ_section_title
;
Structure prediction by ZEFSAII (Michael W. Deem and Ramdas Pophale) SiO2 
 PCOD9243870
Probable space group: P 21/C
;
_chemical_formula_sum "Si O2"
_cell_formula_units_Z 32
_cell_length_a 9.602614
_cell_length_b 9.661659
_cell_length_c 15.497053
_cell_angle_alpha 90.000000
_cell_angle_beta 94.166801
_cell_angle_gamma 90.000000
_cell_volume 1433.972508
_symmetry_space_group_name_H-M "P 21/C"
_symmetry_group_IT_number 14
_symmetry_cell_setting 'monoclinic'
loop_
_space_group_symop_operation_xyz
x,y,z
-x,1/2+y,1/2-z
-x,-y,-z
x,1/2-y,1/2+z
loop_
_atom_site_type_symbol
_atom_site_label
_atom_site_fract_x
_atom_site_fract_y
_atom_site_fract_z
Si Si1 0.803112 0.581880 0.489694
Si Si2 0.569882 0.195036 0.382882
Si Si3 0.676664 0.978362 0.694636
Si Si4 0.108505 0.152292 0.407916
Si Si5 0.056484 0.658965 0.399924
Si Si6 0.163304 0.893595 0.516052
Si Si7 0.293162 0.806187 0.797292
Si Si8 0.540634 0.519702 0.375984
O O1 0.842430 0.694854 0.563653
O O2 0.859752 0.437066 0.528031
O O3 0.643166 0.572254 0.455397
O O4 0.897085 0.619535 0.409652
O O5 0.439706 0.091787 0.372134
O O6 0.682577 0.161921 0.460895
O O7 0.656067 0.172760 0.297755
O O8 0.522365 0.354463 0.382413
O O9 0.820142 0.902760 0.675448
O O10 0.688364 0.142959 0.683303
O O11 0.623086 0.955438 0.789357
O O12 0.941722 0.136438 0.409133
O O13 0.165825 0.051617 0.486748
O O14 0.086080 0.812563 0.435405
O O15 0.135970 0.648150 0.313305
O O16 0.397712 0.896552 0.860976
#
# Coordination Sequence:
#
# PCOD9243870 Si02
#       8
#     4   4   4   4   4   4   4   4
#     4  10  22  37  59  86 113 148 187 234 280 333
#     4  10  22  39  59  83 114 150 189 234 281 333
#     4  10  22  40  58  82 115 150 189 232 280 335
#     4  10  22  37  59  86 113 148 187 234 280 333
#     4  10  20  39  59  82 114 145 187 234 281 331
#     4  10  20  39  59  82 114 145 187 234 281 331
#     4  10  22  39  59  83 114 150 189 234 281 333
#     4  10  22  40  58  82 115 150 189 232 280 335
#
# _framework density 22.315631
#
# number of rings (size 3 to 8) (size 9 to 14) (size 15 to 20)
#    0.000    2.000    2.500    0.000    3.500    3.000 
#    0.000    0.000    0.000    0.000    0.000    0.000 
#    0.000    0.000    0.000    0.000    0.000    0.000 
#
# Total GULP energy -178770.587603 kJ/mol
# GULP energy per Si atom -5586.580863 kJ/mol
# Density = 2.226484 g / cm^3
# Si number density = 22.315631 Si / 1000 Ang^3
#
#
#
# Elastic Constant Matrix: (Units=GPa)
#
#
# Indices 1 2 3 4 5 6 
#
# 1 63.3165 1.4904 11.8794 0.0000 -14.9869 0.0000
# 2 1.4904 45.0212 -3.2120 0.0000 4.3165 0.0000
# 3 11.8794 -3.2120 32.9741 0.0000 -10.0138 0.0000
# 4 0.0000 0.0000 0.0000 11.7918 0.0000 -2.3448
# 5 -14.9869 4.3165 -10.0138 0.0000 43.8733 0.0000
# 6 0.0000 0.0000 0.0000 -2.3448 0.0000 28.9751
#
#
#
# Elastic Compliance Matrix: (Units=1/GPa)
#
#
# Indices 1 2 3 4 5 6 
#
# 1 0.017993 -0.001449 -0.005065 0.000000 0.005133 0.000000
# 2 -0.001449 0.022622 0.002041 0.000000 -0.002255 0.000000
# 3 -0.005065 0.002041 0.034129 0.000000 0.005859 0.000000
# 4 0.000000 0.000000 0.000000 0.086192 0.000000 0.006975
# 5 0.005133 -0.002255 0.005859 0.000000 0.026105 0.000000
# 6 0.000000 0.000000 0.000000 0.006975 0.000000 0.035077
#
#
# Mechanical properties :
#
#
# Convention : Reuss Voigt Hill
#
# Bulk Modulus (GPa) = 15.19796 17.95860 16.57828
# Shear Modulus (GPa) = 19.76312 25.67163 22.71737
#
# Velocity S-wave (km/s) = 2.97916 3.39542 3.19408
# Velocity P-wave (km/s) = 4.31962 4.84116 4.58781
#
# Compressibility (1/GPa) = 0.06579831
#
# Stress axis : x y z
#
# Youngs Moduli (GPa) = 55.57730 44.20565 29.30017
#
# Poissons Ratio (x) = 0.06406 0.14839
# Poissons Ratio (y) = 0.08054 -0.05980
# Poissons Ratio (z) = 0.28148 -0.09022
#
# Static dielectric constant tensor:
#      x y z
#    x 1.837780 0.000000 -0.072530 
#    y 0.000000 1.753860 0.000000 
#    z -0.072530 0.000000 1.848280 
# 
# From -- ./inp_files/64854.got.cif
#   From: 2010.05.17/outbox.cif.g08.bks.cpg/sg14_33_cif.got.tgz:64854.got - 2010.06.03 17:49:19.
