data_PCOD9243483
_publ_section_title
;
Structure prediction by ZEFSAII (Michael W. Deem and Ramdas Pophale) SiO2 
 PCOD9243483
Probable space group: P 21/C
;
_chemical_formula_sum "Si O2"
_cell_formula_units_Z 32
_cell_length_a 10.553664
_cell_length_b 9.382527
_cell_length_c 12.685627
_cell_angle_alpha 90.000000
_cell_angle_beta 90.326133
_cell_angle_gamma 90.000000
_cell_volume 1256.110911
_symmetry_space_group_name_H-M "P 21/C"
_symmetry_group_IT_number 14
_symmetry_cell_setting 'monoclinic'
loop_
_space_group_symop_operation_xyz
x,y,z
-x,1/2+y,1/2-z
-x,-y,-z
x,1/2-y,1/2+z
loop_
_atom_site_type_symbol
_atom_site_label
_atom_site_fract_x
_atom_site_fract_y
_atom_site_fract_z
Si Si1 0.939507 0.102533 0.406552
Si Si2 0.665276 0.456830 0.941951
Si Si3 0.338781 0.282467 0.591944
Si Si4 0.911362 0.371980 0.545394
Si Si5 0.446466 0.870359 0.750820
Si Si6 0.169879 0.353402 0.761405
Si Si7 0.303169 0.088495 0.880148
Si Si8 0.239699 0.660281 0.836570
O O1 0.799660 0.048265 0.379678
O O2 0.917938 0.262547 0.448113
O O3 0.031829 0.114602 0.308197
O O4 0.000000 0.000000 0.500000
O O5 0.642624 0.623241 0.946827
O O6 0.553733 0.387113 0.874152
O O7 0.696204 0.379686 0.050663
O O8 0.429336 0.322620 0.688462
O O9 0.197443 0.309234 0.640276
O O10 0.367820 0.374755 0.490624
O O11 0.793870 0.465734 0.585243
O O12 0.891307 0.244137 0.636154
O O13 0.000000 0.500000 0.500000
O O14 0.337710 0.757031 0.775504
O O15 0.400312 0.021409 0.797884
O O16 0.229808 0.226208 0.832942
O O17 0.227775 0.510345 0.777998
#
# Coordination Sequence:
#
# PCOD9243483 Si02
#       8
#     4   4   4   4   4   4   4   4
#     4  11  21  45  74 103 147 192 234 295 369 447
#     4  11  24  48  71 109 143 187 249 306 366 438
#     4  12  27  45  74 104 142 197 246 303 362 439
#     4  10  20  37  71 100 138 184 221 291 353 428
#     4  11  27  48  70 103 148 188 251 306 353 434
#     4  12  23  43  73 107 142 186 238 298 369 438
#     4  11  23  47  69 105 142 185 245 288 371 427
#     4  10  24  43  73 102 140 191 238 298 367 429
#
# _framework density 25.475456999999999
#
# number of rings (size 3 to 8) (size 9 to 14) (size 15 to 20)
#    0.000    1.000    6.250    0.375    1.750    4.500 
#    9.000    0.000    0.000    0.000    0.000    0.000 
#    0.000    0.000    0.000    0.000    0.000    0.000 
#
# Total GULP energy -178820.842720 kJ/mol
# GULP energy per Si atom -5588.151335 kJ/mol
# Density = 2.541747 g / cm^3
# Si number density = 25.475457 Si / 1000 Ang^3
#
#
#
# Elastic Constant Matrix: (Units=GPa)
#
#
# Indices 1 2 3 4 5 6 
#
# 1 66.9276 30.5980 22.5927 0.0000 -17.6807 0.0000
# 2 30.5980 167.9289 41.0648 0.0000 -0.2292 0.0000
# 3 22.5927 41.0648 108.5523 0.0000 -3.2993 0.0000
# 4 0.0000 0.0000 0.0000 22.8927 0.0000 -8.7465
# 5 -17.6807 -0.2292 -3.2993 0.0000 42.2515 0.0000
# 6 0.0000 0.0000 0.0000 -8.7465 0.0000 28.4456
#
#
#
# Elastic Compliance Matrix: (Units=1/GPa)
#
#
# Indices 1 2 3 4 5 6 
#
# 1 0.019208 -0.002832 -0.002689 0.000000 0.007812 0.000000
# 2 -0.002832 0.006980 -0.002091 0.000000 -0.001310 0.000000
# 3 -0.002689 -0.002091 0.010553 0.000000 -0.000313 0.000000
# 4 0.000000 0.000000 0.000000 0.049497 0.000000 0.015219
# 5 0.007812 -0.001310 -0.000313 0.000000 0.026905 0.000000
# 6 0.000000 0.000000 0.000000 0.015219 0.000000 0.039834
#
#
# Mechanical properties :
#
#
# Convention : Reuss Voigt Hill
#
# Bulk Modulus (GPa) = 46.47284 59.10220 52.78752
# Shear Modulus (GPa) = 28.51045 35.32820 31.91932
#
# Velocity S-wave (km/s) = 3.34898 3.72795 3.54354
# Velocity P-wave (km/s) = 5.76507 6.46376 6.12439
#
# Compressibility (1/GPa) = 0.02151794
#
# Stress axis : x y z
#
# Youngs Moduli (GPa) = 52.06269 143.25805 94.75634
#
# Poissons Ratio (x) = 0.40564 0.25480
# Poissons Ratio (y) = 0.14742 0.19815
# Poissons Ratio (z) = 0.14000 0.29957
#
# Static dielectric constant tensor:
#      x y z
#    x 2.104480 0.000000 0.003780 
#    y 0.000000 1.961580 0.000000 
#    z 0.003780 0.000000 1.987860 
# 
# From -- ./inp_files/43731.got.cif
#   From: 2010.05.17/outbox.cif.g08.bks.cpg/sg14_22_cif.got.tgz:43731.got - 2010.06.03 17:49:19.
