data_PCOD9243377
_publ_section_title
;
Structure prediction by ZEFSAII (Michael W. Deem and Ramdas Pophale) SiO2 
 PCOD9243377
Probable space group: P 21/C
;
_chemical_formula_sum "Si O2"
_cell_formula_units_Z 24
_cell_length_a 8.512097
_cell_length_b 9.246091
_cell_length_c 22.695970
_cell_angle_alpha 90.000000
_cell_angle_beta 147.157727
_cell_angle_gamma 90.000000
_cell_volume 968.736564
_symmetry_space_group_name_H-M "P 21/C"
_symmetry_group_IT_number 14
_symmetry_cell_setting 'monoclinic'
loop_
_space_group_symop_operation_xyz
x,y,z
-x,1/2+y,1/2-z
-x,-y,-z
x,1/2-y,1/2+z
loop_
_atom_site_type_symbol
_atom_site_label
_atom_site_fract_x
_atom_site_fract_y
_atom_site_fract_z
Si Si1 0.718498 0.015075 0.297935
Si Si2 0.951585 0.286951 0.964828
Si Si3 0.594118 0.237061 0.673281
Si Si4 0.184994 0.917177 0.846371
Si Si5 0.899695 0.465503 0.352484
Si Si6 0.663539 0.797244 0.181884
O O1 0.913010 0.069237 0.412951
O O2 0.748432 0.132635 0.256112
O O3 0.387879 0.040084 0.214342
O O4 0.743156 0.862992 0.272296
O O5 0.963251 0.151739 0.922454
O O6 0.670065 0.255559 0.916194
O O7 0.268446 0.287908 0.092413
O O8 0.599143 0.289201 0.607643
O O9 0.782295 0.104795 0.754591
O O10 0.878795 0.834252 0.734986
O O11 0.280187 0.066215 0.843724
O O12 0.163018 0.943436 0.909753
#
# Coordination Sequence:
#
# PCOD9243377 Si02
#       6
#     4   4   4   4   4   4
#     4   9  20  38  63  85 123 159 204 245 306 368
#     4  10  21  40  62  93 116 159 211 256 296 368
#     4  10  22  38  63  90 120 155 206 258 303 357
#     4  11  20  38  62  89 123 162 201 248 319 360
#     4  10  20  37  63  84 120 162 198 246 309 363
#     4  10  21  37  64  88 125 164 201 251 310 366
#
# _framework density 24.774535
#
# number of rings (size 3 to 8) (size 9 to 14) (size 15 to 20)
#    0.000    2.000    3.333    0.000    0.000    7.333 
#    0.000    0.833    0.000    0.000    0.000    0.000 
#    0.000    0.000    0.000    0.000    0.000    0.000 
#
# Total GULP energy -133833.159612 kJ/mol
# GULP energy per Si atom -5576.381651 kJ/mol
# Density = 2.471815 g / cm^3
# Si number density = 24.774535 Si / 1000 Ang^3
#
#
#
# Elastic Constant Matrix: (Units=GPa)
#
#
# Indices 1 2 3 4 5 6 
#
# 1 143.6678 28.8142 22.1978 0.0000 28.7006 0.0000
# 2 28.8142 78.3859 7.4550 0.0000 -4.0203 0.0000
# 3 22.1978 7.4550 83.2016 0.0000 15.7662 0.0000
# 4 0.0000 0.0000 0.0000 6.8335 0.0000 2.2261
# 5 28.7006 -4.0203 15.7662 0.0000 33.0669 0.0000
# 6 0.0000 0.0000 0.0000 2.2261 0.0000 54.6212
#
#
#
# Elastic Compliance Matrix: (Units=1/GPa)
#
#
# Indices 1 2 3 4 5 6 
#
# 1 0.009517 -0.003876 -0.000591 0.000000 -0.008450 0.000000
# 2 -0.003876 0.014610 -0.001373 0.000000 0.005795 0.000000
# 3 -0.000591 -0.001373 0.013449 0.000000 -0.006067 0.000000
# 4 0.000000 0.000000 0.000000 0.148308 0.000000 -0.006044
# 5 -0.008450 0.005795 -0.006067 0.000000 0.041173 0.000000
# 6 0.000000 0.000000 0.000000 -0.006044 0.000000 0.018554
#
#
# Mechanical properties :
#
#
# Convention : Reuss Voigt Hill
#
# Bulk Modulus (GPa) = 38.61397 46.90991 42.76194
# Shear Modulus (GPa) = 18.80245 35.35686 27.07966
#
# Velocity S-wave (km/s) = 2.75788 3.78186 3.30971
# Velocity P-wave (km/s) = 5.07555 6.16812 5.64832
#
# Compressibility (1/GPa) = 0.02589737
#
# Stress axis : x y z
#
# Youngs Moduli (GPa) = 105.07365 68.44690 74.35357
#
# Poissons Ratio (x) = 0.26528 0.04392
# Poissons Ratio (y) = 0.40723 0.10210
# Poissons Ratio (z) = 0.06206 0.09399
#
# Static dielectric constant tensor:
#      x y z
#    x 2.068490 0.000000 -0.035900 
#    y 0.000000 2.010350 0.000000 
#    z -0.035900 0.000000 2.004880 
# 
# From -- ./inp_files/50488.got.cif
#   From: 2010.05.17/outbox.cif.g08.bks.cpg/sg14_26_cif.got.tgz:50488.got - 2010.06.03 17:49:19.
