data_PCOD9243676
_publ_section_title
;
Structure prediction by ZEFSAII (Michael W. Deem and Ramdas Pophale) SiO2 
 PCOD9243676
Probable space group: P 21/C
;
_chemical_formula_sum "Si O2"
_cell_formula_units_Z 26
_cell_length_a 11.437118
_cell_length_b 7.367749
_cell_length_c 25.824775
_cell_angle_alpha 90.000000
_cell_angle_beta 30.144180
_cell_angle_gamma 90.000000
_cell_volume 1092.811833
_symmetry_space_group_name_H-M "P 21/C"
_symmetry_group_IT_number 14
_symmetry_cell_setting 'monoclinic'
loop_
_space_group_symop_operation_xyz
x,y,z
-x,1/2+y,1/2-z
-x,-y,-z
x,1/2-y,1/2+z
loop_
_atom_site_type_symbol
_atom_site_label
_atom_site_fract_x
_atom_site_fract_y
_atom_site_fract_z
Si Si1 0.525399 0.718976 0.894243
Si Si2 0.500000 0.500000 0.500000
Si Si3 0.783092 0.272777 0.740464
Si Si4 0.127796 0.076318 0.872220
Si Si5 0.925796 0.056963 0.403179
Si Si6 0.641381 0.975892 0.108371
Si Si7 0.943597 0.274340 0.293566
O O1 0.479697 0.831452 0.859048
O O2 0.790012 0.666850 0.801592
O O3 0.471114 0.864858 0.960383
O O4 0.336581 0.560282 0.974264
O O5 0.747038 0.420763 0.382283
O O6 0.778885 0.459356 0.711141
O O7 0.900365 0.281661 0.751320
O O8 0.532429 0.180279 0.843184
O O9 0.936924 0.130386 0.647684
O O10 0.302717 0.059406 0.853157
O O11 0.058591 0.279952 0.882112
O O12 0.885997 0.985593 0.984616
O O13 0.915377 0.113873 0.346692
#
# Coordination Sequence:
#
# PCOD9243676 Si02
#       7
#     4   2   4   4   4   4   4
#     4  10  21  40  67  95 143 183 228 296 359 418
#     4  10  20  38  62  96 142 178 224 300 356 416
#     4  12  25  42  71 103 134 181 249 283 353 444
#     4  10  26  45  72  97 141 191 233 295 364 406
#     4  10  24  44  67 102 143 177 234 297 347 425
#     4  10  22  48  67 102 142 184 235 299 352 423
#     4  11  22  37  68 101 135 190 226 288 366 421
#
# _framework density 23.791837000000001
#
# number of rings (size 3 to 8) (size 9 to 14) (size 15 to 20)
#    0.000    1.538    3.077    0.000   10.769    0.615 
#    2.769    6.923    0.000    0.000    0.000    0.000 
#    0.000    0.000    0.000    0.000    0.000    0.000 
#
# Total GULP energy -145127.666992 kJ/mol
# GULP energy per Si atom -5581.833346 kJ/mol
# Density = 2.373769 g / cm^3
# Si number density = 23.791837 Si / 1000 Ang^3
#
#
#
# Elastic Constant Matrix: (Units=GPa)
#
#
# Indices 1 2 3 4 5 6 
#
# 1 133.7072 51.1069 22.9566 0.0000 4.9657 0.0000
# 2 51.1069 83.7781 15.9498 0.0000 0.7754 0.0000
# 3 22.9566 15.9498 49.0319 0.0000 3.1503 0.0000
# 4 0.0000 0.0000 0.0000 36.7092 0.0000 -7.4783
# 5 4.9657 0.7754 3.1503 0.0000 33.4762 0.0000
# 6 0.0000 0.0000 0.0000 -7.4783 0.0000 14.6668
#
#
#
# Elastic Compliance Matrix: (Units=1/GPa)
#
#
# Indices 1 2 3 4 5 6 
#
# 1 0.010170 -0.005651 -0.002852 0.000000 -0.001109 0.000000
# 2 -0.005651 0.015864 -0.002561 0.000000 0.000712 0.000000
# 3 -0.002852 -0.002561 0.022669 0.000000 -0.001651 0.000000
# 4 0.000000 0.000000 0.000000 0.030399 0.000000 0.015500
# 5 -0.001109 0.000712 -0.001651 0.000000 0.030175 0.000000
# 6 0.000000 0.000000 0.000000 0.015500 0.000000 0.076084
#
#
# Mechanical properties :
#
#
# Convention : Reuss Voigt Hill
#
# Bulk Modulus (GPa) = 37.62716 49.61599 43.62158
# Shear Modulus (GPa) = 23.11105 28.73738 25.92421
#
# Velocity S-wave (km/s) = 3.12009 3.47921 3.30453
# Velocity P-wave (km/s) = 5.36930 6.08600 5.73885
#
# Compressibility (1/GPa) = 0.02657654
#
# Stress axis : x y z
#
# Youngs Moduli (GPa) = 98.33125 63.03503 44.11264
#
# Poissons Ratio (x) = 0.35618 0.12581
# Poissons Ratio (y) = 0.55563 0.11296
# Poissons Ratio (z) = 0.28045 0.16141
#
# Static dielectric constant tensor:
#      x y z
#    x 1.840860 0.000000 -0.023610 
#    y 0.000000 1.935060 0.000000 
#    z -0.023610 0.000000 1.879130 
# 
# From -- ./inp_files/77013.got.cif
#   From: 2010.05.17/outbox.cif.g08.bks.cpg/sg14_39_cif.got.tgz:77013.got - 2010.06.03 17:49:19.
