data_PCOD9243535
_publ_section_title
;
Structure prediction by ZEFSAII (Michael W. Deem and Ramdas Pophale) SiO2 
 PCOD9243535
Probable space group: P 21/C
;
_chemical_formula_sum "Si O2"
_cell_formula_units_Z 20
_cell_length_a 10.252696
_cell_length_b 4.948350
_cell_length_c 19.573698
_cell_angle_alpha 90.000000
_cell_angle_beta 70.820722
_cell_angle_gamma 90.000000
_cell_volume 937.931564
_symmetry_space_group_name_H-M "P 21/C"
_symmetry_group_IT_number 14
_symmetry_cell_setting 'monoclinic'
loop_
_space_group_symop_operation_xyz
x,y,z
-x,1/2+y,1/2-z
-x,-y,-z
x,1/2-y,1/2+z
loop_
_atom_site_type_symbol
_atom_site_label
_atom_site_fract_x
_atom_site_fract_y
_atom_site_fract_z
Si Si1 0.374866 0.418348 0.703494
Si Si2 0.070853 0.466843 0.710448
Si Si3 0.079918 0.772134 0.565879
Si Si4 0.447565 0.082625 0.348833
Si Si5 0.190196 0.239050 0.978549
O O1 0.223082 0.364881 0.702623
O O2 0.422382 0.716764 0.674799
O O3 0.380376 0.393967 0.784782
O O4 0.490356 0.215056 0.654701
O O5 0.068257 0.630021 0.640338
O O6 0.974416 0.202411 0.728501
O O7 0.172761 0.570258 0.503666
O O8 0.928509 0.788416 0.557920
O O9 0.148425 0.065703 0.548570
O O10 0.336176 0.175568 0.422982
#
# Coordination Sequence:
#
# PCOD9243535 Si02
#       5
#     4   4   4   4   4
#     4  10  22  37  58  87 114 148 199 236 284 353
#     4  12  24  40  61  86 119 152 188 245 298 338
#     4  10  22  37  58  88 115 149 199 235 281 350
#     4  10  20  38  60  83 115 154 192 239 286 339
#     4  10  20  38  60  83 116 154 192 238 283 336
#
# _framework density 21.323519999999998
#
# number of rings (size 3 to 8) (size 9 to 14) (size 15 to 20)
#    0.000    1.600    0.000    4.800    0.000    6.400 
#    0.000    6.000    0.000    0.000    0.000    0.000 
#    0.000    0.000    0.000    0.000    0.000    0.000 
#
# Total GULP energy -111823.162533 kJ/mol
# GULP energy per Si atom -5591.158127 kJ/mol
# Density = 2.127499 g / cm^3
# Si number density = 21.323520 Si / 1000 Ang^3
#
#
#
# Elastic Constant Matrix: (Units=GPa)
#
#
# Indices 1 2 3 4 5 6 
#
# 1 65.5385 1.4214 23.8438 0.0000 -3.3951 0.0000
# 2 1.4214 66.5946 -8.5606 0.0000 0.1606 0.0000
# 3 23.8438 -8.5606 50.4827 0.0000 -15.0692 0.0000
# 4 0.0000 0.0000 0.0000 -6.8244 0.0000 11.4945
# 5 -3.3951 0.1606 -15.0692 0.0000 17.1019 0.0000
# 6 0.0000 0.0000 0.0000 11.4945 0.0000 14.2500
#
#
#
# Elastic Compliance Matrix: (Units=1/GPa)
#
#
# Indices 1 2 3 4 5 6 
#
# 1 0.019016 -0.001814 -0.011068 0.000000 -0.005961 0.000000
# 2 -0.001814 0.015632 0.004554 0.000000 0.003506 0.000000
# 3 -0.011068 0.004554 0.034112 0.000000 0.027818 0.000000
# 4 0.000000 0.000000 0.000000 -0.062126 0.000000 0.050113
# 5 -0.005961 0.003506 0.027818 0.000000 0.081768 0.000000
# 6 0.000000 0.000000 0.000000 0.050113 0.000000 0.029752
#
#
# Mechanical properties :
#
#
# Convention : Reuss Voigt Hill
#
# Bulk Modulus (GPa) = 19.19266 24.00277 21.59771
# Shear Modulus (GPa) = 32.85610 15.96625 24.41118
#
# Velocity S-wave (km/s) = 3.92961 2.73932 3.38716
# Velocity P-wave (km/s) = 5.44145 4.61368 5.04457
#
# Compressibility (1/GPa) = 0.05210325
#
# Stress axis : x y z
#
# Youngs Moduli (GPa) = 52.58849 63.97156 29.31485
#
# Poissons Ratio (x) = 0.11606 0.32447
# Poissons Ratio (y) = 0.09541 -0.13351
# Poissons Ratio (z) = 0.58206 -0.29134
#
# Static dielectric constant tensor:
#      x y z
#    x 1.724670 0.000000 0.001240 
#    y 0.000000 1.743510 0.000000 
#    z 0.001240 0.000000 1.791830 
# 
# From -- ./inp_files/53967.got.cif
#   From: 2010.05.17/outbox.cif.g08.bks.cpg/sg14_27_cif.got.tgz:53967.got - 2010.06.03 17:49:19.
