data_PCOD9243720
_publ_section_title
;
Structure prediction by ZEFSAII (Michael W. Deem and Ramdas Pophale) SiO2 
 PCOD9243720
Probable space group: P 21/C
;
_chemical_formula_sum "Si O2"
_cell_formula_units_Z 32
_cell_length_a 7.537326
_cell_length_b 11.917346
_cell_length_c 17.880153
_cell_angle_alpha 90.000000
_cell_angle_beta 112.357386
_cell_angle_gamma 90.000000
_cell_volume 1485.352777
_symmetry_space_group_name_H-M "P 21/C"
_symmetry_group_IT_number 14
_symmetry_cell_setting 'monoclinic'
loop_
_space_group_symop_operation_xyz
x,y,z
-x,1/2+y,1/2-z
-x,-y,-z
x,1/2-y,1/2+z
loop_
_atom_site_type_symbol
_atom_site_label
_atom_site_fract_x
_atom_site_fract_y
_atom_site_fract_z
Si Si1 0.978661 0.335174 0.845777
Si Si2 0.971130 0.158724 0.975955
Si Si3 0.550480 0.395579 0.407698
Si Si4 0.848819 0.990861 0.119103
Si Si5 0.665698 0.864564 0.864269
Si Si6 0.298693 0.236789 0.278896
Si Si7 0.272457 0.773802 0.832778
Si Si8 0.010470 0.083058 0.695363
O O1 0.976602 0.266719 0.922129
O O2 0.164702 0.301960 0.825701
O O3 0.977984 0.469865 0.849975
O O4 0.804500 0.296736 0.763881
O O5 0.026840 0.054581 0.929688
O O6 0.755723 0.141495 0.972006
O O7 0.134912 0.164720 0.064364
O O8 0.358387 0.427468 0.423597
O O9 0.594784 0.511865 0.374000
O O10 0.482637 0.297140 0.341982
O O11 0.955578 0.949106 0.211750
O O12 0.808340 0.119984 0.133364
O O13 0.671692 0.859897 0.775789
O O14 0.500360 0.781401 0.867608
O O15 0.185632 0.331039 0.212609
O O16 0.179773 0.657440 0.844027
#
# Coordination Sequence:
#
# PCOD9243720 Si02
#       8
#     4   4   4   4   4   4   4   4
#     4  10  20  38  64  86 119 165 205 242 301 366
#     4  12  22  40  60  92 129 156 195 254 318 347
#     4  10  22  39  61  89 124 160 198 246 311 356
#     4   9  19  37  58  91 117 153 200 252 293 367
#     4  11  25  36  58  98 124 150 203 257 303 363
#     4  10  21  39  57  92 122 154 215 248 285 370
#     4   9  18  36  58  86 116 161 203 246 292 353
#     4   9  18  36  62  85 110 160 213 242 284 354
#
# _framework density 21.543704000000002
#
# number of rings (size 3 to 8) (size 9 to 14) (size 15 to 20)
#    0.000    2.000    3.750    1.875    5.250    2.000 
#    4.500    1.250    0.000    0.000    0.000    0.000 
#    0.000    0.000    0.000    0.000    0.000    0.000 
#
# Total GULP energy -178791.445792 kJ/mol
# GULP energy per Si atom -5587.232681 kJ/mol
# Density = 2.149467 g / cm^3
# Si number density = 21.543704 Si / 1000 Ang^3
#
#
#
# Elastic Constant Matrix: (Units=GPa)
#
#
# Indices 1 2 3 4 5 6 
#
# 1 86.9715 19.0967 32.5698 0.0000 25.4669 0.0000
# 2 19.0967 62.9588 -0.4345 0.0000 7.0967 0.0000
# 3 32.5698 -0.4345 74.6478 0.0000 16.6103 0.0000
# 4 0.0000 0.0000 0.0000 18.1384 0.0000 10.8312
# 5 25.4669 7.0967 16.6103 0.0000 41.2452 0.0000
# 6 0.0000 0.0000 0.0000 10.8312 0.0000 20.2544
#
#
#
# Elastic Compliance Matrix: (Units=1/GPa)
#
#
# Indices 1 2 3 4 5 6 
#
# 1 0.016703 -0.004285 -0.005692 0.000000 -0.007284 0.000000
# 2 -0.004285 0.017339 0.002247 0.000000 -0.001243 0.000000
# 3 -0.005692 0.002247 0.016693 0.000000 -0.003595 0.000000
# 4 0.000000 0.000000 0.000000 0.080996 0.000000 -0.043313
# 5 -0.007284 -0.001243 -0.003595 0.000000 0.030404 0.000000
# 6 0.000000 0.000000 0.000000 -0.043313 0.000000 0.072534
#
#
# Mechanical properties :
#
#
# Convention : Reuss Voigt Hill
#
# Bulk Modulus (GPa) = 28.34874 36.33801 32.34338
# Shear Modulus (GPa) = 19.09224 27.48400 23.28812
#
# Velocity S-wave (km/s) = 2.98016 3.57561 3.29138
# Velocity P-wave (km/s) = 5.00291 5.82670 5.43045
#
# Compressibility (1/GPa) = 0.03527493
#
# Stress axis : x y z
#
# Youngs Moduli (GPa) = 59.86836 57.67474 59.90655
#
# Poissons Ratio (x) = 0.24712 0.34099
# Poissons Ratio (y) = 0.25652 -0.13460
# Poissons Ratio (z) = 0.34077 -0.12959
#
# Static dielectric constant tensor:
#      x y z
#    x 1.839130 0.000000 -0.000870 
#    y 0.000000 1.827320 0.000000 
#    z -0.000870 0.000000 1.794370 
# 
# From -- ./inp_files/65617.got.cif
#   From: 2010.05.17/outbox.cif.g08.bks.cpg/sg14_33_cif.got.tgz:65617.got - 2010.06.03 17:49:19.
