data_PCOD9243041
_publ_section_title
;
Structure prediction by ZEFSAII (Michael W. Deem and Ramdas Pophale) SiO2 
 PCOD9243041
Probable space group: P 21/C
;
_chemical_formula_sum "Si O2"
_cell_formula_units_Z 32
_cell_length_a 13.020491
_cell_length_b 10.979907
_cell_length_c 14.895642
_cell_angle_alpha 90.000000
_cell_angle_beta 47.770451
_cell_angle_gamma 90.000000
_cell_volume 1576.833078
_symmetry_space_group_name_H-M "P 21/C"
_symmetry_group_IT_number 14
_symmetry_cell_setting 'monoclinic'
loop_
_space_group_symop_operation_xyz
x,y,z
-x,1/2+y,1/2-z
-x,-y,-z
x,1/2-y,1/2+z
loop_
_atom_site_type_symbol
_atom_site_label
_atom_site_fract_x
_atom_site_fract_y
_atom_site_fract_z
Si Si1 0.181623 0.905054 0.292798
Si Si2 0.399829 0.262023 0.859029
Si Si3 0.202209 0.570838 0.992591
Si Si4 0.919226 0.667558 0.210913
Si Si5 0.521326 0.366969 0.444767
Si Si6 0.354843 0.227595 0.695894
Si Si7 0.483739 0.988873 0.403725
Si Si8 0.100256 0.197722 0.588475
O O1 0.213757 0.940793 0.377624
O O2 0.314299 0.848286 0.165390
O O3 0.048500 0.816568 0.370823
O O4 0.138192 0.029034 0.266166
O O5 0.462520 0.150349 0.878336
O O6 0.425879 0.288516 0.739996
O O7 0.457588 0.380526 0.876254
O O8 0.233664 0.247176 0.961367
O O9 0.150906 0.443250 0.066835
O O10 0.077584 0.664018 0.084582
O O11 0.351146 0.591473 0.949889
O O12 0.805547 0.741943 0.221635
O O13 0.915984 0.727456 0.310672
O O14 0.500000 0.500000 0.500000
O O15 0.435749 0.275395 0.559816
O O16 0.380182 0.086015 0.701849
O O17 0.500000 0.000000 0.500000
#
# Coordination Sequence:
#
# PCOD9243041 Si02
#       8
#     4   4   4   4   4   4   4   4
#     4  11  22  40  62  90 125 164 213 259 313 391
#     4  11  23  41  62  93 125 170 214 262 325 380
#     4  10  22  39  64  89 119 167 213 253 313 391
#     4  11  20  39  59  92 120 160 213 263 311 372
#     4  12  24  40  63  96 129 161 213 265 319 376
#     4  12  23  38  64  89 129 165 208 267 317 383
#     4  11  22  41  62  93 126 164 209 258 321 378
#     4  10  20  36  61  86 118 156 209 260 305 367
#
# _framework density 20.293841
#
# number of rings (size 3 to 8) (size 9 to 14) (size 15 to 20)
#    0.000    1.000    3.750    5.250    3.500    0.000 
#    0.000    0.000    0.000    0.000    0.000   16.625 
#    0.000    0.000    0.000    0.000    0.000    0.000 
#
# Total GULP energy -178343.803432 kJ/mol
# GULP energy per Si atom -5573.243857 kJ/mol
# Density = 2.024765 g / cm^3
# Si number density = 20.293841 Si / 1000 Ang^3
#
#
#
# Elastic Constant Matrix: (Units=GPa)
#
#
# Indices 1 2 3 4 5 6 
#
# 1 117.2412 27.2950 13.0201 0.0000 3.0722 0.0000
# 2 27.2950 42.3671 17.3029 0.0000 -0.8864 0.0000
# 3 13.0201 17.3029 43.1639 0.0000 0.8383 0.0000
# 4 0.0000 0.0000 0.0000 19.9905 0.0000 -4.6977
# 5 3.0722 -0.8864 0.8383 0.0000 48.1438 0.0000
# 6 0.0000 0.0000 0.0000 -4.6977 0.0000 24.7459
#
#
#
# Elastic Compliance Matrix: (Units=1/GPa)
#
#
# Indices 1 2 3 4 5 6 
#
# 1 0.010071 -0.006301 -0.000498 0.000000 -0.000750 0.000000
# 2 -0.006301 0.032191 -0.011027 0.000000 0.001187 0.000000
# 3 -0.000498 -0.011027 0.027750 0.000000 -0.000655 0.000000
# 4 0.000000 0.000000 0.000000 0.052359 0.000000 0.009940
# 5 -0.000750 0.001187 -0.000655 0.000000 0.020852 0.000000
# 6 0.000000 0.000000 0.000000 0.009940 0.000000 0.042298
#
#
# Mechanical properties :
#
#
# Convention : Reuss Voigt Hill
#
# Bulk Modulus (GPa) = 29.10158 35.33425 32.21791
# Shear Modulus (GPa) = 21.49371 28.25300 24.87336
#
# Velocity S-wave (km/s) = 3.25795 3.73526 3.50474
# Velocity P-wave (km/s) = 5.34075 6.00433 5.68223
#
# Compressibility (1/GPa) = 0.03436240
#
# Stress axis : x y z
#
# Youngs Moduli (GPa) = 99.29247 31.06479 36.03540
#
# Poissons Ratio (x) = 0.19574 0.01793
# Poissons Ratio (y) = 0.62563 0.39735
# Poissons Ratio (z) = 0.04940 0.34254
#
# Static dielectric constant tensor:
#      x y z
#    x 1.819740 0.000000 0.060440 
#    y 0.000000 1.783520 0.000000 
#    z 0.060440 0.000000 1.821690 
# 
# From -- ./inp_files/44630.got.cif
#   From: 2010.05.17/outbox.cif.g08.bks.cpg/sg14_23_cif.got.tgz:44630.got - 2010.06.03 17:49:19.
