data_PCOD9243215
_publ_section_title
;
Structure prediction by ZEFSAII (Michael W. Deem and Ramdas Pophale) SiO2 
 PCOD9243215
Probable space group: P 21/C
;
_chemical_formula_sum "Si O2"
_cell_formula_units_Z 28
_cell_length_a 25.164917
_cell_length_b 7.764893
_cell_length_c 11.200405
_cell_angle_alpha 90.000000
_cell_angle_beta 145.878663
_cell_angle_gamma 90.000000
_cell_volume 1227.684540
_symmetry_space_group_name_H-M "P 21/C"
_symmetry_group_IT_number 14
_symmetry_cell_setting 'monoclinic'
loop_
_space_group_symop_operation_xyz
x,y,z
-x,1/2+y,1/2-z
-x,-y,-z
x,1/2-y,1/2+z
loop_
_atom_site_type_symbol
_atom_site_label
_atom_site_fract_x
_atom_site_fract_y
_atom_site_fract_z
Si Si1 0.942928 0.612271 0.539717
Si Si2 0.399787 0.946036 0.423177
Si Si3 0.097194 0.166269 0.299721
Si Si4 0.547904 0.815206 0.874601
Si Si5 0.615954 0.326278 0.769270
Si Si6 0.274811 0.009749 0.736933
Si Si7 0.224008 0.660052 0.734892
O O1 0.918204 0.715047 0.369571
O O2 0.940976 0.716893 0.660990
O O3 0.866045 0.457699 0.408859
O O4 0.042695 0.516863 0.706749
O O5 0.476048 0.819590 0.630267
O O6 0.403384 0.874922 0.296283
O O7 0.289901 0.918770 0.253844
O O8 0.425854 0.132073 0.519913
O O9 0.206487 0.136808 0.537883
O O10 0.477510 0.899032 0.842384
O O11 0.649340 0.899289 0.036325
O O12 0.654813 0.419925 0.725628
O O13 0.703743 0.342689 0.021215
O O14 0.211945 0.861178 0.681033
#
# Coordination Sequence:
#
# PCOD9243215 Si02
#       7
#     4   4   4   4   4   4   4
#     4  11  24  48  73 105 141 176 226 279 340 409
#     4  10  21  36  57  88 125 173 228 277 336 402
#     4  11  25  46  73 103 139 180 220 282 340 405
#     4  11  21  36  57  87 127 172 228 281 331 404
#     4  10  20  37  58  87 123 178 219 282 337 395
#     4  11  22  40  61  93 129 178 220 278 343 398
#     4  10  21  41  64  90 134 173 221 280 341 403
#
# _framework density 22.807162000000002
#
# number of rings (size 3 to 8) (size 9 to 14) (size 15 to 20)
#    0.000    1.429    1.429    5.143    0.000    1.714 
#   10.286    0.000    0.000    0.000    0.000    0.000 
#    0.000    0.000    0.000    0.000    0.000    0.000 
#
# Total GULP energy -156087.537371 kJ/mol
# GULP energy per Si atom -5574.554906 kJ/mol
# Density = 2.275525 g / cm^3
# Si number density = 22.807162 Si / 1000 Ang^3
#
#
#
# Elastic Constant Matrix: (Units=GPa)
#
#
# Indices 1 2 3 4 5 6 
#
# 1 68.0475 11.5570 19.0882 0.0000 -9.3200 0.0000
# 2 11.5570 27.8884 6.1131 0.0000 -2.6681 0.0000
# 3 19.0882 6.1131 89.2909 0.0000 11.4358 0.0000
# 4 0.0000 0.0000 0.0000 13.3361 0.0000 -1.7295
# 5 -9.3200 -2.6681 11.4358 0.0000 23.5115 0.0000
# 6 0.0000 0.0000 0.0000 -1.7295 0.0000 28.1636
#
#
#
# Elastic Compliance Matrix: (Units=1/GPa)
#
#
# Indices 1 2 3 4 5 6 
#
# 1 0.018161 -0.005671 -0.004622 0.000000 0.008803 0.000000
# 2 -0.005671 0.038904 -0.001844 0.000000 0.003064 0.000000
# 3 -0.004622 -0.001844 0.013410 0.000000 -0.008564 0.000000
# 4 0.000000 0.000000 0.000000 0.075586 0.000000 0.004642
# 5 0.008803 0.003064 -0.008564 0.000000 0.050535 0.000000
# 6 0.000000 0.000000 0.000000 0.004642 0.000000 0.035792
#
#
# Mechanical properties :
#
#
# Convention : Reuss Voigt Hill
#
# Bulk Modulus (GPa) = 21.64318 28.74923 25.19621
# Shear Modulus (GPa) = 18.37816 22.90014 20.63915
#
# Velocity S-wave (km/s) = 2.84175 3.17215 3.01149
# Velocity P-wave (km/s) = 4.50307 5.10387 4.81285
#
# Compressibility (1/GPa) = 0.04620393
#
# Stress axis : x y z
#
# Youngs Moduli (GPa) = 55.06346 25.70404 74.56916
#
# Poissons Ratio (x) = 0.14576 0.34463
# Poissons Ratio (y) = 0.31224 0.13748
# Poissons Ratio (z) = 0.25448 0.04739
#
# Static dielectric constant tensor:
#      x y z
#    x 1.905410 0.000000 -0.038820 
#    y 0.000000 1.969120 0.000000 
#    z -0.038820 0.000000 1.823190 
# 
# From -- ./inp_files/36145.got.cif
#   From: 2010.05.17/outbox.cif.g08.bks.cpg/sg14_19_cif.got.tgz:36145.got - 2010.06.03 17:49:19.
