data_PCOD9243593
_publ_section_title
;
Structure prediction by ZEFSAII (Michael W. Deem and Ramdas Pophale) SiO2 
 PCOD9243593
Probable space group: P 21/C
;
_chemical_formula_sum "Si O2"
_cell_formula_units_Z 32
_cell_length_a 12.188598
_cell_length_b 12.353772
_cell_length_c 14.708517
_cell_angle_alpha 90.000000
_cell_angle_beta 140.483640
_cell_angle_gamma 90.000000
_cell_volume 1409.234075
_symmetry_space_group_name_H-M "P 21/C"
_symmetry_group_IT_number 14
_symmetry_cell_setting 'monoclinic'
loop_
_space_group_symop_operation_xyz
x,y,z
-x,1/2+y,1/2-z
-x,-y,-z
x,1/2-y,1/2+z
loop_
_atom_site_type_symbol
_atom_site_label
_atom_site_fract_x
_atom_site_fract_y
_atom_site_fract_z
Si Si1 0.385885 0.016628 0.261837
Si Si2 0.913406 0.695604 0.835582
Si Si3 0.357811 0.773853 0.975414
Si Si4 0.658004 0.758156 0.318620
Si Si5 0.782574 0.438688 0.041164
Si Si6 0.372289 0.183419 0.004652
Si Si7 0.110227 0.445423 0.728141
Si Si8 0.746574 0.028285 0.994659
O O1 0.312312 0.130323 0.177527
O O2 0.591233 0.026527 0.388965
O O3 0.286670 0.013104 0.293684
O O4 0.320202 0.931774 0.146036
O O5 0.810493 0.679401 0.864301
O O6 0.787912 0.675852 0.668254
O O7 0.939134 0.825440 0.838833
O O8 0.079579 0.618064 0.937263
O O9 0.493629 0.775136 0.147019
O O10 0.466602 0.782470 0.953505
O O11 0.244822 0.878459 0.924547
O O12 0.253682 0.663307 0.914721
O O13 0.643148 0.762761 0.418036
O O14 0.858636 0.538891 0.145287
O O15 0.383890 0.061538 0.050370
O O16 0.939262 0.515163 0.600720
#
# Coordination Sequence:
#
# PCOD9243593 Si02
#       8
#     4   4   4   4   4   4   4   4
#     4   9  21  36  57  88 120 158 202 257 301 361
#     4  10  20  38  61  85 124 158 201 250 306 357
#     4  10  21  36  60  88 122 161 200 253 311 363
#     4   8  19  37  58  83 118 159 199 253 299 355
#     4  11  21  39  59  91 123 161 203 254 308 359
#     4  10  20  39  60  88 120 162 202 251 305 370
#     4  11  21  37  62  88 121 162 205 251 306 363
#     4  11  20  36  60  88 121 159 204 247 307 367
#
# _framework density 22.707370999999998
#
# number of rings (size 3 to 8) (size 9 to 14) (size 15 to 20)
#    0.000    2.000    2.500    1.875    0.000    2.000 
#    0.000    3.750    0.000    2.250    0.000    0.000 
#    0.000    0.000    0.000    0.000    0.000    0.000 
#
# Total GULP energy -178226.338370 kJ/mol
# GULP energy per Si atom -5569.573074 kJ/mol
# Density = 2.265569 g / cm^3
# Si number density = 22.707371 Si / 1000 Ang^3
#
#
#
# Elastic Constant Matrix: (Units=GPa)
#
#
# Indices 1 2 3 4 5 6 
#
# 1 125.0136 20.4873 32.8570 0.0000 -1.0419 0.0000
# 2 20.4873 32.3273 -0.9437 0.0000 -4.4170 0.0000
# 3 32.8570 -0.9437 76.6698 0.0000 6.7916 0.0000
# 4 0.0000 0.0000 0.0000 23.6703 0.0000 5.0130
# 5 -1.0419 -4.4170 6.7916 0.0000 27.3830 0.0000
# 6 0.0000 0.0000 0.0000 5.0130 0.0000 15.5482
#
#
#
# Elastic Compliance Matrix: (Units=1/GPa)
#
#
# Indices 1 2 3 4 5 6 
#
# 1 0.010269 -0.006579 -0.004522 0.000000 0.000451 0.000000
# 2 -0.006579 0.035845 0.002833 0.000000 0.004829 0.000000
# 3 -0.004522 0.002833 0.015327 0.000000 -0.003517 0.000000
# 4 0.000000 0.000000 0.000000 0.045343 0.000000 -0.014619
# 5 0.000451 0.004829 -0.003517 0.000000 0.038187 0.000000
# 6 0.000000 0.000000 0.000000 -0.014619 0.000000 0.069030
#
#
# Mechanical properties :
#
#
# Convention : Reuss Voigt Hill
#
# Bulk Modulus (GPa) = 22.26859 37.64577 29.95718
# Shear Modulus (GPa) = 20.36605 25.42763 22.89684
#
# Velocity S-wave (km/s) = 2.99806 3.34997 3.17889
# Velocity P-wave (km/s) = 4.67039 5.61940 5.16673
#
# Compressibility (1/GPa) = 0.04490630
#
# Stress axis : x y z
#
# Youngs Moduli (GPa) = 97.37581 27.89764 65.24345
#
# Poissons Ratio (x) = 0.18353 0.29503
# Poissons Ratio (y) = 0.64060 -0.18481
# Poissons Ratio (z) = 0.44033 -0.07903
#
# Static dielectric constant tensor:
#      x y z
#    x 1.887070 0.000000 -0.002380 
#    y 0.000000 1.938770 0.000000 
#    z -0.002380 0.000000 1.892200 
# 
# From -- ./inp_files/45111.got.cif
#   From: 2010.05.17/outbox.cif.g08.bks.cpg/sg14_23_cif.got.tgz:45111.got - 2010.06.03 17:49:19.
