data_PCOD9243372
_publ_section_title
;
Structure prediction by ZEFSAII (Michael W. Deem and Ramdas Pophale) SiO2 
 PCOD9243372
Probable space group: P 21/C
;
_chemical_formula_sum "Si O2"
_cell_formula_units_Z 24
_cell_length_a 9.198706
_cell_length_b 24.655758
_cell_length_c 5.052428
_cell_angle_alpha 90.000000
_cell_angle_beta 73.892258
_cell_angle_gamma 90.000000
_cell_volume 1100.910110
_symmetry_space_group_name_H-M "P 21/C"
_symmetry_group_IT_number 14
_symmetry_cell_setting 'monoclinic'
loop_
_space_group_symop_operation_xyz
x,y,z
-x,1/2+y,1/2-z
-x,-y,-z
x,1/2-y,1/2+z
loop_
_atom_site_type_symbol
_atom_site_label
_atom_site_fract_x
_atom_site_fract_y
_atom_site_fract_z
Si Si1 0.580951 0.371864 0.037546
Si Si2 0.130819 0.345703 0.576012
Si Si3 0.191275 0.789082 0.830606
Si Si4 0.392431 0.989090 0.306962
Si Si5 0.565296 0.716148 0.543736
Si Si6 0.753688 0.905339 0.478551
O O1 0.650380 0.426454 0.130129
O O2 0.532034 0.333806 0.305335
O O3 0.696144 0.338224 0.800313
O O4 0.422426 0.385930 0.966496
O O5 0.262649 0.301014 0.490995
O O6 0.155394 0.370721 0.852987
O O7 0.973660 0.316391 0.606043
O O8 0.170004 0.392425 0.341470
O O9 0.208059 0.741827 0.600563
O O10 0.500000 0.000000 0.500000
O O11 0.260306 0.033234 0.407853
O O12 0.500000 0.000000 0.000000
O O13 0.537651 0.734849 0.261123
#
# Coordination Sequence:
#
# PCOD9243372 Si02
#       6
#     4   4   4   4   4   4
#     4  10  23  39  62  91 122 156 198 251 304 358
#     4  11  22  40  61  85 119 160 203 248 297 355
#     4  12  26  43  60  89 128 165 197 246 309 361
#     4  10  20  37  62  92 122 153 195 252 310 354
#     4  11  20  33  54  81 108 148 198 239 277 344
#     4  10  21  40  65  90 115 156 208 250 292 358
#
# _framework density 21.800145000000001
#
# number of rings (size 3 to 8) (size 9 to 14) (size 15 to 20)
#    0.000    1.333    0.000    8.000    0.000    6.667 
#    0.000    1.667    0.000    0.000    0.000    0.000 
#    0.000    0.000    0.000    0.000    0.000    0.000 
#
# Total GULP energy -134229.697018 kJ/mol
# GULP energy per Si atom -5592.904042 kJ/mol
# Density = 2.175053 g / cm^3
# Si number density = 21.800145 Si / 1000 Ang^3
#
#
#
# Elastic Constant Matrix: (Units=GPa)
#
#
# Indices 1 2 3 4 5 6 
#
# 1 62.7810 23.9905 15.7750 0.0000 -12.8620 0.0000
# 2 23.9905 135.6440 19.1204 0.0000 -9.3362 0.0000
# 3 15.7750 19.1204 94.6867 0.0000 16.5606 0.0000
# 4 0.0000 0.0000 0.0000 12.4179 0.0000 -3.3154
# 5 -12.8620 -9.3362 16.5606 0.0000 36.4897 0.0000
# 6 0.0000 0.0000 0.0000 -3.3154 0.0000 24.6502
#
#
#
# Elastic Compliance Matrix: (Units=1/GPa)
#
#
# Indices 1 2 3 4 5 6 
#
# 1 0.019555 -0.002296 -0.004233 0.000000 0.008226 0.000000
# 2 -0.002296 0.008144 -0.001613 0.000000 0.002007 0.000000
# 3 -0.004233 -0.001613 0.012953 0.000000 -0.007784 0.000000
# 4 0.000000 0.000000 0.000000 0.083528 0.000000 0.011234
# 5 0.008226 0.002007 -0.007784 0.000000 0.034351 0.000000
# 6 0.000000 0.000000 0.000000 0.011234 0.000000 0.042079
#
#
# Mechanical properties :
#
#
# Convention : Reuss Voigt Hill
#
# Bulk Modulus (GPa) = 41.03663 45.65375 43.34519
# Shear Modulus (GPa) = 22.22073 30.32662 26.27368
#
# Velocity S-wave (km/s) = 3.19610 3.73382 3.47537
# Velocity P-wave (km/s) = 5.69956 6.29094 6.00254
#
# Compressibility (1/GPa) = 0.02436847
#
# Stress axis : x y z
#
# Youngs Moduli (GPa) = 51.13878 122.79405 77.19958
#
# Poissons Ratio (x) = 0.28188 0.32679
# Poissons Ratio (y) = 0.11739 0.12452
# Poissons Ratio (z) = 0.21648 0.19806
#
# Static dielectric constant tensor:
#      x y z
#    x 1.790620 0.000000 -0.009290 
#    y 0.000000 1.867210 0.000000 
#    z -0.009290 0.000000 1.785670 
# 
# From -- ./inp_files/1612.got.cif
#   From: 2010.05.17/outbox.cif.g08.bks.cpg/sg14_1_cif.got.tgz:1612.got - 2010.06.03 17:49:19.
