data_PCOD9243281
_publ_section_title
;
Structure prediction by ZEFSAII (Michael W. Deem and Ramdas Pophale) SiO2 
 PCOD9243281
Probable space group: P 21/C
;
_chemical_formula_sum "Si O2"
_cell_formula_units_Z 32
_cell_length_a 10.033162
_cell_length_b 9.203987
_cell_length_c 17.464375
_cell_angle_alpha 90.000000
_cell_angle_beta 62.446178
_cell_angle_gamma 90.000000
_cell_volume 1429.825958
_symmetry_space_group_name_H-M "P 21/C"
_symmetry_group_IT_number 14
_symmetry_cell_setting 'monoclinic'
loop_
_space_group_symop_operation_xyz
x,y,z
-x,1/2+y,1/2-z
-x,-y,-z
x,1/2-y,1/2+z
loop_
_atom_site_type_symbol
_atom_site_label
_atom_site_fract_x
_atom_site_fract_y
_atom_site_fract_z
Si Si1 0.257856 0.571600 0.781232
Si Si2 0.555861 0.328926 0.827099
Si Si3 0.024343 0.680333 0.319060
Si Si4 0.767980 0.723581 0.285915
Si Si5 0.713949 0.531857 0.686171
Si Si6 0.226539 0.090939 0.447334
Si Si7 0.670085 0.986019 0.423555
Si Si8 0.128202 0.389908 0.493000
O O1 0.389289 0.686403 0.729608
O O2 0.105905 0.665234 0.807540
O O3 0.287368 0.438424 0.715685
O O4 0.234818 0.514945 0.873591
O O5 0.568934 0.455191 0.759711
O O6 0.389543 0.328729 0.904491
O O7 0.671096 0.379646 0.863735
O O8 0.150114 0.564250 0.312298
O O9 0.942679 0.694919 0.259695
O O10 0.886508 0.633614 0.412508
O O11 0.737345 0.810443 0.215931
O O12 0.700354 0.837567 0.366862
O O13 0.731867 0.541421 0.590417
O O14 0.221614 0.013977 0.531599
O O15 0.108846 0.222321 0.470779
O O16 0.500000 0.000000 0.500000
O O17 0.000000 0.500000 0.500000
#
# Coordination Sequence:
#
# PCOD9243281 Si02
#       8
#     4   4   4   4   4   4   4   4
#     4  11  24  38  62  99 117 155 215 257 302 370
#     4   9  22  40  63  89 127 157 207 250 310 370
#     4  10  21  38  56  85 123 155 201 248 310 361
#     4  11  19  37  61  83 119 159 201 247 306 358
#     4   9  19  37  56  85 118 160 195 248 297 367
#     4  11  21  39  64  88 124 166 204 256 311 363
#     4   9  20  40  63  84 123 168 199 244 311 372
#     4  10  20  37  60  85 124 162 204 252 307 364
#
# _framework density 22.380345999999999
#
# number of rings (size 3 to 8) (size 9 to 14) (size 15 to 20)
#    0.000    2.000    2.500    0.750    1.750    1.500 
#    0.000    7.500    0.000    0.000    0.000    0.000 
#    0.000    0.000    0.000    0.000    0.000    0.000 
#
# Total GULP energy -178155.482900 kJ/mol
# GULP energy per Si atom -5567.358841 kJ/mol
# Density = 2.232941 g / cm^3
# Si number density = 22.380346 Si / 1000 Ang^3
#
#
#
# Elastic Constant Matrix: (Units=GPa)
#
#
# Indices 1 2 3 4 5 6 
#
# 1 56.2597 32.9922 -1.0924 0.0000 10.1531 0.0000
# 2 32.9922 124.3274 2.8609 0.0000 12.7233 0.0000
# 3 -1.0924 2.8609 62.7616 0.0000 2.6373 0.0000
# 4 0.0000 0.0000 0.0000 34.0636 0.0000 -0.3941
# 5 10.1531 12.7233 2.6373 0.0000 21.7962 0.0000
# 6 0.0000 0.0000 0.0000 -0.3941 0.0000 34.5009
#
#
#
# Elastic Compliance Matrix: (Units=1/GPa)
#
#
# Indices 1 2 3 4 5 6 
#
# 1 0.022147 -0.005138 0.000932 0.000000 -0.007430 0.000000
# 2 -0.005138 0.009748 -0.000397 0.000000 -0.003249 0.000000
# 3 0.000932 -0.000397 0.016058 0.000000 -0.002145 0.000000
# 4 0.000000 0.000000 0.000000 0.029361 0.000000 0.000335
# 5 -0.007430 -0.003249 -0.002145 0.000000 0.051497 0.000000
# 6 0.000000 0.000000 0.000000 0.000335 0.000000 0.028989
#
#
# Mechanical properties :
#
#
# Convention : Reuss Voigt Hill
#
# Bulk Modulus (GPa) = 25.80907 34.76334 30.28620
# Shear Modulus (GPa) = 27.78992 31.97799 29.88396
#
# Velocity S-wave (km/s) = 3.52761 3.78410 3.65811
# Velocity P-wave (km/s) = 5.30558 5.88721 5.60395
#
# Compressibility (1/GPa) = 0.03874608
#
# Stress axis : x y z
#
# Youngs Moduli (GPa) = 45.15323 102.58106 62.27507
#
# Poissons Ratio (x) = 0.52707 -0.05803
# Poissons Ratio (y) = 0.23200 0.02474
# Poissons Ratio (z) = -0.04208 0.04075
#
# Static dielectric constant tensor:
#      x y z
#    x 1.867330 0.000000 -0.035510 
#    y 0.000000 1.834470 0.000000 
#    z -0.035510 0.000000 1.917630 
# 
# From -- ./inp_files/66866.got.cif
#   From: 2010.05.17/outbox.cif.g08.bks.cpg/sg14_34_cif.got.tgz:66866.got - 2010.06.03 17:49:19.
