data_PCOD9243194
_publ_section_title
;
Structure prediction by ZEFSAII (Michael W. Deem and Ramdas Pophale) SiO2 
 PCOD9243194
Probable space group: P 21/C
;
_chemical_formula_sum "Si O2"
_cell_formula_units_Z 24
_cell_length_a 17.825063
_cell_length_b 10.734821
_cell_length_c 7.685627
_cell_angle_alpha 90.000000
_cell_angle_beta 130.504605
_cell_angle_gamma 90.000000
_cell_volume 1118.203597
_symmetry_space_group_name_H-M "P 21/C"
_symmetry_group_IT_number 14
_symmetry_cell_setting 'monoclinic'
loop_
_space_group_symop_operation_xyz
x,y,z
-x,1/2+y,1/2-z
-x,-y,-z
x,1/2-y,1/2+z
loop_
_atom_site_type_symbol
_atom_site_label
_atom_site_fract_x
_atom_site_fract_y
_atom_site_fract_z
Si Si1 0.671666 0.896198 0.024296
Si Si2 0.915992 0.148261 0.501269
Si Si3 0.554534 0.399672 0.463702
Si Si4 0.106589 0.569434 0.655420
Si Si5 0.451698 0.192069 0.473541
Si Si6 0.865779 0.943041 0.139924
O O1 0.594133 0.887011 0.748938
O O2 0.657796 0.036480 0.074476
O O3 0.632011 0.793082 0.098415
O O4 0.778939 0.873710 0.110207
O O5 0.866105 0.091501 0.601197
O O6 0.896197 0.292186 0.430752
O O7 0.890725 0.064314 0.295530
O O8 0.033720 0.135401 0.712781
O O9 0.500000 0.500000 0.500000
O O10 0.547280 0.268579 0.550211
O O11 0.485982 0.380574 0.192912
O O12 0.164780 0.485895 0.600934
O O13 0.000000 0.500000 0.500000
#
# Coordination Sequence:
#
# PCOD9243194 Si02
#       6
#     4   4   4   4   4   4
#     4  10  20  37  57  89 114 144 197 234 282 345
#     4  10  20  39  59  78 122 154 194 239 292 348
#     4   9  18  36  59  81 115 148 183 229 294 347
#     4  10  20  37  59  81 109 158 194 232 296 347
#     4   9  19  37  59  83 115 151 183 237 287 347
#     4  10  22  38  57  88 113 156 198 243 286 337
#
# _framework density 21.462997000000001
#
# number of rings (size 3 to 8) (size 9 to 14) (size 15 to 20)
#    0.000    2.333    1.667    0.500    0.000    2.667 
#   12.000    0.000    0.000    0.000    0.000    0.000 
#    0.000    0.000    0.000    0.000    0.000    0.000 
#
# Total GULP energy -133804.600590 kJ/mol
# GULP energy per Si atom -5575.191691 kJ/mol
# Density = 2.141415 g / cm^3
# Si number density = 21.462997 Si / 1000 Ang^3
#
#
#
# Elastic Constant Matrix: (Units=GPa)
#
#
# Indices 1 2 3 4 5 6 
#
# 1 87.8836 4.8549 11.0532 0.0000 -7.0169 0.0000
# 2 4.8549 36.7654 7.4547 0.0000 0.5746 0.0000
# 3 11.0532 7.4547 41.7820 0.0000 -18.5918 0.0000
# 4 0.0000 0.0000 0.0000 -0.8280 0.0000 -11.7018
# 5 -7.0169 0.5746 -18.5918 0.0000 31.2333 0.0000
# 6 0.0000 0.0000 0.0000 -11.7018 0.0000 27.9928
#
#
#
# Elastic Compliance Matrix: (Units=1/GPa)
#
#
# Indices 1 2 3 4 5 6 
#
# 1 0.011839 -0.001103 -0.002371 0.000000 0.001269 0.000000
# 2 -0.001103 0.028858 -0.007079 0.000000 -0.004992 0.000000
# 3 -0.002371 -0.007079 0.034885 0.000000 0.020363 0.000000
# 4 0.000000 0.000000 0.000000 -0.174834 0.000000 -0.073086
# 5 0.001269 -0.004992 0.020363 0.000000 0.044515 0.000000
# 6 0.000000 0.000000 0.000000 -0.073086 0.000000 0.005171
#
#
# Mechanical properties :
#
#
# Convention : Reuss Voigt Hill
#
# Bulk Modulus (GPa) = 18.35577 23.68407 21.01992
# Shear Modulus (GPa) = -485.30232 21.21751 -232.04241
#
# Velocity S-wave (km/s) = -15.05331 3.14755 -10.40901
# Velocity P-wave (km/s) = 17.13374 4.92628 11.60381
#
# Compressibility (1/GPa) = 0.05447878
#
# Stress axis : x y z
#
# Youngs Moduli (GPa) = 84.46619 34.65203 28.66586
#
# Poissons Ratio (x) = 0.03820 0.06796
# Poissons Ratio (y) = 0.09313 0.20291
# Poissons Ratio (z) = 0.20024 0.24529
#
# Static dielectric constant tensor:
#      x y z
#    x 1.825320 0.000000 -0.012640 
#    y 0.000000 1.786680 0.000000 
#    z -0.012640 0.000000 1.754070 
# 
# From -- ./inp_files/17786.got.cif
#   From: 2010.05.17/outbox.cif.g08.bks.cpg/sg14_9_cif.got.tgz:17786.got - 2010.06.03 17:49:19.
