data_PCOD9243277
_publ_section_title
;
Structure prediction by ZEFSAII (Michael W. Deem and Ramdas Pophale) SiO2 
 PCOD9243277
Probable space group: P 21/C
;
_chemical_formula_sum "Si O2"
_cell_formula_units_Z 32
_cell_length_a 6.962994
_cell_length_b 15.233435
_cell_length_c 21.678568
_cell_angle_alpha 90.000000
_cell_angle_beta 50.571057
_cell_angle_gamma 90.000000
_cell_volume 1776.126690
_symmetry_space_group_name_H-M "P 21/C"
_symmetry_group_IT_number 14
_symmetry_cell_setting 'monoclinic'
loop_
_space_group_symop_operation_xyz
x,y,z
-x,1/2+y,1/2-z
-x,-y,-z
x,1/2-y,1/2+z
loop_
_atom_site_type_symbol
_atom_site_label
_atom_site_fract_x
_atom_site_fract_y
_atom_site_fract_z
Si Si1 0.439387 0.734034 0.922059
Si Si2 0.853685 0.519267 0.592258
Si Si3 0.704128 0.799132 0.651982
Si Si4 0.990445 0.602735 0.987309
Si Si5 0.697274 0.161484 0.171898
Si Si6 0.852971 0.180801 0.907228
Si Si7 0.027103 0.326895 0.145122
Si Si8 0.379322 0.867816 0.176115
O O1 0.410831 0.799773 0.870102
O O2 0.714113 0.696932 0.875464
O O3 0.346750 0.785397 0.001937
O O4 0.249244 0.653649 0.948180
O O5 0.836783 0.429261 0.632931
O O6 0.573692 0.552418 0.635865
O O7 0.000000 0.500000 0.500000
O O8 0.000338 0.596489 0.596821
O O9 0.795663 0.852421 0.573940
O O10 0.526815 0.850814 0.734450
O O11 0.543516 0.716074 0.662451
O O12 0.943654 0.758882 0.638019
O O13 0.000000 0.500000 0.000000
O O14 0.930276 0.622417 0.928009
O O15 0.886112 0.236077 0.157241
O O16 0.733137 0.154571 0.867282
O O17 0.840850 0.377772 0.229091
#
# Coordination Sequence:
#
# PCOD9243277 Si02
#       8
#     4   4   4   4   4   4   4   4
#     4  10  20  37  63  83 113 154 192 235 284 348
#     4  11  23  37  58  90 120 150 190 236 292 345
#     4   9  20  39  59  81 111 153 195 230 287 341
#     4  10  22  38  61  84 115 151 190 241 287 334
#     4  10  21  38  59  84 116 153 189 237 286 346
#     4  10  20  37  60  84 116 152 190 236 285 341
#     4  10  22  39  60  86 113 153 198 233 287 342
#     4  10  22  38  59  84 116 151 191 239 280 341
#
# _framework density 18.016734
#
# number of rings (size 3 to 8) (size 9 to 14) (size 15 to 20)
#    0.000    2.000    1.250    1.500    5.250    3.000 
#    0.000    0.000    0.000    0.000    0.000    0.000 
#    0.000    0.000    0.000    0.000    0.000    0.000 
#
# Total GULP energy -178614.787237 kJ/mol
# GULP energy per Si atom -5581.712101 kJ/mol
# Density = 1.797573 g / cm^3
# Si number density = 18.016734 Si / 1000 Ang^3
#
#
#
# Elastic Constant Matrix: (Units=GPa)
#
#
# Indices 1 2 3 4 5 6 
#
# 1 53.3708 -5.9651 18.7831 0.0000 -2.3911 0.0000
# 2 -5.9651 59.6265 25.5222 0.0000 -7.1354 0.0000
# 3 18.7831 25.5222 117.2862 0.0000 -12.3169 0.0000
# 4 0.0000 0.0000 0.0000 25.5979 0.0000 -4.6933
# 5 -2.3911 -7.1354 -12.3169 0.0000 26.7428 0.0000
# 6 0.0000 0.0000 0.0000 -4.6933 0.0000 10.3560
#
#
#
# Elastic Compliance Matrix: (Units=1/GPa)
#
#
# Indices 1 2 3 4 5 6 
#
# 1 0.020648 0.003923 -0.004053 0.000000 0.001026 0.000000
# 2 0.003923 0.019510 -0.004508 0.000000 0.003480 0.000000
# 3 -0.004053 -0.004508 0.010500 0.000000 0.003271 0.000000
# 4 0.000000 0.000000 0.000000 0.042606 0.000000 0.019309
# 5 0.001026 0.003480 0.003271 0.000000 0.039920 0.000000
# 6 0.000000 0.000000 0.000000 0.019309 0.000000 0.105313
#
#
# Mechanical properties :
#
#
# Convention : Reuss Voigt Hill
#
# Bulk Modulus (GPa) = 24.16548 34.10710 29.13629
# Shear Modulus (GPa) = 19.11569 25.33557 22.22563
#
# Velocity S-wave (km/s) = 3.26083 3.75403 3.51609
# Velocity P-wave (km/s) = 5.25540 6.14510 5.71758
#
# Compressibility (1/GPa) = 0.04138134
#
# Stress axis : x y z
#
# Youngs Moduli (GPa) = 48.43197 51.25671 95.24136
#
# Poissons Ratio (x) = -0.20108 0.38597
# Poissons Ratio (y) = -0.19000 0.42937
# Poissons Ratio (z) = 0.19627 0.23108
#
# Static dielectric constant tensor:
#      x y z
#    x 1.595640 0.000000 -0.003640 
#    y 0.000000 1.588940 0.000000 
#    z -0.003640 0.000000 1.613000 
# 
# From -- ./inp_files/63753.got.cif
#   From: 2010.05.17/outbox.cif.g08.bks.cpg/sg14_32_cif.got.tgz:63753.got - 2010.06.03 17:49:19.
