data_PCOD9243258
_publ_section_title
;
Structure prediction by ZEFSAII (Michael W. Deem and Ramdas Pophale) SiO2 
 PCOD9243258
Probable space group: P 21/C
;
_chemical_formula_sum "Si O2"
_cell_formula_units_Z 28
_cell_length_a 12.536365
_cell_length_b 19.301809
_cell_length_c 5.474489
_cell_angle_alpha 90.000000
_cell_angle_beta 83.122163
_cell_angle_gamma 90.000000
_cell_volume 1315.154070
_symmetry_space_group_name_H-M "P 21/C"
_symmetry_group_IT_number 14
_symmetry_cell_setting 'monoclinic'
loop_
_space_group_symop_operation_xyz
x,y,z
-x,1/2+y,1/2-z
-x,-y,-z
x,1/2-y,1/2+z
loop_
_atom_site_type_symbol
_atom_site_label
_atom_site_fract_x
_atom_site_fract_y
_atom_site_fract_z
Si Si1 0.545530 0.710339 0.231063
Si Si2 0.839012 0.546042 0.622080
Si Si3 0.629478 0.584085 0.443538
Si Si4 0.772100 0.413700 0.910027
Si Si5 0.557781 0.451719 0.185282
Si Si6 0.049321 0.944690 0.297324
Si Si7 0.288158 0.789960 0.848135
O O1 0.573515 0.753106 0.469032
O O2 0.605774 0.637126 0.234934
O O3 0.417048 0.699707 0.293798
O O4 0.746154 0.590892 0.526927
O O5 0.783469 0.494606 0.834169
O O6 0.886486 0.491229 0.414371
O O7 0.942664 0.585707 0.699469
O O8 0.612368 0.504914 0.361378
O O9 0.533209 0.593859 0.662977
O O10 0.771449 0.362759 0.680514
O O11 0.654648 0.406100 0.058808
O O12 0.868140 0.398837 0.071263
O O13 0.500000 0.500000 0.000000
O O14 0.000000 0.000000 0.500000
O O15 0.261639 0.743692 0.615820
#
# Coordination Sequence:
#
# PCOD9243258 Si02
#       7
#     4   4   4   4   4   4   4
#     4  10  24  41  58  82 122 174 211 240 286 362
#     4  10  20  37  59  89 117 153 197 251 317 361
#     4  11  23  35  58  88 123 155 201 246 305 368
#     4  11  21  35  61  85 125 157 196 254 308 371
#     4  11  22  33  53  93 122 151 185 251 319 360
#     4   9  20  37  57  86 116 152 194 241 316 368
#     4  10  24  39  58  85 122 168 211 244 295 361
#
# _framework density 21.290281
#
# number of rings (size 3 to 8) (size 9 to 14) (size 15 to 20)
#    0.000    1.714    2.857    0.857   12.000    0.000 
#    0.000    0.000    0.000    1.714    0.000    0.000 
#    0.000    0.000    0.000    0.000    0.000    0.000 
#
# Total GULP energy -156472.418070 kJ/mol
# GULP energy per Si atom -5588.300645 kJ/mol
# Density = 2.124182 g / cm^3
# Si number density = 21.290281 Si / 1000 Ang^3
#
#
#
# Elastic Constant Matrix: (Units=GPa)
#
#
# Indices 1 2 3 4 5 6 
#
# 1 111.0098 21.3367 40.7762 0.0000 20.6791 0.0000
# 2 21.3367 54.4578 15.5850 0.0000 17.6176 0.0000
# 3 40.7762 15.5850 80.9472 0.0000 17.6856 0.0000
# 4 0.0000 0.0000 0.0000 43.6620 0.0000 15.7621
# 5 20.6791 17.6176 17.6856 0.0000 36.7653 0.0000
# 6 0.0000 0.0000 0.0000 15.7621 0.0000 19.3280
#
#
#
# Elastic Compliance Matrix: (Units=1/GPa)
#
#
# Indices 1 2 3 4 5 6 
#
# 1 0.011806 -0.002189 -0.004810 0.000000 -0.003278 0.000000
# 2 -0.002189 0.022472 -0.001274 0.000000 -0.008924 0.000000
# 3 -0.004810 -0.001274 0.015977 0.000000 -0.004370 0.000000
# 4 0.000000 0.000000 0.000000 0.032459 0.000000 -0.026471
# 5 -0.003278 -0.008924 -0.004370 0.000000 0.035422 0.000000
# 6 0.000000 0.000000 0.000000 -0.026471 0.000000 0.073326
#
#
# Mechanical properties :
#
#
# Convention : Reuss Voigt Hill
#
# Bulk Modulus (GPa) = 29.66504 44.64561 37.15533
# Shear Modulus (GPa) = 22.80568 31.19885 27.00227
#
# Velocity S-wave (km/s) = 3.27644 3.83221 3.56517
# Velocity P-wave (km/s) = 5.31763 6.37155 5.86830
#
# Compressibility (1/GPa) = 0.03370971
#
# Stress axis : x y z
#
# Youngs Moduli (GPa) = 84.70098 44.49944 62.59178
#
# Poissons Ratio (x) = 0.09740 0.30104
# Poissons Ratio (y) = 0.18539 0.07976
# Poissons Ratio (z) = 0.40738 0.05670
#
# Static dielectric constant tensor:
#      x y z
#    x 1.766600 0.000000 0.010670 
#    y 0.000000 1.773520 0.000000 
#    z 0.010670 0.000000 1.873010 
# 
# From -- ./inp_files/2864.got.cif
#   From: 2010.05.17/outbox.cif.g08.bks.cpg/sg14_2_cif.got.tgz:2864.got - 2010.06.03 17:49:19.
