data_PCOD9243659
_publ_section_title
;
Structure prediction by ZEFSAII (Michael W. Deem and Ramdas Pophale) SiO2 
 PCOD9243659
Probable space group: P 21/C
;
_chemical_formula_sum "Si O2"
_cell_formula_units_Z 26
_cell_length_a 7.389387
_cell_length_b 5.820123
_cell_length_c 25.260864
_cell_angle_alpha 90.000000
_cell_angle_beta 123.879989
_cell_angle_gamma 90.000000
_cell_volume 901.934881
_symmetry_space_group_name_H-M "P 21/C"
_symmetry_group_IT_number 14
_symmetry_cell_setting 'monoclinic'
loop_
_space_group_symop_operation_xyz
x,y,z
-x,1/2+y,1/2-z
-x,-y,-z
x,1/2-y,1/2+z
loop_
_atom_site_type_symbol
_atom_site_label
_atom_site_fract_x
_atom_site_fract_y
_atom_site_fract_z
Si Si1 0.317648 0.408752 0.514715
Si Si2 0.062547 0.716448 0.915816
Si Si3 0.526773 0.543665 0.178619
Si Si4 0.997842 0.518049 0.695043
Si Si5 0.000000 0.500000 0.000000
Si Si6 0.684690 0.845361 0.591754
Si Si7 0.473430 0.540566 0.334894
O O1 0.149689 0.621691 0.477512
O O2 0.176390 0.184490 0.506485
O O3 0.386845 0.338723 0.464481
O O4 0.441308 0.455433 0.590344
O O5 0.273518 0.583463 0.929703
O O6 0.915951 0.538650 0.923667
O O7 0.986382 0.851341 0.852937
O O8 0.536916 0.588592 0.117001
O O9 0.454962 0.281257 0.178970
O O10 0.780047 0.517165 0.238236
O O11 0.455329 0.805287 0.183385
O O12 0.912995 0.753195 0.653561
O O13 0.789511 0.462426 0.698900
#
# Coordination Sequence:
#
# PCOD9243659 Si02
#       7
#     4   4   4   4   2   4   4
#     4  10  23  39  61  91 123 160 216 264 333 373
#     4  10  20  38  62  91 117 169 208 264 318 378
#     4  11  23  37  59  92 135 171 204 245 313 393
#     4  10  21  37  58  91 129 171 206 248 315 392
#     4  10  22  42  64  84 120 160 218 272 318 374
#     4   9  20  34  57  87 127 162 202 249 311 381
#     4  11  23  37  61  94 131 166 203 263 315 391
#
# _framework density 28.826913999999999
#
# number of rings (size 3 to 8) (size 9 to 14) (size 15 to 20)
#    0.000    1.846    1.538    2.308    6.462    6.154 
#    0.000    0.000    0.000    1.846    0.000    0.000 
#    0.000    0.000    0.000    0.000    0.000    0.000 
#
# Total GULP energy -144846.170125 kJ/mol
# GULP energy per Si atom -5571.006543 kJ/mol
# Density = 2.876130 g / cm^3
# Si number density = 28.826914 Si / 1000 Ang^3
#
#
#
# Elastic Constant Matrix: (Units=GPa)
#
#
# Indices 1 2 3 4 5 6 
#
# 1 29.9084 -8.0023 16.5431 0.0000 -5.4949 0.0000
# 2 -8.0023 167.6608 68.2804 0.0000 23.8744 0.0000
# 3 16.5431 68.2804 103.7203 0.0000 -12.6722 0.0000
# 4 0.0000 0.0000 0.0000 28.8430 0.0000 11.0590
# 5 -5.4949 23.8744 -12.6722 0.0000 41.9013 0.0000
# 6 0.0000 0.0000 0.0000 11.0590 0.0000 13.0381
#
#
#
# Elastic Compliance Matrix: (Units=1/GPa)
#
#
# Indices 1 2 3 4 5 6 
#
# 1 0.041166 0.006842 -0.011304 0.000000 -0.001919 0.000000
# 2 0.006842 0.011447 -0.009672 0.000000 -0.008550 0.000000
# 3 -0.011304 -0.009672 0.019006 0.000000 0.009776 0.000000
# 4 0.000000 0.000000 0.000000 0.051380 0.000000 -0.043581
# 5 -0.001919 -0.008550 0.009776 0.000000 0.031442 0.000000
# 6 0.000000 0.000000 0.000000 -0.043581 0.000000 0.113664
#
#
# Mechanical properties :
#
#
# Convention : Reuss Voigt Hill
#
# Bulk Modulus (GPa) = 23.06773 50.54798 36.80785
# Shear Modulus (GPa) = 16.08621 31.72102 23.90362
#
# Velocity S-wave (km/s) = 2.36482 3.32082 2.88273
# Velocity P-wave (km/s) = 3.93396 5.68127 4.88635
#
# Compressibility (1/GPa) = 0.04335060
#
# Stress axis : x y z
#
# Youngs Moduli (GPa) = 24.29179 87.35600 52.61534
#
# Poissons Ratio (x) = -0.59767 0.59478
# Poissons Ratio (y) = -0.16620 0.50889
# Poissons Ratio (z) = 0.27460 0.84490
#
# Static dielectric constant tensor:
#      x y z
#    x 2.502380 0.000000 -0.000390 
#    y 0.000000 2.705870 0.000000 
#    z -0.000390 0.000000 2.220090 
# 
# From -- ./inp_files/66180.got.cif
#   From: 2010.05.17/outbox.cif.g08.bks.cpg/sg14_34_cif.got.tgz:66180.got - 2010.06.03 17:49:19.
