data_PCOD9243359
_publ_section_title
;
Structure prediction by ZEFSAII (Michael W. Deem and Ramdas Pophale) SiO2 
 PCOD9243359
Probable space group: P 21/C
;
_chemical_formula_sum "Si O2"
_cell_formula_units_Z 24
_cell_length_a 20.627590
_cell_length_b 4.825897
_cell_length_c 17.470241
_cell_angle_alpha 90.000000
_cell_angle_beta 147.683214
_cell_angle_gamma 90.000000
_cell_volume 929.724681
_symmetry_space_group_name_H-M "P 21/C"
_symmetry_group_IT_number 14
_symmetry_cell_setting 'monoclinic'
loop_
_space_group_symop_operation_xyz
x,y,z
-x,1/2+y,1/2-z
-x,-y,-z
x,1/2-y,1/2+z
loop_
_atom_site_type_symbol
_atom_site_label
_atom_site_fract_x
_atom_site_fract_y
_atom_site_fract_z
Si Si1 0.943979 0.864029 0.229479
Si Si2 0.716098 0.934213 0.439528
Si Si3 0.533529 0.908353 0.135108
Si Si4 0.225388 0.298401 0.214259
Si Si5 0.369863 0.441891 0.986800
Si Si6 0.871813 0.264592 0.467092
O O1 0.027042 0.686239 0.252384
O O2 0.996867 0.759306 0.362908
O O3 0.811022 0.787969 0.068104
O O4 0.603134 0.807721 0.281181
O O5 0.666669 0.066135 0.467754
O O6 0.783782 0.133034 0.445660
O O7 0.642178 0.897641 0.182983
O O8 0.434345 0.691539 0.008174
O O9 0.468454 0.195893 0.089562
O O10 0.255117 0.171031 0.325794
O O11 0.141858 0.564679 0.119589
O O12 0.171890 0.064207 0.103779
#
# Coordination Sequence:
#
# PCOD9243359 Si02
#       6
#     4   4   4   4   4   4
#     4  10  20  37  62  88 112 148 196 243 291 347
#     4  10  23  39  61  89 117 150 196 249 289 335
#     4  11  22  38  58  84 119 160 194 233 285 349
#     4  11  22  40  61  86 119 159 195 233 287 355
#     4  12  24  38  58  89 121 154 195 242 288 338
#     4  10  21  40  63  86 114 155 197 238 289 352
#
# _framework density 25.814094999999998
#
# number of rings (size 3 to 8) (size 9 to 14) (size 15 to 20)
#    0.000    1.333    0.000    8.000    0.000    6.667 
#    0.000    1.667    0.000    0.000    0.000    0.000 
#    0.000    0.000    0.000    0.000    0.000    0.000 
#
# Total GULP energy -134300.017014 kJ/mol
# GULP energy per Si atom -5595.834042 kJ/mol
# Density = 2.575534 g / cm^3
# Si number density = 25.814095 Si / 1000 Ang^3
#
#
#
# Elastic Constant Matrix: (Units=GPa)
#
#
# Indices 1 2 3 4 5 6 
#
# 1 60.2480 -0.5198 30.5085 0.0000 3.5838 0.0000
# 2 -0.5198 110.3587 28.3510 0.0000 8.7383 0.0000
# 3 30.5085 28.3510 146.0914 0.0000 -14.5795 0.0000
# 4 0.0000 0.0000 0.0000 49.1660 0.0000 -8.5813
# 5 3.5838 8.7383 -14.5795 0.0000 32.3033 0.0000
# 6 0.0000 0.0000 0.0000 -8.5813 0.0000 8.0736
#
#
#
# Elastic Compliance Matrix: (Units=1/GPa)
#
#
# Indices 1 2 3 4 5 6 
#
# 1 0.019357 0.001719 -0.004855 0.000000 -0.004804 0.000000
# 2 0.001719 0.010101 -0.002734 0.000000 -0.004157 0.000000
# 3 -0.004855 -0.002734 0.008919 0.000000 0.005304 0.000000
# 4 0.000000 0.000000 0.000000 0.024972 0.000000 0.026542
# 5 -0.004804 -0.004157 0.005304 0.000000 0.035008 0.000000
# 6 0.000000 0.000000 0.000000 0.026542 0.000000 0.152073
#
#
# Mechanical properties :
#
#
# Convention : Reuss Voigt Hill
#
# Bulk Modulus (GPa) = 37.54307 48.15305 42.84806
# Shear Modulus (GPa) = 18.44681 35.13247 26.78964
#
# Velocity S-wave (km/s) = 2.67610 3.69315 3.22497
# Velocity P-wave (km/s) = 4.91161 6.07290 5.52286
#
# Compressibility (1/GPa) = 0.02663607
#
# Stress axis : x y z
#
# Youngs Moduli (GPa) = 51.65994 99.00016 112.12195
#
# Poissons Ratio (x) = -0.17017 0.54440
# Poissons Ratio (y) = -0.08880 0.30655
# Poissons Ratio (z) = 0.25083 0.27067
#
# Static dielectric constant tensor:
#      x y z
#    x 2.076270 0.000000 -0.008320 
#    y 0.000000 1.979470 0.000000 
#    z -0.008320 0.000000 2.069790 
# 
# From -- ./inp_files/61613.got.cif
#   From: 2010.05.17/outbox.cif.g08.bks.cpg/sg14_31_cif.got.tgz:61613.got - 2010.06.03 17:49:19.
