data_PCOD9243307
_publ_section_title
;
Structure prediction by ZEFSAII (Michael W. Deem and Ramdas Pophale) SiO2 
 PCOD9243307
Probable space group: P 21/C
;
_chemical_formula_sum "Si O2"
_cell_formula_units_Z 30
_cell_length_a 13.005557
_cell_length_b 21.976093
_cell_length_c 13.834649
_cell_angle_alpha 90.000000
_cell_angle_beta 159.367743
_cell_angle_gamma 90.000000
_cell_volume 1393.300424
_symmetry_space_group_name_H-M "P 21/C"
_symmetry_group_IT_number 14
_symmetry_cell_setting 'monoclinic'
loop_
_space_group_symop_operation_xyz
x,y,z
-x,1/2+y,1/2-z
-x,-y,-z
x,1/2-y,1/2+z
loop_
_atom_site_type_symbol
_atom_site_label
_atom_site_fract_x
_atom_site_fract_y
_atom_site_fract_z
Si Si1 0.591875 0.087654 0.314010
Si Si2 0.500000 0.500000 0.500000
Si Si3 0.682875 0.268762 0.172145
Si Si4 0.085231 0.007885 0.794410
Si Si5 0.140424 0.377160 0.915676
Si Si6 0.331679 0.299668 0.691956
Si Si7 0.294948 0.630222 0.298379
Si Si8 0.694596 0.306310 0.404216
O O1 0.397162 0.137828 0.194417
O O2 0.723228 0.116442 0.331636
O O3 0.854319 0.061259 0.607776
O O4 0.396646 0.029238 0.110676
O O5 0.832882 0.504258 0.746926
O O6 0.490153 0.574425 0.507618
O O7 0.586175 0.198208 0.084211
O O8 0.720390 0.287577 0.315939
O O9 0.996310 0.279890 0.397853
O O10 0.445637 0.305275 0.901998
O O11 0.951271 0.943359 0.704274
O O12 0.997074 0.370138 0.895111
O O13 0.992774 0.325862 0.717930
O O14 0.480889 0.364525 0.221771
O O15 0.531030 0.247769 0.817348
#
# Coordination Sequence:
#
# PCOD9243307 Si02
#       8
#     4   2   4   4   4   4   4   4
#     4  11  23  40  64  93 131 164 214 252 320 375
#     4   8  20  34  56  92 130 160 204 238 320 376
#     4  12  25  41  64  94 130 163 211 259 318 361
#     4  10  22  39  62  92 126 172 203 262 310 380
#     4  11  23  40  65  92 130 161 212 251 317 374
#     4  12  24  42  64  93 125 169 208 260 312 374
#     4  10  20  37  60  95 128 168 196 257 304 390
#     4  12  23  42  63  93 124 167 206 258 310 374
#
# _framework density 21.531609
#
# number of rings (size 3 to 8) (size 9 to 14) (size 15 to 20)
#    0.000    1.067    4.000    2.400    0.000   10.133 
#    0.000    0.000    0.000   16.000    0.000    0.000 
#    0.000    0.000    0.000    0.000    0.000    0.000 
#
# Total GULP energy -167145.154373 kJ/mol
# GULP energy per Si atom -5571.505146 kJ/mol
# Density = 2.148260 g / cm^3
# Si number density = 21.531609 Si / 1000 Ang^3
#
#
#
# Elastic Constant Matrix: (Units=GPa)
#
#
# Indices 1 2 3 4 5 6 
#
# 1 68.3227 25.1539 4.1223 0.0000 -5.3261 0.0000
# 2 25.1539 75.1170 -11.6935 0.0000 3.8335 0.0000
# 3 4.1223 -11.6935 57.4550 0.0000 -4.6862 0.0000
# 4 0.0000 0.0000 0.0000 27.0272 0.0000 8.9817
# 5 -5.3261 3.8335 -4.6862 0.0000 18.2624 0.0000
# 6 0.0000 0.0000 0.0000 8.9817 0.0000 23.4061
#
#
#
# Elastic Compliance Matrix: (Units=1/GPa)
#
#
# Indices 1 2 3 4 5 6 
#
# 1 0.017637 -0.006539 -0.002109 0.000000 0.005975 0.000000
# 2 -0.006539 0.016261 0.003416 0.000000 -0.004444 0.000000
# 3 -0.002109 0.003416 0.018531 0.000000 0.003423 0.000000
# 4 0.000000 0.000000 0.000000 0.042408 0.000000 -0.016273
# 5 0.005975 -0.004444 0.003423 0.000000 0.058311 0.000000
# 6 0.000000 0.000000 0.000000 -0.016273 0.000000 0.048968
#
#
# Mechanical properties :
#
#
# Convention : Reuss Voigt Hill
#
# Bulk Modulus (GPa) = 23.82959 26.22892 25.02926
# Shear Modulus (GPa) = 22.06845 25.95996 24.01421
#
# Velocity S-wave (km/s) = 3.20493 3.47604 3.34323
# Velocity P-wave (km/s) = 4.97863 5.32151 5.15292
#
# Compressibility (1/GPa) = 0.04196463
#
# Stress axis : x y z
#
# Youngs Moduli (GPa) = 56.69912 61.49725 53.96454
#
# Poissons Ratio (x) = 0.40214 0.11381
# Poissons Ratio (y) = 0.37077 -0.18435
# Poissons Ratio (z) = 0.11957 -0.21009
#
# Static dielectric constant tensor:
#      x y z
#    x 1.812360 0.000000 -0.048880 
#    y 0.000000 1.792770 0.000000 
#    z -0.048880 0.000000 1.784280 
# 
# From -- ./inp_files/47622.got.cif
#   From: 2010.05.17/outbox.cif.g08.bks.cpg/sg14_24_cif.got.tgz:47622.got - 2010.06.03 17:49:19.
