data_PCOD9243379
_publ_section_title
;
Structure prediction by ZEFSAII (Michael W. Deem and Ramdas Pophale) SiO2 
 PCOD9243379
Probable space group: P 21/C
;
_chemical_formula_sum "Si O2"
_cell_formula_units_Z 24
_cell_length_a 7.432295
_cell_length_b 12.926877
_cell_length_c 16.735533
_cell_angle_alpha 90.000000
_cell_angle_beta 50.285364
_cell_angle_gamma 90.000000
_cell_volume 1236.846794
_symmetry_space_group_name_H-M "P 21/C"
_symmetry_group_IT_number 14
_symmetry_cell_setting 'monoclinic'
loop_
_space_group_symop_operation_xyz
x,y,z
-x,1/2+y,1/2-z
-x,-y,-z
x,1/2-y,1/2+z
loop_
_atom_site_type_symbol
_atom_site_label
_atom_site_fract_x
_atom_site_fract_y
_atom_site_fract_z
Si Si1 0.769867 0.986763 0.325322
Si Si2 0.858858 0.250598 0.576574
Si Si3 0.623970 0.339881 0.993433
Si Si4 0.616342 0.717851 0.575589
Si Si5 0.514320 0.104342 0.263881
Si Si6 0.761213 0.423487 0.235875
O O1 0.577538 0.899829 0.400361
O O2 0.028247 0.942514 0.262405
O O3 0.737820 0.076217 0.401463
O O4 0.700976 0.035727 0.260456
O O5 0.806314 0.206673 0.503924
O O6 0.652363 0.328091 0.660169
O O7 0.850723 0.155882 0.642305
O O8 0.110631 0.304060 0.511012
O O9 0.501093 0.253717 0.973699
O O10 0.595952 0.817060 0.640439
O O11 0.461368 0.628512 0.658587
O O12 0.322901 0.029268 0.280693
#
# Coordination Sequence:
#
# PCOD9243379 Si02
#       6
#     4   4   4   4   4   4
#     4  10  20  37  63  87 116 151 204 248 288 346
#     4  11  22  39  61  86 125 153 200 248 292 356
#     4  10  20  37  63  88 112 155 200 249 294 337
#     4  10  23  39  59  91 120 155 199 245 299 350
#     4  10  23  39  59  92 116 159 201 240 298 354
#     4  11  22  39  61  86 123 158 195 248 300 349
#
# _framework density 19.404181000000001
#
# number of rings (size 3 to 8) (size 9 to 14) (size 15 to 20)
#    0.000    1.667    3.333    1.000    0.000    4.667 
#    3.000    1.667    0.000    0.000    0.000    0.000 
#    0.000    0.000    0.000    0.000    0.000    0.000 
#
# Total GULP energy -134114.211479 kJ/mol
# GULP energy per Si atom -5588.092145 kJ/mol
# Density = 1.936002 g / cm^3
# Si number density = 19.404181 Si / 1000 Ang^3
#
#
#
# Elastic Constant Matrix: (Units=GPa)
#
#
# Indices 1 2 3 4 5 6 
#
# 1 65.4496 -3.1844 -0.4578 0.0000 -11.6766 0.0000
# 2 -3.1844 25.0533 -7.6169 0.0000 -2.1434 0.0000
# 3 -0.4578 -7.6169 28.7579 0.0000 -8.7745 0.0000
# 4 0.0000 0.0000 0.0000 1.9492 0.0000 -1.1631
# 5 -11.6766 -2.1434 -8.7745 0.0000 27.4048 0.0000
# 6 0.0000 0.0000 0.0000 -1.1631 0.0000 24.7664
#
#
#
# Elastic Compliance Matrix: (Units=1/GPa)
#
#
# Indices 1 2 3 4 5 6 
#
# 1 0.017104 0.004186 0.004106 0.000000 0.008930 0.000000
# 2 0.004186 0.046011 0.015400 0.000000 0.010313 0.000000
# 3 0.004106 0.015400 0.044130 0.000000 0.017083 0.000000
# 4 0.000000 0.000000 0.000000 0.527811 0.000000 0.024788
# 5 0.008930 0.010313 0.017083 0.000000 0.046571 0.000000
# 6 0.000000 0.000000 0.000000 0.024788 0.000000 0.041541
#
#
# Mechanical properties :
#
#
# Convention : Reuss Voigt Hill
#
# Bulk Modulus (GPa) = 6.46707 10.74918 8.60813
# Shear Modulus (GPa) = 6.87447 19.52542 13.19994
#
# Velocity S-wave (km/s) = 1.88427 3.17558 2.61101
# Velocity P-wave (km/s) = 2.84148 4.35860 3.67909
#
# Compressibility (1/GPa) = 0.15462952
#
# Stress axis : x y z
#
# Youngs Moduli (GPa) = 58.46423 21.73378 22.66048
#
# Poissons Ratio (x) = -0.09098 -0.09304
# Poissons Ratio (y) = -0.24475 -0.34897
# Poissons Ratio (z) = -0.24004 -0.33470
#
# Static dielectric constant tensor:
#      x y z
#    x 1.646900 0.000000 0.000080 
#    y 0.000000 1.677020 0.000000 
#    z 0.000080 0.000000 1.662890 
# 
# From -- ./inp_files/32683.got.cif
#   From: 2010.05.17/outbox.cif.g08.bks.cpg/sg14_17_cif.got.tgz:32683.got - 2010.06.03 17:49:19.
