data_PCOD9243524
_publ_section_title
;
Structure prediction by ZEFSAII (Michael W. Deem and Ramdas Pophale) SiO2 
 PCOD9243524
Probable space group: P 21/C
;
_chemical_formula_sum "Si O2"
_cell_formula_units_Z 24
_cell_length_a 10.536576
_cell_length_b 20.257364
_cell_length_c 10.034872
_cell_angle_alpha 90.000000
_cell_angle_beta 36.921912
_cell_angle_gamma 90.000000
_cell_volume 1286.680471
_symmetry_space_group_name_H-M "P 21/C"
_symmetry_group_IT_number 14
_symmetry_cell_setting 'monoclinic'
loop_
_space_group_symop_operation_xyz
x,y,z
-x,1/2+y,1/2-z
-x,-y,-z
x,1/2-y,1/2+z
loop_
_atom_site_type_symbol
_atom_site_label
_atom_site_fract_x
_atom_site_fract_y
_atom_site_fract_z
Si Si1 0.277151 0.178301 0.480941
Si Si2 0.057082 0.710000 0.228759
Si Si3 0.502240 0.135452 0.027558
Si Si4 0.059774 0.927585 0.284919
Si Si5 0.088680 0.076101 0.281962
Si Si6 0.318774 0.763287 0.765259
O O1 0.359986 0.168300 0.261462
O O2 0.488493 0.185270 0.389567
O O3 0.154966 0.247015 0.595819
O O4 0.108355 0.119974 0.646706
O O5 0.149307 0.712820 0.299653
O O6 0.010724 0.637043 0.214271
O O7 0.216342 0.747881 0.994472
O O8 0.340744 0.088001 0.084954
O O9 0.700582 0.098039 0.926671
O O10 0.594362 0.193138 0.859186
O O11 0.005327 0.923152 0.488894
O O12 0.043445 0.004117 0.260601
#
# Coordination Sequence:
#
# PCOD9243524 Si02
#       6
#     4   4   4   4   4   4
#     4  11  22  37  59  86 120 158 195 245 305 350
#     4  12  23  39  60  90 122 153 203 250 299 359
#     4  11  19  37  61  90 117 153 200 249 297 346
#     4  10  20  38  59  89 125 158 198 250 300 356
#     4  10  21  35  61  91 121 159 202 247 300 355
#     4  12  22  36  60  91 117 154 198 249 299 352
#
# _framework density 18.652650000000001
#
# number of rings (size 3 to 8) (size 9 to 14) (size 15 to 20)
#    0.000    1.000    6.667    1.500    0.000    0.000 
#    0.000    0.833    0.000    4.000    0.000    0.000 
#    0.000    0.000    0.000    0.000    0.000    0.000 
#
# Total GULP energy -133985.638463 kJ/mol
# GULP energy per Si atom -5582.734936 kJ/mol
# Density = 1.861020 g / cm^3
# Si number density = 18.652650 Si / 1000 Ang^3
#
#
#
# Elastic Constant Matrix: (Units=GPa)
#
#
# Indices 1 2 3 4 5 6 
#
# 1 43.4011 14.3405 -8.4655 0.0000 -16.6793 0.0000
# 2 14.3405 115.3844 13.2138 0.0000 -8.8112 0.0000
# 3 -8.4655 13.2138 45.0115 0.0000 -14.9328 0.0000
# 4 0.0000 0.0000 0.0000 16.6115 0.0000 -7.2337
# 5 -16.6793 -8.8112 -14.9328 0.0000 25.6248 0.0000
# 6 0.0000 0.0000 0.0000 -7.2337 0.0000 33.2389
#
#
#
# Elastic Compliance Matrix: (Units=1/GPa)
#
#
# Indices 1 2 3 4 5 6 
#
# 1 0.045478 -0.005204 0.023935 0.000000 0.041760 0.000000
# 2 -0.005204 0.009641 -0.004752 0.000000 -0.002841 0.000000
# 3 0.023935 -0.004752 0.040586 0.000000 0.037597 0.000000
# 4 0.000000 0.000000 0.000000 0.066502 0.000000 0.014473
# 5 0.041760 -0.002841 0.037597 0.000000 0.087139 0.000000
# 6 0.000000 0.000000 0.000000 0.014473 0.000000 0.033235
#
#
# Mechanical properties :
#
#
# Convention : Reuss Voigt Hill
#
# Bulk Modulus (GPa) = 8.08653 26.88608 17.48631
# Shear Modulus (GPa) = 16.90092 27.40894 22.15493
#
# Velocity S-wave (km/s) = 3.01339 3.83749 3.45013
# Velocity P-wave (km/s) = 4.05612 5.83785 5.02656
#
# Compressibility (1/GPa) = 0.12366241
#
# Stress axis : x y z
#
# Youngs Moduli (GPa) = 21.98884 103.72740 24.63912
#
# Poissons Ratio (x) = 0.53982 -0.58974
# Poissons Ratio (y) = 0.11444 0.11708
# Poissons Ratio (z) = -0.52630 0.49287
#
# Static dielectric constant tensor:
#      x y z
#    x 1.634490 0.000000 -0.017590 
#    y 0.000000 1.640320 0.000000 
#    z -0.017590 0.000000 1.663030 
# 
# From -- ./inp_files/10127.got.cif
#   From: 2010.05.17/outbox.cif.g08.bks.cpg/sg14_6_cif.got.tgz:10127.got - 2010.06.03 17:49:19.
