data_PCOD9243170
_publ_section_title
;
Structure prediction by ZEFSAII (Michael W. Deem and Ramdas Pophale) SiO2 
 PCOD9243170
Probable space group: P 21/C
;
_chemical_formula_sum "Si O2"
_cell_formula_units_Z 28
_cell_length_a 31.973408
_cell_length_b 8.524520
_cell_length_c 11.260051
_cell_angle_alpha 90.000000
_cell_angle_beta 158.328658
_cell_angle_gamma 90.000000
_cell_volume 1133.332487
_symmetry_space_group_name_H-M "P 21/C"
_symmetry_group_IT_number 14
_symmetry_cell_setting 'monoclinic'
loop_
_space_group_symop_operation_xyz
x,y,z
-x,1/2+y,1/2-z
-x,-y,-z
x,1/2-y,1/2+z
loop_
_atom_site_type_symbol
_atom_site_label
_atom_site_fract_x
_atom_site_fract_y
_atom_site_fract_z
Si Si1 0.924016 0.974402 0.956256
Si Si2 0.152131 0.049907 0.973706
Si Si3 0.361373 0.447663 0.710365
Si Si4 0.727224 0.730172 0.854159
Si Si5 0.056773 0.749721 0.659325
Si Si6 0.507721 0.527346 0.328290
Si Si7 0.561796 0.258050 0.647194
O O1 0.822038 0.902417 0.609255
O O2 0.938554 0.150271 0.948672
O O3 0.887127 0.958915 0.994261
O O4 0.032638 0.872334 0.202299
O O5 0.054180 0.140317 0.641933
O O6 0.158136 0.871367 0.944785
O O7 0.258687 0.158485 0.223037
O O8 0.259842 0.345231 0.496178
O O9 0.345627 0.618679 0.611580
O O10 0.433987 0.484472 0.020710
O O11 0.443862 0.338846 0.849999
O O12 0.610411 0.639616 0.561587
O O13 0.558023 0.371822 0.523869
O O14 0.436137 0.624919 0.236127
#
# Coordination Sequence:
#
# PCOD9243170 Si02
#       7
#     4   4   4   4   4   4   4
#     4  10  20  38  61  86 120 151 185 239 284 337
#     4  10  20  37  62  87 119 154 182 234 290 338
#     4  10  20  37  56  79 111 148 192 241 288 341
#     4  10  23  36  54  87 115 144 200 244 281 344
#     4   9  20  38  61  91 117 151 196 220 277 362
#     4  10  20  37  56  79 112 149 191 241 289 340
#     4   9  19  33  56  77  98 146 192 226 283 342
#
# _framework density 24.705898000000001
#
# number of rings (size 3 to 8) (size 9 to 14) (size 15 to 20)
#    0.000    2.286    0.000    2.571    0.000    8.000 
#    0.000    2.857    0.000    0.000    0.000    0.000 
#    0.000    0.000    0.000    0.000    0.000    0.000 
#
# Total GULP energy -156564.420012 kJ/mol
# GULP energy per Si atom -5591.586429 kJ/mol
# Density = 2.464967 g / cm^3
# Si number density = 24.705898 Si / 1000 Ang^3
#
#
#
# Elastic Constant Matrix: (Units=GPa)
#
#
# Indices 1 2 3 4 5 6 
#
# 1 94.7226 33.6561 -7.7453 0.0000 2.1517 0.0000
# 2 33.6561 153.9572 19.6402 0.0000 3.4702 0.0000
# 3 -7.7453 19.6402 32.1766 0.0000 6.8205 0.0000
# 4 0.0000 0.0000 0.0000 18.0954 0.0000 0.6776
# 5 2.1517 3.4702 6.8205 0.0000 21.7409 0.0000
# 6 0.0000 0.0000 0.0000 0.6776 0.0000 49.5916
#
#
#
# Elastic Compliance Matrix: (Units=1/GPa)
#
#
# Indices 1 2 3 4 5 6 
#
# 1 0.012240 -0.003321 0.005482 0.000000 -0.002401 0.000000
# 2 -0.003321 0.007946 -0.005839 0.000000 0.000892 0.000000
# 3 0.005482 -0.005839 0.038435 0.000000 -0.011668 0.000000
# 4 0.000000 0.000000 0.000000 0.055291 0.000000 -0.000755
# 5 -0.002401 0.000892 -0.011668 0.000000 0.049752 0.000000
# 6 0.000000 0.000000 0.000000 -0.000755 0.000000 0.020175
#
#
# Mechanical properties :
#
#
# Convention : Reuss Voigt Hill
#
# Bulk Modulus (GPa) = 19.50582 41.32871 30.41727
# Shear Modulus (GPa) = 24.00584 33.57261 28.78923
#
# Velocity S-wave (km/s) = 3.12053 3.69031 3.41732
# Velocity P-wave (km/s) = 4.57121 5.90952 5.28292
#
# Compressibility (1/GPa) = 0.05126674
#
# Stress axis : x y z
#
# Youngs Moduli (GPa) = 81.69960 125.84913 26.01778
#
# Poissons Ratio (x) = 0.41794 -0.14264
# Poissons Ratio (y) = 0.27132 0.15191
# Poissons Ratio (z) = -0.44791 0.73479
#
# Static dielectric constant tensor:
#      x y z
#    x 1.985110 0.000000 0.042020 
#    y 0.000000 2.013730 0.000000 
#    z 0.042020 0.000000 1.985580 
# 
# From -- ./inp_files/36395.got.cif
#   From: 2010.05.17/outbox.cif.g08.bks.cpg/sg14_19_cif.got.tgz:36395.got - 2010.06.03 17:49:19.
