data_PCOD9243791
_publ_section_title
;
Structure prediction by ZEFSAII (Michael W. Deem and Ramdas Pophale) SiO2 
 PCOD9243791
Probable space group: P 21/C
;
_chemical_formula_sum "Si O2"
_cell_formula_units_Z 24
_cell_length_a 12.126938
_cell_length_b 9.415765
_cell_length_c 14.872805
_cell_angle_alpha 90.000000
_cell_angle_beta 149.214389
_cell_angle_gamma 90.000000
_cell_volume 869.206484
_symmetry_space_group_name_H-M "P 21/C"
_symmetry_group_IT_number 14
_symmetry_cell_setting 'monoclinic'
loop_
_space_group_symop_operation_xyz
x,y,z
-x,1/2+y,1/2-z
-x,-y,-z
x,1/2-y,1/2+z
loop_
_atom_site_type_symbol
_atom_site_label
_atom_site_fract_x
_atom_site_fract_y
_atom_site_fract_z
Si Si1 0.061329 0.769157 0.905337
Si Si2 0.346494 0.120805 0.565298
Si Si3 0.587531 0.160253 0.482980
Si Si4 0.269941 0.784395 0.733697
Si Si5 0.896732 0.013302 0.201728
Si Si6 0.592298 0.580312 0.683947
O O1 0.926675 0.646468 0.758450
O O2 0.035984 0.930736 0.852498
O O3 0.287223 0.717561 0.017444
O O4 0.100362 0.761015 0.039034
O O5 0.489436 0.256418 0.639327
O O6 0.406903 0.078787 0.708257
O O7 0.428843 0.004161 0.550255
O O8 0.087122 0.108270 0.382370
O O9 0.720100 0.202007 0.664846
O O10 0.374512 0.258508 0.329623
O O11 0.247182 0.953942 0.729713
O O12 0.641382 0.040638 0.019533
#
# Coordination Sequence:
#
# PCOD9243791 Si02
#       6
#     4   4   4   4   4   4
#     4  10  21  40  59  89 120 160 201 249 298 355
#     4  11  20  40  65  88 119 164 198 247 304 352
#     4  10  22  37  62  93 119 158 205 243 298 367
#     4  12  21  39  65  88 125 160 200 248 304 354
#     4  10  20  38  66  84 118 160 200 242 300 356
#     4  11  20  40  65  88 119 164 198 247 304 352
#
# _framework density 27.611391000000001
#
# number of rings (size 3 to 8) (size 9 to 14) (size 15 to 20)
#    0.000    1.333    6.667    2.000    0.000    0.000 
#    0.000    6.667   14.667    0.000    0.000    0.000 
#    0.000    0.000    0.000    0.000    0.000    0.000 
#
# Total GULP energy -133888.898130 kJ/mol
# GULP energy per Si atom -5578.704089 kJ/mol
# Density = 2.754855 g / cm^3
# Si number density = 27.611391 Si / 1000 Ang^3
#
#
#
# Elastic Constant Matrix: (Units=GPa)
#
#
# Indices 1 2 3 4 5 6 
#
# 1 65.1853 36.3935 55.2767 0.0000 -12.2137 0.0000
# 2 36.3935 103.8518 20.6090 0.0000 -1.0800 0.0000
# 3 55.2767 20.6090 198.0811 0.0000 -27.8564 0.0000
# 4 0.0000 0.0000 0.0000 38.2719 0.0000 10.3150
# 5 -12.2137 -1.0800 -27.8564 0.0000 67.9124 0.0000
# 6 0.0000 0.0000 0.0000 10.3150 0.0000 27.9232
#
#
#
# Elastic Compliance Matrix: (Units=1/GPa)
#
#
# Indices 1 2 3 4 5 6 
#
# 1 0.024913 -0.007541 -0.005895 0.000000 0.001943 0.000000
# 2 -0.007541 0.012119 0.000721 0.000000 -0.000868 0.000000
# 3 -0.005895 0.000721 0.006867 0.000000 0.001768 0.000000
# 4 0.000000 0.000000 0.000000 0.029018 0.000000 -0.010719
# 5 0.001943 -0.000868 0.001768 0.000000 0.015786 0.000000
# 6 0.000000 0.000000 0.000000 -0.010719 0.000000 0.039772
#
#
# Mechanical properties :
#
#
# Convention : Reuss Voigt Hill
#
# Bulk Modulus (GPa) = 54.13562 65.74185 59.93874
# Shear Modulus (GPa) = 31.23806 43.81076 37.52441
#
# Velocity S-wave (km/s) = 3.36720 3.98765 3.69049
# Velocity P-wave (km/s) = 5.89629 6.71291 6.31781
#
# Compressibility (1/GPa) = 0.01847213
#
# Stress axis : x y z
#
# Youngs Moduli (GPa) = 40.13889 82.51201 145.62428
#
# Poissons Ratio (x) = 0.62219 0.85840
# Poissons Ratio (y) = 0.30267 -0.10505
# Poissons Ratio (z) = 0.23660 -0.05952
#
# Static dielectric constant tensor:
#      x y z
#    x 2.313480 0.000000 0.041620 
#    y 0.000000 2.308670 0.000000 
#    z 0.041620 0.000000 2.082380 
# 
# From -- ./inp_files/47006.got.cif
#   From: 2010.05.17/outbox.cif.g08.bks.cpg/sg14_24_cif.got.tgz:47006.got - 2010.06.03 17:49:19.
