data_PCOD9243560
_publ_section_title
;
Structure prediction by ZEFSAII (Michael W. Deem and Ramdas Pophale) SiO2 
 PCOD9243560
Probable space group: P 21/C
;
_chemical_formula_sum "Si O2"
_cell_formula_units_Z 26
_cell_length_a 19.748183
_cell_length_b 9.131893
_cell_length_c 15.869164
_cell_angle_alpha 90.000000
_cell_angle_beta 157.535535
_cell_angle_gamma 90.000000
_cell_volume 1093.530310
_symmetry_space_group_name_H-M "P 21/C"
_symmetry_group_IT_number 14
_symmetry_cell_setting 'monoclinic'
loop_
_space_group_symop_operation_xyz
x,y,z
-x,1/2+y,1/2-z
-x,-y,-z
x,1/2-y,1/2+z
loop_
_atom_site_type_symbol
_atom_site_label
_atom_site_fract_x
_atom_site_fract_y
_atom_site_fract_z
Si Si1 0.841001 0.989674 0.614202
Si Si2 0.750632 0.075905 0.927854
Si Si3 0.298793 0.384023 0.316302
Si Si4 0.230841 0.772652 0.873297
Si Si5 0.295783 0.643962 0.203453
Si Si6 0.000000 0.000000 0.500000
Si Si7 0.618717 0.749414 0.265467
O O1 0.806468 0.100451 0.651627
O O2 0.817620 0.094320 0.506008
O O3 0.711594 0.854636 0.441666
O O4 0.040712 0.938119 0.844990
O O5 0.660564 0.919046 0.828010
O O6 0.691370 0.182427 0.783291
O O7 0.714549 0.155452 0.974661
O O8 0.213420 0.541991 0.183023
O O9 0.500095 0.406407 0.575309
O O10 0.148220 0.371341 0.211273
O O11 0.309107 0.288647 0.244717
O O12 0.070999 0.867983 0.652509
O O13 0.409458 0.778083 0.023851
#
# Coordination Sequence:
#
# PCOD9243560 Si02
#       7
#     4   4   4   4   4   2   4
#     4  10  20  38  60  87 121 158 203 250 301 362
#     4  11  22  38  63  91 122 161 206 254 305 368
#     4  10  21  39  63  87 121 163 202 254 311 370
#     4  11  23  38  61  90 120 162 208 253 311 372
#     4   9  19  38  60  86 118 158 200 244 305 362
#     4  12  22  38  64  90 116 160 216 256 312 372
#     4  11  22  39  61  90 126 160 201 256 313 369
#
# _framework density 23.776204
#
# number of rings (size 3 to 8) (size 9 to 14) (size 15 to 20)
#    0.000    1.538    0.000    8.308    0.000    1.846 
#    0.000    1.538    0.000    6.462    0.000    0.000 
#    0.000    0.000    0.000    0.000    0.000    0.000 
#
# Total GULP energy -144794.421268 kJ/mol
# GULP energy per Si atom -5569.016203 kJ/mol
# Density = 2.372209 g / cm^3
# Si number density = 23.776204 Si / 1000 Ang^3
#
#
#
# Elastic Constant Matrix: (Units=GPa)
#
#
# Indices 1 2 3 4 5 6 
#
# 1 50.1916 19.1799 22.9439 0.0000 18.7357 0.0000
# 2 19.1799 157.7727 38.7708 0.0000 -0.4859 0.0000
# 3 22.9439 38.7708 116.8538 0.0000 31.3254 0.0000
# 4 0.0000 0.0000 0.0000 25.9133 0.0000 -3.0132
# 5 18.7357 -0.4859 31.3254 0.0000 42.7502 0.0000
# 6 0.0000 0.0000 0.0000 -3.0132 0.0000 34.0430
#
#
#
# Elastic Compliance Matrix: (Units=1/GPa)
#
#
# Indices 1 2 3 4 5 6 
#
# 1 0.025403 -0.002793 -0.001329 0.000000 -0.010191 0.000000
# 2 -0.002793 0.007376 -0.002799 0.000000 0.003359 0.000000
# 3 -0.001329 -0.002799 0.011947 0.000000 -0.008203 0.000000
# 4 0.000000 0.000000 0.000000 0.038992 0.000000 0.003451
# 5 -0.010191 0.003359 -0.008203 0.000000 0.033907 0.000000
# 6 0.000000 0.000000 0.000000 0.003451 0.000000 0.029680
#
#
# Mechanical properties :
#
#
# Convention : Reuss Voigt Hill
#
# Bulk Modulus (GPa) = 32.38118 54.06747 43.22432
# Shear Modulus (GPa) = 29.16460 36.80286 32.98373
#
# Velocity S-wave (km/s) = 3.50613 3.93859 3.72863
# Velocity P-wave (km/s) = 5.48081 6.59339 6.06268
#
# Compressibility (1/GPa) = 0.03088214
#
# Stress axis : x y z
#
# Youngs Moduli (GPa) = 39.36616 135.57458 83.70615
#
# Poissons Ratio (x) = 0.37864 0.11127
# Poissons Ratio (y) = 0.10994 0.23433
# Poissons Ratio (z) = 0.05233 0.37953
#
# Static dielectric constant tensor:
#      x y z
#    x 2.077390 0.000000 0.057360 
#    y 0.000000 1.970530 0.000000 
#    z 0.057360 0.000000 1.994830 
# 
# From -- ./inp_files/61833.got.cif
#   From: 2010.05.17/outbox.cif.g08.bks.cpg/sg14_31_cif.got.tgz:61833.got - 2010.06.03 17:49:19.
