data_PCOD9243521
_publ_section_title
;
Structure prediction by ZEFSAII (Michael W. Deem and Ramdas Pophale) SiO2 
 PCOD9243521
Probable space group: P 21/C
;
_chemical_formula_sum "Si O2"
_cell_formula_units_Z 32
_cell_length_a 11.147504
_cell_length_b 19.422270
_cell_length_c 9.118281
_cell_angle_alpha 90.000000
_cell_angle_beta 60.099415
_cell_angle_gamma 90.000000
_cell_volume 1711.415340
_symmetry_space_group_name_H-M "P 21/C"
_symmetry_group_IT_number 14
_symmetry_cell_setting 'monoclinic'
loop_
_space_group_symop_operation_xyz
x,y,z
-x,1/2+y,1/2-z
-x,-y,-z
x,1/2-y,1/2+z
loop_
_atom_site_type_symbol
_atom_site_label
_atom_site_fract_x
_atom_site_fract_y
_atom_site_fract_z
Si Si1 0.421495 0.964897 0.329313
Si Si2 0.522968 0.795662 0.772376
Si Si3 0.070159 0.556439 0.356156
Si Si4 0.875063 0.822450 0.866148
Si Si5 0.850796 0.680892 0.039480
Si Si6 0.125203 0.024262 0.524646
Si Si7 0.379284 0.914455 0.686185
Si Si8 0.543587 0.839182 0.090220
O O1 0.399270 0.925299 0.498808
O O2 0.477615 0.911503 0.175790
O O3 0.276922 0.001549 0.374398
O O4 0.534692 0.023574 0.291986
O O5 0.685157 0.810980 0.648275
O O6 0.440427 0.844386 0.712275
O O7 0.501281 0.717044 0.738094
O O8 0.496032 0.813449 0.958614
O O9 0.105322 0.515909 0.186629
O O10 0.218248 0.581192 0.324072
O O11 0.000000 0.500000 0.500000
O O12 0.968862 0.619786 0.384181
O O13 0.903270 0.819903 0.674974
O O14 0.901398 0.747372 0.919848
O O15 0.711865 0.840979 0.985510
O O16 0.880775 0.606477 0.952695
O O17 0.000000 0.000000 0.500000
#
# Coordination Sequence:
#
# PCOD9243521 Si02
#       8
#     4   4   4   4   4   4   4   4
#     4  10  21  38  61  88 114 162 197 241 305 349
#     4  10  20  38  59  89 118 151 200 241 295 355
#     4  11  24  39  59  92 124 158 201 252 300 354
#     4  10  22  40  61  90 120 156 206 243 297 364
#     4  10  21  40  63  88 117 161 201 242 300 356
#     4  11  22  41  64  85 123 159 201 252 299 361
#     4  10  21  38  59  84 123 154 196 245 290 363
#     4  10  21  37  64  88 116 154 194 253 290 357
#
# _framework density 18.697973999999999
#
# number of rings (size 3 to 8) (size 9 to 14) (size 15 to 20)
#    0.000    1.750    2.500    1.500    1.750    2.500 
#    2.250    1.250    0.000    0.000    0.000    0.000 
#    0.000    0.000    0.000    0.000    0.000    0.000 
#
# Total GULP energy -178671.242329 kJ/mol
# GULP energy per Si atom -5583.476323 kJ/mol
# Density = 1.865542 g / cm^3
# Si number density = 18.697974 Si / 1000 Ang^3
#
#
#
# Elastic Constant Matrix: (Units=GPa)
#
#
# Indices 1 2 3 4 5 6 
#
# 1 100.6675 42.3993 18.6150 0.0000 1.8783 0.0000
# 2 42.3993 134.2001 26.7256 0.0000 -5.9885 0.0000
# 3 18.6150 26.7256 34.9796 0.0000 -3.2401 0.0000
# 4 0.0000 0.0000 0.0000 37.1403 0.0000 1.0479
# 5 1.8783 -5.9885 -3.2401 0.0000 10.4521 0.0000
# 6 0.0000 0.0000 0.0000 1.0479 0.0000 32.8389
#
#
#
# Elastic Compliance Matrix: (Units=1/GPa)
#
#
# Indices 1 2 3 4 5 6 
#
# 1 0.012226 -0.003196 -0.004569 0.000000 -0.005444 0.000000
# 2 -0.003196 0.009719 -0.005308 0.000000 0.004497 0.000000
# 3 -0.004569 -0.005308 0.035901 0.000000 0.008909 0.000000
# 4 0.000000 0.000000 0.000000 0.026949 0.000000 -0.000860
# 5 -0.005444 0.004497 0.008909 0.000000 0.101991 0.000000
# 6 0.000000 0.000000 0.000000 -0.000860 0.000000 0.030479
#
#
# Mechanical properties :
#
#
# Convention : Reuss Voigt Hill
#
# Bulk Modulus (GPa) = 31.54633 49.48078 40.51355
# Shear Modulus (GPa) = 19.68675 28.22676 23.95675
#
# Velocity S-wave (km/s) = 3.24833 3.88959 3.58334
# Velocity P-wave (km/s) = 5.56570 6.83319 6.23176
#
# Compressibility (1/GPa) = 0.03169940
#
# Stress axis : x y z
#
# Youngs Moduli (GPa) = 81.79182 102.89034 27.85464
#
# Poissons Ratio (x) = 0.32882 0.12727
# Poissons Ratio (y) = 0.26139 0.14787
# Poissons Ratio (z) = 0.37371 0.54619
#
# Static dielectric constant tensor:
#      x y z
#    x 1.642000 0.000000 -0.014240 
#    y 0.000000 1.622590 0.000000 
#    z -0.014240 0.000000 1.634090 
# 
# From -- ./inp_files/13882.got.cif
#   From: 2010.05.17/outbox.cif.g08.bks.cpg/sg14_7_cif.got.tgz:13882.got - 2010.06.03 17:49:19.
