data_PCOD9243856
_publ_section_title
;
Structure prediction by ZEFSAII (Michael W. Deem and Ramdas Pophale) SiO2 
 PCOD9243856
Probable space group: P 21/C
;
_chemical_formula_sum "Si O2"
_cell_formula_units_Z 20
_cell_length_a 32.741965
_cell_length_b 5.111888
_cell_length_c 12.091892
_cell_angle_alpha 90.000000
_cell_angle_beta 156.319152
_cell_angle_gamma 90.000000
_cell_volume 812.866273
_symmetry_space_group_name_H-M "P 21/C"
_symmetry_group_IT_number 14
_symmetry_cell_setting 'monoclinic'
loop_
_space_group_symop_operation_xyz
x,y,z
-x,1/2+y,1/2-z
-x,-y,-z
x,1/2-y,1/2+z
loop_
_atom_site_type_symbol
_atom_site_label
_atom_site_fract_x
_atom_site_fract_y
_atom_site_fract_z
Si Si1 0.509439 0.210451 0.426658
Si Si2 0.049716 0.617808 0.012602
Si Si3 0.355445 0.984151 0.887120
Si Si4 0.129199 0.123590 0.114147
Si Si5 0.308513 0.478942 0.892163
O O1 0.500000 0.000000 0.500000
O O2 0.615277 0.342406 0.654201
O O3 0.466951 0.042396 0.216619
O O4 0.421332 0.427292 0.219879
O O5 0.961147 0.623240 0.700728
O O6 0.131062 0.407000 0.172931
O O7 0.899097 0.096440 0.864692
O O8 0.000000 0.500000 0.000000
O O9 0.300435 0.259680 0.773951
O O10 0.299825 0.767112 0.822518
O O11 0.228261 0.068429 0.288729
#
# Coordination Sequence:
#
# PCOD9243856 Si02
#       5
#     4   4   4   4   4
#     4  10  21  39  62  82 123 164 197 245 306 353
#     4  10  21  40  64  88 120 161 195 240 314 365
#     4  10  20  39  56  84 122 155 199 245 289 358
#     4  10  21  39  64  88 124 154 195 257 294 354
#     4  10  20  39  58  85 124 149 201 252 287 351
#
# _framework density 24.604292000000001
#
# number of rings (size 3 to 8) (size 9 to 14) (size 15 to 20)
#    1.200    0.800    2.000    1.800    0.000    0.800 
#    3.600    0.000    0.000    0.000    0.000    0.000 
#    0.000    0.000    0.000    0.000    0.000    0.000 
#
# Total GULP energy -111742.098270 kJ/mol
# GULP energy per Si atom -5587.104913 kJ/mol
# Density = 2.454829 g / cm^3
# Si number density = 24.604292 Si / 1000 Ang^3
#
#
#
# Elastic Constant Matrix: (Units=GPa)
#
#
# Indices 1 2 3 4 5 6 
#
# 1 78.8040 -11.7778 1.3411 0.0000 17.8163 0.0000
# 2 -11.7778 96.8839 2.6568 0.0000 -5.5803 0.0000
# 3 1.3411 2.6568 50.3192 0.0000 6.2250 0.0000
# 4 0.0000 0.0000 0.0000 16.9128 0.0000 5.5384
# 5 17.8163 -5.5803 6.2250 0.0000 38.8869 0.0000
# 6 0.0000 0.0000 0.0000 5.5384 0.0000 56.9102
#
#
#
# Elastic Compliance Matrix: (Units=1/GPa)
#
#
# Indices 1 2 3 4 5 6 
#
# 1 0.014341 0.001364 0.000341 0.000000 -0.006429 0.000000
# 2 0.001364 0.010565 -0.000719 0.000000 0.001006 0.000000
# 3 0.000341 -0.000719 0.020337 0.000000 -0.003515 0.000000
# 4 0.000000 0.000000 0.000000 0.061073 0.000000 -0.005944
# 5 -0.006429 0.001006 -0.003515 0.000000 0.029368 0.000000
# 6 0.000000 0.000000 0.000000 -0.005944 0.000000 0.018150
#
#
# Mechanical properties :
#
#
# Convention : Reuss Voigt Hill
#
# Bulk Modulus (GPa) = 21.17937 23.38302 22.28119
# Shear Modulus (GPa) = 29.83279 38.12777 33.98028
#
# Velocity S-wave (km/s) = 3.48588 3.94082 3.72031
# Velocity P-wave (km/s) = 4.98282 5.49827 5.24688
#
# Compressibility (1/GPa) = 0.04721576
#
# Stress axis : x y z
#
# Youngs Moduli (GPa) = 69.72851 94.65139 49.17186
#
# Poissons Ratio (x) = -0.12908 -0.01678
# Poissons Ratio (y) = -0.09509 0.03534
# Poissons Ratio (z) = -0.02379 0.06802
#
# Static dielectric constant tensor:
#      x y z
#    x 1.981190 0.000000 -0.100780 
#    y 0.000000 1.918470 0.000000 
#    z -0.100780 0.000000 2.017810 
# 
# From -- ./inp_files/36333.got.cif
#   From: 2010.05.17/outbox.cif.g08.bks.cpg/sg14_19_cif.got.tgz:36333.got - 2010.06.03 17:49:19.
