data_PCOD9243130
_publ_section_title
;
Structure prediction by ZEFSAII (Michael W. Deem and Ramdas Pophale) SiO2 
 PCOD9243130
Probable space group: P 21/C
;
_chemical_formula_sum "Si O2"
_cell_formula_units_Z 24
_cell_length_a 7.362366
_cell_length_b 9.765733
_cell_length_c 14.872848
_cell_angle_alpha 90.000000
_cell_angle_beta 128.882405
_cell_angle_gamma 90.000000
_cell_volume 832.413808
_symmetry_space_group_name_H-M "P 21/C"
_symmetry_group_IT_number 14
_symmetry_cell_setting 'monoclinic'
loop_
_space_group_symop_operation_xyz
x,y,z
-x,1/2+y,1/2-z
-x,-y,-z
x,1/2-y,1/2+z
loop_
_atom_site_type_symbol
_atom_site_label
_atom_site_fract_x
_atom_site_fract_y
_atom_site_fract_z
Si Si1 0.764801 0.927166 0.826687
Si Si2 0.414819 0.811010 0.899538
Si Si3 0.498057 0.378104 0.911950
Si Si4 0.005477 0.443346 0.835805
Si Si5 0.916579 0.848582 0.058605
Si Si6 0.647538 0.901698 0.327500
O O1 0.648715 0.819376 0.721392
O O2 0.926681 0.867336 0.954200
O O3 0.549784 0.021235 0.794357
O O4 0.919453 0.050692 0.835632
O O5 0.182098 0.885087 0.795906
O O6 0.652813 0.888671 0.999628
O O7 0.522916 0.720457 0.847481
O O8 0.387911 0.721526 0.981703
O O9 0.274160 0.454645 0.886814
O O10 0.336240 0.516585 0.087168
O O11 0.884950 0.572959 0.845969
O O12 0.024263 0.307184 0.903631
#
# Coordination Sequence:
#
# PCOD9243130 Si02
#       6
#     4   4   4   4   4   4
#     4   9  19  40  58  86 121 155 193 250 293 342
#     4  11  20  38  63  90 118 160 198 241 301 352
#     4   9  22  37  57  86 118 153 197 245 291 342
#     4  11  21  38  62  90 119 159 197 241 295 358
#     4  10  20  36  65  85 121 160 198 242 299 352
#     4  10  21  39  59  86 122 155 194 243 297 348
#
# _framework density 28.831813
#
# number of rings (size 3 to 8) (size 9 to 14) (size 15 to 20)
#    1.000    1.000    3.333    0.500    0.000    4.000 
#    0.000   12.500    0.000    0.000    0.000    0.000 
#    0.000    0.000    0.000    0.000    0.000    0.000 
#
# Total GULP energy -133837.244348 kJ/mol
# GULP energy per Si atom -5576.551848 kJ/mol
# Density = 2.876619 g / cm^3
# Si number density = 28.831813 Si / 1000 Ang^3
#
#
#
# Elastic Constant Matrix: (Units=GPa)
#
#
# Indices 1 2 3 4 5 6 
#
# 1 121.2740 23.2656 4.6939 0.0000 33.7493 0.0000
# 2 23.2656 82.1936 30.1352 0.0000 13.2473 0.0000
# 3 4.6939 30.1352 135.5946 0.0000 12.9087 0.0000
# 4 0.0000 0.0000 0.0000 48.9700 0.0000 9.7610
# 5 33.7493 13.2473 12.9087 0.0000 51.3827 0.0000
# 6 0.0000 0.0000 0.0000 9.7610 0.0000 37.2565
#
#
#
# Elastic Compliance Matrix: (Units=1/GPa)
#
#
# Indices 1 2 3 4 5 6 
#
# 1 0.010439 -0.002182 0.000740 0.000000 -0.006480 0.000000
# 2 -0.002182 0.014090 -0.002916 0.000000 -0.001467 0.000000
# 3 0.000740 -0.002916 0.008167 0.000000 -0.001786 0.000000
# 4 0.000000 0.000000 0.000000 0.021546 0.000000 -0.005645
# 5 -0.006480 -0.001467 -0.001786 0.000000 0.024545 0.000000
# 6 0.000000 0.000000 0.000000 -0.005645 0.000000 0.028320
#
#
# Mechanical properties :
#
#
# Convention : Reuss Voigt Hill
#
# Bulk Modulus (GPa) = 41.69997 50.58352 46.14175
# Shear Modulus (GPa) = 40.38258 46.25300 43.31779
#
# Velocity S-wave (km/s) = 3.74655 4.00964 3.88032
# Velocity P-wave (km/s) = 5.76282 6.24649 6.00953
#
# Compressibility (1/GPa) = 0.02398083
#
# Stress axis : x y z
#
# Youngs Moduli (GPa) = 95.79405 70.97432 122.43697
#
# Poissons Ratio (x) = 0.15486 -0.09066
# Poissons Ratio (y) = 0.20902 0.35705
# Poissons Ratio (z) = -0.07093 0.20697
#
# Static dielectric constant tensor:
#      x y z
#    x 2.431180 0.000000 -0.158360 
#    y 0.000000 2.520760 0.000000 
#    z -0.158360 0.000000 2.471670 
# 
# From -- ./inp_files/40800.got.cif
#   From: 2010.05.17/outbox.cif.g08.bks.cpg/sg14_21_cif.got.tgz:40800.got - 2010.06.03 17:49:19.
