data_PCOD9243938
_publ_section_title
;
Structure prediction by ZEFSAII (Michael W. Deem and Ramdas Pophale) SiO2 
 PCOD9243938
Probable space group: P 21/C
;
_chemical_formula_sum "Si O2"
_cell_formula_units_Z 32
_cell_length_a 8.798833
_cell_length_b 13.730143
_cell_length_c 23.562375
_cell_angle_alpha 90.000000
_cell_angle_beta 151.529945
_cell_angle_gamma 90.000000
_cell_volume 1356.949847
_symmetry_space_group_name_H-M "P 21/C"
_symmetry_group_IT_number 14
_symmetry_cell_setting 'monoclinic'
loop_
_space_group_symop_operation_xyz
x,y,z
-x,1/2+y,1/2-z
-x,-y,-z
x,1/2-y,1/2+z
loop_
_atom_site_type_symbol
_atom_site_label
_atom_site_fract_x
_atom_site_fract_y
_atom_site_fract_z
Si Si1 0.110712 0.753521 0.023997
Si Si2 0.139886 0.287368 0.231631
Si Si3 0.721242 0.943881 0.855818
Si Si4 0.155143 0.307706 0.853550
Si Si5 0.629469 0.350104 0.544003
Si Si6 0.380392 0.491602 0.552132
Si Si7 0.919129 0.116576 0.385392
Si Si8 0.236091 0.585412 0.973898
O O1 0.480950 0.786254 0.151529
O O2 0.998978 0.703161 0.045274
O O3 0.117690 0.664898 0.981099
O O4 0.896741 0.844569 0.934408
O O5 0.053767 0.260026 0.268238
O O6 0.980713 0.192235 0.149865
O O7 0.960258 0.380563 0.146710
O O8 0.434775 0.923652 0.719196
O O9 0.584034 0.991959 0.868726
O O10 0.994573 0.013468 0.919766
O O11 0.902642 0.343366 0.815742
O O12 0.401245 0.241881 0.969826
O O13 0.385895 0.395081 0.908322
O O14 0.575648 0.408727 0.583967
O O15 0.537947 0.414906 0.459540
O O16 0.153742 0.024413 0.463234
#
# Coordination Sequence:
#
# PCOD9243938 Si02
#       8
#     4   4   4   4   4   4   4   4
#     4  11  23  43  64  90 133 168 207 259 322 380
#     4  10  21  41  66  86 128 171 209 249 327 385
#     4  11  24  39  62  95 126 164 207 256 326 370
#     4  10  22  40  63  89 125 167 208 263 319 371
#     4  10  20  39  62  90 122 162 209 256 322 365
#     4  10  21  37  61  90 128 150 204 269 301 374
#     4  12  24  40  66  95 128 164 217 261 315 379
#     4  10  23  41  66  90 123 171 214 256 316 380
#
# _framework density 23.582301000000001
#
# number of rings (size 3 to 8) (size 9 to 14) (size 15 to 20)
#    0.000    1.500    0.000    6.000    5.250    1.000 
#    2.250    0.000    8.250    0.000    0.000    0.000 
#    0.000    0.000    0.000    0.000    0.000    0.000 
#
# Total GULP energy -178826.574854 kJ/mol
# GULP energy per Si atom -5588.330464 kJ/mol
# Density = 2.352863 g / cm^3
# Si number density = 23.582301 Si / 1000 Ang^3
#
#
#
# Elastic Constant Matrix: (Units=GPa)
#
#
# Indices 1 2 3 4 5 6 
#
# 1 105.4298 28.0090 -2.8347 0.0000 -5.9323 0.0000
# 2 28.0090 65.2598 1.4935 0.0000 -3.4117 0.0000
# 3 -2.8347 1.4935 38.7869 0.0000 -1.2469 0.0000
# 4 0.0000 0.0000 0.0000 24.8303 0.0000 5.1969
# 5 -5.9323 -3.4117 -1.2469 0.0000 24.9681 0.0000
# 6 0.0000 0.0000 0.0000 5.1969 0.0000 31.9388
#
#
#
# Elastic Compliance Matrix: (Units=1/GPa)
#
#
# Indices 1 2 3 4 5 6 
#
# 1 0.010840 -0.004571 0.001033 0.000000 0.002002 0.000000
# 2 -0.004571 0.017372 -0.000963 0.000000 0.001240 0.000000
# 3 0.001033 -0.000963 0.025940 0.000000 0.001409 0.000000
# 4 0.000000 0.000000 0.000000 0.041693 0.000000 -0.006784
# 5 0.002002 0.001240 0.001409 0.000000 0.040767 0.000000
# 6 0.000000 0.000000 0.000000 -0.006784 0.000000 0.032414
#
#
# Mechanical properties :
#
#
# Convention : Reuss Voigt Hill
#
# Bulk Modulus (GPa) = 22.14934 29.20132 25.67533
# Shear Modulus (GPa) = 25.89617 28.53467 27.21542
#
# Velocity S-wave (km/s) = 3.31738 3.48228 3.40083
# Velocity P-wave (km/s) = 4.90776 5.34584 5.13148
#
# Compressibility (1/GPa) = 0.04514808
#
# Stress axis : x y z
#
# Youngs Moduli (GPa) = 92.25210 57.56330 38.55083
#
# Poissons Ratio (x) = 0.26314 -0.03981
# Poissons Ratio (y) = 0.42171 0.03713
# Poissons Ratio (z) = -0.09526 0.05544
#
# Static dielectric constant tensor:
#      x y z
#    x 1.919030 0.000000 -0.031940 
#    y 0.000000 1.902170 0.000000 
#    z -0.031940 0.000000 1.925320 
# 
# From -- ./inp_files/34167.got.cif
#   From: 2010.05.17/outbox.cif.g08.bks.cpg/sg14_18_cif.got.tgz:34167.got - 2010.06.03 17:49:19.
