data_PCOD9243485
_publ_section_title
;
Structure prediction by ZEFSAII (Michael W. Deem and Ramdas Pophale) SiO2 
 PCOD9243485
Probable space group: P 21/C
;
_chemical_formula_sum "Si O2"
_cell_formula_units_Z 16
_cell_length_a 26.398178
_cell_length_b 5.087894
_cell_length_c 21.996477
_cell_angle_alpha 90.000000
_cell_angle_beta 10.991828
_cell_angle_gamma 90.000000
_cell_volume 563.307058
_symmetry_space_group_name_H-M "P 21/C"
_symmetry_group_IT_number 14
_symmetry_cell_setting 'monoclinic'
loop_
_space_group_symop_operation_xyz
x,y,z
-x,1/2+y,1/2-z
-x,-y,-z
x,1/2-y,1/2+z
loop_
_atom_site_type_symbol
_atom_site_label
_atom_site_fract_x
_atom_site_fract_y
_atom_site_fract_z
Si Si1 0.389002 0.528779 0.285815
Si Si2 0.215350 0.804676 0.375702
Si Si3 0.811429 0.249798 0.223723
Si Si4 0.069378 0.681335 0.246595
O O1 0.406693 0.722412 0.205964
O O2 0.345402 0.706349 0.396110
O O3 0.111431 0.376204 0.600893
O O4 0.611772 0.308269 0.014130
O O5 0.340772 0.766135 0.161703
O O6 0.975558 0.590163 0.664993
O O7 0.083543 0.086898 0.538679
O O8 0.000000 0.500000 0.000000
O O9 0.000000 0.000000 0.000000
#
# Coordination Sequence:
#
# PCOD9243485 Si02
#       4
#     4   4   4   4
#     4  10  22  41  71  96 126 164 230 281 327 383
#     4  10  21  41  66  98 120 172 226 271 326 384
#     4  12  28  42  61  96 145 179 209 266 345 411
#     4  10  20  37  74  95 117 158 236 286 315 368
#
# _framework density 28.403690000000001
#
# number of rings (size 3 to 8) (size 9 to 14) (size 15 to 20)
#    1.500    0.000    2.500    2.250    3.500    1.000 
#    0.000    5.000    0.000    0.000    0.000    0.000 
#    0.000    0.000    0.000    0.000    0.000    0.000 
#
# Total GULP energy -89616.445874 kJ/mol
# GULP energy per Si atom -5601.027867 kJ/mol
# Density = 2.833904 g / cm^3
# Si number density = 28.403690 Si / 1000 Ang^3
#
#
#
# Elastic Constant Matrix: (Units=GPa)
#
#
# Indices 1 2 3 4 5 6 
#
# 1 93.3140 4.8188 16.4248 0.0000 24.7699 0.0000
# 2 4.8188 185.8912 43.7391 0.0000 -0.9913 0.0000
# 3 16.4248 43.7391 134.3582 0.0000 16.4382 0.0000
# 4 0.0000 0.0000 0.0000 54.7202 0.0000 -1.5525
# 5 24.7699 -0.9913 16.4382 0.0000 40.4518 0.0000
# 6 0.0000 0.0000 0.0000 -1.5525 0.0000 41.9662
#
#
#
# Elastic Compliance Matrix: (Units=1/GPa)
#
#
# Indices 1 2 3 4 5 6 
#
# 1 0.012859 -0.000243 -0.000556 0.000000 -0.007654 0.000000
# 2 -0.000243 0.005866 -0.002016 0.000000 0.001112 0.000000
# 3 -0.000556 -0.002016 0.008557 0.000000 -0.003186 0.000000
# 4 0.000000 0.000000 0.000000 0.018294 0.000000 0.000677
# 5 -0.007654 0.001112 -0.003186 0.000000 0.030729 0.000000
# 6 0.000000 0.000000 0.000000 0.000677 0.000000 0.023854
#
#
# Mechanical properties :
#
#
# Convention : Reuss Voigt Hill
#
# Bulk Modulus (GPa) = 46.18832 60.39207 53.29020
# Shear Modulus (GPa) = 44.24527 50.66634 47.45581
#
# Velocity S-wave (km/s) = 3.95109 4.22808 4.09193
# Velocity P-wave (km/s) = 6.09192 6.71891 6.41308
#
# Compressibility (1/GPa) = 0.02165049
#
# Stress axis : x y z
#
# Youngs Moduli (GPa) = 77.76884 170.47198 116.86523
#
# Poissons Ratio (x) = 0.04146 0.06502
# Poissons Ratio (y) = 0.01892 0.23559
# Poissons Ratio (z) = 0.04327 0.34366
#
# Static dielectric constant tensor:
#      x y z
#    x 2.392640 0.000000 -0.135740 
#    y 0.000000 2.224840 0.000000 
#    z -0.135740 0.000000 2.260770 
# 
# From -- ./inp_files/53857.got.cif
#   From: 2010.05.17/outbox.cif.g08.bks.cpg/sg14_27_cif.got.tgz:53857.got - 2010.06.03 17:49:19.
