data_PCOD9243366
_publ_section_title
;
Structure prediction by ZEFSAII (Michael W. Deem and Ramdas Pophale) SiO2 
 PCOD9243366
Probable space group: P 21/C
;
_chemical_formula_sum "Si O2"
_cell_formula_units_Z 28
_cell_length_a 16.048240
_cell_length_b 15.110068
_cell_length_c 7.095428
_cell_angle_alpha 90.000000
_cell_angle_beta 46.493627
_cell_angle_gamma 90.000000
_cell_volume 1247.925869
_symmetry_space_group_name_H-M "P 21/C"
_symmetry_group_IT_number 14
_symmetry_cell_setting 'monoclinic'
loop_
_space_group_symop_operation_xyz
x,y,z
-x,1/2+y,1/2-z
-x,-y,-z
x,1/2-y,1/2+z
loop_
_atom_site_type_symbol
_atom_site_label
_atom_site_fract_x
_atom_site_fract_y
_atom_site_fract_z
Si Si1 0.888590 0.916157 0.084875
Si Si2 0.617501 0.876720 0.009592
Si Si3 0.777498 0.026178 0.936882
Si Si4 0.656706 0.673044 0.016827
Si Si5 0.130672 0.931133 0.605243
Si Si6 0.584907 0.150424 0.210824
Si Si7 0.373794 0.858689 0.294615
O O1 0.783115 0.848593 0.247793
O O2 0.887229 0.970325 0.282753
O O3 0.859096 0.987850 0.969412
O O4 0.014916 0.880140 0.843738
O O5 0.702353 0.946237 0.968151
O O6 0.643631 0.868126 0.745078
O O7 0.636710 0.777983 0.058586
O O8 0.482312 0.901164 0.233009
O O9 0.848136 0.066790 0.651586
O O10 0.682031 0.094437 0.163415
O O11 0.551542 0.636908 0.051495
O O12 0.245854 0.893197 0.521549
O O13 0.612737 0.253776 0.193772
O O14 0.603979 0.126911 0.961962
#
# Coordination Sequence:
#
# PCOD9243366 Si02
#       7
#     4   4   4   4   4   4   4
#     4  11  23  39  62  86 119 162 198 242 298 359
#     4  10  20  37  62  89 123 155 196 261 303 355
#     4  11  22  39  64  90 120 156 206 252 306 349
#     4  10  20  38  58  90 126 156 200 246 306 361
#     4  10  23  42  59  84 123 158 200 246 289 363
#     4   9  21  35  61  90 120 156 194 257 306 354
#     4   9  20  38  59  85 123 154 198 247 305 354
#
# _framework density 22.437231000000001
#
# number of rings (size 3 to 8) (size 9 to 14) (size 15 to 20)
#    0.000    2.000    1.429    1.286    4.000    3.429 
#    0.000    7.143    0.000    0.000    0.000    0.000 
#    0.000    0.000    0.000    0.000    0.000    0.000 
#
# Total GULP energy -156550.978982 kJ/mol
# GULP energy per Si atom -5591.106392 kJ/mol
# Density = 2.238616 g / cm^3
# Si number density = 22.437231 Si / 1000 Ang^3
#
#
#
# Elastic Constant Matrix: (Units=GPa)
#
#
# Indices 1 2 3 4 5 6 
#
# 1 71.7046 0.8900 44.4715 0.0000 -16.3627 0.0000
# 2 0.8900 29.3531 16.9560 0.0000 -15.5187 0.0000
# 3 44.4715 16.9560 156.4035 0.0000 -43.0389 0.0000
# 4 0.0000 0.0000 0.0000 26.2468 0.0000 -3.0334
# 5 -16.3627 -15.5187 -43.0389 0.0000 49.0307 0.0000
# 6 0.0000 0.0000 0.0000 -3.0334 0.0000 25.8301
#
#
#
# Elastic Compliance Matrix: (Units=1/GPa)
#
#
# Indices 1 2 3 4 5 6 
#
# 1 0.017386 0.003667 -0.004516 0.000000 0.002999 0.000000
# 2 0.003667 0.041845 -0.002107 0.000000 0.012619 0.000000
# 3 -0.004516 -0.002107 0.009635 0.000000 0.006284 0.000000
# 4 0.000000 0.000000 0.000000 0.038624 0.000000 0.004536
# 5 0.002999 0.012619 0.006284 0.000000 0.030906 0.000000
# 6 0.000000 0.000000 0.000000 0.004536 0.000000 0.039247
#
#
# Mechanical properties :
#
#
# Convention : Reuss Voigt Hill
#
# Bulk Modulus (GPa) = 15.88446 42.45514 29.16980
# Shear Modulus (GPa) = 24.44513 33.23110 28.83811
#
# Velocity S-wave (km/s) = 3.30432 3.85264 3.58897
# Velocity P-wave (km/s) = 4.65327 6.22521 5.49574
#
# Compressibility (1/GPa) = 0.06295460
#
# Stress axis : x y z
#
# Youngs Moduli (GPa) = 57.51909 23.89768 103.78457
#
# Poissons Ratio (x) = -0.08763 0.46866
# Poissons Ratio (y) = -0.21091 0.21864
# Poissons Ratio (z) = 0.25974 0.05034
#
# Static dielectric constant tensor:
#      x y z
#    x 1.838610 0.000000 0.016360 
#    y 0.000000 1.830370 0.000000 
#    z 0.016360 0.000000 1.888890 
# 
# From -- ./inp_files/13203.got.cif
#   From: 2010.05.17/outbox.cif.g08.bks.cpg/sg14_7_cif.got.tgz:13203.got - 2010.06.03 17:49:19.
