data_PCOD9243480
_publ_section_title
;
Structure prediction by ZEFSAII (Michael W. Deem and Ramdas Pophale) SiO2 
 PCOD9243480
Probable space group: P 21/C
;
_chemical_formula_sum "Si O2"
_cell_formula_units_Z 32
_cell_length_a 19.809086
_cell_length_b 12.060661
_cell_length_c 7.931159
_cell_angle_alpha 90.000000
_cell_angle_beta 55.254523
_cell_angle_gamma 90.000000
_cell_volume 1556.973522
_symmetry_space_group_name_H-M "P 21/C"
_symmetry_group_IT_number 14
_symmetry_cell_setting 'monoclinic'
loop_
_space_group_symop_operation_xyz
x,y,z
-x,1/2+y,1/2-z
-x,-y,-z
x,1/2-y,1/2+z
loop_
_atom_site_type_symbol
_atom_site_label
_atom_site_fract_x
_atom_site_fract_y
_atom_site_fract_z
Si Si1 0.944805 0.215048 0.461534
Si Si2 0.463328 0.122265 0.543151
Si Si3 0.388365 0.055793 0.315396
Si Si4 0.863930 0.842403 0.790361
Si Si5 0.915742 0.424876 0.315006
Si Si6 0.792060 0.878675 0.526934
Si Si7 0.061693 0.519711 0.260299
Si Si8 0.496667 0.844515 0.141837
O O1 0.907132 0.334966 0.475558
O O2 0.900153 0.141620 0.665675
O O3 0.043819 0.212397 0.354597
O O4 0.935174 0.145839 0.302011
O O5 0.394733 0.109050 0.494401
O O6 0.522079 0.217651 0.381242
O O7 0.450940 0.152197 0.757854
O O8 0.500000 0.000000 0.500000
O O9 0.298867 0.077578 0.370403
O O10 0.420150 0.927999 0.276598
O O11 0.450701 0.111830 0.092185
O O12 0.823678 0.878938 0.672985
O O13 0.806804 0.747216 0.947630
O O14 0.872470 0.956251 0.884418
O O15 0.012476 0.457258 0.178990
O O16 0.852924 0.959769 0.338558
O O17 0.000000 0.500000 0.500000
#
# Coordination Sequence:
#
# PCOD9243480 Si02
#       8
#     4   4   4   4   4   4   4   4
#     4  11  19  38  61  85 118 164 229 272 318 387
#     4  10  20  37  69 107 132 170 229 268 312 407
#     4  10  24  41  67 100 138 177 217 272 339 400
#     4  11  23  39  59  93 126 168 212 282 334 387
#     4  11  21  38  62  88 118 165 228 272 321 384
#     4  12  25  42  61  94 137 163 215 280 341 390
#     4  11  22  37  61  87 119 171 222 269 324 388
#     4  10  20  41  70 100 132 179 219 264 329 401
#
# _framework density 20.552695
#
# number of rings (size 3 to 8) (size 9 to 14) (size 15 to 20)
#    0.000    1.250    5.000    1.500    5.250    0.000 
#    0.000    0.000    5.500    0.000    0.000    0.000 
#    0.000    0.000    0.000    0.000    0.000    0.000 
#
# Total GULP energy -178427.832432 kJ/mol
# GULP energy per Si atom -5575.869764 kJ/mol
# Density = 2.050592 g / cm^3
# Si number density = 20.552695 Si / 1000 Ang^3
#
#
#
# Elastic Constant Matrix: (Units=GPa)
#
#
# Indices 1 2 3 4 5 6 
#
# 1 108.7951 48.4932 38.5301 0.0000 9.0050 0.0000
# 2 48.4932 133.5170 19.8037 0.0000 -12.1285 0.0000
# 3 38.5301 19.8037 39.5009 0.0000 11.1233 0.0000
# 4 0.0000 0.0000 0.0000 31.5766 0.0000 11.0264
# 5 9.0050 -12.1285 11.1233 0.0000 36.9053 0.0000
# 6 0.0000 0.0000 0.0000 11.0264 0.0000 23.8050
#
#
#
# Elastic Compliance Matrix: (Units=1/GPa)
#
#
# Indices 1 2 3 4 5 6 
#
# 1 0.015589 -0.003847 -0.012949 0.000000 -0.001165 0.000000
# 2 -0.003847 0.009698 -0.002482 0.000000 0.004874 0.000000
# 3 -0.012949 -0.002482 0.042104 0.000000 -0.010346 0.000000
# 4 0.000000 0.000000 0.000000 0.037780 0.000000 -0.017500
# 5 -0.001165 0.004874 -0.010346 0.000000 0.032101 0.000000
# 6 0.000000 0.000000 0.000000 -0.017500 0.000000 0.050114
#
#
# Mechanical properties :
#
#
# Convention : Reuss Voigt Hill
#
# Bulk Modulus (GPa) = 34.67970 55.05187 44.86579
# Shear Modulus (GPa) = 21.22674 30.12310 25.67492
#
# Velocity S-wave (km/s) = 3.21720 3.83254 3.53827
# Velocity P-wave (km/s) = 5.54172 6.81383 6.21044
#
# Compressibility (1/GPa) = 0.02883531
#
# Stress axis : x y z
#
# Youngs Moduli (GPa) = 64.14961 103.11658 23.75059
#
# Poissons Ratio (x) = 0.39669 0.30754
# Poissons Ratio (y) = 0.24678 0.05895
# Poissons Ratio (z) = 0.83065 0.25593
#
# Static dielectric constant tensor:
#      x y z
#    x 1.761660 0.000000 0.089960 
#    y 0.000000 1.827210 0.000000 
#    z 0.089960 0.000000 1.790130 
# 
# From -- ./inp_files/17838.got.cif
#   From: 2010.05.17/outbox.cif.g08.bks.cpg/sg14_9_cif.got.tgz:17838.got - 2010.06.03 17:49:19.
