data_PCOD9243967
_publ_section_title
;
Structure prediction by ZEFSAII (Michael W. Deem and Ramdas Pophale) SiO2 
 PCOD9243967
Probable space group: P 21/C
;
_chemical_formula_sum "Si O2"
_cell_formula_units_Z 32
_cell_length_a 7.676372
_cell_length_b 19.061279
_cell_length_c 11.535398
_cell_angle_alpha 90.000000
_cell_angle_beta 57.985862
_cell_angle_gamma 90.000000
_cell_volume 1431.179595
_symmetry_space_group_name_H-M "P 21/C"
_symmetry_group_IT_number 14
_symmetry_cell_setting 'monoclinic'
loop_
_space_group_symop_operation_xyz
x,y,z
-x,1/2+y,1/2-z
-x,-y,-z
x,1/2-y,1/2+z
loop_
_atom_site_type_symbol
_atom_site_label
_atom_site_fract_x
_atom_site_fract_y
_atom_site_fract_z
Si Si1 0.217435 0.326638 0.683555
Si Si2 0.160865 0.751073 0.571837
Si Si3 0.501474 0.693062 0.616392
Si Si4 0.742722 0.533824 0.843667
Si Si5 0.396084 0.817398 0.802437
Si Si6 0.554690 0.531175 0.656813
Si Si7 0.607115 0.114363 0.445415
Si Si8 0.825783 0.516036 0.340174
O O1 0.310963 0.290102 0.536727
O O2 0.427059 0.347444 0.677541
O O3 0.113973 0.401413 0.687777
O O4 0.060903 0.276972 0.807718
O O5 0.287301 0.708308 0.625150
O O6 0.193133 0.704235 0.445712
O O7 0.290364 0.824119 0.516316
O O8 0.497071 0.745061 0.724187
O O9 0.527713 0.613562 0.642917
O O10 0.638601 0.521545 0.755315
O O11 0.702659 0.462614 0.930922
O O12 0.984060 0.535707 0.739661
O O13 0.631364 0.599923 0.941088
O O14 0.363619 0.862187 0.698389
O O15 0.712169 0.503907 0.502880
O O16 0.335534 0.498284 0.704900
#
# Coordination Sequence:
#
# PCOD9243967 Si02
#       8
#     4   4   4   4   4   4   4   4
#     4  10  20  39  63  89 119 161 214 262 322 384
#     4  10  20  40  62  85 123 165 211 264 325 375
#     4   9  21  39  57  86 128 157 205 267 316 384
#     4  11  21  40  63  92 130 168 209 261 325 383
#     4  10  21  39  60  87 120 165 204 263 323 377
#     4  10  21  40  63  94 130 169 211 267 320 387
#     4  10  22  39  60  90 127 162 208 269 317 384
#     4  10  21  40  65  94 128 167 216 264 321 386
#
# _framework density 22.359179000000001
#
# number of rings (size 3 to 8) (size 9 to 14) (size 15 to 20)
#    0.000    2.000    1.250    1.875    0.000    3.000 
#   13.500    1.875    0.000    0.000    0.000    0.000 
#    0.000    0.000    0.000    0.000    0.000    0.000 
#
# Total GULP energy -178716.426081 kJ/mol
# GULP energy per Si atom -5584.888315 kJ/mol
# Density = 2.230829 g / cm^3
# Si number density = 22.359179 Si / 1000 Ang^3
#
#
#
# Elastic Constant Matrix: (Units=GPa)
#
#
# Indices 1 2 3 4 5 6 
#
# 1 64.4844 7.0793 38.7897 0.0000 -14.9728 0.0000
# 2 7.0793 56.9882 16.1436 0.0000 -5.6522 0.0000
# 3 38.7897 16.1436 80.9183 0.0000 -6.4058 0.0000
# 4 0.0000 0.0000 0.0000 -59.5155 0.0000 -79.3544
# 5 -14.9728 -5.6522 -6.4058 0.0000 26.5379 0.0000
# 6 0.0000 0.0000 0.0000 -79.3544 0.0000 -38.8329
#
#
#
# Elastic Compliance Matrix: (Units=1/GPa)
#
#
# Indices 1 2 3 4 5 6 
#
# 1 0.024805 0.001244 -0.011224 0.000000 0.011551 0.000000
# 2 0.001244 0.018919 -0.004074 0.000000 0.003748 0.000000
# 3 -0.011224 -0.004074 0.018332 0.000000 -0.002776 0.000000
# 4 0.000000 0.000000 0.000000 0.009742 0.000000 -0.019908
# 5 0.011551 0.003748 -0.002776 0.000000 0.044327 0.000000
# 6 0.000000 0.000000 0.000000 -0.019908 0.000000 0.014931
#
#
# Mechanical properties :
#
#
# Convention : Reuss Voigt Hill
#
# Bulk Modulus (GPa) = 29.45815 36.26846 32.86331
# Shear Modulus (GPa) = 29.32877 -5.00354 12.16261
#
# Velocity S-wave (km/s) = 3.62568 -1.49755 2.33484
# Velocity P-wave (km/s) = 5.54356 3.64223 4.69025
#
# Compressibility (1/GPa) = 0.03394646
#
# Stress axis : x y z
#
# Youngs Moduli (GPa) = 40.31451 52.85756 54.54985
#
# Poissons Ratio (x) = -0.06575 0.61229
# Poissons Ratio (y) = -0.05015 0.22224
# Poissons Ratio (z) = 0.45251 0.21534
#
# Static dielectric constant tensor:
#      x y z
#    x 1.838940 0.000000 -0.014090 
#    y 0.000000 1.840090 0.000000 
#    z -0.014090 0.000000 1.858230 
# 
# From -- ./inp_files/26779.got.cif
#   From: 2010.05.17/outbox.cif.g08.bks.cpg/sg14_14_cif.got.tgz:26779.got - 2010.06.03 17:49:19.
