data_PCOD9243553
_publ_section_title
;
Structure prediction by ZEFSAII (Michael W. Deem and Ramdas Pophale) SiO2 
 PCOD9243553
Probable space group: P 21/C
;
_chemical_formula_sum "Si O2"
_cell_formula_units_Z 30
_cell_length_a 11.795671
_cell_length_b 9.320426
_cell_length_c 14.025287
_cell_angle_alpha 90.000000
_cell_angle_beta 109.522645
_cell_angle_gamma 90.000000
_cell_volume 1453.302100
_symmetry_space_group_name_H-M "P 21/C"
_symmetry_group_IT_number 14
_symmetry_cell_setting 'monoclinic'
loop_
_space_group_symop_operation_xyz
x,y,z
-x,1/2+y,1/2-z
-x,-y,-z
x,1/2-y,1/2+z
loop_
_atom_site_type_symbol
_atom_site_label
_atom_site_fract_x
_atom_site_fract_y
_atom_site_fract_z
Si Si1 0.000000 0.500000 0.000000
Si Si2 0.867502 0.033189 0.858673
Si Si3 0.254100 0.820598 0.352022
Si Si4 0.390249 0.037349 0.155138
Si Si5 0.524208 0.755494 0.451130
Si Si6 0.936203 0.304893 0.570405
Si Si7 0.276498 0.013741 0.533462
Si Si8 0.453974 0.710478 0.149772
O O1 0.856752 0.548185 0.970191
O O2 0.025371 0.640991 0.937172
O O3 0.823615 0.134421 0.760625
O O4 0.750471 0.951754 0.864575
O O5 0.912208 0.131000 0.958579
O O6 0.966632 0.914787 0.858541
O O7 0.389811 0.770537 0.370511
O O8 0.181558 0.706010 0.395946
O O9 0.269652 0.961399 0.422086
O O10 0.425571 0.100685 0.062658
O O11 0.459686 0.129322 0.253602
O O12 0.427899 0.872582 0.170935
O O13 0.509229 0.786844 0.558699
O O14 0.621057 0.865171 0.433879
O O15 0.329965 0.878478 0.606611
#
# Coordination Sequence:
#
# PCOD9243553 Si02
#       8
#     2   4   4   4   4   4   4   4
#     4  10  20  38  60  86 118 158 204 244 300 368
#     4  11  22  42  63  89 125 161 206 253 305 367
#     4  10  21  39  63  89 123 162 201 252 309 364
#     4  12  23  39  64  90 121 162 203 254 312 367
#     4  11  22  39  64  92 123 160 206 257 308 364
#     4  10  24  40  62  90 122 164 205 254 307 359
#     4  10  20  38  62  89 123 163 202 250 309 365
#     4  11  23  39  60  92 125 160 206 256 308 368
#
# _framework density 20.642645999999999
#
# number of rings (size 3 to 8) (size 9 to 14) (size 15 to 20)
#    0.000    1.333    0.000    8.400    0.000    2.133 
#    0.000    4.000    0.000    1.600    0.000    0.000 
#    0.000    0.000    0.000    0.000    0.000    0.000 
#
# Total GULP energy -167129.380443 kJ/mol
# GULP energy per Si atom -5570.979348 kJ/mol
# Density = 2.059566 g / cm^3
# Si number density = 20.642646 Si / 1000 Ang^3
#
#
#
# Elastic Constant Matrix: (Units=GPa)
#
#
# Indices 1 2 3 4 5 6 
#
# 1 121.4812 33.0979 -23.6273 0.0000 -4.6807 0.0000
# 2 33.0979 75.6904 -3.3356 0.0000 -5.9528 0.0000
# 3 -23.6273 -3.3356 19.9239 0.0000 -5.2124 0.0000
# 4 0.0000 0.0000 0.0000 20.8576 0.0000 -3.1796
# 5 -4.6807 -5.9528 -5.2124 0.0000 15.1377 0.0000
# 6 0.0000 0.0000 0.0000 -3.1796 0.0000 32.5200
#
#
#
# Elastic Compliance Matrix: (Units=1/GPa)
#
#
# Indices 1 2 3 4 5 6 
#
# 1 0.012982 -0.004299 0.016797 0.000000 0.008107 0.000000
# 2 -0.004299 0.015361 -0.001422 0.000000 0.004222 0.000000
# 3 0.016797 -0.001422 0.078121 0.000000 0.031534 0.000000
# 4 0.000000 0.000000 0.000000 0.048670 0.000000 0.004759
# 5 0.008107 0.004222 0.031534 0.000000 0.081085 0.000000
# 6 0.000000 0.000000 0.000000 0.004759 0.000000 0.031216
#
#
# Mechanical properties :
#
#
# Convention : Reuss Voigt Hill
#
# Bulk Modulus (GPa) = 7.77514 25.48505 16.63010
# Shear Modulus (GPa) = 17.35174 27.76708 22.55941
#
# Velocity S-wave (km/s) = 2.90242 3.67158 3.30942
# Velocity P-wave (km/s) = 3.87385 5.50878 4.76201
#
# Compressibility (1/GPa) = 0.12861502
#
# Stress axis : x y z
#
# Youngs Moduli (GPa) = 77.02854 65.10017 12.80064
#
# Poissons Ratio (x) = 0.27987 -0.21501
# Poissons Ratio (y) = 0.33115 0.01820
# Poissons Ratio (z) = -1.29381 0.09258
#
# Static dielectric constant tensor:
#      x y z
#    x 1.732430 0.000000 0.003290 
#    y 0.000000 1.749300 0.000000 
#    z 0.003290 0.000000 1.769840 
# 
# From -- ./inp_files/43776.got.cif
#   From: 2010.05.17/outbox.cif.g08.bks.cpg/sg14_22_cif.got.tgz:43776.got - 2010.06.03 17:49:19.
