data_PCOD9243160
_publ_section_title
;
Structure prediction by ZEFSAII (Michael W. Deem and Ramdas Pophale) SiO2 
 PCOD9243160
Probable space group: P 21/C
;
_chemical_formula_sum "Si O2"
_cell_formula_units_Z 32
_cell_length_a 18.690744
_cell_length_b 10.134940
_cell_length_c 14.898190
_cell_angle_alpha 90.000000
_cell_angle_beta 149.807737
_cell_angle_gamma 90.000000
_cell_volume 1419.272239
_symmetry_space_group_name_H-M "P 21/C"
_symmetry_group_IT_number 14
_symmetry_cell_setting 'monoclinic'
loop_
_space_group_symop_operation_xyz
x,y,z
-x,1/2+y,1/2-z
-x,-y,-z
x,1/2-y,1/2+z
loop_
_atom_site_type_symbol
_atom_site_label
_atom_site_fract_x
_atom_site_fract_y
_atom_site_fract_z
Si Si1 0.883174 0.142145 0.955562
Si Si2 0.228658 0.333635 0.073085
Si Si3 0.811612 0.849822 0.800936
Si Si4 0.713528 0.256593 0.114231
Si Si5 0.451610 0.020273 0.551410
Si Si6 0.499887 0.484818 0.393380
Si Si7 0.328914 0.419884 0.572932
Si Si8 0.094414 0.626564 0.314622
O O1 0.870985 0.165574 0.046733
O O2 0.045103 0.168345 0.100329
O O3 0.778656 0.232520 0.784074
O O4 0.841444 0.989689 0.885682
O O5 0.214468 0.265603 0.155848
O O6 0.340347 0.451507 0.192677
O O7 0.291286 0.216615 0.079444
O O8 0.073754 0.381383 0.877011
O O9 0.669721 0.868788 0.587700
O O10 0.635306 0.392387 0.011377
O O11 0.842811 0.231318 0.187237
O O12 0.598226 0.142756 0.981186
O O13 0.584875 0.016332 0.763464
O O14 0.500000 0.000000 0.500000
O O15 0.500000 0.500000 0.500000
O O16 0.572728 0.592070 0.408341
O O17 0.180281 0.491801 0.388782
#
# Coordination Sequence:
#
# PCOD9243160 Si02
#       8
#     4   4   4   4   4   4   4   4
#     4  10  20  38  63 103 130 172 221 278 339 399
#     4  12  23  48  69  97 142 185 220 291 346 404
#     4  10  20  36  69  98 131 164 229 280 340 391
#     4  10  21  42  65  97 134 174 221 285 334 405
#     4  11  19  37  71  98 129 168 222 294 340 388
#     4  11  27  48  66  97 141 184 234 274 344 420
#     4  11  24  46  66 103 135 177 237 282 334 423
#     4  11  24  40  67  98 139 177 226 279 343 410
#
# _framework density 22.546768
#
# number of rings (size 3 to 8) (size 9 to 14) (size 15 to 20)
#    0.000    1.250    5.000    0.750    1.750    2.000 
#    4.500    1.250    0.000    0.000    0.000    0.000 
#    0.000    0.000    0.000    0.000    0.000    0.000 
#
# Total GULP energy -179025.948051 kJ/mol
# GULP energy per Si atom -5594.560877 kJ/mol
# Density = 2.249545 g / cm^3
# Si number density = 22.546768 Si / 1000 Ang^3
#
#
#
# Elastic Constant Matrix: (Units=GPa)
#
#
# Indices 1 2 3 4 5 6 
#
# 1 122.0437 14.4917 39.8759 0.0000 7.2460 0.0000
# 2 14.4917 30.5803 26.7279 0.0000 2.3472 0.0000
# 3 39.8759 26.7279 156.5641 0.0000 24.5576 0.0000
# 4 0.0000 0.0000 0.0000 19.6382 0.0000 -9.7483
# 5 7.2460 2.3472 24.5576 0.0000 34.7674 0.0000
# 6 0.0000 0.0000 0.0000 -9.7483 0.0000 9.9485
#
#
#
# Elastic Compliance Matrix: (Units=1/GPa)
#
#
# Indices 1 2 3 4 5 6 
#
# 1 0.009129 -0.002729 -0.001788 0.000000 -0.000456 0.000000
# 2 -0.002729 0.039415 -0.006416 0.000000 0.002440 0.000000
# 3 -0.001788 -0.006416 0.008785 0.000000 -0.005399 0.000000
# 4 0.000000 0.000000 0.000000 0.099146 0.000000 0.097151
# 5 -0.000456 0.002440 -0.005399 0.000000 0.032506 0.000000
# 6 0.000000 0.000000 0.000000 0.097151 0.000000 0.195713
#
#
# Mechanical properties :
#
#
# Convention : Reuss Voigt Hill
#
# Bulk Modulus (GPa) = 28.19860 52.37546 40.28703
# Shear Modulus (GPa) = 11.95085 28.07702 20.01393
#
# Velocity S-wave (km/s) = 2.30477 3.53268 2.98260
# Velocity P-wave (km/s) = 4.42905 6.31822 5.45602
#
# Compressibility (1/GPa) = 0.03546275
#
# Stress axis : x y z
#
# Youngs Moduli (GPa) = 109.54130 25.37128 113.83332
#
# Poissons Ratio (x) = 0.06923 0.20351
# Poissons Ratio (y) = 0.29889 0.73040
# Poissons Ratio (z) = 0.19584 0.16279
#
# Static dielectric constant tensor:
#      x y z
#    x 1.844640 0.000000 -0.011650 
#    y 0.000000 1.811000 0.000000 
#    z -0.011650 0.000000 1.846190 
# 
# From -- ./inp_files/49013.got.cif
#   From: 2010.05.17/outbox.cif.g08.bks.cpg/sg14_25_cif.got.tgz:49013.got - 2010.06.03 17:49:19.
