data_PCOD9243405
_publ_section_title
;
Structure prediction by ZEFSAII (Michael W. Deem and Ramdas Pophale) SiO2 
 PCOD9243405
Probable space group: P 21/C
;
_chemical_formula_sum "Si O2"
_cell_formula_units_Z 24
_cell_length_a 24.053540
_cell_length_b 8.144782
_cell_length_c 9.793098
_cell_angle_alpha 90.000000
_cell_angle_beta 28.786853
_cell_angle_gamma 90.000000
_cell_volume 923.894295
_symmetry_space_group_name_H-M "P 21/C"
_symmetry_group_IT_number 14
_symmetry_cell_setting 'monoclinic'
loop_
_space_group_symop_operation_xyz
x,y,z
-x,1/2+y,1/2-z
-x,-y,-z
x,1/2-y,1/2+z
loop_
_atom_site_type_symbol
_atom_site_label
_atom_site_fract_x
_atom_site_fract_y
_atom_site_fract_z
Si Si1 0.145890 0.443315 0.335591
Si Si2 0.825617 0.970768 0.932139
Si Si3 0.571150 0.314816 0.275825
Si Si4 0.658146 0.824996 0.097767
Si Si5 0.019030 0.764939 0.960250
Si Si6 0.610731 0.451466 0.459745
O O1 0.180687 0.529829 0.400627
O O2 0.033881 0.318844 0.573008
O O3 0.094217 0.583746 0.350543
O O4 0.256315 0.328436 0.073795
O O5 0.902214 0.106299 0.694312
O O6 0.897869 0.799201 0.786486
O O7 0.709209 0.949214 0.100016
O O8 0.469138 0.221500 0.579725
O O9 0.652691 0.376997 0.224252
O O10 0.511597 0.468298 0.324838
O O11 0.609147 0.190864 0.076126
O O12 0.665803 0.898722 0.928394
#
# Coordination Sequence:
#
# PCOD9243405 Si02
#       6
#     4   4   4   4   4   4
#     4  10  20  39  66  90 133 175 217 277 330 406
#     4  10  20  37  63  93 135 169 220 280 325 403
#     4  11  24  46  73  97 135 182 229 287 349 424
#     4  11  23  42  65 101 132 173 229 284 338 403
#     4   9  20  38  60  96 127 177 222 258 344 398
#     4  11  24  46  71  97 133 182 226 287 354 413
#
# _framework density 25.976997999999998
#
# number of rings (size 3 to 8) (size 9 to 14) (size 15 to 20)
#    0.000    1.667    1.667    2.500    0.000    0.000 
#    9.000    3.333    0.000    0.000    0.000    0.000 
#    0.000    0.000    0.000    0.000    0.000    0.000 
#
# Total GULP energy -133933.249981 kJ/mol
# GULP energy per Si atom -5580.552083 kJ/mol
# Density = 2.591787 g / cm^3
# Si number density = 25.976998 Si / 1000 Ang^3
#
#
#
# Elastic Constant Matrix: (Units=GPa)
#
#
# Indices 1 2 3 4 5 6 
#
# 1 219.7784 58.5138 42.7605 0.0000 -2.6578 0.0000
# 2 58.5138 117.2608 29.3762 0.0000 -8.2533 0.0000
# 3 42.7605 29.3762 45.9665 0.0000 -14.4264 0.0000
# 4 0.0000 0.0000 0.0000 27.7120 0.0000 2.2222
# 5 -2.6578 -8.2533 -14.4264 0.0000 32.6980 0.0000
# 6 0.0000 0.0000 0.0000 2.2222 0.0000 39.1720
#
#
#
# Elastic Compliance Matrix: (Units=1/GPa)
#
#
# Indices 1 2 3 4 5 6 
#
# 1 0.006015 -0.001883 -0.005093 0.000000 -0.002234 0.000000
# 2 -0.001883 0.010746 -0.005006 0.000000 0.000351 0.000000
# 3 -0.005093 -0.005006 0.033854 0.000000 0.013259 0.000000
# 4 0.000000 0.000000 0.000000 0.036250 0.000000 -0.002056
# 5 -0.002234 0.000351 0.013259 0.000000 0.036340 0.000000
# 6 0.000000 0.000000 0.000000 -0.002056 0.000000 0.025645
#
#
# Mechanical properties :
#
#
# Convention : Reuss Voigt Hill
#
# Bulk Modulus (GPa) = 37.52286 71.58964 54.55625
# Shear Modulus (GPa) = 27.51801 36.74006 32.12903
#
# Velocity S-wave (km/s) = 3.25825 3.76484 3.52067
# Velocity P-wave (km/s) = 5.35079 6.82036 6.12978
#
# Compressibility (1/GPa) = 0.02665042
#
# Stress axis : x y z
#
# Youngs Moduli (GPa) = 166.24235 93.05445 29.53884
#
# Poissons Ratio (x) = 0.17521 0.15045
# Poissons Ratio (y) = 0.31301 0.14788
# Poissons Ratio (z) = 0.84675 0.46585
#
# Static dielectric constant tensor:
#      x y z
#    x 2.111500 0.000000 0.166920 
#    y 0.000000 2.136100 0.000000 
#    z 0.166920 0.000000 2.183580 
# 
# From -- ./inp_files/36083.got.cif
#   From: 2010.05.17/outbox.cif.g08.bks.cpg/sg14_19_cif.got.tgz:36083.got - 2010.06.03 17:49:19.
