data_PCOD9243813
_publ_section_title
;
Structure prediction by ZEFSAII (Michael W. Deem and Ramdas Pophale) SiO2 
 PCOD9243813
Probable space group: P 21/C
;
_chemical_formula_sum "Si O2"
_cell_formula_units_Z 26
_cell_length_a 13.982546
_cell_length_b 9.921678
_cell_length_c 13.510528
_cell_angle_alpha 90.000000
_cell_angle_beta 30.327738
_cell_angle_gamma 90.000000
_cell_volume 946.429475
_symmetry_space_group_name_H-M "P 21/C"
_symmetry_group_IT_number 14
_symmetry_cell_setting 'monoclinic'
loop_
_space_group_symop_operation_xyz
x,y,z
-x,1/2+y,1/2-z
-x,-y,-z
x,1/2-y,1/2+z
loop_
_atom_site_type_symbol
_atom_site_label
_atom_site_fract_x
_atom_site_fract_y
_atom_site_fract_z
Si Si1 0.500000 0.500000 0.500000
Si Si2 0.326495 0.175112 0.979588
Si Si3 0.763338 0.482133 0.849471
Si Si4 0.046755 0.945257 0.615914
Si Si5 0.792905 0.311351 0.313198
Si Si6 0.315798 0.075400 0.774004
Si Si7 0.710436 0.205484 0.121314
O O1 0.577007 0.553797 0.542454
O O2 0.596409 0.354075 0.437841
O O3 0.485463 0.288965 0.842006
O O4 0.295502 0.164507 0.888994
O O5 0.117326 0.160875 0.209307
O O6 0.854124 0.339861 0.732323
O O7 0.766590 0.595947 0.761973
O O8 0.856474 0.507671 0.872334
O O9 0.542851 0.440932 0.059530
O O10 0.196877 0.847710 0.429538
O O11 0.947462 0.072042 0.651844
O O12 0.756723 0.304564 0.463583
O O13 0.226137 0.933300 0.888263
#
# Coordination Sequence:
#
# PCOD9243813 Si02
#       7
#     2   4   4   4   4   4   4
#     4  10  20  38  66  98 134 174 232 282 338 428
#     4  11  22  42  67  98 135 185 227 287 357 402
#     4  10  23  41  69 102 134 183 233 290 346 425
#     4  10  22  41  66 100 140 176 232 283 346 422
#     4  10  20  41  65  96 139 176 229 289 341 414
#     4  11  21  42  71  96 136 185 235 283 356 409
#     4  11  22  43  68  98 139 188 227 291 347 420
#
# _framework density 27.471668999999999
#
# number of rings (size 3 to 8) (size 9 to 14) (size 15 to 20)
#    0.000    1.538    6.154    0.923    0.000    3.077 
#    0.000   13.077    0.000    0.000    0.000    0.000 
#    0.000    0.000    0.000    0.000    0.000    0.000 
#
# Total GULP energy -144857.410062 kJ/mol
# GULP energy per Si atom -5571.438849 kJ/mol
# Density = 2.740914 g / cm^3
# Si number density = 27.471669 Si / 1000 Ang^3
#
#
#
# Elastic Constant Matrix: (Units=GPa)
#
#
# Indices 1 2 3 4 5 6 
#
# 1 65.5046 43.4051 0.2173 0.0000 -4.1999 0.0000
# 2 43.4051 86.8084 4.3149 0.0000 -7.5735 0.0000
# 3 0.2173 4.3149 103.6536 0.0000 -10.3937 0.0000
# 4 0.0000 0.0000 0.0000 42.9259 0.0000 -10.8653
# 5 -4.1999 -7.5735 -10.3937 0.0000 33.9622 0.0000
# 6 0.0000 0.0000 0.0000 -10.8653 0.0000 45.0169
#
#
#
# Elastic Compliance Matrix: (Units=1/GPa)
#
#
# Indices 1 2 3 4 5 6 
#
# 1 0.022855 -0.011414 0.000470 0.000000 0.000425 0.000000
# 2 -0.011414 0.017454 -0.000468 0.000000 0.002337 0.000000
# 3 0.000470 -0.000468 0.009967 0.000000 0.003004 0.000000
# 4 0.000000 0.000000 0.000000 0.024812 0.000000 0.005989
# 5 0.000425 0.002337 0.003004 0.000000 0.030938 0.000000
# 6 0.000000 0.000000 0.000000 0.005989 0.000000 0.023659
#
#
# Mechanical properties :
#
#
# Convention : Reuss Voigt Hill
#
# Bulk Modulus (GPa) = 36.42818 39.09347 37.76082
# Shear Modulus (GPa) = 30.92902 38.24960 34.58931
#
# Velocity S-wave (km/s) = 3.35901 3.73544 3.55222
# Velocity P-wave (km/s) = 5.32288 5.73289 5.53168
#
# Compressibility (1/GPa) = 0.02745128
#
# Stress axis : x y z
#
# Youngs Moduli (GPa) = 43.75399 57.29353 100.32863
#
# Poissons Ratio (x) = 0.65395 -0.04714
# Poissons Ratio (y) = 0.49941 0.04698
# Poissons Ratio (z) = -0.02056 0.02683
#
# Static dielectric constant tensor:
#      x y z
#    x 1.911530 0.000000 0.072300 
#    y 0.000000 2.130760 0.000000 
#    z 0.072300 0.000000 2.111620 
# 
# From -- ./inp_files/47080.got.cif
#   From: 2010.05.17/outbox.cif.g08.bks.cpg/sg14_24_cif.got.tgz:47080.got - 2010.06.03 17:49:19.
