data_PCOD9243602
_publ_section_title
;
Structure prediction by ZEFSAII (Michael W. Deem and Ramdas Pophale) SiO2 
 PCOD9243602
Probable space group: P 21/C
;
_chemical_formula_sum "Si O2"
_cell_formula_units_Z 32
_cell_length_a 9.175214
_cell_length_b 8.283323
_cell_length_c 26.283083
_cell_angle_alpha 90.000000
_cell_angle_beta 47.627296
_cell_angle_gamma 90.000000
_cell_volume 1475.741113
_symmetry_space_group_name_H-M "P 21/C"
_symmetry_group_IT_number 14
_symmetry_cell_setting 'monoclinic'
loop_
_space_group_symop_operation_xyz
x,y,z
-x,1/2+y,1/2-z
-x,-y,-z
x,1/2-y,1/2+z
loop_
_atom_site_type_symbol
_atom_site_label
_atom_site_fract_x
_atom_site_fract_y
_atom_site_fract_z
Si Si1 0.592496 0.601213 0.784203
Si Si2 0.936489 0.398409 0.597695
Si Si3 0.621897 0.182387 0.089122
Si Si4 0.768651 0.700134 0.036128
Si Si5 0.636126 0.383342 0.355647
Si Si6 0.689985 0.233181 0.735348
Si Si7 0.997692 0.303019 0.342624
Si Si8 0.914879 0.375138 0.953877
O O1 0.465026 0.660143 0.861934
O O2 0.629325 0.411609 0.769411
O O3 0.480318 0.660105 0.759954
O O4 0.802717 0.690570 0.736409
O O5 0.752080 0.407455 0.602133
O O6 0.873764 0.264447 0.654422
O O7 0.972014 0.558940 0.621271
O O8 0.116526 0.343018 0.520441
O O9 0.453514 0.059422 0.112512
O O10 0.761507 0.241890 0.011230
O O11 0.546576 0.758063 0.096013
O O12 0.885094 0.655723 0.060744
O O13 0.813552 0.543548 0.991551
O O14 0.715150 0.373458 0.279329
O O15 0.810390 0.341010 0.352659
O O16 0.963344 0.143783 0.383632
#
# Coordination Sequence:
#
# PCOD9243602 Si02
#       8
#     4   4   4   4   4   4   4   4
#     4  10  21  39  64  88 113 146 191 242 285 332
#     4   9  20  39  60  85 111 145 192 238 284 334
#     4  10  21  38  63  86 110 149 194 238 283 334
#     4  10  21  38  63  88 111 145 192 246 288 332
#     4  12  24  37  56  84 121 158 189 226 282 346
#     4  10  20  38  61  87 115 147 193 240 284 334
#     4  11  24  38  55  84 121 157 187 227 284 346
#     4  10  21  39  62  87 112 144 194 245 288 332
#
# _framework density 21.68402
#
# number of rings (size 3 to 8) (size 9 to 14) (size 15 to 20)
#    0.000    1.750    0.000    5.250    0.000   11.500 
#    0.000    1.250    0.000    0.000    0.000    0.000 
#    0.000    0.000    0.000    0.000    0.000    0.000 
#
# Total GULP energy -178989.222182 kJ/mol
# GULP energy per Si atom -5593.413193 kJ/mol
# Density = 2.163467 g / cm^3
# Si number density = 21.684020 Si / 1000 Ang^3
#
#
#
# Elastic Constant Matrix: (Units=GPa)
#
#
# Indices 1 2 3 4 5 6 
#
# 1 24.4759 -12.7729 12.0254 0.0000 -0.3742 0.0000
# 2 -12.7729 41.9814 -7.5142 0.0000 7.8970 0.0000
# 3 12.0254 -7.5142 70.0936 0.0000 -15.5596 0.0000
# 4 0.0000 0.0000 0.0000 19.4003 0.0000 -2.4824
# 5 -0.3742 7.8970 -15.5596 0.0000 -11.4534 0.0000
# 6 0.0000 0.0000 0.0000 -2.4824 0.0000 11.4922
#
#
#
# Elastic Compliance Matrix: (Units=1/GPa)
#
#
# Indices 1 2 3 4 5 6 
#
# 1 0.049417 0.011880 -0.004414 0.000000 0.012573 0.000000
# 2 0.011880 0.025698 0.003506 0.000000 0.012567 0.000000
# 3 -0.004414 0.003506 0.012269 0.000000 -0.014105 0.000000
# 4 0.000000 0.000000 0.000000 0.053011 0.000000 0.011451
# 5 0.012573 0.012567 -0.014105 0.000000 -0.059894 0.000000
# 6 0.000000 0.000000 0.000000 0.011451 0.000000 0.089489
#
#
# Mechanical properties :
#
#
# Convention : Reuss Voigt Hill
#
# Bulk Modulus (GPa) = 9.14661 13.33639 11.24150
# Shear Modulus (GPa) = 27.10219 13.54200 20.32210
#
# Velocity S-wave (km/s) = 3.53918 2.50174 3.06468
# Velocity P-wave (km/s) = 4.57476 3.80902 4.20934
#
# Compressibility (1/GPa) = 0.10933015
#
# Stress axis : x y z
#
# Youngs Moduli (GPa) = 20.23592 38.91301 81.50898
#
# Poissons Ratio (x) = -0.46230 0.35975
# Poissons Ratio (y) = -0.24041 -0.28580
# Poissons Ratio (z) = 0.08931 -0.13644
#
# Static dielectric constant tensor:
#      x y z
#    x 1.725850 0.000000 -0.011580 
#    y 0.000000 1.847650 0.000000 
#    z -0.011580 0.000000 1.788650 
# 
# From -- ./inp_files/76364.got.cif
#   From: 2010.05.17/outbox.cif.g08.bks.cpg/sg14_39_cif.got.tgz:76364.got - 2010.06.03 17:49:19.
