data_PCOD9243187
_publ_section_title
;
Structure prediction by ZEFSAII (Michael W. Deem and Ramdas Pophale) SiO2 
 PCOD9243187
Probable space group: P 21/C
;
_chemical_formula_sum "Si O2"
_cell_formula_units_Z 32
_cell_length_a 14.470909
_cell_length_b 9.695049
_cell_length_c 13.110929
_cell_angle_alpha 90.000000
_cell_angle_beta 115.497257
_cell_angle_gamma 90.000000
_cell_volume 1660.265148
_symmetry_space_group_name_H-M "P 21/C"
_symmetry_group_IT_number 14
_symmetry_cell_setting 'monoclinic'
loop_
_space_group_symop_operation_xyz
x,y,z
-x,1/2+y,1/2-z
-x,-y,-z
x,1/2-y,1/2+z
loop_
_atom_site_type_symbol
_atom_site_label
_atom_site_fract_x
_atom_site_fract_y
_atom_site_fract_z
Si Si1 0.507507 0.777068 0.935572
Si Si2 0.027191 0.912351 0.879533
Si Si3 0.931960 0.397951 0.837833
Si Si4 0.668691 0.759439 0.842615
Si Si5 0.103532 0.322987 0.072058
Si Si6 0.145660 0.613228 0.631402
Si Si7 0.531824 0.924104 0.160264
Si Si8 0.379807 0.549192 0.765844
O O1 0.616143 0.766370 0.928474
O O2 0.442895 0.637904 0.880201
O O3 0.457692 0.915355 0.863186
O O4 0.521420 0.825529 0.057731
O O5 0.967411 0.782307 0.898819
O O6 0.060484 0.891387 0.779996
O O7 0.945882 0.037364 0.850374
O O8 0.121386 0.930018 0.002928
O O9 0.886544 0.542416 0.853262
O O10 0.867032 0.274426 0.854466
O O11 0.043822 0.374256 0.942625
O O12 0.790514 0.752794 0.901912
O O13 0.628424 0.620703 0.771936
O O14 0.621477 0.883404 0.751054
O O15 0.259812 0.577821 0.717265
O O16 0.432776 0.902305 0.185270
#
# Coordination Sequence:
#
# PCOD9243187 Si02
#       8
#     4   4   4   4   4   4   4   4
#     4   9  20  38  59  84 113 145 191 234 282 340
#     4  10  20  39  58  81 115 153 192 237 291 342
#     4  10  22  37  58  83 117 150 193 243 285 341
#     4  10  20  37  57  82 116 151 183 233 288 336
#     4  10  21  38  56  85 116 150 193 239 289 342
#     4  10  21  36  58  85 113 152 192 236 287 345
#     4   9  20  38  59  84 112 148 189 233 283 340
#     4  10  20  37  58  82 117 149 183 236 283 337
#
# _framework density 19.274031000000001
#
# number of rings (size 3 to 8) (size 9 to 14) (size 15 to 20)
#    0.000    2.250    1.250    0.750    1.750    2.500 
#    4.500    0.000    0.000    0.000    0.000    0.000 
#    0.000    0.000    0.000    0.000    0.000    0.000 
#
# Total GULP energy -178313.265640 kJ/mol
# GULP energy per Si atom -5572.289551 kJ/mol
# Density = 1.923016 g / cm^3
# Si number density = 19.274031 Si / 1000 Ang^3
#
#
#
# Elastic Constant Matrix: (Units=GPa)
#
#
# Indices 1 2 3 4 5 6 
#
# 1 44.8265 9.6208 20.3317 0.0000 5.8713 0.0000
# 2 9.6208 70.5366 1.5352 0.0000 1.7469 0.0000
# 3 20.3317 1.5352 39.6821 0.0000 -14.6187 0.0000
# 4 0.0000 0.0000 0.0000 27.4418 0.0000 3.1933
# 5 5.8713 1.7469 -14.6187 0.0000 18.6339 0.0000
# 6 0.0000 0.0000 0.0000 3.1933 0.0000 22.4502
#
#
#
# Elastic Compliance Matrix: (Units=1/GPa)
#
#
# Indices 1 2 3 4 5 6 
#
# 1 0.049187 -0.004564 -0.043006 0.000000 -0.048810 0.000000
# 2 -0.004564 0.014694 0.002521 0.000000 0.002038 0.000000
# 3 -0.043006 0.002521 0.073198 0.000000 0.070740 0.000000
# 4 0.000000 0.000000 0.000000 0.037054 0.000000 -0.005271
# 5 -0.048810 0.002038 0.070740 0.000000 0.124350 0.000000
# 6 0.000000 0.000000 0.000000 -0.005271 0.000000 0.045293
#
#
# Mechanical properties :
#
#
# Convention : Reuss Voigt Hill
#
# Bulk Modulus (GPa) = 21.28572 24.22453 22.75513
# Shear Modulus (GPa) = 11.12261 21.94237 16.53249
#
# Velocity S-wave (km/s) = 2.40485 3.37774 2.93193
# Velocity P-wave (km/s) = 4.33345 5.27332 4.82632
#
# Compressibility (1/GPa) = 0.04697985
#
# Stress axis : x y z
#
# Youngs Moduli (GPa) = 20.33060 68.05403 13.66162
#
# Poissons Ratio (x) = 0.31060 0.58754
# Poissons Ratio (y) = 0.09279 -0.03444
# Poissons Ratio (z) = 0.87434 -0.17155
#
# Static dielectric constant tensor:
#      x y z
#    x 1.661010 0.000000 0.013670 
#    y 0.000000 1.706150 0.000000 
#    z 0.013670 0.000000 1.669650 
# 
# From -- ./inp_files/46515.got.cif
#   From: 2010.05.17/outbox.cif.g08.bks.cpg/sg14_24_cif.got.tgz:46515.got - 2010.06.03 17:49:19.
