data_PCOD9243843
_publ_section_title
;
Structure prediction by ZEFSAII (Michael W. Deem and Ramdas Pophale) SiO2 
 PCOD9243843
Probable space group: P 21/C
;
_chemical_formula_sum "Si O2"
_cell_formula_units_Z 30
_cell_length_a 11.490985
_cell_length_b 8.943705
_cell_length_c 13.757425
_cell_angle_alpha 90.000000
_cell_angle_beta 68.014704
_cell_angle_gamma 90.000000
_cell_volume 1311.060557
_symmetry_space_group_name_H-M "P 21/C"
_symmetry_group_IT_number 14
_symmetry_cell_setting 'monoclinic'
loop_
_space_group_symop_operation_xyz
x,y,z
-x,1/2+y,1/2-z
-x,-y,-z
x,1/2-y,1/2+z
loop_
_atom_site_type_symbol
_atom_site_label
_atom_site_fract_x
_atom_site_fract_y
_atom_site_fract_z
Si Si1 0.500000 0.500000 0.000000
Si Si2 0.746455 0.990240 0.660560
Si Si3 0.981277 0.500116 0.203254
Si Si4 0.889732 0.736993 0.982605
Si Si5 0.946560 0.327244 0.395673
Si Si6 0.308943 0.761654 0.462474
Si Si7 0.494831 0.029922 0.152295
Si Si8 0.360987 0.307730 0.515912
O O1 0.396839 0.632877 0.001013
O O2 0.393277 0.366731 0.020762
O O3 0.833232 0.010134 0.726807
O O4 0.766658 0.129664 0.584446
O O5 0.800966 0.847579 0.588693
O O6 0.598724 0.983320 0.728606
O O7 0.004661 0.449830 0.305698
O O8 0.025675 0.666109 0.163505
O O9 0.045721 0.384904 0.107308
O O10 0.787155 0.826135 0.953243
O O11 0.988497 0.823952 0.018786
O O12 0.796217 0.332246 0.449662
O O13 0.395843 0.651552 0.372362
O O14 0.559759 0.876179 0.099142
O O15 0.410724 0.096211 0.091120
#
# Coordination Sequence:
#
# PCOD9243843 Si02
#       8
#     2   4   4   4   4   4   4   4
#     4  10  20  38  70  90 128 180 216 264 336 414
#     4  11  22  43  68  94 135 176 224 273 344 406
#     4  11  24  43  71  97 131 179 225 278 342 403
#     4  11  22  45  69  96 132 179 223 280 328 412
#     4  11  24  45  70 100 132 178 226 279 344 405
#     4  11  22  45  65  99 136 177 224 281 339 408
#     4  10  26  39  68 100 138 176 219 286 343 399
#     4  10  22  43  65  99 137 173 223 282 338 400
#
# _framework density 22.882237
#
# number of rings (size 3 to 8) (size 9 to 14) (size 15 to 20)
#    0.000    1.333    4.000    0.800   11.200    0.000 
#    2.400    1.333    0.000    0.000    0.000    0.000 
#    0.000    0.000    0.000    0.000    0.000    0.000 
#
# Total GULP energy -167243.128031 kJ/mol
# GULP energy per Si atom -5574.770934 kJ/mol
# Density = 2.283016 g / cm^3
# Si number density = 22.882237 Si / 1000 Ang^3
#
#
#
# Elastic Constant Matrix: (Units=GPa)
#
#
# Indices 1 2 3 4 5 6 
#
# 1 97.2446 17.3694 5.7781 0.0000 -3.8700 0.0000
# 2 17.3694 101.9552 12.1833 0.0000 -8.6204 0.0000
# 3 5.7781 12.1833 48.4107 0.0000 -14.0597 0.0000
# 4 0.0000 0.0000 0.0000 31.5190 0.0000 -4.1268
# 5 -3.8700 -8.6204 -14.0597 0.0000 36.2984 0.0000
# 6 0.0000 0.0000 0.0000 -4.1268 0.0000 16.0516
#
#
#
# Elastic Compliance Matrix: (Units=1/GPa)
#
#
# Indices 1 2 3 4 5 6 
#
# 1 0.010646 -0.001690 -0.000712 0.000000 0.000458 0.000000
# 2 -0.001690 0.010463 -0.001986 0.000000 0.001536 0.000000
# 3 -0.000712 -0.001986 0.023755 0.000000 0.008654 0.000000
# 4 0.000000 0.000000 0.000000 0.032832 0.000000 0.008441
# 5 0.000458 0.001536 0.008654 0.000000 0.031315 0.000000
# 6 0.000000 0.000000 0.000000 0.008441 0.000000 0.064469
#
#
# Mechanical properties :
#
#
# Convention : Reuss Voigt Hill
#
# Bulk Modulus (GPa) = 27.71011 35.36358 31.53685
# Shear Modulus (GPa) = 25.73548 30.92579 28.33064
#
# Velocity S-wave (km/s) = 3.35728 3.68029 3.52249
# Velocity P-wave (km/s) = 5.21197 5.79202 5.50964
#
# Compressibility (1/GPa) = 0.03608791
#
# Stress axis : x y z
#
# Youngs Moduli (GPa) = 93.93448 95.57298 42.09722
#
# Poissons Ratio (x) = 0.16150 0.02999
# Poissons Ratio (y) = 0.15873 0.08359
# Poissons Ratio (z) = 0.06692 0.18977
#
# Static dielectric constant tensor:
#      x y z
#    x 1.872450 0.000000 0.027410 
#    y 0.000000 1.855890 0.000000 
#    z 0.027410 0.000000 1.906020 
# 
# From -- ./inp_files/43402.got.cif
#   From: 2010.05.17/outbox.cif.g08.bks.cpg/sg14_22_cif.got.tgz:43402.got - 2010.06.03 17:49:19.
