data_PCOD9243608
_publ_section_title
;
Structure prediction by ZEFSAII (Michael W. Deem and Ramdas Pophale) SiO2 
 PCOD9243608
Probable space group: P 21/C
;
_chemical_formula_sum "Si O2"
_cell_formula_units_Z 24
_cell_length_a 9.162577
_cell_length_b 23.577418
_cell_length_c 7.772650
_cell_angle_alpha 90.000000
_cell_angle_beta 132.410458
_cell_angle_gamma 90.000000
_cell_volume 1239.752039
_symmetry_space_group_name_H-M "P 21/C"
_symmetry_group_IT_number 14
_symmetry_cell_setting 'monoclinic'
loop_
_space_group_symop_operation_xyz
x,y,z
-x,1/2+y,1/2-z
-x,-y,-z
x,1/2-y,1/2+z
loop_
_atom_site_type_symbol
_atom_site_label
_atom_site_fract_x
_atom_site_fract_y
_atom_site_fract_z
Si Si1 0.115802 0.676009 0.502835
Si Si2 0.313590 0.383335 0.489376
Si Si3 0.985770 0.213235 0.715954
Si Si4 0.090588 0.058076 0.504649
Si Si5 0.254510 0.650825 0.268033
Si Si6 0.110627 0.058301 0.137045
O O1 0.282157 0.672867 0.486647
O O2 0.141534 0.701395 0.713201
O O3 0.967865 0.720917 0.288919
O O4 0.035441 0.612848 0.472094
O O5 0.178563 0.326309 0.389560
O O6 0.540460 0.368086 0.649255
O O7 0.266940 0.422617 0.617309
O O8 0.239268 0.416748 0.262185
O O9 0.854788 0.192382 0.451777
O O10 0.185501 0.051859 0.391707
O O11 0.903423 0.100078 0.342339
O O12 0.000000 0.000000 0.500000
O O13 0.000000 0.000000 0.000000
#
# Coordination Sequence:
#
# PCOD9243608 Si02
#       6
#     4   4   4   4   4   4
#     4  10  20  38  62  83 120 160 192 246 305 358
#     4  10  22  39  61  89 115 155 202 248 296 358
#     4  10  20  40  60  82 119 155 191 244 310 353
#     4  10  20  38  62  82 121 161 196 245 301 353
#     4  10  22  39  58  90 118 153 202 250 298 357
#     4  10  20  38  61  88 120 160 201 243 304 360
#
# _framework density 19.358709000000001
#
# number of rings (size 3 to 8) (size 9 to 14) (size 15 to 20)
#    0.000    2.000    3.333    0.000    0.000    2.000 
#    6.000    0.833    0.000    0.000    0.000    0.000 
#    0.000    0.000    0.000    0.000    0.000    0.000 
#
# Total GULP energy -133637.873335 kJ/mol
# GULP energy per Si atom -5568.244722 kJ/mol
# Density = 1.931465 g / cm^3
# Si number density = 19.358709 Si / 1000 Ang^3
#
#
#
# Elastic Constant Matrix: (Units=GPa)
#
#
# Indices 1 2 3 4 5 6 
#
# 1 102.3384 -3.3465 59.1265 0.0000 -54.0538 0.0000
# 2 -3.3465 85.4762 29.0811 0.0000 -39.2537 0.0000
# 3 59.1265 29.0811 45.1310 0.0000 -5.2487 0.0000
# 4 0.0000 0.0000 0.0000 6.2265 0.0000 -14.1440
# 5 -54.0538 -39.2537 -5.2487 0.0000 20.8681 0.0000
# 6 0.0000 0.0000 0.0000 -14.1440 0.0000 26.7142
#
#
#
# Elastic Compliance Matrix: (Units=1/GPa)
#
#
# Indices 1 2 3 4 5 6 
#
# 1 -0.000202 -0.007863 0.003658 0.000000 -0.014395 0.000000
# 2 -0.007863 0.005347 0.005828 0.000000 -0.008844 0.000000
# 3 0.003658 0.005828 0.016469 0.000000 0.024579 0.000000
# 4 0.000000 0.000000 0.000000 -0.792341 0.000000 -0.419510
# 5 -0.014395 -0.008844 0.024579 0.000000 0.000179 0.000000
# 6 0.000000 0.000000 0.000000 -0.419510 0.000000 -0.184679
#
#
# Mechanical properties :
#
#
# Convention : Reuss Voigt Hill
#
# Bulk Modulus (GPa) = 40.22831 44.74086 42.48458
# Shear Modulus (GPa) = -5.26213 20.63407 7.68597
#
# Velocity S-wave (km/s) = -1.65049 3.26832 1.99472
# Velocity P-wave (km/s) = 4.14649 6.11590 5.22483
#
# Compressibility (1/GPa) = 0.02485812
#
# Stress axis : x y z
#
# Youngs Moduli (GPa) = -4940.53353 187.01320 60.72033
#
# Poissons Ratio (x) = 1.47054 -0.22211
# Poissons Ratio (y) = -38.84874 -0.35385
# Poissons Ratio (z) = 18.07173 -1.08984
#
# Static dielectric constant tensor:
#      x y z
#    x 1.691790 0.000000 -0.056480 
#    y 0.000000 1.678170 0.000000 
#    z -0.056480 0.000000 1.658430 
# 
# From -- ./inp_files/10727.got.cif
#   From: 2010.05.17/outbox.cif.g08.bks.cpg/sg14_6_cif.got.tgz:10727.got - 2010.06.03 17:49:19.
