data_PCOD9243674
_publ_section_title
;
Structure prediction by ZEFSAII (Michael W. Deem and Ramdas Pophale) SiO2 
 PCOD9243674
Probable space group: P 21/C
;
_chemical_formula_sum "Si O2"
_cell_formula_units_Z 22
_cell_length_a 25.327514
_cell_length_b 6.159332
_cell_length_c 14.288956
_cell_angle_alpha 90.000000
_cell_angle_beta 21.011936
_cell_angle_gamma 90.000000
_cell_volume 799.266217
_symmetry_space_group_name_H-M "P 21/C"
_symmetry_group_IT_number 14
_symmetry_cell_setting 'monoclinic'
loop_
_space_group_symop_operation_xyz
x,y,z
-x,1/2+y,1/2-z
-x,-y,-z
x,1/2-y,1/2+z
loop_
_atom_site_type_symbol
_atom_site_label
_atom_site_fract_x
_atom_site_fract_y
_atom_site_fract_z
Si Si1 0.937262 0.136773 0.992956
Si Si2 0.500000 0.500000 0.500000
Si Si3 0.602792 0.573684 0.720622
Si Si4 0.117089 0.178191 0.354012
Si Si5 0.815781 0.912528 0.553156
Si Si6 0.709122 0.427098 0.730382
O O1 0.990490 0.305257 0.983767
O O2 0.079625 0.031614 0.707244
O O3 0.854304 0.939684 0.180867
O O4 0.829618 0.210867 0.086676
O O5 0.416729 0.314334 0.703636
O O6 0.351004 0.503503 0.677854
O O7 0.732430 0.574818 0.433042
O O8 0.643151 0.391819 0.734122
O O9 0.435816 0.521541 0.967909
O O10 0.096700 0.100771 0.493524
O O11 0.793094 0.651685 0.574500
#
# Coordination Sequence:
#
# PCOD9243674 Si02
#       6
#     4   2   4   4   4   4
#     4  10  20  40  64  96 134 177 221 285 344 404
#     4  10  20  38  62  94 132 176 214 278 342 392
#     4  10  20  40  62  97 129 174 231 270 343 407
#     4  10  21  39  67  93 130 178 225 273 336 426
#     4  10  21  39  66  96 134 170 226 287 338 403
#     4   9  20  38  66  88 134 172 214 294 333 393
#
# _framework density 27.525247
#
# number of rings (size 3 to 8) (size 9 to 14) (size 15 to 20)
#    0.000    2.182    3.636    0.000    0.000    5.818 
#    0.000    0.909    4.000    0.000    0.000    0.000 
#    0.000    0.000    0.000    0.000    0.000    0.000 
#
# Total GULP energy -122478.593584 kJ/mol
# GULP energy per Si atom -5567.208799 kJ/mol
# Density = 2.746260 g / cm^3
# Si number density = 27.525247 Si / 1000 Ang^3
#
#
#
# Elastic Constant Matrix: (Units=GPa)
#
#
# Indices 1 2 3 4 5 6 
#
# 1 176.8410 27.3487 59.2517 0.0000 -39.6427 0.0000
# 2 27.3487 31.6057 20.9815 0.0000 -10.8657 0.0000
# 3 59.2517 20.9815 152.1298 0.0000 -1.2669 0.0000
# 4 0.0000 0.0000 0.0000 50.9085 0.0000 -8.8605
# 5 -39.6427 -10.8657 -1.2669 0.0000 51.5624 0.0000
# 6 0.0000 0.0000 0.0000 -8.8605 0.0000 71.2479
#
#
#
# Elastic Compliance Matrix: (Units=1/GPa)
#
#
# Indices 1 2 3 4 5 6 
#
# 1 0.008374 -0.003495 -0.002733 0.000000 0.005635 0.000000
# 2 -0.003495 0.039202 -0.004000 0.000000 0.005476 0.000000
# 3 -0.002733 -0.004000 0.008166 0.000000 -0.002743 0.000000
# 4 0.000000 0.000000 0.000000 0.020078 0.000000 0.002497
# 5 0.005635 0.005476 -0.002743 0.000000 0.024812 0.000000
# 6 0.000000 0.000000 0.000000 0.002497 0.000000 0.014346
#
#
# Mechanical properties :
#
#
# Convention : Reuss Voigt Hill
#
# Bulk Modulus (GPa) = 28.33864 63.97112 46.15488
# Shear Modulus (GPa) = 33.96843 51.61009 42.78926
#
# Velocity S-wave (km/s) = 3.51676 4.33484 3.94705
# Velocity P-wave (km/s) = 5.17765 6.95311 6.13000
#
# Compressibility (1/GPa) = 0.03528751
#
# Stress axis : x y z
#
# Youngs Moduli (GPa) = 119.41782 25.50902 122.45269
#
# Poissons Ratio (x) = 0.08915 0.33461
# Poissons Ratio (y) = 0.41736 0.48979
# Poissons Ratio (z) = 0.32632 0.10203
#
# Static dielectric constant tensor:
#      x y z
#    x 2.291910 0.000000 0.076750 
#    y 0.000000 2.664610 0.000000 
#    z 0.076750 0.000000 2.332840 
# 
# From -- ./inp_files/43275.got.cif
#   From: 2010.05.17/outbox.cif.g08.bks.cpg/sg14_22_cif.got.tgz:43275.got - 2010.06.03 17:49:19.
