data_PCOD9243132
_publ_section_title
;
Structure prediction by ZEFSAII (Michael W. Deem and Ramdas Pophale) SiO2 
 PCOD9243132
Probable space group: P 21/C
;
_chemical_formula_sum "Si O2"
_cell_formula_units_Z 20
_cell_length_a 11.772925
_cell_length_b 9.644113
_cell_length_c 9.385165
_cell_angle_alpha 90.000000
_cell_angle_beta 124.854766
_cell_angle_gamma 90.000000
_cell_volume 874.423558
_symmetry_space_group_name_H-M "P 21/C"
_symmetry_group_IT_number 14
_symmetry_cell_setting 'monoclinic'
loop_
_space_group_symop_operation_xyz
x,y,z
-x,1/2+y,1/2-z
-x,-y,-z
x,1/2-y,1/2+z
loop_
_atom_site_type_symbol
_atom_site_label
_atom_site_fract_x
_atom_site_fract_y
_atom_site_fract_z
Si Si1 0.151580 0.482032 0.047926
Si Si2 0.460033 0.661715 0.787357
Si Si3 0.280562 0.321750 0.611612
Si Si4 0.692557 0.473478 0.101219
Si Si5 0.659058 0.470750 0.566434
O O1 0.194954 0.319129 0.069092
O O2 0.256804 0.557415 0.231245
O O3 0.178609 0.544087 0.910427
O O4 0.000000 0.500000 0.000000
O O5 0.558811 0.780925 0.801302
O O6 0.367660 0.661714 0.863170
O O7 0.361939 0.623432 0.586888
O O8 0.573147 0.544636 0.917720
O O9 0.273607 0.418136 0.746394
O O10 0.254807 0.401744 0.445119
O O11 0.500000 0.500000 0.500000
#
# Coordination Sequence:
#
# PCOD9243132 Si02
#       5
#     4   4   4   4   4
#     4  11  22  37  60  83 126 171 206 244 301 369
#     4   9  18  32  58  91 117 148 192 261 305 359
#     4  10  20  36  65  86 123 162 201 245 327 362
#     4   9  18  34  59  86 117 156 198 245 307 361
#     4  11  20  37  63  94 120 153 208 259 305 363
#
# _framework density 22.872211
#
# number of rings (size 3 to 8) (size 9 to 14) (size 15 to 20)
#    0.000    2.000    4.000    2.400    0.000    0.000 
#    0.000    4.000   17.600    0.000    0.000    0.000 
#    0.000    0.000    0.000    0.000    0.000    0.000 
#
# Total GULP energy -111578.354627 kJ/mol
# GULP energy per Si atom -5578.917731 kJ/mol
# Density = 2.282015 g / cm^3
# Si number density = 22.872211 Si / 1000 Ang^3
#
#
#
# Elastic Constant Matrix: (Units=GPa)
#
#
# Indices 1 2 3 4 5 6 
#
# 1 217.9359 35.0291 59.7403 0.0000 -27.6662 0.0000
# 2 35.0291 48.6296 14.6226 0.0000 -11.9328 0.0000
# 3 59.7403 14.6226 74.1012 0.0000 -30.9435 0.0000
# 4 0.0000 0.0000 0.0000 27.9723 0.0000 -13.3694
# 5 -27.6662 -11.9328 -30.9435 0.0000 42.6517 0.0000
# 6 0.0000 0.0000 0.0000 -13.3694 0.0000 30.7692
#
#
#
# Elastic Compliance Matrix: (Units=1/GPa)
#
#
# Indices 1 2 3 4 5 6 
#
# 1 0.006331 -0.003223 -0.004490 0.000000 -0.000053 0.000000
# 2 -0.003223 0.024061 -0.000304 0.000000 0.004421 0.000000
# 3 -0.004490 -0.000304 0.022843 0.000000 0.013576 0.000000
# 4 0.000000 0.000000 0.000000 0.045120 0.000000 0.019605
# 5 -0.000053 0.004421 0.013576 0.000000 0.034497 0.000000
# 6 0.000000 0.000000 0.000000 0.019605 0.000000 0.041018
#
#
# Mechanical properties :
#
#
# Convention : Reuss Voigt Hill
#
# Bulk Modulus (GPa) = 26.87971 62.16118 44.52044
# Shear Modulus (GPa) = 24.71524 35.69695 30.20609
#
# Velocity S-wave (km/s) = 3.29078 3.95487 3.63801
# Velocity P-wave (km/s) = 5.12022 6.93479 6.09540
#
# Compressibility (1/GPa) = 0.03720278
#
# Stress axis : x y z
#
# Youngs Moduli (GPa) = 157.96404 41.56056 43.77624
#
# Poissons Ratio (x) = 0.13395 0.19654
# Poissons Ratio (y) = 0.50911 0.01329
# Poissons Ratio (z) = 0.70920 0.01262
#
# Static dielectric constant tensor:
#      x y z
#    x 1.877400 0.000000 -0.033370 
#    y 0.000000 2.100730 0.000000 
#    z -0.033370 0.000000 1.829550 
# 
# From -- ./inp_files/12264.got.cif
#   From: 2010.05.17/outbox.cif.g08.bks.cpg/sg14_7_cif.got.tgz:12264.got - 2010.06.03 17:49:19.
