data_PCOD9243074
_publ_section_title
;
Structure prediction by ZEFSAII (Michael W. Deem and Ramdas Pophale) SiO2 
 PCOD9243074
Probable space group: P 21/C
;
_chemical_formula_sum "Si O2"
_cell_formula_units_Z 32
_cell_length_a 34.699683
_cell_length_b 7.654798
_cell_length_c 13.855904
_cell_angle_alpha 90.000000
_cell_angle_beta 153.738926
_cell_angle_gamma 90.000000
_cell_volume 1628.433818
_symmetry_space_group_name_H-M "P 21/C"
_symmetry_group_IT_number 14
_symmetry_cell_setting 'monoclinic'
loop_
_space_group_symop_operation_xyz
x,y,z
-x,1/2+y,1/2-z
-x,-y,-z
x,1/2-y,1/2+z
loop_
_atom_site_type_symbol
_atom_site_label
_atom_site_fract_x
_atom_site_fract_y
_atom_site_fract_z
Si Si1 0.298177 0.032937 0.413643
Si Si2 0.475490 0.122544 0.568963
Si Si3 0.308211 0.565483 0.715714
Si Si4 0.992902 0.673702 0.118151
Si Si5 0.882071 0.360914 0.785021
Si Si6 0.412094 0.658488 0.328492
Si Si7 0.105550 0.529134 0.548611
Si Si8 0.544352 0.739088 0.762302
O O1 0.353186 0.209620 0.521756
O O2 0.311755 0.936672 0.340476
O O3 0.347031 0.947777 0.614683
O O4 0.196511 0.038005 0.207647
O O5 0.531324 0.221321 0.615931
O O6 0.481135 0.212960 0.684809
O O7 0.371957 0.089613 0.320374
O O8 0.516581 0.931081 0.670655
O O9 0.209760 0.564260 0.458728
O O10 0.350719 0.736358 0.764510
O O11 0.057446 0.679097 0.171520
O O12 0.047410 0.620199 0.335182
O O13 0.926823 0.514464 0.947721
O O14 0.945077 0.859666 0.024261
O O15 0.874420 0.181867 0.828819
O O16 0.489167 0.597503 0.574630
#
# Coordination Sequence:
#
# PCOD9243074 Si02
#       8
#     4   4   4   4   4   4   4   4
#     4  11  23  38  61  89 128 156 209 267 302 371
#     4  10  21  37  60  86 125 166 210 250 308 368
#     4  10  20  36  62  87 122 167 198 255 317 366
#     4  11  25  42  72  94 129 168 213 264 334 393
#     4  11  23  45  68  95 132 168 208 272 326 389
#     4  11  20  37  62  86 121 170 205 248 311 363
#     4  12  23  44  68  99 126 168 218 261 331 399
#     4  10  21  37  56  86 120 162 206 253 303 363
#
# _framework density 19.650784999999999
#
# number of rings (size 3 to 8) (size 9 to 14) (size 15 to 20)
#    0.000    1.250    3.750    4.500    0.000    2.000 
#    0.000    1.250    0.000    0.000    0.000    0.000 
#    0.000    0.000    0.000    0.000    0.000    0.000 
#
# Total GULP energy -178511.109024 kJ/mol
# GULP energy per Si atom -5578.472157 kJ/mol
# Density = 1.960606 g / cm^3
# Si number density = 19.650785 Si / 1000 Ang^3
#
#
#
# Elastic Constant Matrix: (Units=GPa)
#
#
# Indices 1 2 3 4 5 6 
#
# 1 89.3253 31.2393 32.5899 0.0000 7.8393 0.0000
# 2 31.2393 58.1805 16.2253 0.0000 6.2593 0.0000
# 3 32.5899 16.2253 102.0736 0.0000 17.5354 0.0000
# 4 0.0000 0.0000 0.0000 20.6767 0.0000 9.5750
# 5 7.8393 6.2593 17.5354 0.0000 35.0762 0.0000
# 6 0.0000 0.0000 0.0000 9.5750 0.0000 -5.8684
#
#
#
# Elastic Compliance Matrix: (Units=1/GPa)
#
#
# Indices 1 2 3 4 5 6 
#
# 1 0.014994 -0.007009 -0.003623 0.000000 -0.000289 0.000000
# 2 -0.007009 0.021384 -0.000848 0.000000 -0.001826 0.000000
# 3 -0.003623 -0.000848 0.011950 0.000000 -0.005013 0.000000
# 4 0.000000 0.000000 0.000000 0.027549 0.000000 0.044949
# 5 -0.000289 -0.001826 -0.005013 0.000000 0.031406 0.000000
# 6 0.000000 0.000000 0.000000 0.044949 0.000000 -0.097064
#
#
# Mechanical properties :
#
#
# Convention : Reuss Voigt Hill
#
# Bulk Modulus (GPa) = 39.42110 45.52095 42.47103
# Shear Modulus (GPa) = 120.09513 21.27856 70.68685
#
# Velocity S-wave (km/s) = 7.82607 3.29422 6.00413
# Velocity P-wave (km/s) = 10.08799 6.13876 8.35021
#
# Compressibility (1/GPa) = 0.02536712
#
# Stress axis : x y z
#
# Youngs Moduli (GPa) = 66.69514 46.76363 83.68460
#
# Poissons Ratio (x) = 0.32777 0.30322
# Poissons Ratio (y) = 0.46747 0.07094
# Poissons Ratio (z) = 0.24166 0.03964
#
# Static dielectric constant tensor:
#      x y z
#    x 1.745330 0.000000 -0.027590 
#    y 0.000000 1.707610 0.000000 
#    z -0.027590 0.000000 1.721970 
# 
# From -- ./inp_files/36508.got.cif
#   From: 2010.05.17/outbox.cif.g08.bks.cpg/sg14_19_cif.got.tgz:36508.got - 2010.06.03 17:49:19.
