data_PCOD9243903
_publ_section_title
;
Structure prediction by ZEFSAII (Michael W. Deem and Ramdas Pophale) SiO2 
 PCOD9243903
Probable space group: P 21/C
;
_chemical_formula_sum "Si O2"
_cell_formula_units_Z 28
_cell_length_a 12.575388
_cell_length_b 6.742768
_cell_length_c 20.252191
_cell_angle_alpha 90.000000
_cell_angle_beta 58.758929
_cell_angle_gamma 90.000000
_cell_volume 1468.229802
_symmetry_space_group_name_H-M "P 21/C"
_symmetry_group_IT_number 14
_symmetry_cell_setting 'monoclinic'
loop_
_space_group_symop_operation_xyz
x,y,z
-x,1/2+y,1/2-z
-x,-y,-z
x,1/2-y,1/2+z
loop_
_atom_site_type_symbol
_atom_site_label
_atom_site_fract_x
_atom_site_fract_y
_atom_site_fract_z
Si Si1 0.194260 0.036595 0.973945
Si Si2 0.156088 0.810112 0.238762
Si Si3 0.648170 0.934891 0.885643
Si Si4 0.388591 0.770449 0.980245
Si Si5 0.954045 0.390554 0.847343
Si Si6 0.072385 0.010286 0.872642
Si Si7 0.736177 0.871444 0.463816
O O1 0.157346 0.029792 0.909895
O O2 0.274471 0.849443 0.972317
O O3 0.273577 0.225808 0.971019
O O4 0.065281 0.051976 0.057024
O O5 0.142442 0.705552 0.172542
O O6 0.134613 0.646176 0.302328
O O7 0.275930 0.952360 0.195829
O O8 0.039497 0.956725 0.281211
O O9 0.520621 0.828778 0.906224
O O10 0.726233 0.768552 0.901839
O O11 0.617397 0.103941 0.949968
O O12 0.368362 0.539654 0.000809
O O13 0.867919 0.514921 0.924258
O O14 0.041617 0.222370 0.849821
#
# Coordination Sequence:
#
# PCOD9243903 Si02
#       7
#     4   4   4   4   4   4   4
#     4  10  22  39  58  87 118 156 208 246 295 364
#     4  12  22  36  57  86 125 155 193 247 312 367
#     4  10  22  35  59  93 117 155 202 245 303 365
#     4  10  20  39  61  85 121 155 200 253 295 354
#     4  12  21  34  58  88 118 155 192 248 310 364
#     4  11  23  37  58  88 120 156 199 251 303 362
#     4  11  19  36  60  90 121 155 198 255 303 358
#
# _framework density 19.070585000000001
#
# number of rings (size 3 to 8) (size 9 to 14) (size 15 to 20)
#    0.000    1.143    5.714    2.143    0.000    1.714 
#    0.000    0.000    3.143    0.000    0.000    0.000 
#    0.000    0.000    0.000    0.000    0.000    0.000 
#
# Total GULP energy -156202.479316 kJ/mol
# GULP energy per Si atom -5578.659976 kJ/mol
# Density = 1.902718 g / cm^3
# Si number density = 19.070585 Si / 1000 Ang^3
#
#
#
# Elastic Constant Matrix: (Units=GPa)
#
#
# Indices 1 2 3 4 5 6 
#
# 1 69.8105 24.7463 24.6875 0.0000 3.9278 0.0000
# 2 24.7463 108.9163 19.7698 0.0000 4.5667 0.0000
# 3 24.6875 19.7698 42.9138 0.0000 -2.6335 0.0000
# 4 0.0000 0.0000 0.0000 29.6809 0.0000 -11.0472
# 5 3.9278 4.5667 -2.6335 0.0000 30.8010 0.0000
# 6 0.0000 0.0000 0.0000 -11.0472 0.0000 11.4270
#
#
#
# Elastic Compliance Matrix: (Units=1/GPa)
#
#
# Indices 1 2 3 4 5 6 
#
# 1 0.018833 -0.002355 -0.009927 0.000000 -0.002901 0.000000
# 2 -0.002355 0.010424 -0.003542 0.000000 -0.001548 0.000000
# 3 -0.009927 -0.003542 0.030918 0.000000 0.004435 0.000000
# 4 0.000000 0.000000 0.000000 0.052629 0.000000 0.050880
# 5 -0.002901 -0.001548 0.004435 0.000000 0.033445 0.000000
# 6 0.000000 0.000000 0.000000 0.050880 0.000000 0.136700
#
#
# Mechanical properties :
#
#
# Convention : Reuss Voigt Hill
#
# Bulk Modulus (GPa) = 35.05694 40.00533 37.53114
# Shear Modulus (GPa) = 15.42692 24.54425 19.98559
#
# Velocity S-wave (km/s) = 2.84727 3.59140 3.24076
# Velocity P-wave (km/s) = 5.40665 6.18228 5.80743
#
# Compressibility (1/GPa) = 0.02852502
#
# Stress axis : x y z
#
# Youngs Moduli (GPa) = 53.09723 95.92864 32.34400
#
# Poissons Ratio (x) = 0.22595 0.32109
# Poissons Ratio (y) = 0.12507 0.11457
# Poissons Ratio (z) = 0.52712 0.33981
#
# Static dielectric constant tensor:
#      x y z
#    x 1.675140 0.000000 -0.030710 
#    y 0.000000 1.700020 0.000000 
#    z -0.030710 0.000000 1.679900 
# 
# From -- ./inp_files/66419.got.cif
#   From: 2010.05.17/outbox.cif.g08.bks.cpg/sg14_34_cif.got.tgz:66419.got - 2010.06.03 17:49:19.
