data_PCOD9243364
_publ_section_title
;
Structure prediction by ZEFSAII (Michael W. Deem and Ramdas Pophale) SiO2 
 PCOD9243364
Probable space group: P 21/C
;
_chemical_formula_sum "Si O2"
_cell_formula_units_Z 32
_cell_length_a 8.459902
_cell_length_b 15.638831
_cell_length_c 15.086007
_cell_angle_alpha 90.000000
_cell_angle_beta 54.100928
_cell_angle_gamma 90.000000
_cell_volume 1616.800221
_symmetry_space_group_name_H-M "P 21/C"
_symmetry_group_IT_number 14
_symmetry_cell_setting 'monoclinic'
loop_
_space_group_symop_operation_xyz
x,y,z
-x,1/2+y,1/2-z
-x,-y,-z
x,1/2-y,1/2+z
loop_
_atom_site_type_symbol
_atom_site_label
_atom_site_fract_x
_atom_site_fract_y
_atom_site_fract_z
Si Si1 0.111203 0.560887 0.896060
Si Si2 0.913496 0.757209 0.407652
Si Si3 0.791880 0.506781 0.520052
Si Si4 0.808110 0.043116 0.825939
Si Si5 0.824602 0.182765 0.033141
Si Si6 0.458722 0.164933 0.895528
Si Si7 0.452057 0.677630 0.824821
Si Si8 0.898928 0.819763 0.222805
O O1 0.169688 0.516334 0.783279
O O2 0.314495 0.594779 0.869805
O O3 0.000000 0.500000 0.000000
O O4 0.982189 0.647180 0.917381
O O5 0.693486 0.727025 0.505067
O O6 0.937860 0.758615 0.293818
O O7 0.058269 0.694100 0.413134
O O8 0.780374 0.520959 0.416964
O O9 0.725115 0.409474 0.555424
O O10 0.667371 0.583779 0.599178
O O11 0.000000 0.500000 0.500000
O O12 0.639502 0.117116 0.884073
O O13 0.010034 0.089137 0.782311
O O14 0.986025 0.201981 0.904742
O O15 0.658958 0.252723 0.081534
O O16 0.544179 0.208224 0.779328
O O17 0.671162 0.670565 0.783752
#
# Coordination Sequence:
#
# PCOD9243364 Si02
#       8
#     4   4   4   4   4   4   4   4
#     4   9  20  42  64  86 126 162 205 255 309 374
#     4  10  20  37  62  89 122 162 201 257 310 364
#     4  11  20  37  61  89 122 158 205 260 305 367
#     4   9  21  37  60  86 125 160 204 257 311 363
#     4  10  21  41  60  90 121 163 207 250 307 374
#     4  11  20  39  60  89 128 159 203 263 316 360
#     4  10  21  40  64  88 123 163 199 254 309 359
#     4  10  20  38  63  86 123 163 201 257 304 366
#
# _framework density 19.792179000000001
#
# number of rings (size 3 to 8) (size 9 to 14) (size 15 to 20)
#    0.000    2.000    2.500    1.875    3.500    0.000 
#    9.000    2.500    0.000    0.000    0.000    0.000 
#    0.000    0.000    0.000    0.000    0.000    0.000 
#
# Total GULP energy -178289.326428 kJ/mol
# GULP energy per Si atom -5571.541451 kJ/mol
# Density = 1.974713 g / cm^3
# Si number density = 19.792179 Si / 1000 Ang^3
#
#
#
# Elastic Constant Matrix: (Units=GPa)
#
#
# Indices 1 2 3 4 5 6 
#
# 1 98.7778 20.5142 32.5666 0.0000 -10.2330 0.0000
# 2 20.5142 42.0242 41.2421 0.0000 3.3478 0.0000
# 3 32.5666 41.2421 94.9724 0.0000 -4.8836 0.0000
# 4 0.0000 0.0000 0.0000 35.2683 0.0000 -6.7531
# 5 -10.2330 3.3478 -4.8836 0.0000 38.3961 0.0000
# 6 0.0000 0.0000 0.0000 -6.7531 0.0000 22.8770
#
#
#
# Elastic Compliance Matrix: (Units=1/GPa)
#
#
# Indices 1 2 3 4 5 6 
#
# 1 0.012017 -0.003914 -0.002254 0.000000 0.003257 0.000000
# 2 -0.003914 0.044137 -0.018195 0.000000 -0.007206 0.000000
# 3 -0.002254 -0.018195 0.019381 0.000000 0.003451 0.000000
# 4 0.000000 0.000000 0.000000 0.030053 0.000000 0.008871
# 5 0.003257 -0.007206 0.003451 0.000000 0.027980 0.000000
# 6 0.000000 0.000000 0.000000 0.008871 0.000000 0.046331
#
#
# Mechanical properties :
#
#
# Convention : Reuss Voigt Hill
#
# Bulk Modulus (GPa) = 37.30004 47.15780 42.22892
# Shear Modulus (GPa) = 21.04737 28.73836 24.89287
#
# Velocity S-wave (km/s) = 3.26455 3.81465 3.55027
# Velocity P-wave (km/s) = 5.75295 6.57878 6.17968
#
# Compressibility (1/GPa) = 0.02680962
#
# Stress axis : x y z
#
# Youngs Moduli (GPa) = 83.21524 22.65682 51.59753
#
# Poissons Ratio (x) = 0.08868 0.11628
# Poissons Ratio (y) = 0.32571 0.93881
# Poissons Ratio (z) = 0.18753 0.41224
#
# Static dielectric constant tensor:
#      x y z
#    x 1.754130 0.000000 0.021750 
#    y 0.000000 1.711780 0.000000 
#    z 0.021750 0.000000 1.746040 
# 
# From -- ./inp_files/41706.got.cif
#   From: 2010.05.17/outbox.cif.g08.bks.cpg/sg14_21_cif.got.tgz:41706.got - 2010.06.03 17:49:19.
