data_PCOD9243360
_publ_section_title
;
Structure prediction by ZEFSAII (Michael W. Deem and Ramdas Pophale) SiO2 
 PCOD9243360
Probable space group: P 21/C
;
_chemical_formula_sum "Si O2"
_cell_formula_units_Z 24
_cell_length_a 14.101302
_cell_length_b 7.767656
_cell_length_c 15.103479
_cell_angle_alpha 90.000000
_cell_angle_beta 41.717053
_cell_angle_gamma 90.000000
_cell_volume 1100.888376
_symmetry_space_group_name_H-M "P 21/C"
_symmetry_group_IT_number 14
_symmetry_cell_setting 'monoclinic'
loop_
_space_group_symop_operation_xyz
x,y,z
-x,1/2+y,1/2-z
-x,-y,-z
x,1/2-y,1/2+z
loop_
_atom_site_type_symbol
_atom_site_label
_atom_site_fract_x
_atom_site_fract_y
_atom_site_fract_z
Si Si1 0.793669 0.635333 0.148547
Si Si2 0.399262 0.244814 0.863476
Si Si3 0.112406 0.843694 0.168414
Si Si4 0.803480 0.766061 0.837037
Si Si5 0.097131 0.744465 0.873629
Si Si6 0.294004 0.868976 0.877128
O O1 0.664572 0.638866 0.170527
O O2 0.760180 0.726898 0.264853
O O3 0.841514 0.441464 0.138027
O O4 0.928872 0.728784 0.008509
O O5 0.567564 0.266531 0.750987
O O6 0.350844 0.054075 0.868445
O O7 0.320528 0.289411 0.010000
O O8 0.125142 0.736542 0.250106
O O9 0.949492 0.837100 0.249841
O O10 0.154005 0.038088 0.165465
O O11 0.213331 0.786406 0.017760
O O12 0.178298 0.877812 0.879428
#
# Coordination Sequence:
#
# PCOD9243360 Si02
#       6
#     4   4   4   4   4   4
#     4  10  20  37  62  88 116 152 193 238 290 346
#     4  11  24  40  59  86 121 156 193 240 291 343
#     4  10  21  37  60  88 116 151 193 239 288 343
#     4  10  21  37  60  88 116 151 193 239 288 343
#     4  10  20  37  62  88 116 152 193 238 290 346
#     4  11  24  40  59  86 121 156 193 240 291 343
#
# _framework density 21.800576
#
# number of rings (size 3 to 8) (size 9 to 14) (size 15 to 20)
#    0.000    1.667    3.333    1.000    0.000    4.667 
#    0.000    6.667    0.000    0.000    0.000    0.000 
#    0.000    0.000    0.000    0.000    0.000    0.000 
#
# Total GULP energy -134256.215105 kJ/mol
# GULP energy per Si atom -5594.008963 kJ/mol
# Density = 2.175096 g / cm^3
# Si number density = 21.800576 Si / 1000 Ang^3
#
#
#
# Elastic Constant Matrix: (Units=GPa)
#
#
# Indices 1 2 3 4 5 6 
#
# 1 47.6606 -1.0127 29.1949 0.0000 -0.0831 0.0000
# 2 -1.0127 24.1704 11.6594 0.0000 0.1844 0.0000
# 3 29.1949 11.6594 153.7834 0.0000 5.9851 0.0000
# 4 0.0000 0.0000 0.0000 19.9969 0.0000 -3.3795
# 5 -0.0831 0.1844 5.9851 0.0000 40.8130 0.0000
# 6 0.0000 0.0000 0.0000 -3.3795 0.0000 31.1841
#
#
#
# Elastic Compliance Matrix: (Units=1/GPa)
#
#
# Indices 1 2 3 4 5 6 
#
# 1 0.024020 0.003336 -0.004842 0.000000 0.000744 0.000000
# 2 0.003336 0.043410 -0.003940 0.000000 0.000388 0.000000
# 3 -0.004842 -0.003940 0.007765 0.000000 -0.001131 0.000000
# 4 0.000000 0.000000 0.000000 0.050941 0.000000 0.005521
# 5 0.000744 0.000388 -0.001131 0.000000 0.024668 0.000000
# 6 0.000000 0.000000 0.000000 0.005521 0.000000 0.032666
#
#
# Mechanical properties :
#
#
# Convention : Reuss Voigt Hill
#
# Bulk Modulus (GPa) = 15.55116 33.92197 24.73657
# Shear Modulus (GPa) = 23.17025 30.78366 26.97696
#
# Velocity S-wave (km/s) = 3.26364 3.76181 3.52155
# Velocity P-wave (km/s) = 4.62068 5.87045 5.28265
#
# Compressibility (1/GPa) = 0.06430388
#
# Stress axis : x y z
#
# Youngs Moduli (GPa) = 41.63231 23.03611 128.79021
#
# Poissons Ratio (x) = -0.07686 0.62359
# Poissons Ratio (y) = -0.13890 0.50740
# Poissons Ratio (z) = 0.20158 0.09076
#
# Static dielectric constant tensor:
#      x y z
#    x 1.745420 0.000000 0.022540 
#    y 0.000000 1.856960 0.000000 
#    z 0.022540 0.000000 1.762230 
# 
# From -- ./inp_files/46342.got.cif
#   From: 2010.05.17/outbox.cif.g08.bks.cpg/sg14_24_cif.got.tgz:46342.got - 2010.06.03 17:49:19.
