data_PCOD9243270
_publ_section_title
;
Structure prediction by ZEFSAII (Michael W. Deem and Ramdas Pophale) SiO2 
 PCOD9243270
Probable space group: P 21/C
;
_chemical_formula_sum "Si O2"
_cell_formula_units_Z 32
_cell_length_a 13.751047
_cell_length_b 15.260654
_cell_length_c 22.511442
_cell_angle_alpha 90.000000
_cell_angle_beta 22.124808
_cell_angle_gamma 90.000000
_cell_volume 1779.187958
_symmetry_space_group_name_H-M "P 21/C"
_symmetry_group_IT_number 14
_symmetry_cell_setting 'monoclinic'
loop_
_space_group_symop_operation_xyz
x,y,z
-x,1/2+y,1/2-z
-x,-y,-z
x,1/2-y,1/2+z
loop_
_atom_site_type_symbol
_atom_site_label
_atom_site_fract_x
_atom_site_fract_y
_atom_site_fract_z
Si Si1 0.713509 0.242314 0.049026
Si Si2 0.741113 0.281468 0.339320
Si Si3 0.772219 0.130834 0.410066
Si Si4 0.842668 0.403521 0.383734
Si Si5 0.989555 0.147625 0.112017
Si Si6 0.300767 0.089049 0.044274
Si Si7 0.292617 0.472455 0.211619
Si Si8 0.839810 0.677503 0.618668
O O1 0.424760 0.266610 0.232090
O O2 0.806119 0.320503 0.953449
O O3 0.711766 0.157637 0.007338
O O4 0.924362 0.224743 0.980412
O O5 0.646773 0.201683 0.435343
O O6 0.902195 0.343231 0.293210
O O7 0.892991 0.235297 0.199840
O O8 0.518437 0.344425 0.441704
O O9 0.580363 0.050471 0.528518
O O10 0.044415 0.107393 0.227881
O O11 0.656979 0.485170 0.474089
O O12 0.098679 0.442117 0.269155
O O13 0.222316 0.110468 0.020813
O O14 0.767869 0.073215 0.241136
O O15 0.074270 0.159221 0.996806
O O16 0.223762 0.410424 0.307073
#
# Coordination Sequence:
#
# PCOD9243270 Si02
#       8
#     4   4   4   4   4   4   4   4
#     4   9  20  35  59  83 106 148 189 233 270 334
#     4  10  21  33  53  80 115 142 175 221 283 335
#     4   9  20  34  56  83 106 141 183 230 276 323
#     4   9  19  35  56  79 107 145 178 224 279 330
#     4  10  22  35  55  84 108 148 181 233 272 322
#     4  10  21  35  54  81 113 145 177 227 276 340
#     4   9  19  38  57  83 106 140 193 230 266 327
#     4  10  20  37  60  81 113 148 190 231 276 323
#
# _framework density 17.985734000000001
#
# number of rings (size 3 to 8) (size 9 to 14) (size 15 to 20)
#    0.000    2.500    0.000    0.750   12.250    4.500 
#    0.000    0.000    0.000    0.750    0.000    0.000 
#    0.000    0.000    0.000    0.000    0.000    0.000 
#
# Total GULP energy -178457.210348 kJ/mol
# GULP energy per Si atom -5576.787823 kJ/mol
# Density = 1.794480 g / cm^3
# Si number density = 17.985734 Si / 1000 Ang^3
#
#
#
# Elastic Constant Matrix: (Units=GPa)
#
#
# Indices 1 2 3 4 5 6 
#
# 1 99.9859 27.1077 46.3811 0.0000 18.8759 0.0000
# 2 27.1077 75.1892 32.5547 0.0000 6.8833 0.0000
# 3 46.3811 32.5547 53.9112 0.0000 7.0211 0.0000
# 4 0.0000 0.0000 0.0000 19.6848 0.0000 -6.2428
# 5 18.8759 6.8833 7.0211 0.0000 19.4270 0.0000
# 6 0.0000 0.0000 0.0000 -6.2428 0.0000 20.5540
#
#
#
# Elastic Compliance Matrix: (Units=1/GPa)
#
#
# Indices 1 2 3 4 5 6 
#
# 1 0.019589 0.000971 -0.015652 0.000000 -0.013721 0.000000
# 2 0.000971 0.018179 -0.011387 0.000000 -0.003269 0.000000
# 3 -0.015652 -0.011387 0.038182 0.000000 0.005443 0.000000
# 4 0.000000 0.000000 0.000000 0.056216 0.000000 0.017074
# 5 -0.013721 -0.003269 0.005443 0.000000 0.063997 0.000000
# 6 0.000000 0.000000 0.000000 0.017074 0.000000 0.053838
#
#
# Mechanical properties :
#
#
# Convention : Reuss Voigt Hill
#
# Bulk Modulus (GPa) = 41.99320 49.01926 45.50623
# Shear Modulus (GPa) = 16.12501 20.13601 18.13051
#
# Velocity S-wave (km/s) = 2.99748 3.34960 3.17842
# Velocity P-wave (km/s) = 5.94799 6.50181 6.23106
#
# Compressibility (1/GPa) = 0.02381338
#
# Stress axis : x y z
#
# Youngs Moduli (GPa) = 51.04832 55.00738 26.19009
#
# Poissons Ratio (x) = -0.05339 0.40994
# Poissons Ratio (y) = -0.04955 0.29823
# Poissons Ratio (z) = 0.79903 0.62637
#
# Static dielectric constant tensor:
#      x y z
#    x 1.625110 0.000000 -0.014000 
#    y 0.000000 1.645850 0.000000 
#    z -0.014000 0.000000 1.592890 
# 
# From -- ./inp_files/35955.got.cif
#   From: 2010.05.17/outbox.cif.g08.bks.cpg/sg14_18_cif.got.tgz:35955.got - 2010.06.03 17:49:19.
