data_PCOD9243621
_publ_section_title
;
Structure prediction by ZEFSAII (Michael W. Deem and Ramdas Pophale) SiO2 
 PCOD9243621
Probable space group: P 21/C
;
_chemical_formula_sum "Si O2"
_cell_formula_units_Z 32
_cell_length_a 20.524829
_cell_length_b 5.466468
_cell_length_c 23.016115
_cell_angle_alpha 90.000000
_cell_angle_beta 148.889036
_cell_angle_gamma 90.000000
_cell_volume 1334.302998
_symmetry_space_group_name_H-M "P 21/C"
_symmetry_group_IT_number 14
_symmetry_cell_setting 'monoclinic'
loop_
_space_group_symop_operation_xyz
x,y,z
-x,1/2+y,1/2-z
-x,-y,-z
x,1/2-y,1/2+z
loop_
_atom_site_type_symbol
_atom_site_label
_atom_site_fract_x
_atom_site_fract_y
_atom_site_fract_z
Si Si1 0.301110 0.966097 0.065504
Si Si2 0.499279 0.885424 0.405382
Si Si3 0.366002 0.763397 0.409278
Si Si4 0.432057 0.259268 0.760554
Si Si5 0.121456 0.912211 0.032270
Si Si6 0.789523 0.927218 0.342499
Si Si7 0.848928 0.837002 0.774780
Si Si8 0.757490 0.878744 0.098204
O O1 0.423195 0.814695 0.137723
O O2 0.213328 0.856412 0.048217
O O3 0.365667 0.196652 0.148046
O O4 0.214580 0.019640 0.943722
O O5 0.432014 0.700049 0.398604
O O6 0.637271 0.794116 0.494234
O O7 0.526441 0.117652 0.467786
O O8 0.428524 0.990426 0.295680
O O9 0.298423 0.576325 0.400044
O O10 0.260875 0.962181 0.310806
O O11 0.349621 0.069672 0.734752
O O12 0.139609 0.678269 0.088003
O O13 0.154863 0.176117 0.085651
O O14 0.980341 0.926087 0.900435
O O15 0.801079 0.871493 0.283076
O O16 0.860950 0.750944 0.717049
#
# Coordination Sequence:
#
# PCOD9243621 Si02
#       8
#     4   4   4   4   4   4   4   4
#     4  11  24  43  63 104 134 189 231 282 344 429
#     4  10  20  38  62 101 132 173 225 287 351 411
#     4  10  21  39  62  99 138 170 226 281 356 422
#     4  11  21  41  69  97 138 175 233 289 354 414
#     4  11  27  48  72 102 143 185 240 294 343 420
#     4  11  25  46  75 107 136 179 239 299 358 411
#     4  11  25  44  70 102 136 185 235 295 360 409
#     4  11  24  39  65  97 140 186 229 283 347 428
#
# _framework density 23.982559999999999
#
# number of rings (size 3 to 8) (size 9 to 14) (size 15 to 20)
#    0.000    1.250    2.500    2.625    3.500    3.000 
#    2.250    0.000    0.000    0.000    0.000    0.000 
#    0.000    0.000    0.000    0.000    0.000    0.000 
#
# Total GULP energy -178971.691088 kJ/mol
# GULP energy per Si atom -5592.865347 kJ/mol
# Density = 2.392797 g / cm^3
# Si number density = 23.982560 Si / 1000 Ang^3
#
#
#
# Elastic Constant Matrix: (Units=GPa)
#
#
# Indices 1 2 3 4 5 6 
#
# 1 110.3612 18.7247 53.4808 0.0000 -31.1440 0.0000
# 2 18.7247 81.4785 32.6451 0.0000 -16.7687 0.0000
# 3 53.4808 32.6451 100.1521 0.0000 -13.3382 0.0000
# 4 0.0000 0.0000 0.0000 28.7513 0.0000 -9.5299
# 5 -31.1440 -16.7687 -13.3382 0.0000 49.2018 0.0000
# 6 0.0000 0.0000 0.0000 -9.5299 0.0000 30.1289
#
#
#
# Elastic Compliance Matrix: (Units=1/GPa)
#
#
# Indices 1 2 3 4 5 6 
#
# 1 0.014437 0.001068 -0.007046 0.000000 0.007592 0.000000
# 2 0.001068 0.014875 -0.004828 0.000000 0.004437 0.000000
# 3 -0.007046 -0.004828 0.015052 0.000000 -0.002025 0.000000
# 4 0.000000 0.000000 0.000000 0.038855 0.000000 0.012290
# 5 0.007592 0.004437 -0.002025 0.000000 0.026093 0.000000
# 6 0.000000 0.000000 0.000000 0.012290 0.000000 0.037078
#
#
# Mechanical properties :
#
#
# Convention : Reuss Voigt Hill
#
# Bulk Modulus (GPa) = 43.95414 55.74365 49.84890
# Shear Modulus (GPa) = 28.47599 34.09247 31.28423
#
# Velocity S-wave (km/s) = 3.44955 3.77444 3.61565
# Velocity P-wave (km/s) = 5.85091 6.50300 6.18556
#
# Compressibility (1/GPa) = 0.02275099
#
# Stress axis : x y z
#
# Youngs Moduli (GPa) = 69.26581 67.22562 66.43853
#
# Poissons Ratio (x) = -0.07179 0.46815
# Poissons Ratio (y) = -0.07397 0.32077
# Poissons Ratio (z) = 0.48807 0.32457
#
# Static dielectric constant tensor:
#      x y z
#    x 1.934820 0.000000 -0.001380 
#    y 0.000000 2.000640 0.000000 
#    z -0.001380 0.000000 1.913530 
# 
# From -- ./inp_files/74543.got.cif
#   From: 2010.05.17/outbox.cif.g08.bks.cpg/sg14_38_cif.got.tgz:74543.got - 2010.06.03 17:49:19.
