data_PCOD9243801
_publ_section_title
;
Structure prediction by ZEFSAII (Michael W. Deem and Ramdas Pophale) SiO2 
 PCOD9243801
Probable space group: P 21/C
;
_chemical_formula_sum "Si O2"
_cell_formula_units_Z 20
_cell_length_a 9.394268
_cell_length_b 15.078835
_cell_length_c 17.055788
_cell_angle_alpha 90.000000
_cell_angle_beta 154.106244
_cell_angle_gamma 90.000000
_cell_volume 1055.089858
_symmetry_space_group_name_H-M "P 21/C"
_symmetry_group_IT_number 14
_symmetry_cell_setting 'monoclinic'
loop_
_space_group_symop_operation_xyz
x,y,z
-x,1/2+y,1/2-z
-x,-y,-z
x,1/2-y,1/2+z
loop_
_atom_site_type_symbol
_atom_site_label
_atom_site_fract_x
_atom_site_fract_y
_atom_site_fract_z
Si Si1 0.687140 0.057077 0.321043
Si Si2 0.665206 0.864202 0.536080
Si Si3 0.338868 0.697721 0.314653
Si Si4 0.311035 0.031512 0.983490
Si Si5 0.588123 0.543140 0.148485
O O1 0.752974 0.154094 0.314993
O O2 0.502685 0.007042 0.158476
O O3 0.467331 0.067101 0.289189
O O4 0.000000 0.000000 0.500000
O O5 0.443331 0.798397 0.375152
O O6 0.538629 0.877915 0.561796
O O7 0.030821 0.827388 0.715326
O O8 0.653596 0.962342 0.493206
O O9 0.649137 0.638298 0.495308
O O10 0.500000 0.000000 0.000000
O O11 0.948317 0.995213 0.809832
#
# Coordination Sequence:
#
# PCOD9243801 Si02
#       5
#     4   4   4   4   4
#     4  10  21  40  64  92 125 161 214 263 316 379
#     4  11  22  38  64  90 129 163 215 257 320 377
#     4  10  22  40  60  91 127 168 207 267 311 370
#     4  10  20  38  66  90 125 166 212 253 315 384
#     4  11  20  39  66  95 121 172 209 258 319 383
#
# _framework density 18.955732000000001
#
# number of rings (size 3 to 8) (size 9 to 14) (size 15 to 20)
#    1.200    0.400    4.000    1.800    2.800    0.000 
#    0.000    4.000    0.000    0.000    0.000    0.000 
#    0.000    0.000    0.000    0.000    0.000    0.000 
#
# Total GULP energy -111361.241719 kJ/mol
# GULP energy per Si atom -5568.062086 kJ/mol
# Density = 1.891259 g / cm^3
# Si number density = 18.955732 Si / 1000 Ang^3
#
#
#
# Elastic Constant Matrix: (Units=GPa)
#
#
# Indices 1 2 3 4 5 6 
#
# 1 151.5791 36.5338 17.1600 0.0000 -11.8124 0.0000
# 2 36.5338 67.5342 21.0246 0.0000 -0.1885 0.0000
# 3 17.1600 21.0246 70.8898 0.0000 -2.7871 0.0000
# 4 0.0000 0.0000 0.0000 30.7182 0.0000 -9.1418
# 5 -11.8124 -0.1885 -2.7871 0.0000 33.0647 0.0000
# 6 0.0000 0.0000 0.0000 -9.1418 0.0000 19.3206
#
#
#
# Elastic Compliance Matrix: (Units=1/GPa)
#
#
# Indices 1 2 3 4 5 6 
#
# 1 0.007855 -0.004058 -0.000590 0.000000 0.002733 0.000000
# 2 -0.004058 0.018413 -0.004547 0.000000 -0.001728 0.000000
# 3 -0.000590 -0.004547 0.015640 0.000000 0.001081 0.000000
# 4 0.000000 0.000000 0.000000 0.037889 0.000000 0.017928
# 5 0.002733 -0.001728 0.001081 0.000000 0.031301 0.000000
# 6 0.000000 0.000000 0.000000 0.017928 0.000000 0.060241
#
#
# Mechanical properties :
#
#
# Convention : Reuss Voigt Hill
#
# Bulk Modulus (GPa) = 42.51979 48.82667 45.67323
# Shear Modulus (GPa) = 25.30747 30.97303 28.14025
#
# Velocity S-wave (km/s) = 3.65784 4.04662 3.85713
# Velocity P-wave (km/s) = 6.34977 6.90273 6.63201
#
# Compressibility (1/GPa) = 0.02351846
#
# Stress axis : x y z
#
# Youngs Moduli (GPa) = 127.30573 54.30910 63.93733
#
# Poissons Ratio (x) = 0.22038 0.03775
# Poissons Ratio (y) = 0.51659 0.29070
# Poissons Ratio (z) = 0.07517 0.24692
#
# Static dielectric constant tensor:
#      x y z
#    x 1.673330 0.000000 0.000100 
#    y 0.000000 1.686320 0.000000 
#    z 0.000100 0.000000 1.683400 
# 
# From -- ./inp_files/55883.got.cif
#   From: 2010.05.17/outbox.cif.g08.bks.cpg/sg14_28_cif.got.tgz:55883.got - 2010.06.03 17:49:19.
