data_PCOD9243570
_publ_section_title
;
Structure prediction by ZEFSAII (Michael W. Deem and Ramdas Pophale) SiO2 
 PCOD9243570
Probable space group: P 21/C
;
_chemical_formula_sum "Si O2"
_cell_formula_units_Z 32
_cell_length_a 12.897737
_cell_length_b 8.572260
_cell_length_c 16.438847
_cell_angle_alpha 90.000000
_cell_angle_beta 61.899591
_cell_angle_gamma 90.000000
_cell_volume 1603.280827
_symmetry_space_group_name_H-M "P 21/C"
_symmetry_group_IT_number 14
_symmetry_cell_setting 'monoclinic'
loop_
_space_group_symop_operation_xyz
x,y,z
-x,1/2+y,1/2-z
-x,-y,-z
x,1/2-y,1/2+z
loop_
_atom_site_type_symbol
_atom_site_label
_atom_site_fract_x
_atom_site_fract_y
_atom_site_fract_z
Si Si1 0.130532 0.312819 0.456560
Si Si2 0.137946 0.811829 0.946251
Si Si3 0.340630 0.868262 0.759011
Si Si4 0.686373 0.323298 0.994413
Si Si5 0.286527 0.313547 0.048086
Si Si6 0.461494 0.832454 0.081634
Si Si7 0.499761 0.645113 0.345578
Si Si8 0.742238 0.798612 0.258004
O O1 0.139103 0.501091 0.459522
O O2 0.213147 0.242766 0.496478
O O3 0.167027 0.274992 0.349613
O O4 0.995549 0.264045 0.519429
O O5 0.226386 0.783296 0.838511
O O6 0.197793 0.731561 0.001587
O O7 0.422989 0.753838 0.678579
O O8 0.419784 0.926971 0.804819
O O9 0.295299 0.019514 0.728942
O O10 0.575737 0.293482 0.095705
O O11 0.699185 0.500079 0.962685
O O12 0.648386 0.209275 0.935513
O O13 0.231767 0.264851 0.156248
O O14 0.418106 0.244562 0.994188
O O15 0.484666 0.011772 0.092969
O O16 0.628051 0.700123 0.274686
#
# Coordination Sequence:
#
# PCOD9243570 Si02
#       8
#     4   4   4   4   4   4   4   4
#     4  10  23  45  67  88 123 168 209 259 310 365
#     4   9  22  44  66  85 120 163 213 255 308 364
#     4  10  20  38  60  89 123 166 199 255 314 369
#     4  11  22  38  62  88 126 160 200 257 309 367
#     4  12  23  39  64  91 130 166 201 257 316 367
#     4  12  22  37  59  94 128 159 201 257 312 372
#     4  11  22  35  61  89 127 163 208 249 309 379
#     4  11  22  39  59  94 125 162 210 250 313 369
#
# _framework density 19.959073
#
# number of rings (size 3 to 8) (size 9 to 14) (size 15 to 20)
#    0.000    1.250    2.500    5.250    1.750    3.500 
#    2.250    0.000    0.000    0.000    0.000    0.000 
#    0.000    0.000    0.000    0.000    0.000    0.000 
#
# Total GULP energy -178637.955944 kJ/mol
# GULP energy per Si atom -5582.436123 kJ/mol
# Density = 1.991365 g / cm^3
# Si number density = 19.959073 Si / 1000 Ang^3
#
#
#
# Elastic Constant Matrix: (Units=GPa)
#
#
# Indices 1 2 3 4 5 6 
#
# 1 93.7875 18.7823 42.0628 0.0000 8.0609 0.0000
# 2 18.7823 31.3699 25.5251 0.0000 -4.5013 0.0000
# 3 42.0628 25.5251 107.0407 0.0000 9.5904 0.0000
# 4 0.0000 0.0000 0.0000 19.2647 0.0000 4.5969
# 5 8.0609 -4.5013 9.5904 0.0000 19.6601 0.0000
# 6 0.0000 0.0000 0.0000 4.5969 0.0000 21.6836
#
#
#
# Elastic Compliance Matrix: (Units=1/GPa)
#
#
# Indices 1 2 3 4 5 6 
#
# 1 0.013961 -0.006299 -0.003495 0.000000 -0.005461 0.000000
# 2 -0.006299 0.046640 -0.010284 0.000000 0.018278 0.000000
# 3 -0.003495 -0.010284 0.013856 0.000000 -0.007681 0.000000
# 4 0.000000 0.000000 0.000000 0.054674 0.000000 -0.011591
# 5 -0.005461 0.018278 -0.007681 0.000000 0.061036 0.000000
# 6 0.000000 0.000000 0.000000 -0.011591 0.000000 0.048575
#
#
# Mechanical properties :
#
#
# Convention : Reuss Voigt Hill
#
# Bulk Modulus (GPa) = 29.15358 44.99317 37.07338
# Shear Modulus (GPa) = 17.22176 21.84354 19.53265
#
# Velocity S-wave (km/s) = 2.94062 3.31179 3.13171
# Velocity P-wave (km/s) = 5.11547 6.10045 5.62955
#
# Compressibility (1/GPa) = 0.03430110
#
# Stress axis : x y z
#
# Youngs Moduli (GPa) = 71.63044 21.44086 72.17069
#
# Poissons Ratio (x) = 0.13505 0.25221
# Poissons Ratio (y) = 0.45119 0.74222
# Poissons Ratio (z) = 0.25032 0.22050
#
# Static dielectric constant tensor:
#      x y z
#    x 1.666940 0.000000 0.027590 
#    y 0.000000 1.689060 0.000000 
#    z 0.027590 0.000000 1.791810 
# 
# From -- ./inp_files/43689.got.cif
#   From: 2010.05.17/outbox.cif.g08.bks.cpg/sg14_22_cif.got.tgz:43689.got - 2010.06.03 17:49:19.
