data_PCOD9243266
_publ_section_title
;
Structure prediction by ZEFSAII (Michael W. Deem and Ramdas Pophale) SiO2 
 PCOD9243266
Probable space group: P 21/C
;
_chemical_formula_sum "Si O2"
_cell_formula_units_Z 24
_cell_length_a 8.645174
_cell_length_b 5.209674
_cell_length_c 22.564113
_cell_angle_alpha 90.000000
_cell_angle_beta 68.252410
_cell_angle_gamma 90.000000
_cell_volume 943.922881
_symmetry_space_group_name_H-M "P 21/C"
_symmetry_group_IT_number 14
_symmetry_cell_setting 'monoclinic'
loop_
_space_group_symop_operation_xyz
x,y,z
-x,1/2+y,1/2-z
-x,-y,-z
x,1/2-y,1/2+z
loop_
_atom_site_type_symbol
_atom_site_label
_atom_site_fract_x
_atom_site_fract_y
_atom_site_fract_z
Si Si1 0.412931 0.596886 0.929893
Si Si2 0.581249 0.895546 0.216203
Si Si3 0.576835 0.084368 0.880601
Si Si4 0.897195 0.211211 0.752897
Si Si5 0.166133 0.459354 0.852511
Si Si6 0.928742 0.247937 0.476631
O O1 0.501406 0.322286 0.927931
O O2 0.300050 0.539590 0.885149
O O3 0.564629 0.801877 0.909604
O O4 0.269415 0.718141 0.991888
O O5 0.455428 0.655763 0.245027
O O6 0.563523 0.958956 0.150425
O O7 0.747439 0.742895 0.204051
O O8 0.744192 0.147152 0.820149
O O9 0.969696 0.485303 0.757919
O O10 0.869821 0.195386 0.685106
O O11 0.011262 0.305059 0.901598
O O12 0.000000 0.500000 0.500000
O O13 0.000000 0.000000 0.500000
#
# Coordination Sequence:
#
# PCOD9243266 Si02
#       6
#     4   4   4   4   4   4
#     4  10  21  37  66  94 115 153 190 258 321 358
#     4  11  20  31  56  88 115 145 186 240 313 356
#     4  11  22  38  60  86 123 149 204 252 304 367
#     4  12  28  41  58  84 124 172 209 244 295 364
#     4  10  23  38  63  89 130 156 196 250 307 366
#     4  10  20  37  59  97 129 152 193 246 323 380
#
# _framework density 25.425808
#
# number of rings (size 3 to 8) (size 9 to 14) (size 15 to 20)
#    0.000    1.333    1.667    6.000    2.333    5.333 
#    0.000    0.000    0.000    6.000    0.000    0.000 
#    0.000    0.000    0.000    0.000    0.000    0.000 
#
# Total GULP energy -133874.571445 kJ/mol
# GULP energy per Si atom -5578.107144 kJ/mol
# Density = 2.536794 g / cm^3
# Si number density = 25.425808 Si / 1000 Ang^3
#
#
#
# Elastic Constant Matrix: (Units=GPa)
#
#
# Indices 1 2 3 4 5 6 
#
# 1 70.0931 22.8911 38.1732 0.0000 -10.5006 0.0000
# 2 22.8911 170.8306 32.2144 0.0000 -15.1385 0.0000
# 3 38.1732 32.2144 73.6038 0.0000 -34.0624 0.0000
# 4 0.0000 0.0000 0.0000 13.3053 0.0000 -27.8857
# 5 -10.5006 -15.1385 -34.0624 0.0000 45.0234 0.0000
# 6 0.0000 0.0000 0.0000 -27.8857 0.0000 24.9498
#
#
#
# Elastic Compliance Matrix: (Units=1/GPa)
#
#
# Indices 1 2 3 4 5 6 
#
# 1 0.020707 -0.000824 -0.012728 0.000000 -0.005077 0.000000
# 2 -0.000824 0.006413 -0.002263 0.000000 0.000252 0.000000
# 3 -0.012728 -0.002263 0.029931 0.000000 0.018915 0.000000
# 4 0.000000 0.000000 0.000000 -0.055985 0.000000 -0.062573
# 5 -0.005077 0.000252 0.018915 0.000000 0.035422 0.000000
# 6 0.000000 0.000000 0.000000 -0.062573 0.000000 -0.029856
#
#
# Mechanical properties :
#
#
# Convention : Reuss Voigt Hill
#
# Bulk Modulus (GPa) = 39.33692 55.67611 47.50651
# Shear Modulus (GPa) = 106.98247 31.40561 69.19404
#
# Velocity S-wave (km/s) = 6.49366 3.51833 5.22237
# Velocity P-wave (km/s) = 8.46926 6.20080 7.42221
#
# Compressibility (1/GPa) = 0.02542141
#
# Stress axis : x y z
#
# Youngs Moduli (GPa) = 48.29232 155.92720 33.40981
#
# Poissons Ratio (x) = 0.12856 0.42525
# Poissons Ratio (y) = 0.03982 0.07559
# Poissons Ratio (z) = 0.61468 0.35279
#
# Static dielectric constant tensor:
#      x y z
#    x 2.117340 0.000000 -0.014140 
#    y 0.000000 2.035570 0.000000 
#    z -0.014140 0.000000 2.127390 
# 
# From -- ./inp_files/71607.got.cif
#   From: 2010.05.17/outbox.cif.g08.bks.cpg/sg14_36_cif.got.tgz:71607.got - 2010.06.03 17:49:19.
