data_PCOD9243339
_publ_section_title
;
Structure prediction by ZEFSAII (Michael W. Deem and Ramdas Pophale) SiO2 
 PCOD9243339
Probable space group: P 21/C
;
_chemical_formula_sum "Si O2"
_cell_formula_units_Z 28
_cell_length_a 8.562479
_cell_length_b 21.715850
_cell_length_c 14.809171
_cell_angle_alpha 90.000000
_cell_angle_beta 152.010152
_cell_angle_gamma 90.000000
_cell_volume 1292.324676
_symmetry_space_group_name_H-M "P 21/C"
_symmetry_group_IT_number 14
_symmetry_cell_setting 'monoclinic'
loop_
_space_group_symop_operation_xyz
x,y,z
-x,1/2+y,1/2-z
-x,-y,-z
x,1/2-y,1/2+z
loop_
_atom_site_type_symbol
_atom_site_label
_atom_site_fract_x
_atom_site_fract_y
_atom_site_fract_z
Si Si1 0.791374 0.702154 0.560583
Si Si2 0.151091 0.094803 0.035037
Si Si3 0.964861 0.165440 0.315009
Si Si4 0.057263 0.573853 0.043074
Si Si5 0.876426 0.513564 0.652910
Si Si6 0.920970 0.130288 0.628742
Si Si7 0.149019 0.110027 0.233982
O O1 0.958312 0.657072 0.572333
O O2 0.411975 0.682398 0.356240
O O3 0.824555 0.773823 0.558510
O O4 0.926329 0.682677 0.728645
O O5 0.545403 0.084473 0.253655
O O6 0.005026 0.098308 0.060907
O O7 0.095904 0.041223 0.934030
O O8 0.065190 0.106214 0.426788
O O9 0.961994 0.154668 0.206410
O O10 0.933270 0.615987 0.896053
O O11 0.000000 0.500000 0.000000
O O12 0.500000 0.500000 0.500000
O O13 0.013064 0.566462 0.786180
O O14 0.106340 0.454100 0.765171
O O15 0.522734 0.135927 0.419400
#
# Coordination Sequence:
#
# PCOD9243339 Si02
#       7
#     4   4   4   4   4   4   4
#     4  10  22  43  60  85 116 156 203 247 307 364
#     4   9  21  37  58  86 123 156 195 249 297 362
#     4  11  23  40  63  85 119 160 201 255 305 371
#     4  10  20  37  61  91 122 158 202 250 309 366
#     4  11  20  36  58  86 121 158 194 240 297 357
#     4  10  21  37  58  84 118 152 194 247 292 359
#     4  11  21  36  58  87 115 154 196 242 300 351
#
# _framework density 21.666381999999999
#
# number of rings (size 3 to 8) (size 9 to 14) (size 15 to 20)
#    0.000    1.714    0.000    6.000    0.000    2.286 
#    0.000   12.857    0.000    0.000    0.000    0.000 
#    0.000    0.000    0.000    0.000    0.000    0.000 
#
# Total GULP energy -156025.166554 kJ/mol
# GULP energy per Si atom -5572.327377 kJ/mol
# Density = 2.161707 g / cm^3
# Si number density = 21.666382 Si / 1000 Ang^3
#
#
#
# Elastic Constant Matrix: (Units=GPa)
#
#
# Indices 1 2 3 4 5 6 
#
# 1 113.8378 46.5554 17.9370 0.0000 -34.6979 0.0000
# 2 46.5554 105.0784 5.5197 0.0000 -18.3294 0.0000
# 3 17.9370 5.5197 30.2085 0.0000 -22.3007 0.0000
# 4 0.0000 0.0000 0.0000 27.8076 0.0000 3.5427
# 5 -34.6979 -18.3294 -22.3007 0.0000 32.3098 0.0000
# 6 0.0000 0.0000 0.0000 3.5427 0.0000 18.0528
#
#
#
# Elastic Compliance Matrix: (Units=1/GPa)
#
#
# Indices 1 2 3 4 5 6 
#
# 1 0.014742 -0.003874 0.004117 0.000000 0.016476 0.000000
# 2 -0.003874 0.011977 0.004193 0.000000 0.005529 0.000000
# 3 0.004117 0.004193 0.071183 0.000000 0.055932 0.000000
# 4 0.000000 0.000000 0.000000 0.036883 0.000000 -0.007238
# 5 0.016476 0.005529 0.055932 0.000000 0.090385 0.000000
# 6 0.000000 0.000000 0.000000 -0.007238 0.000000 0.056814
#
#
# Mechanical properties :
#
#
# Convention : Reuss Voigt Hill
#
# Bulk Modulus (GPa) = 9.36548 43.23876 26.30212
# Shear Modulus (GPa) = 16.19683 27.57487 21.88585
#
# Velocity S-wave (km/s) = 2.73711 3.57137 3.18170
# Velocity P-wave (km/s) = 3.78431 6.08327 5.06592
#
# Compressibility (1/GPa) = 0.10677511
#
# Stress axis : x y z
#
# Youngs Moduli (GPa) = 67.83498 83.49252 14.04832
#
# Poissons Ratio (x) = 0.32343 -0.05784
# Poissons Ratio (y) = 0.26277 -0.05891
# Poissons Ratio (z) = -0.27930 -0.35009
#
# Static dielectric constant tensor:
#      x y z
#    x 1.687630 0.000000 -0.143950 
#    y 0.000000 1.884620 0.000000 
#    z -0.143950 0.000000 1.741630 
# 
# From -- ./inp_files/42075.got.cif
#   From: 2010.05.17/outbox.cif.g08.bks.cpg/sg14_22_cif.got.tgz:42075.got - 2010.06.03 17:49:19.
