data_PCOD9243993
_publ_section_title
;
Structure prediction by ZEFSAII (Michael W. Deem and Ramdas Pophale) SiO2 
 PCOD9243993
Probable space group: P 21/C
;
_chemical_formula_sum "Si O2"
_cell_formula_units_Z 28
_cell_length_a 17.435773
_cell_length_b 7.409930
_cell_length_c 20.286596
_cell_angle_alpha 90.000000
_cell_angle_beta 25.472809
_cell_angle_gamma 90.000000
_cell_volume 1127.240209
_symmetry_space_group_name_H-M "P 21/C"
_symmetry_group_IT_number 14
_symmetry_cell_setting 'monoclinic'
loop_
_space_group_symop_operation_xyz
x,y,z
-x,1/2+y,1/2-z
-x,-y,-z
x,1/2-y,1/2+z
loop_
_atom_site_type_symbol
_atom_site_label
_atom_site_fract_x
_atom_site_fract_y
_atom_site_fract_z
Si Si1 0.007575 0.692955 0.736445
Si Si2 0.403590 0.410345 0.675493
Si Si3 0.655973 0.599923 0.679421
Si Si4 0.903682 0.658344 0.174202
Si Si5 0.786652 0.272901 0.652260
Si Si6 0.697246 0.613598 0.503853
Si Si7 0.057092 0.767049 0.839777
O O1 0.973842 0.772666 0.690115
O O2 0.135511 0.524193 0.625740
O O3 0.100885 0.785210 0.728499
O O4 0.798073 0.693254 0.922153
O O5 0.430574 0.249590 0.706591
O O6 0.301519 0.332261 0.691029
O O7 0.270813 0.564717 0.805632
O O8 0.579920 0.534246 0.535477
O O9 0.659124 0.405548 0.711248
O O10 0.590268 0.596217 0.655148
O O11 0.864538 0.653474 0.507299
O O12 0.948867 0.446767 0.142277
O O13 0.017858 0.767207 0.031727
O O14 0.801812 0.336313 0.716232
#
# Coordination Sequence:
#
# PCOD9243993 Si02
#       7
#     4   4   4   4   4   4   4
#     4  11  23  43  64  93 127 188 227 261 338 409
#     4  11  25  42  63 107 136 169 229 287 344 396
#     4  11  22  39  69  96 133 170 223 283 340 401
#     4  11  20  41  70  94 138 182 220 277 339 415
#     4  11  21  40  68 102 132 178 217 278 349 404
#     4  11  26  43  67  96 137 183 224 290 333 410
#     4  10  20  39  63  94 132 172 230 269 321 414
#
# _framework density 24.839424999999999
#
# number of rings (size 3 to 8) (size 9 to 14) (size 15 to 20)
#    0.000    1.143    5.714    1.286    2.000    0.571 
#    2.571    0.000    0.000    1.714    0.000    0.000 
#    0.000    0.000    0.000    0.000    0.000    0.000 
#
# Total GULP energy -156132.607234 kJ/mol
# GULP energy per Si atom -5576.164544 kJ/mol
# Density = 2.478289 g / cm^3
# Si number density = 24.839425 Si / 1000 Ang^3
#
#
#
# Elastic Constant Matrix: (Units=GPa)
#
#
# Indices 1 2 3 4 5 6 
#
# 1 171.1522 37.9978 42.7210 0.0000 6.4412 0.0000
# 2 37.9978 49.4827 2.2370 0.0000 2.3991 0.0000
# 3 42.7210 2.2370 32.6602 0.0000 -11.0696 0.0000
# 4 0.0000 0.0000 0.0000 29.1056 0.0000 4.9194
# 5 6.4412 2.3991 -11.0696 0.0000 36.5731 0.0000
# 6 0.0000 0.0000 0.0000 4.9194 0.0000 34.4636
#
#
#
# Elastic Compliance Matrix: (Units=1/GPa)
#
#
# Indices 1 2 3 4 5 6 
#
# 1 0.012556 -0.008467 -0.018280 0.000000 -0.007189 0.000000
# 2 -0.008467 0.026107 0.010265 0.000000 0.002885 0.000000
# 3 -0.018280 0.010265 0.060942 0.000000 0.020991 0.000000
# 4 0.000000 0.000000 0.000000 0.035207 0.000000 -0.005025
# 5 -0.007189 0.002885 0.020991 0.000000 0.034773 0.000000
# 6 0.000000 0.000000 0.000000 -0.005025 0.000000 0.029733
#
#
# Mechanical properties :
#
#
# Convention : Reuss Voigt Hill
#
# Bulk Modulus (GPa) = 15.00610 46.57853 30.79232
# Shear Modulus (GPa) = 19.64668 31.38441 25.51555
#
# Velocity S-wave (km/s) = 2.81543 3.55842 3.20850
# Velocity P-wave (km/s) = 4.07716 5.97291 5.11365
#
# Compressibility (1/GPa) = 0.06663958
#
# Stress axis : x y z
#
# Youngs Moduli (GPa) = 79.64326 38.30419 16.40914
#
# Poissons Ratio (x) = 0.32431 0.29997
# Poissons Ratio (y) = 0.67432 -0.16844
# Poissons Ratio (z) = 1.45592 -0.39319
#
# Static dielectric constant tensor:
#      x y z
#    x 2.058490 0.000000 0.004710 
#    y 0.000000 2.051050 0.000000 
#    z 0.004710 0.000000 2.012600 
# 
# From -- ./inp_files/68152.got.cif
#   From: 2010.05.17/outbox.cif.g08.bks.cpg/sg14_35_cif.got.tgz:68152.got - 2010.06.03 17:49:19.
