data_PCOD9243700
_publ_section_title
;
Structure prediction by ZEFSAII (Michael W. Deem and Ramdas Pophale) SiO2 
 PCOD9243700
Probable space group: P 21/C
;
_chemical_formula_sum "Si O2"
_cell_formula_units_Z 28
_cell_length_a 11.803804
_cell_length_b 12.897554
_cell_length_c 20.874813
_cell_angle_alpha 90.000000
_cell_angle_beta 154.179908
_cell_angle_gamma 90.000000
_cell_volume 1384.161465
_symmetry_space_group_name_H-M "P 21/C"
_symmetry_group_IT_number 14
_symmetry_cell_setting 'monoclinic'
loop_
_space_group_symop_operation_xyz
x,y,z
-x,1/2+y,1/2-z
-x,-y,-z
x,1/2-y,1/2+z
loop_
_atom_site_type_symbol
_atom_site_label
_atom_site_fract_x
_atom_site_fract_y
_atom_site_fract_z
Si Si1 0.530444 0.868101 0.897467
Si Si2 0.053117 0.890941 0.353309
Si Si3 0.430165 0.586664 0.541550
Si Si4 0.263127 0.770231 0.066084
Si Si5 0.788849 0.257565 0.673374
Si Si6 0.058350 0.387473 0.908121
Si Si7 0.226882 0.264891 0.593589
O O1 0.447972 0.767064 0.896832
O O2 0.719294 0.846135 0.935576
O O3 0.245497 0.903307 0.725775
O O4 0.616171 0.963826 0.985141
O O5 0.157576 0.814508 0.461804
O O6 0.158887 0.845297 0.339986
O O7 0.738078 0.889433 0.192174
O O8 0.142357 0.006366 0.417652
O O9 0.330700 0.628132 0.559282
O O10 0.273914 0.651612 0.409425
O O11 0.529035 0.735079 0.234988
O O12 0.039035 0.784725 0.004476
O O13 0.024384 0.297988 0.837039
O O14 0.208392 0.344449 0.045729
#
# Coordination Sequence:
#
# PCOD9243700 Si02
#       7
#     4   4   4   4   4   4   4
#     4   9  21  37  61  90 122 162 207 253 320 374
#     4  10  21  39  64  91 123 168 212 249 314 386
#     4  10  20  38  63  91 121 168 207 255 320 378
#     4  11  23  39  65  89 126 166 213 263 306 368
#     4   9  20  35  62  94 115 164 206 262 303 383
#     4   9  22  37  62  92 121 171 204 251 323 372
#     4  12  22  41  59  92 125 167 211 264 308 368
#
# _framework density 20.228856
#
# number of rings (size 3 to 8) (size 9 to 14) (size 15 to 20)
#    0.857    1.143    2.857    0.429    2.000    2.286 
#    0.000    0.714    0.000    0.000    0.000    0.000 
#    0.000    0.000    0.000    0.000    0.000    0.000 
#
# Total GULP energy -156060.424766 kJ/mol
# GULP energy per Si atom -5573.586599 kJ/mol
# Density = 2.018281 g / cm^3
# Si number density = 20.228856 Si / 1000 Ang^3
#
#
#
# Elastic Constant Matrix: (Units=GPa)
#
#
# Indices 1 2 3 4 5 6 
#
# 1 76.4466 10.0281 23.2499 0.0000 -2.7853 0.0000
# 2 10.0281 33.6368 18.4674 0.0000 -3.1776 0.0000
# 3 23.2499 18.4674 76.4488 0.0000 0.2102 0.0000
# 4 0.0000 0.0000 0.0000 21.4905 0.0000 1.8646
# 5 -2.7853 -3.1776 0.2102 0.0000 24.8810 0.0000
# 6 0.0000 0.0000 0.0000 1.8646 0.0000 27.2884
#
#
#
# Elastic Compliance Matrix: (Units=1/GPa)
#
#
# Indices 1 2 3 4 5 6 
#
# 1 0.014603 -0.002053 -0.003949 0.000000 0.001406 0.000000
# 2 -0.002053 0.035063 -0.007858 0.000000 0.004315 0.000000
# 3 -0.003949 -0.007858 0.016184 0.000000 -0.001582 0.000000
# 4 0.000000 0.000000 0.000000 0.046810 0.000000 -0.003198
# 5 0.001406 0.004315 -0.001582 0.000000 0.040913 0.000000
# 6 0.000000 0.000000 0.000000 -0.003198 0.000000 0.036864
#
#
# Mechanical properties :
#
#
# Convention : Reuss Voigt Hill
#
# Bulk Modulus (GPa) = 26.22526 32.22477 29.22502
# Shear Modulus (GPa) = 21.65766 23.71777 22.68771
#
# Velocity S-wave (km/s) = 3.27560 3.42785 3.35259
# Velocity P-wave (km/s) = 5.22480 5.62420 5.42817
#
# Compressibility (1/GPa) = 0.03813117
#
# Stress axis : x y z
#
# Youngs Moduli (GPa) = 68.48138 28.52022 61.78891
#
# Poissons Ratio (x) = 0.05854 0.24401
# Poissons Ratio (y) = 0.14056 0.48551
# Poissons Ratio (z) = 0.27043 0.22410
#
# Static dielectric constant tensor:
#      x y z
#    x 1.730210 0.000000 -0.009370 
#    y 0.000000 1.728990 0.000000 
#    z -0.009370 0.000000 1.723200 
# 
# From -- ./inp_files/67370.got.cif
#   From: 2010.05.17/outbox.cif.g08.bks.cpg/sg14_34_cif.got.tgz:67370.got - 2010.06.03 17:49:19.
