data_PCOD9243318
_publ_section_title
;
Structure prediction by ZEFSAII (Michael W. Deem and Ramdas Pophale) SiO2 
 PCOD9243318
Probable space group: P 21/C
;
_chemical_formula_sum "Si O2"
_cell_formula_units_Z 32
_cell_length_a 20.654305
_cell_length_b 12.456819
_cell_length_c 15.320262
_cell_angle_alpha 90.000000
_cell_angle_beta 19.394922
_cell_angle_gamma 90.000000
_cell_volume 1308.951119
_symmetry_space_group_name_H-M "P 21/C"
_symmetry_group_IT_number 14
_symmetry_cell_setting 'monoclinic'
loop_
_space_group_symop_operation_xyz
x,y,z
-x,1/2+y,1/2-z
-x,-y,-z
x,1/2-y,1/2+z
loop_
_atom_site_type_symbol
_atom_site_label
_atom_site_fract_x
_atom_site_fract_y
_atom_site_fract_z
Si Si1 0.465024 0.430722 0.955926
Si Si2 0.161771 0.414169 0.763497
Si Si3 0.341495 0.778022 0.224936
Si Si4 0.032168 0.953268 0.662441
Si Si5 0.532821 0.063432 0.171327
Si Si6 0.084220 0.128055 0.025570
Si Si7 0.269668 0.341671 0.863181
Si Si8 0.850957 0.238618 0.714942
O O1 0.595599 0.323513 0.799033
O O2 0.496668 0.470103 0.817090
O O3 0.500000 0.500000 0.000000
O O4 0.240016 0.400260 0.254735
O O5 0.376711 0.463134 0.498753
O O6 0.124592 0.411566 0.707114
O O7 0.000000 0.500000 0.000000
O O8 0.071639 0.307460 0.919471
O O9 0.200838 0.863606 0.448512
O O10 0.235691 0.739423 0.270100
O O11 0.537204 0.834533 0.941194
O O12 0.943374 0.966462 0.870494
O O13 0.126971 0.064731 0.513526
O O14 0.350428 0.119793 0.354934
O O15 0.707395 0.151737 0.941549
O O16 0.883154 0.161558 0.236452
O O17 0.165069 0.227372 0.982533
#
# Coordination Sequence:
#
# PCOD9243318 Si02
#       8
#     4   4   4   4   4   4   4   4
#     4  11  24  41  56  81 124 165 196 238 297 361
#     4   9  18  34  59  87 113 147 192 245 294 340
#     4   9  21  39  63  88 115 150 195 251 302 348
#     4  11  21  37  62  88 116 152 195 248 298 347
#     4  10  20  37  61  86 116 157 196 243 299 352
#     4  11  24  39  59  88 122 160 197 241 295 357
#     4  10  22  39  59  89 118 148 198 246 293 354
#     4   9  19  38  61  89 117 147 199 252 296 347
#
# _framework density 24.447056
#
# number of rings (size 3 to 8) (size 9 to 14) (size 15 to 20)
#    0.000    2.000    0.000    4.125    0.000    6.000 
#    0.000    5.000    0.000    0.000    0.000    0.000 
#    0.000    0.000    0.000    0.000    0.000    0.000 
#
# Total GULP energy -178864.381330 kJ/mol
# GULP energy per Si atom -5589.511917 kJ/mol
# Density = 2.439141 g / cm^3
# Si number density = 24.447056 Si / 1000 Ang^3
#
#
#
# Elastic Constant Matrix: (Units=GPa)
#
#
# Indices 1 2 3 4 5 6 
#
# 1 103.2881 4.8131 37.8071 0.0000 16.7052 0.0000
# 2 4.8131 27.3078 15.3042 0.0000 0.9522 0.0000
# 3 37.8071 15.3042 61.2561 0.0000 0.1739 0.0000
# 4 0.0000 0.0000 0.0000 21.6438 0.0000 -4.5580
# 5 16.7052 0.9522 0.1739 0.0000 30.1740 0.0000
# 6 0.0000 0.0000 0.0000 -4.5580 0.0000 37.5957
#
#
#
# Elastic Compliance Matrix: (Units=1/GPa)
#
#
# Indices 1 2 3 4 5 6 
#
# 1 0.014347 0.003139 -0.009617 0.000000 -0.007987 0.000000
# 2 0.003139 0.043318 -0.012752 0.000000 -0.003032 0.000000
# 3 -0.009617 -0.012752 0.025430 0.000000 0.005580 0.000000
# 4 0.000000 0.000000 0.000000 0.047413 0.000000 0.005748
# 5 -0.007987 -0.003032 0.005580 0.000000 0.037626 0.000000
# 6 0.000000 0.000000 0.000000 0.005748 0.000000 0.027296
#
#
# Mechanical properties :
#
#
# Convention : Reuss Voigt Hill
#
# Bulk Modulus (GPa) = 22.40252 34.18897 28.29575
# Shear Modulus (GPa) = 20.09903 26.81119 23.45511
#
# Velocity S-wave (km/s) = 2.87042 3.31525 3.10082
# Velocity P-wave (km/s) = 4.49103 5.35441 4.94161
#
# Compressibility (1/GPa) = 0.04463784
#
# Stress axis : x y z
#
# Youngs Moduli (GPa) = 69.70047 23.08486 39.32317
#
# Poissons Ratio (x) = -0.07247 0.37816
# Poissons Ratio (y) = -0.21881 0.50143
# Poissons Ratio (z) = 0.67028 0.29437
#
# Static dielectric constant tensor:
#      x y z
#    x 1.992310 0.000000 -0.002510 
#    y 0.000000 1.970120 0.000000 
#    z -0.002510 0.000000 1.935880 
# 
# From -- ./inp_files/50675.got.cif
#   From: 2010.05.17/outbox.cif.g08.bks.cpg/sg14_26_cif.got.tgz:50675.got - 2010.06.03 17:49:19.
