data_PCOD9243471
_publ_section_title
;
Structure prediction by ZEFSAII (Michael W. Deem and Ramdas Pophale) SiO2 
 PCOD9243471
Probable space group: P 21/C
;
_chemical_formula_sum "Si O2"
_cell_formula_units_Z 28
_cell_length_a 21.510633
_cell_length_b 8.140443
_cell_length_c 18.870841
_cell_angle_alpha 90.000000
_cell_angle_beta 160.102057
_cell_angle_gamma 90.000000
_cell_volume 1124.638305
_symmetry_space_group_name_H-M "P 21/C"
_symmetry_group_IT_number 14
_symmetry_cell_setting 'monoclinic'
loop_
_space_group_symop_operation_xyz
x,y,z
-x,1/2+y,1/2-z
-x,-y,-z
x,1/2-y,1/2+z
loop_
_atom_site_type_symbol
_atom_site_label
_atom_site_fract_x
_atom_site_fract_y
_atom_site_fract_z
Si Si1 0.313744 0.720370 0.911481
Si Si2 0.180070 0.720612 0.512538
Si Si3 0.159167 0.090306 0.213584
Si Si4 0.090339 0.869835 0.544606
Si Si5 0.214407 0.271793 0.984601
Si Si6 0.590150 0.069106 0.857332
Si Si7 0.716675 0.617596 0.304303
O O1 0.217633 0.549720 0.830184
O O2 0.228999 0.781895 0.747319
O O3 0.316860 0.863629 0.971394
O O4 0.513916 0.654008 0.111590
O O5 0.186503 0.879698 0.571114
O O6 0.343829 0.697693 0.632459
O O7 0.213589 0.562926 0.599889
O O8 0.985784 0.706365 0.263988
O O9 0.286208 0.138508 0.283440
O O10 0.081197 0.255201 0.160921
O O11 0.000000 0.000000 0.000000
O O12 0.000000 0.000000 0.500000
O O13 0.371995 0.407632 0.136845
O O14 0.176669 0.240996 0.028656
O O15 0.316277 0.103096 0.065623
#
# Coordination Sequence:
#
# PCOD9243471 Si02
#       7
#     4   4   4   4   4   4   4
#     4  10  21  41  69  92 130 163 222 273 322 398
#     4  11  23  40  66  95 133 169 222 270 329 388
#     4  10  20  37  67  92 119 167 219 262 325 389
#     4  11  24  41  60  97 133 169 214 273 334 390
#     4  10  24  42  64  96 136 170 222 268 331 399
#     4  10  24  44  67  97 130 176 218 275 331 396
#     4  10  21  42  65  98 118 173 224 267 323 388
#
# _framework density 24.896894
#
# number of rings (size 3 to 8) (size 9 to 14) (size 15 to 20)
#    0.000    1.714    2.857    1.286    4.000    5.714 
#    5.143    0.714    0.000    0.000    0.000    0.000 
#    0.000    0.000    0.000    0.000    0.000    0.000 
#
# Total GULP energy -156182.993684 kJ/mol
# GULP energy per Si atom -5577.964060 kJ/mol
# Density = 2.484023 g / cm^3
# Si number density = 24.896894 Si / 1000 Ang^3
#
#
#
# Elastic Constant Matrix: (Units=GPa)
#
#
# Indices 1 2 3 4 5 6 
#
# 1 58.4864 -5.4261 11.2443 0.0000 -0.7131 0.0000
# 2 -5.4261 74.2267 15.1103 0.0000 3.9904 0.0000
# 3 11.2443 15.1103 65.2782 0.0000 -14.6680 0.0000
# 4 0.0000 0.0000 0.0000 35.4285 0.0000 -2.7494
# 5 -0.7131 3.9904 -14.6680 0.0000 36.0055 0.0000
# 6 0.0000 0.0000 0.0000 -2.7494 0.0000 36.2801
#
#
#
# Elastic Compliance Matrix: (Units=1/GPa)
#
#
# Indices 1 2 3 4 5 6 
#
# 1 0.018045 0.002205 -0.003955 0.000000 -0.001498 0.000000
# 2 0.002205 0.014749 -0.004570 0.000000 -0.003453 0.000000
# 3 -0.003955 -0.004570 0.018883 0.000000 0.008121 0.000000
# 4 0.000000 0.000000 0.000000 0.028393 0.000000 0.002152
# 5 -0.001498 -0.003453 0.008121 0.000000 0.031435 0.000000
# 6 0.000000 0.000000 0.000000 0.002152 0.000000 0.027726
#
#
# Mechanical properties :
#
#
# Convention : Reuss Voigt Hill
#
# Bulk Modulus (GPa) = 25.61701 26.64981 26.13341
# Shear Modulus (GPa) = 30.32453 33.34702 31.83578
#
# Velocity S-wave (km/s) = 3.49378 3.66376 3.57978
# Velocity P-wave (km/s) = 5.15625 5.35022 5.25413
#
# Compressibility (1/GPa) = 0.03903656
#
# Stress axis : x y z
#
# Youngs Moduli (GPa) = 55.41796 67.79996 52.95821
#
# Poissons Ratio (x) = -0.14949 0.20946
# Poissons Ratio (y) = -0.12219 0.24200
# Poissons Ratio (z) = 0.21919 0.30982
#
# Static dielectric constant tensor:
#      x y z
#    x 2.255910 0.000000 -0.036100 
#    y 0.000000 2.095450 0.000000 
#    z -0.036100 0.000000 2.050750 
# 
# From -- ./inp_files/70219.got.cif
#   From: 2010.05.17/outbox.cif.g08.bks.cpg/sg14_36_cif.got.tgz:70219.got - 2010.06.03 17:49:19.
