data_PCOD9243522
_publ_section_title
;
Structure prediction by ZEFSAII (Michael W. Deem and Ramdas Pophale) SiO2 
 PCOD9243522
Probable space group: P 21/C
;
_chemical_formula_sum "Si O2"
_cell_formula_units_Z 32
_cell_length_a 25.242180
_cell_length_b 8.309568
_cell_length_c 18.490220
_cell_angle_alpha 90.000000
_cell_angle_beta 24.420032
_cell_angle_gamma 90.000000
_cell_volume 1603.399744
_symmetry_space_group_name_H-M "P 21/C"
_symmetry_group_IT_number 14
_symmetry_cell_setting 'monoclinic'
loop_
_space_group_symop_operation_xyz
x,y,z
-x,1/2+y,1/2-z
-x,-y,-z
x,1/2-y,1/2+z
loop_
_atom_site_type_symbol
_atom_site_label
_atom_site_fract_x
_atom_site_fract_y
_atom_site_fract_z
Si Si1 0.665322 0.669577 0.651988
Si Si2 0.155590 0.876551 0.298208
Si Si3 0.888243 0.733088 0.132903
Si Si4 0.778381 0.589717 0.903292
Si Si5 0.366007 0.627103 0.028490
Si Si6 0.899371 0.019327 0.795788
Si Si7 0.036658 0.821457 0.140810
Si Si8 0.240380 0.460591 0.316769
O O1 0.701454 0.834787 0.565983
O O2 0.760388 0.542553 0.495357
O O3 0.700527 0.647529 0.692655
O O4 0.515634 0.639437 0.828236
O O5 0.291602 0.793281 0.135987
O O6 0.037577 0.764223 0.469904
O O7 0.145767 0.050985 0.346680
O O8 0.119433 0.910394 0.259828
O O9 0.801987 0.781078 0.309022
O O10 0.859807 0.855065 0.104413
O O11 0.707020 0.447788 0.950299
O O12 0.921482 0.564479 0.754926
O O13 0.340519 0.520193 0.131808
O O14 0.991097 0.861356 0.684060
O O15 0.950988 0.147362 0.789031
O O16 0.166946 0.887210 0.943256
#
# Coordination Sequence:
#
# PCOD9243522 Si02
#       8
#     4   4   4   4   4   4   4   4
#     4  10  22  41  60  83 125 158 205 248 294 360
#     4  11  22  37  60  91 120 157 196 258 303 360
#     4  10  21  38  61  87 124 146 199 253 310 356
#     4  10  21  39  58  88 115 159 195 253 302 363
#     4  11  24  37  65  85 121 163 212 238 301 371
#     4  10  23  37  60  89 124 156 196 260 309 357
#     4  10  20  38  59  89 122 151 199 254 313 362
#     4  10  22  41  63  88 117 167 197 252 309 361
#
# _framework density 19.957592999999999
#
# number of rings (size 3 to 8) (size 9 to 14) (size 15 to 20)
#    0.000    1.750    2.500    1.875   10.500    2.000 
#    0.000    0.625    0.000    0.000    0.000    0.000 
#    0.000    0.000    0.000    0.000    0.000    0.000 
#
# Total GULP energy -178609.747459 kJ/mol
# GULP energy per Si atom -5581.554608 kJ/mol
# Density = 1.991217 g / cm^3
# Si number density = 19.957593 Si / 1000 Ang^3
#
#
#
# Elastic Constant Matrix: (Units=GPa)
#
#
# Indices 1 2 3 4 5 6 
#
# 1 67.5353 14.6531 6.4033 0.0000 19.9359 0.0000
# 2 14.6531 43.3064 13.9159 0.0000 4.6178 0.0000
# 3 6.4033 13.9159 81.6217 0.0000 -0.6881 0.0000
# 4 0.0000 0.0000 0.0000 13.6975 0.0000 1.3043
# 5 19.9359 4.6178 -0.6881 0.0000 23.6457 0.0000
# 6 0.0000 0.0000 0.0000 1.3043 0.0000 28.2609
#
#
#
# Elastic Compliance Matrix: (Units=1/GPa)
#
#
# Indices 1 2 3 4 5 6 
#
# 1 0.020901 -0.004996 -0.000929 0.000000 -0.016673 0.000000
# 2 -0.004996 0.026203 -0.004084 0.000000 -0.001024 0.000000
# 3 -0.000929 -0.004084 0.013037 0.000000 0.001960 0.000000
# 4 0.000000 0.000000 0.000000 0.073328 0.000000 -0.003384
# 5 -0.016673 -0.001024 0.001960 0.000000 0.056605 0.000000
# 6 0.000000 0.000000 0.000000 -0.003384 0.000000 0.035541
#
#
# Mechanical properties :
#
#
# Convention : Reuss Voigt Hill
#
# Bulk Modulus (GPa) = 24.92242 29.15643 27.03942
# Shear Modulus (GPa) = 19.30447 23.62022 21.46234
#
# Velocity S-wave (km/s) = 3.11348 3.44397 3.28288
# Velocity P-wave (km/s) = 5.04379 5.51864 5.28655
#
# Compressibility (1/GPa) = 0.04012451
#
# Stress axis : x y z
#
# Youngs Moduli (GPa) = 47.84509 38.16324 76.70283
#
# Poissons Ratio (x) = 0.19065 0.07122
# Poissons Ratio (y) = 0.23902 0.31327
# Poissons Ratio (z) = 0.04442 0.15586
#
# Static dielectric constant tensor:
#      x y z
#    x 1.724610 0.000000 0.032560 
#    y 0.000000 1.723270 0.000000 
#    z 0.032560 0.000000 1.689580 
# 
# From -- ./inp_files/70471.got.cif
#   From: 2010.05.17/outbox.cif.g08.bks.cpg/sg14_36_cif.got.tgz:70471.got - 2010.06.03 17:49:19.
