data_PCOD9243399
_publ_section_title
;
Structure prediction by ZEFSAII (Michael W. Deem and Ramdas Pophale) SiO2 
 PCOD9243399
Probable space group: P 21/C
;
_chemical_formula_sum "Si O2"
_cell_formula_units_Z 32
_cell_length_a 8.165241
_cell_length_b 12.389854
_cell_length_c 27.454453
_cell_angle_alpha 90.000000
_cell_angle_beta 35.425811
_cell_angle_gamma 90.000000
_cell_volume 1609.950679
_symmetry_space_group_name_H-M "P 21/C"
_symmetry_group_IT_number 14
_symmetry_cell_setting 'monoclinic'
loop_
_space_group_symop_operation_xyz
x,y,z
-x,1/2+y,1/2-z
-x,-y,-z
x,1/2-y,1/2+z
loop_
_atom_site_type_symbol
_atom_site_label
_atom_site_fract_x
_atom_site_fract_y
_atom_site_fract_z
Si Si1 0.105272 0.682926 0.058516
Si Si2 0.640423 0.402954 0.858533
Si Si3 0.155135 0.993142 0.790914
Si Si4 0.762739 0.481221 0.153627
Si Si5 0.169957 0.177838 0.069284
Si Si6 0.719809 0.607638 0.907779
Si Si7 0.210531 0.688876 0.621299
Si Si8 0.009516 0.825377 0.472507
O O1 0.082537 0.782369 0.099668
O O2 0.840163 0.605851 0.130468
O O3 0.117686 0.711272 0.998753
O O4 0.389530 0.615431 0.004676
O O5 0.738371 0.418479 0.779424
O O6 0.702234 0.518183 0.869594
O O7 0.793280 0.299440 0.846541
O O8 0.310491 0.370760 0.945378
O O9 0.971988 0.926165 0.873561
O O10 0.442596 0.035084 0.746608
O O11 0.969052 0.090730 0.814643
O O12 0.015878 0.433229 0.124371
O O13 0.799728 0.423624 0.092541
O O14 0.219006 0.262952 0.102309
O O15 0.467712 0.157792 0.969913
O O16 0.988889 0.236229 0.070558
#
# Coordination Sequence:
#
# PCOD9243399 Si02
#       8
#     4   4   4   4   4   4   4   4
#     4  11  18  36  64  92 120 156 214 251 309 361
#     4  11  21  39  66  93 121 158 212 259 309 359
#     4  12  25  40  59  93 133 162 206 255 314 376
#     4  11  20  35  61  92 126 154 197 270 308 357
#     4   9  23  42  64  85 127 169 206 247 307 378
#     4  10  20  37  63  92 119 158 203 259 303 362
#     4  10  24  42  64  86 123 174 204 251 313 379
#     4  10  20  38  65  94 118 162 207 256 309 365
#
# _framework density 19.876384000000002
#
# number of rings (size 3 to 8) (size 9 to 14) (size 15 to 20)
#    0.000    1.500    3.750    2.625    1.750    2.000 
#    0.000    0.625    0.000    0.000    0.000    0.000 
#    0.000    0.000    0.000    0.000    0.000    0.000 
#
# Total GULP energy -178229.363754 kJ/mol
# GULP energy per Si atom -5569.667617 kJ/mol
# Density = 1.983114 g / cm^3
# Si number density = 19.876384 Si / 1000 Ang^3
#
#
#
# Elastic Constant Matrix: (Units=GPa)
#
#
# Indices 1 2 3 4 5 6 
#
# 1 75.2339 18.5783 18.4482 0.0000 -5.0660 0.0000
# 2 18.5783 60.5436 39.2030 0.0000 -13.8176 0.0000
# 3 18.4482 39.2030 67.8969 0.0000 -6.5448 0.0000
# 4 0.0000 0.0000 0.0000 24.9234 0.0000 2.5117
# 5 -5.0660 -13.8176 -6.5448 0.0000 19.6418 0.0000
# 6 0.0000 0.0000 0.0000 2.5117 0.0000 16.6231
#
#
#
# Elastic Compliance Matrix: (Units=1/GPa)
#
#
# Indices 1 2 3 4 5 6 
#
# 1 0.014603 -0.002772 -0.002265 0.000000 0.001062 0.000000
# 2 -0.002772 0.031194 -0.015716 0.000000 0.015993 0.000000
# 3 -0.002265 -0.015716 0.024069 0.000000 -0.003620 0.000000
# 4 0.000000 0.000000 0.000000 0.040743 0.000000 -0.006156
# 5 0.001062 0.015993 -0.003620 0.000000 0.061230 0.000000
# 6 0.000000 0.000000 0.000000 -0.006156 0.000000 0.061087
#
#
# Mechanical properties :
#
#
# Convention : Reuss Voigt Hill
#
# Bulk Modulus (GPa) = 35.26145 39.57036 37.41591
# Shear Modulus (GPa) = 17.61262 20.73400 19.17331
#
# Velocity S-wave (km/s) = 2.97999 3.23328 3.10921
# Velocity P-wave (km/s) = 5.44236 5.82154 5.63514
#
# Compressibility (1/GPa) = 0.02835958
#
# Stress axis : x y z
#
# Youngs Moduli (GPa) = 68.47754 32.05719 41.54713
#
# Poissons Ratio (x) = 0.08888 0.09409
# Poissons Ratio (y) = 0.18985 0.65297
# Poissons Ratio (z) = 0.15509 0.50382
#
# Static dielectric constant tensor:
#      x y z
#    x 1.759740 0.000000 -0.001330 
#    y 0.000000 1.725550 0.000000 
#    z -0.001330 0.000000 1.681760 
# 
# From -- ./inp_files/79601.got.cif
#   From: 2010.05.17/outbox.cif.g08.bks.cpg/sg14_40_cif.got.tgz:79601.got - 2010.06.03 17:49:19.
