data_PCOD9243960
_publ_section_title
;
Structure prediction by ZEFSAII (Michael W. Deem and Ramdas Pophale) SiO2 
 PCOD9243960
Probable space group: P 21/C
;
_chemical_formula_sum "Si O2"
_cell_formula_units_Z 32
_cell_length_a 8.427428
_cell_length_b 13.768369
_cell_length_c 13.922954
_cell_angle_alpha 90.000000
_cell_angle_beta 75.946371
_cell_angle_gamma 90.000000
_cell_volume 1567.153368
_symmetry_space_group_name_H-M "P 21/C"
_symmetry_group_IT_number 14
_symmetry_cell_setting 'monoclinic'
loop_
_space_group_symop_operation_xyz
x,y,z
-x,1/2+y,1/2-z
-x,-y,-z
x,1/2-y,1/2+z
loop_
_atom_site_type_symbol
_atom_site_label
_atom_site_fract_x
_atom_site_fract_y
_atom_site_fract_z
Si Si1 0.456827 0.407568 0.070560
Si Si2 0.140139 0.032338 0.731296
Si Si3 0.413608 0.883451 0.870708
Si Si4 0.286264 0.208865 0.070235
Si Si5 0.971051 0.180979 0.646732
Si Si6 0.757457 0.296485 0.013490
Si Si7 0.752434 0.324385 0.786629
Si Si8 0.838025 0.944403 0.063370
O O1 0.320811 0.442632 0.165258
O O2 0.384012 0.309295 0.031182
O O3 0.500000 0.500000 0.000000
O O4 0.628781 0.368699 0.084381
O O5 0.014443 0.073494 0.672988
O O6 0.114737 0.085262 0.835723
O O7 0.130016 0.917435 0.747600
O O8 0.592753 0.859722 0.885515
O O9 0.399510 0.853373 0.760278
O O10 0.322600 0.985870 0.900450
O O11 0.297496 0.810617 0.948474
O O12 0.128204 0.252329 0.146191
O O13 0.217943 0.144466 0.993774
O O14 0.929007 0.185779 0.540251
O O15 0.826200 0.228058 0.729114
O O16 0.739591 0.313596 0.902777
O O17 0.000000 0.000000 0.000000
#
# Coordination Sequence:
#
# PCOD9243960 Si02
#       8
#     4   4   4   4   4   4   4   4
#     4  10  20  42  61  86 128 163 209 264 311 371
#     4  10  22  40  60  92 126 160 213 257 316 378
#     4   9  21  39  60  91 124 157 214 263 308 392
#     4  10  21  41  61  90 126 165 212 263 315 384
#     4  10  23  39  58  94 127 158 211 259 308 389
#     4  10  20  39  64  87 121 168 208 258 321 375
#     4  10  20  39  63  86 124 164 209 258 320 375
#     4  11  22  40  67  90 130 166 209 265 330 380
#
# _framework density 20.41919
#
# number of rings (size 3 to 8) (size 9 to 14) (size 15 to 20)
#    0.000    2.000    1.250    2.625    3.500    0.500 
#   18.000    5.000    0.000    0.000    0.000    0.000 
#    0.000    0.000    0.000    0.000    0.000    0.000 
#
# Total GULP energy -178234.520494 kJ/mol
# GULP energy per Si atom -5569.828765 kJ/mol
# Density = 2.037272 g / cm^3
# Si number density = 20.419190 Si / 1000 Ang^3
#
#
#
# Elastic Constant Matrix: (Units=GPa)
#
#
# Indices 1 2 3 4 5 6 
#
# 1 74.3811 14.0486 27.5521 0.0000 9.1797 0.0000
# 2 14.0486 66.6325 11.0035 0.0000 10.1175 0.0000
# 3 27.5521 11.0035 106.7688 0.0000 19.7673 0.0000
# 4 0.0000 0.0000 0.0000 30.2654 0.0000 6.2435
# 5 9.1797 10.1175 19.7673 0.0000 27.4000 0.0000
# 6 0.0000 0.0000 0.0000 6.2435 0.0000 16.4260
#
#
#
# Elastic Compliance Matrix: (Units=1/GPa)
#
#
# Indices 1 2 3 4 5 6 
#
# 1 0.015377 -0.002407 -0.003383 0.000000 -0.001823 0.000000
# 2 -0.002407 0.016313 -0.000109 0.000000 -0.005139 0.000000
# 3 -0.003383 -0.000109 0.011580 0.000000 -0.007180 0.000000
# 4 0.000000 0.000000 0.000000 0.035852 0.000000 -0.013627
# 5 -0.001823 -0.005139 -0.007180 0.000000 0.044185 0.000000
# 6 0.000000 0.000000 0.000000 -0.013627 0.000000 0.066059
#
#
# Mechanical properties :
#
#
# Convention : Reuss Voigt Hill
#
# Bulk Modulus (GPa) = 31.77255 39.22119 35.49687
# Shear Modulus (GPa) = 23.62363 27.83018 25.72690
#
# Velocity S-wave (km/s) = 3.40506 3.69581 3.55341
# Velocity P-wave (km/s) = 5.57254 6.12060 5.85299
#
# Compressibility (1/GPa) = 0.03147371
#
# Stress axis : x y z
#
# Youngs Moduli (GPa) = 65.03341 61.29939 86.35948
#
# Poissons Ratio (x) = 0.14753 0.29211
# Poissons Ratio (y) = 0.15651 0.00939
# Poissons Ratio (z) = 0.21998 0.00667
#
# Static dielectric constant tensor:
#      x y z
#    x 1.785790 0.000000 0.001450 
#    y 0.000000 1.797700 0.000000 
#    z 0.001450 0.000000 1.733060 
# 
# From -- ./inp_files/40936.got.cif
#   From: 2010.05.17/outbox.cif.g08.bks.cpg/sg14_21_cif.got.tgz:40936.got - 2010.06.03 17:49:19.
