data_PCOD9243151
_publ_section_title
;
Structure prediction by ZEFSAII (Michael W. Deem and Ramdas Pophale) SiO2 
 PCOD9243151
Probable space group: P 21/C
;
_chemical_formula_sum "Si O2"
_cell_formula_units_Z 22
_cell_length_a 12.017866
_cell_length_b 16.726262
_cell_length_c 5.044035
_cell_angle_alpha 90.000000
_cell_angle_beta 71.793018
_cell_angle_gamma 90.000000
_cell_volume 963.158516
_symmetry_space_group_name_H-M "P 21/C"
_symmetry_group_IT_number 14
_symmetry_cell_setting 'monoclinic'
loop_
_space_group_symop_operation_xyz
x,y,z
-x,1/2+y,1/2-z
-x,-y,-z
x,1/2-y,1/2+z
loop_
_atom_site_type_symbol
_atom_site_label
_atom_site_fract_x
_atom_site_fract_y
_atom_site_fract_z
Si Si1 0.500000 0.500000 0.000000
Si Si2 0.157059 0.699308 0.434915
Si Si3 0.323683 0.483384 0.651239
Si Si4 0.416800 0.871403 0.792345
Si Si5 0.621268 0.802440 0.931874
Si Si6 0.935703 0.038422 0.798024
O O1 0.374877 0.502213 0.900879
O O2 0.498359 0.395654 0.008909
O O3 0.142255 0.725382 0.142230
O O4 0.290658 0.665438 0.347599
O O5 0.072263 0.631791 0.617238
O O6 0.410069 0.531135 0.377767
O O7 0.322736 0.389602 0.613420
O O8 0.198782 0.517214 0.666915
O O9 0.483906 0.821183 0.963167
O O10 0.654505 0.747281 0.660954
O O11 0.000000 0.000000 0.500000
O O12 0.000000 0.000000 0.000000
#
# Coordination Sequence:
#
# PCOD9243151 Si02
#       6
#     2   4   4   4   4   4
#     4  10  20  36  66  96 134 172 224 272 336 418
#     4  11  24  43  71 106 142 173 234 308 361 397
#     4  10  25  41  68  94 136 177 232 276 342 412
#     4  10  23  37  65  95 139 183 226 272 350 415
#     4  11  24  38  58  94 137 174 216 266 336 411
#     4  11  26  48  75 100 133 188 244 285 345 426
#
# _framework density 22.841515000000001
#
# number of rings (size 3 to 8) (size 9 to 14) (size 15 to 20)
#    0.000    1.455    0.000    4.364   20.364    0.000 
#    0.000    5.455    0.000    0.000    0.000    0.000 
#    0.000    0.000    0.000    0.000    0.000    0.000 
#
# Total GULP energy -122500.006884 kJ/mol
# GULP energy per Si atom -5568.182131 kJ/mol
# Density = 2.278953 g / cm^3
# Si number density = 22.841515 Si / 1000 Ang^3
#
#
#
# Elastic Constant Matrix: (Units=GPa)
#
#
# Indices 1 2 3 4 5 6 
#
# 1 81.0318 -3.6937 20.6273 0.0000 13.9333 0.0000
# 2 -3.6937 89.6675 21.1307 0.0000 11.4290 0.0000
# 3 20.6273 21.1307 115.7046 0.0000 28.8787 0.0000
# 4 0.0000 0.0000 0.0000 43.6739 0.0000 3.5578
# 5 13.9333 11.4290 28.8787 0.0000 35.2147 0.0000
# 6 0.0000 0.0000 0.0000 3.5578 0.0000 34.5842
#
#
#
# Elastic Compliance Matrix: (Units=1/GPa)
#
#
# Indices 1 2 3 4 5 6 
#
# 1 0.013595 0.001512 -0.001553 0.000000 -0.004597 0.000000
# 2 0.001512 0.012009 -0.001686 0.000000 -0.003113 0.000000
# 3 -0.001553 -0.001686 0.011238 0.000000 -0.008054 0.000000
# 4 0.000000 0.000000 0.000000 0.023090 0.000000 -0.002375
# 5 -0.004597 -0.003113 -0.008054 0.000000 0.037832 0.000000
# 6 0.000000 0.000000 0.000000 -0.002375 0.000000 0.029159
#
#
# Mechanical properties :
#
#
# Convention : Reuss Voigt Hill
#
# Bulk Modulus (GPa) = 29.94997 40.28138 35.11568
# Shear Modulus (GPa) = 35.33438 39.25052 37.29245
#
# Velocity S-wave (km/s) = 3.93738 4.14984 4.04500
# Velocity P-wave (km/s) = 5.81474 6.37456 6.10107
#
# Compressibility (1/GPa) = 0.03338901
#
# Stress axis : x y z
#
# Youngs Moduli (GPa) = 73.55456 83.27350 88.98704
#
# Poissons Ratio (x) = -0.12589 0.13815
# Poissons Ratio (y) = -0.11120 0.14999
# Poissons Ratio (z) = 0.11419 0.14036
#
# Static dielectric constant tensor:
#      x y z
#    x 1.772850 0.000000 -0.033800 
#    y 0.000000 2.001610 0.000000 
#    z -0.033800 0.000000 2.105460 
# 
# From -- ./inp_files/2512.got.cif
#   From: 2010.05.17/outbox.cif.g08.bks.cpg/sg14_2_cif.got.tgz:2512.got - 2010.06.03 17:49:19.
