data_PCOD9243888
_publ_section_title
;
Structure prediction by ZEFSAII (Michael W. Deem and Ramdas Pophale) SiO2 
 PCOD9243888
Probable space group: P 21/C
;
_chemical_formula_sum "Si O2"
_cell_formula_units_Z 32
_cell_length_a 21.667698
_cell_length_b 9.482785
_cell_length_c 23.147208
_cell_angle_alpha 90.000000
_cell_angle_beta 18.933008
_cell_angle_gamma 90.000000
_cell_volume 1543.162538
_symmetry_space_group_name_H-M "P 21/C"
_symmetry_group_IT_number 14
_symmetry_cell_setting 'monoclinic'
loop_
_space_group_symop_operation_xyz
x,y,z
-x,1/2+y,1/2-z
-x,-y,-z
x,1/2-y,1/2+z
loop_
_atom_site_type_symbol
_atom_site_label
_atom_site_fract_x
_atom_site_fract_y
_atom_site_fract_z
Si Si1 0.803872 0.371962 0.545591
Si Si2 0.157967 0.965041 0.119556
Si Si3 0.323602 0.179526 0.822392
Si Si4 0.563032 0.368128 0.530392
Si Si5 0.979141 0.653665 0.081980
Si Si6 0.499229 0.142222 0.787513
Si Si7 0.707057 0.067000 0.781848
Si Si8 0.841964 0.556493 0.984177
O O1 0.841724 0.396692 0.444022
O O2 0.750140 0.521846 0.620207
O O3 0.981662 0.299400 0.420357
O O4 0.624242 0.263742 0.706648
O O5 0.945313 0.975209 0.332444
O O6 0.288104 0.106207 0.997649
O O7 0.268694 0.880980 0.071985
O O8 0.419635 0.252195 0.682386
O O9 0.472101 0.176102 0.744063
O O10 0.161652 0.284062 0.990574
O O11 0.455396 0.520439 0.619476
O O12 0.640494 0.349396 0.396996
O O13 0.049146 0.536919 0.065627
O O14 0.781163 0.588195 0.237063
O O15 0.121990 0.643882 0.901494
O O16 0.625827 0.000018 0.676461
#
# Coordination Sequence:
#
# PCOD9243888 Si02
#       8
#     4   4   4   4   4   4   4   4
#     4  10  22  37  62  91 136 161 199 259 334 384
#     4  11  21  38  64  98 123 164 212 264 313 373
#     4  11  20  38  58  91 129 166 194 257 334 371
#     4  11  19  37  61  94 114 159 218 264 306 360
#     4  10  20  40  60  90 114 166 215 266 304 360
#     4  10  20  39  60  88 129 172 205 254 307 387
#     4  10  21  36  68  85 115 163 231 261 288 368
#     4  11  21  37  65  89 127 163 217 253 306 379
#
# _framework density 20.736637000000002
#
# number of rings (size 3 to 8) (size 9 to 14) (size 15 to 20)
#    0.000    1.500    5.000    1.500    0.000    4.000 
#    0.000    1.250    0.000    0.000    0.000    0.000 
#    0.000    0.000    0.000    0.000    0.000    0.000 
#
# Total GULP energy -178507.251259 kJ/mol
# GULP energy per Si atom -5578.351602 kJ/mol
# Density = 2.068944 g / cm^3
# Si number density = 20.736637 Si / 1000 Ang^3
#
#
#
# Elastic Constant Matrix: (Units=GPa)
#
#
# Indices 1 2 3 4 5 6 
#
# 1 72.6141 25.7013 19.0548 0.0000 22.7579 0.0000
# 2 25.7013 99.4746 24.4778 0.0000 12.8343 0.0000
# 3 19.0548 24.4778 97.0971 0.0000 34.5669 0.0000
# 4 0.0000 0.0000 0.0000 2.9826 0.0000 -0.2614
# 5 22.7579 12.8343 34.5669 0.0000 31.4993 0.0000
# 6 0.0000 0.0000 0.0000 -0.2614 0.0000 25.8905
#
#
#
# Elastic Compliance Matrix: (Units=1/GPa)
#
#
# Indices 1 2 3 4 5 6 
#
# 1 0.019129 -0.003616 0.002549 0.000000 -0.015144 0.000000
# 2 -0.003616 0.011504 -0.002383 0.000000 0.000540 0.000000
# 3 0.002549 -0.002383 0.017576 0.000000 -0.020158 0.000000
# 4 0.000000 0.000000 0.000000 0.335571 0.000000 0.003388
# 5 -0.015144 0.000540 -0.020158 0.000000 0.064590 0.000000
# 6 0.000000 0.000000 0.000000 0.003388 0.000000 0.038658
#
#
# Mechanical properties :
#
#
# Convention : Reuss Voigt Hill
#
# Bulk Modulus (GPa) = 24.20743 45.29484 34.75113
# Shear Modulus (GPa) = 9.84842 25.40461 17.62652
#
# Velocity S-wave (km/s) = 2.18165 3.50395 2.91867
# Velocity P-wave (km/s) = 4.24797 6.18551 5.30593
#
# Compressibility (1/GPa) = 0.04130964
#
# Stress axis : x y z
#
# Youngs Moduli (GPa) = 52.27768 86.92907 56.89635
#
# Poissons Ratio (x) = 0.31430 -0.14503
# Poissons Ratio (y) = 0.18901 0.13556
# Poissons Ratio (z) = -0.13326 0.20712
#
# Static dielectric constant tensor:
#      x y z
#    x 1.783480 0.000000 -0.018720 
#    y 0.000000 1.763670 0.000000 
#    z -0.018720 0.000000 1.801800 
# 
# From -- ./inp_files/74895.got.cif
#   From: 2010.05.17/outbox.cif.g08.bks.cpg/sg14_38_cif.got.tgz:74895.got - 2010.06.03 17:49:19.
