data_PCOD9243456
_publ_section_title
;
Structure prediction by ZEFSAII (Michael W. Deem and Ramdas Pophale) SiO2 
 PCOD9243456
Probable space group: P 21/C
;
_chemical_formula_sum "Si O2"
_cell_formula_units_Z 32
_cell_length_a 9.483890
_cell_length_b 16.382922
_cell_length_c 15.756255
_cell_angle_alpha 90.000000
_cell_angle_beta 36.577961
_cell_angle_gamma 90.000000
_cell_volume 1458.867793
_symmetry_space_group_name_H-M "P 21/C"
_symmetry_group_IT_number 14
_symmetry_cell_setting 'monoclinic'
loop_
_space_group_symop_operation_xyz
x,y,z
-x,1/2+y,1/2-z
-x,-y,-z
x,1/2-y,1/2+z
loop_
_atom_site_type_symbol
_atom_site_label
_atom_site_fract_x
_atom_site_fract_y
_atom_site_fract_z
Si Si1 0.701801 0.085034 0.160185
Si Si2 0.466906 0.699664 0.114202
Si Si3 0.992285 0.308333 0.121980
Si Si4 0.371790 0.412086 0.659375
Si Si5 0.095206 0.421792 0.359796
Si Si6 0.053531 0.914235 0.524272
Si Si7 0.779692 0.076951 0.856401
Si Si8 0.529901 0.416038 0.042736
O O1 0.566412 0.129719 0.299348
O O2 0.523396 0.077391 0.170057
O O3 0.785567 0.997767 0.151828
O O4 0.939222 0.126117 0.004720
O O5 0.243934 0.756667 0.243913
O O6 0.416561 0.655704 0.049348
O O7 0.741892 0.728359 0.993525
O O8 0.965359 0.377225 0.207757
O O9 0.950793 0.348661 0.049812
O O10 0.310072 0.500410 0.652441
O O11 0.548277 0.373617 0.503408
O O12 0.128941 0.380129 0.815502
O O13 0.299825 0.383746 0.205059
O O14 0.912203 0.453110 0.376779
O O15 0.282638 0.929147 0.472198
O O16 0.000000 0.000000 0.500000
O O17 0.500000 0.500000 0.000000
#
# Coordination Sequence:
#
# PCOD9243456 Si02
#       8
#     4   4   4   4   4   4   4   4
#     4  10  21  39  66  99 136 174 220 291 352 413
#     4  12  27  49  68  97 144 195 238 294 360 437
#     4  12  27  49  68  97 144 195 238 294 360 437
#     4  10  20  37  66 102 133 166 224 285 347 405
#     4  10  20  37  66 102 133 166 224 285 347 405
#     4  12  23  41  73 107 138 181 239 302 359 426
#     4  10  21  39  66  99 136 174 220 291 352 413
#     4  12  23  41  73 107 138 181 239 302 359 426
#
# _framework density 21.934818
#
# number of rings (size 3 to 8) (size 9 to 14) (size 15 to 20)
#    0.000    1.000    5.000    2.250    0.000    2.000 
#    9.000    2.500    0.000    0.000    0.000    0.000 
#    0.000    0.000    0.000    0.000    0.000    0.000 
#
# Total GULP energy -178228.804313 kJ/mol
# GULP energy per Si atom -5569.650135 kJ/mol
# Density = 2.188489 g / cm^3
# Si number density = 21.934818 Si / 1000 Ang^3
#
#
#
# Elastic Constant Matrix: (Units=GPa)
#
#
# Indices 1 2 3 4 5 6 
#
# 1 64.5649 -1.3928 16.9808 0.0000 -13.7127 0.0000
# 2 -1.3928 18.5787 5.7899 0.0000 -7.9764 0.0000
# 3 16.9808 5.7899 151.3705 0.0000 -2.2325 0.0000
# 4 0.0000 0.0000 0.0000 37.6150 0.0000 0.2051
# 5 -13.7127 -7.9764 -2.2325 0.0000 41.8382 0.0000
# 6 0.0000 0.0000 0.0000 0.2051 0.0000 13.8888
#
#
#
# Elastic Compliance Matrix: (Units=1/GPa)
#
#
# Indices 1 2 3 4 5 6 
#
# 1 0.017519 0.004760 -0.002051 0.000000 0.006540 0.000000
# 2 0.004760 0.060578 -0.002660 0.000000 0.012967 0.000000
# 3 -0.002051 -0.002660 0.006926 0.000000 -0.000810 0.000000
# 4 0.000000 0.000000 0.000000 0.026587 0.000000 -0.000393
# 5 0.006540 0.012967 -0.000810 0.000000 0.028474 0.000000
# 6 0.000000 0.000000 0.000000 -0.000393 0.000000 0.072006
#
#
# Mechanical properties :
#
#
# Convention : Reuss Voigt Hill
#
# Bulk Modulus (GPa) = 11.74768 30.80777 21.27773
# Shear Modulus (GPa) = 20.80152 32.87748 26.83950
#
# Velocity S-wave (km/s) = 3.08284 3.87573 3.50180
# Velocity P-wave (km/s) = 4.24726 5.83986 5.10604
#
# Compressibility (1/GPa) = 0.08512316
#
# Stress axis : x y z
#
# Youngs Moduli (GPa) = 57.07935 16.50756 144.37968
#
# Poissons Ratio (x) = -0.07858 0.29612
# Poissons Ratio (y) = -0.27172 0.38403
# Poissons Ratio (z) = 0.11707 0.04391
#
# Static dielectric constant tensor:
#      x y z
#    x 1.793380 0.000000 -0.054860 
#    y 0.000000 1.852920 0.000000 
#    z -0.054860 0.000000 1.955990 
# 
# From -- ./inp_files/41990.got.cif
#   From: 2010.05.17/outbox.cif.g08.bks.cpg/sg14_21_cif.got.tgz:41990.got - 2010.06.03 17:49:19.
