data_PCOD9243236
_publ_section_title
;
Structure prediction by ZEFSAII (Michael W. Deem and Ramdas Pophale) SiO2 
 PCOD9243236
Probable space group: P 21/C
;
_chemical_formula_sum "Si O2"
_cell_formula_units_Z 28
_cell_length_a 14.509731
_cell_length_b 8.936632
_cell_length_c 20.788271
_cell_angle_alpha 90.000000
_cell_angle_beta 31.924324
_cell_angle_gamma 90.000000
_cell_volume 1425.417176
_symmetry_space_group_name_H-M "P 21/C"
_symmetry_group_IT_number 14
_symmetry_cell_setting 'monoclinic'
loop_
_space_group_symop_operation_xyz
x,y,z
-x,1/2+y,1/2-z
-x,-y,-z
x,1/2-y,1/2+z
loop_
_atom_site_type_symbol
_atom_site_label
_atom_site_fract_x
_atom_site_fract_y
_atom_site_fract_z
Si Si1 0.567053 0.434714 0.058904
Si Si2 0.356623 0.297939 0.900557
Si Si3 0.932845 0.543182 0.434324
Si Si4 0.255585 0.877636 0.675388
Si Si5 0.701997 0.135639 0.745520
Si Si6 0.336810 0.310588 0.762943
Si Si7 0.944552 0.292023 0.513453
O O1 0.670926 0.555622 0.039899
O O2 0.407488 0.524726 0.119446
O O3 0.474262 0.310169 0.156963
O O4 0.686914 0.365490 0.932264
O O5 0.535702 0.223930 0.817316
O O6 0.369871 0.342959 0.818355
O O7 0.210724 0.169273 0.992787
O O8 0.860338 0.386411 0.504974
O O9 0.071731 0.538258 0.294869
O O10 0.045489 0.602891 0.428862
O O11 0.244207 0.720435 0.720745
O O12 0.843764 0.152331 0.603917
O O13 0.657681 0.962986 0.780309
O O14 0.140085 0.246551 0.876597
#
# Coordination Sequence:
#
# PCOD9243236 Si02
#       7
#     4   4   4   4   4   4   4
#     4  10  20  37  59  83 114 155 194 241 294 354
#     4  10  22  34  55  82 119 150 189 248 298 346
#     4   9  17  34  59  82 109 155 194 240 288 353
#     4   9  19  38  60  80 112 157 201 231 289 359
#     4  10  21  33  55  85 117 148 199 245 285 348
#     4  11  20  34  56  87 116 148 193 246 296 342
#     4   9  18  32  57  84 112 145 193 239 292 343
#
# _framework density 19.643370999999998
#
# number of rings (size 3 to 8) (size 9 to 14) (size 15 to 20)
#    0.000    2.286    1.429    1.286    8.000    0.571 
#    0.000    1.429    0.000    3.429    0.000    0.000 
#    0.000    0.000    0.000    0.000    0.000    0.000 
#
# Total GULP energy -156134.586067 kJ/mol
# GULP energy per Si atom -5576.235217 kJ/mol
# Density = 1.959866 g / cm^3
# Si number density = 19.643371 Si / 1000 Ang^3
#
#
#
# Elastic Constant Matrix: (Units=GPa)
#
#
# Indices 1 2 3 4 5 6 
#
# 1 53.3138 27.2123 34.7056 0.0000 16.4965 0.0000
# 2 27.2123 82.4287 20.9642 0.0000 16.4530 0.0000
# 3 34.7056 20.9642 101.8426 0.0000 20.6440 0.0000
# 4 0.0000 0.0000 0.0000 17.5186 0.0000 -4.3862
# 5 16.4965 16.4530 20.6440 0.0000 19.0502 0.0000
# 6 0.0000 0.0000 0.0000 -4.3862 0.0000 22.1360
#
#
#
# Elastic Compliance Matrix: (Units=1/GPa)
#
#
# Indices 1 2 3 4 5 6 
#
# 1 0.030082 -0.005434 -0.006156 0.000000 -0.014685 0.000000
# 2 -0.005434 0.015667 0.000533 0.000000 -0.009403 0.000000
# 3 -0.006156 0.000533 0.013866 0.000000 -0.010155 0.000000
# 4 0.000000 0.000000 0.000000 0.060062 0.000000 0.011901
# 5 -0.014685 -0.009403 -0.010155 0.000000 0.084335 0.000000
# 6 0.000000 0.000000 0.000000 0.011901 0.000000 0.047534
#
#
# Mechanical properties :
#
#
# Convention : Reuss Voigt Hill
#
# Bulk Modulus (GPa) = 26.66658 44.81657 35.74158
# Shear Modulus (GPa) = 17.47279 22.05448 19.76364
#
# Velocity S-wave (km/s) = 2.98569 3.35437 3.17538
# Velocity P-wave (km/s) = 5.04882 6.15362 5.62839
#
# Compressibility (1/GPa) = 0.03750012
#
# Stress axis : x y z
#
# Youngs Moduli (GPa) = 33.24288 63.82848 72.12048
#
# Poissons Ratio (x) = 0.34685 0.44396
# Poissons Ratio (y) = 0.18064 -0.03842
# Poissons Ratio (z) = 0.20464 -0.03401
#
# Static dielectric constant tensor:
#      x y z
#    x 1.691590 0.000000 -0.011130 
#    y 0.000000 1.728300 0.000000 
#    z -0.011130 0.000000 1.713430 
# 
# From -- ./inp_files/68168.got.cif
#   From: 2010.05.17/outbox.cif.g08.bks.cpg/sg14_35_cif.got.tgz:68168.got - 2010.06.03 17:49:19.
