data_PCOD9243043
_publ_section_title
;
Structure prediction by ZEFSAII (Michael W. Deem and Ramdas Pophale) SiO2 
 PCOD9243043
Probable space group: P 21/C
;
_chemical_formula_sum "Si O2"
_cell_formula_units_Z 24
_cell_length_a 10.373601
_cell_length_b 22.397084
_cell_length_c 5.520319
_cell_angle_alpha 90.000000
_cell_angle_beta 113.575815
_cell_angle_gamma 90.000000
_cell_volume 1175.527124
_symmetry_space_group_name_H-M "P 21/C"
_symmetry_group_IT_number 14
_symmetry_cell_setting 'monoclinic'
loop_
_space_group_symop_operation_xyz
x,y,z
-x,1/2+y,1/2-z
-x,-y,-z
x,1/2-y,1/2+z
loop_
_atom_site_type_symbol
_atom_site_label
_atom_site_fract_x
_atom_site_fract_y
_atom_site_fract_z
Si Si1 0.116071 0.418853 0.226705
Si Si2 0.473210 0.784786 0.957179
Si Si3 0.863958 0.483838 0.137719
Si Si4 0.812839 0.715670 0.718289
Si Si5 0.630741 0.979776 0.843888
Si Si6 0.623688 0.417527 0.703673
O O1 0.113070 0.348406 0.210657
O O2 0.274203 0.438542 0.409644
O O3 0.000696 0.446948 0.322897
O O4 0.086594 0.456259 0.961570
O O5 0.438520 0.745695 0.690414
O O6 0.399404 0.848726 0.869128
O O7 0.643011 0.793090 0.087467
O O8 0.742249 0.504334 0.224496
O O9 0.778782 0.437492 0.900061
O O10 0.847224 0.747366 0.488129
O O11 0.492169 0.941147 0.688033
O O12 0.590400 0.041078 0.946676
#
# Coordination Sequence:
#
# PCOD9243043 Si02
#       6
#     4   4   4   4   4   4
#     4  10  21  39  58  90 120 157 209 252 306 371
#     4  10  22  38  62  87 120 164 208 257 305 366
#     4  10  22  36  61  89 122 161 196 256 319 364
#     4  10  22  40  62  90 118 164 212 255 301 364
#     4  10  20  36  61  87 119 157 197 256 309 361
#     4  10  21  37  55  92 119 152 207 252 307 369
#
# _framework density 20.416374000000001
#
# number of rings (size 3 to 8) (size 9 to 14) (size 15 to 20)
#    0.000    2.000    1.667    1.000    4.667    1.333 
#    0.000    1.667    0.000    0.000    0.000    0.000 
#    0.000    0.000    0.000    0.000    0.000    0.000 
#
# Total GULP energy -133801.681035 kJ/mol
# GULP energy per Si atom -5575.070043 kJ/mol
# Density = 2.036991 g / cm^3
# Si number density = 20.416374 Si / 1000 Ang^3
#
#
#
# Elastic Constant Matrix: (Units=GPa)
#
#
# Indices 1 2 3 4 5 6 
#
# 1 83.5334 41.8473 27.8614 0.0000 1.3238 0.0000
# 2 41.8473 186.7297 58.8998 0.0000 -9.4009 0.0000
# 3 27.8614 58.8998 84.8081 0.0000 -10.5656 0.0000
# 4 0.0000 0.0000 0.0000 15.2076 0.0000 6.3281
# 5 1.3238 -9.4009 -10.5656 0.0000 34.2820 0.0000
# 6 0.0000 0.0000 0.0000 6.3281 0.0000 31.6248
#
#
#
# Elastic Compliance Matrix: (Units=1/GPa)
#
#
# Indices 1 2 3 4 5 6 
#
# 1 0.014262 -0.002232 -0.003411 0.000000 -0.002214 0.000000
# 2 -0.002232 0.007213 -0.004180 0.000000 0.000776 0.000000
# 3 -0.003411 -0.004180 0.016315 0.000000 0.004014 0.000000
# 4 0.000000 0.000000 0.000000 0.071729 0.000000 -0.014353
# 5 -0.002214 0.000776 0.004014 0.000000 0.030705 0.000000
# 6 0.000000 0.000000 0.000000 -0.014353 0.000000 0.034493
#
#
# Mechanical properties :
#
#
# Convention : Reuss Voigt Hill
#
# Bulk Modulus (GPa) = 55.11269 68.03203 61.57236
# Shear Modulus (GPa) = 24.94882 31.32039 28.13460
#
# Velocity S-wave (km/s) = 3.49950 3.92098 3.71622
# Velocity P-wave (km/s) = 6.58648 7.34122 6.97406
#
# Compressibility (1/GPa) = 0.01814464
#
# Stress axis : x y z
#
# Youngs Moduli (GPa) = 70.11564 138.64072 61.29392
#
# Poissons Ratio (x) = 0.30940 0.20910
# Poissons Ratio (y) = 0.15647 0.25618
# Poissons Ratio (z) = 0.23919 0.57946
#
# Static dielectric constant tensor:
#      x y z
#    x 1.792330 0.000000 -0.040880 
#    y 0.000000 1.686260 0.000000 
#    z -0.040880 0.000000 1.830530 
# 
# From -- ./inp_files/2715.got.cif
#   From: 2010.05.17/outbox.cif.g08.bks.cpg/sg14_2_cif.got.tgz:2715.got - 2010.06.03 17:49:19.
