data_PCOD9243245
_publ_section_title
;
Structure prediction by ZEFSAII (Michael W. Deem and Ramdas Pophale) SiO2 
 PCOD9243245
Probable space group: P 21/C
;
_chemical_formula_sum "Si O2"
_cell_formula_units_Z 24
_cell_length_a 13.961324
_cell_length_b 7.884457
_cell_length_c 9.290042
_cell_angle_alpha 90.000000
_cell_angle_beta 90.259440
_cell_angle_gamma 90.000000
_cell_volume 1022.613731
_symmetry_space_group_name_H-M "P 21/C"
_symmetry_group_IT_number 14
_symmetry_cell_setting 'monoclinic'
loop_
_space_group_symop_operation_xyz
x,y,z
-x,1/2+y,1/2-z
-x,-y,-z
x,1/2-y,1/2+z
loop_
_atom_site_type_symbol
_atom_site_label
_atom_site_fract_x
_atom_site_fract_y
_atom_site_fract_z
Si Si1 0.603612 0.236725 0.514337
Si Si2 0.589906 0.873718 0.357868
Si Si3 0.290260 0.909833 0.233289
Si Si4 0.304882 0.270411 0.389517
Si Si5 0.080927 0.484653 0.704252
Si Si6 0.908276 0.702808 0.585489
O O1 0.504660 0.232190 0.602669
O O2 0.639603 0.373895 0.399930
O O3 0.685090 0.216854 0.636256
O O4 0.589737 0.063423 0.420272
O O5 0.613567 0.876589 0.189877
O O6 0.673684 0.779259 0.447308
O O7 0.308912 0.091308 0.306130
O O8 0.178931 0.908806 0.189360
O O9 0.200105 0.347584 0.373518
O O10 0.080369 0.395238 0.859619
O O11 0.083249 0.336227 0.583401
O O12 0.988768 0.594256 0.666173
#
# Coordination Sequence:
#
# PCOD9243245 Si02
#       6
#     4   4   4   4   4   4
#     4  10  22  38  56  85 118 153 200 246 293 353
#     4  10  21  37  59  84 116 156 197 245 297 350
#     4  10  22  38  57  85 118 152 196 246 297 353
#     4  10  20  37  59  85 117 154 194 242 299 355
#     4  10  23  41  63  90 121 158 200 248 302 360
#     4  10  22  41  62  90 122 155 201 247 300 360
#
# _framework density 23.469270999999999
#
# number of rings (size 3 to 8) (size 9 to 14) (size 15 to 20)
#    0.000    2.000    0.000    3.000    0.000    8.000 
#    0.000    0.000    0.000    0.000    0.000    0.000 
#    0.000    0.000    0.000    0.000    0.000    0.000 
#
# Total GULP energy -134145.092316 kJ/mol
# GULP energy per Si atom -5589.378846 kJ/mol
# Density = 2.341585 g / cm^3
# Si number density = 23.469271 Si / 1000 Ang^3
#
#
#
# Elastic Constant Matrix: (Units=GPa)
#
#
# Indices 1 2 3 4 5 6 
#
# 1 97.0467 31.3218 4.3056 0.0000 6.2011 0.0000
# 2 31.3218 36.2028 18.0684 0.0000 -6.6867 0.0000
# 3 4.3056 18.0684 87.5090 0.0000 -3.1053 0.0000
# 4 0.0000 0.0000 0.0000 25.9865 0.0000 -11.2686
# 5 6.2011 -6.6867 -3.1053 0.0000 30.4646 0.0000
# 6 0.0000 0.0000 0.0000 -11.2686 0.0000 29.5607
#
#
#
# Elastic Compliance Matrix: (Units=1/GPa)
#
#
# Indices 1 2 3 4 5 6 
#
# 1 0.015780 -0.015997 0.002296 0.000000 -0.006489 0.000000
# 2 -0.015997 0.048199 -0.008705 0.000000 0.012948 0.000000
# 3 0.002296 -0.008705 0.013075 0.000000 -0.001045 0.000000
# 4 0.000000 0.000000 0.000000 0.046102 0.000000 0.017574
# 5 -0.006489 0.012948 -0.001045 0.000000 0.036881 0.000000
# 6 0.000000 0.000000 0.000000 0.017574 0.000000 0.040528
#
#
# Mechanical properties :
#
#
# Convention : Reuss Voigt Hill
#
# Bulk Modulus (GPa) = 31.01609 36.46114 33.73861
# Shear Modulus (GPa) = 19.52174 28.33990 23.93082
#
# Velocity S-wave (km/s) = 2.88722 3.47873 3.19669
# Velocity P-wave (km/s) = 4.93549 5.63070 5.29452
#
# Compressibility (1/GPa) = 0.03224133
#
# Stress axis : x y z
#
# Youngs Moduli (GPa) = 63.37049 20.74738 76.48346
#
# Poissons Ratio (x) = 0.33190 -0.17563
# Poissons Ratio (y) = 1.01376 0.66581
# Poissons Ratio (z) = -0.14552 0.18061
#
# Static dielectric constant tensor:
#      x y z
#    x 1.886290 0.000000 0.007630 
#    y 0.000000 1.910880 0.000000 
#    z 0.007630 0.000000 1.880140 
# 
# From -- ./inp_files/15019.got.cif
#   From: 2010.05.17/outbox.cif.g08.bks.cpg/sg14_8_cif.got.tgz:15019.got - 2010.06.03 17:49:19.
