data_PCOD9243344
_publ_section_title
;
Structure prediction by ZEFSAII (Michael W. Deem and Ramdas Pophale) SiO2 
 PCOD9243344
Probable space group: P 21/C
;
_chemical_formula_sum "Si O2"
_cell_formula_units_Z 20
_cell_length_a 7.150613
_cell_length_b 5.003251
_cell_length_c 21.259550
_cell_angle_alpha 90.000000
_cell_angle_beta 100.795132
_cell_angle_gamma 90.000000
_cell_volume 747.128283
_symmetry_space_group_name_H-M "P 21/C"
_symmetry_group_IT_number 14
_symmetry_cell_setting 'monoclinic'
loop_
_space_group_symop_operation_xyz
x,y,z
-x,1/2+y,1/2-z
-x,-y,-z
x,1/2-y,1/2+z
loop_
_atom_site_type_symbol
_atom_site_label
_atom_site_fract_x
_atom_site_fract_y
_atom_site_fract_z
Si Si1 0.919107 0.510248 0.781060
Si Si2 0.328701 0.831590 0.536640
Si Si3 0.358424 0.873475 0.910540
Si Si4 0.360675 0.240214 0.655590
Si Si5 0.038223 0.662737 0.603178
O O1 0.701634 0.586337 0.785799
O O2 0.025060 0.762838 0.758712
O O3 0.989787 0.422459 0.854955
O O4 0.480836 0.597244 0.562193
O O5 0.352169 0.860943 0.463186
O O6 0.335755 0.064833 0.589393
O O7 0.115140 0.727308 0.538847
O O8 0.419092 0.803358 0.843334
O O9 0.156028 0.008009 0.904165
O O10 0.213936 0.488499 0.643146
#
# Coordination Sequence:
#
# PCOD9243344 Si02
#       5
#     4   4   4   4   4
#     4  11  22  43  72  87 122 172 214 274 339 373
#     4   9  20  36  58  93 141 174 200 256 317 381
#     4  10  20  37  61  96 136 167 213 253 317 385
#     4  10  21  37  64  91 126 168 211 268 315 382
#     4  10  21  37  65  94 126 170 217 260 314 390
#
# _framework density 26.769162000000001
#
# number of rings (size 3 to 8) (size 9 to 14) (size 15 to 20)
#    0.000    2.000    2.000    1.200    0.000    4.000 
#    0.000    0.000   17.600    0.000    0.000    0.000 
#    0.000    0.000    0.000    0.000    0.000    0.000 
#
# Total GULP energy -111706.778712 kJ/mol
# GULP energy per Si atom -5585.338936 kJ/mol
# Density = 2.670823 g / cm^3
# Si number density = 26.769162 Si / 1000 Ang^3
#
#
#
# Elastic Constant Matrix: (Units=GPa)
#
#
# Indices 1 2 3 4 5 6 
#
# 1 142.4412 26.6302 72.7444 0.0000 -61.3201 0.0000
# 2 26.6302 118.5587 50.9504 0.0000 -31.4472 0.0000
# 3 72.7444 50.9504 158.0457 0.0000 -71.4070 0.0000
# 4 0.0000 0.0000 0.0000 47.3915 0.0000 -14.6270
# 5 -61.3201 -31.4472 -71.4070 0.0000 57.8745 0.0000
# 6 0.0000 0.0000 0.0000 -14.6270 0.0000 12.9870
#
#
#
# Elastic Compliance Matrix: (Units=1/GPa)
#
#
# Indices 1 2 3 4 5 6 
#
# 1 0.012993 0.000809 0.000401 0.000000 0.014700 0.000000
# 2 0.000809 0.010115 -0.001723 0.000000 0.004226 0.000000
# 3 0.000401 -0.001723 0.014614 0.000000 0.017519 0.000000
# 4 0.000000 0.000000 0.000000 0.032344 0.000000 0.036429
# 5 0.014700 0.004226 0.017519 0.000000 0.056766 0.000000
# 6 0.000000 0.000000 0.000000 0.036429 0.000000 0.118029
#
#
# Mechanical properties :
#
#
# Convention : Reuss Voigt Hill
#
# Bulk Modulus (GPa) = 27.25296 79.96620 53.60958
# Shear Modulus (GPa) = 19.37088 41.56531 30.46810
#
# Velocity S-wave (km/s) = 2.69295 3.94475 3.37735
# Velocity P-wave (km/s) = 4.45782 7.11937 5.93959
#
# Compressibility (1/GPa) = 0.03669326
#
# Stress axis : x y z
#
# Youngs Moduli (GPa) = 76.96439 98.86636 68.42918
#
# Poissons Ratio (x) = -0.07994 -0.02743
# Poissons Ratio (y) = -0.06223 0.11793
# Poissons Ratio (z) = -0.03085 0.17039
#
# Static dielectric constant tensor:
#      x y z
#    x 2.254750 0.000000 0.050490 
#    y 0.000000 2.263630 0.000000 
#    z 0.050490 0.000000 2.101120 
# 
# From -- ./inp_files/75456.got.cif
#   From: 2010.05.17/outbox.cif.g08.bks.cpg/sg14_38_cif.got.tgz:75456.got - 2010.06.03 17:49:19.
