data_PCOD9243820
_publ_section_title
;
Structure prediction by ZEFSAII (Michael W. Deem and Ramdas Pophale) SiO2 
 PCOD9243820
Probable space group: P 21/C
;
_chemical_formula_sum "Si O2"
_cell_formula_units_Z 32
_cell_length_a 11.834402
_cell_length_b 15.744235
_cell_length_c 16.152795
_cell_angle_alpha 90.000000
_cell_angle_beta 29.747611
_cell_angle_gamma 90.000000
_cell_volume 1493.327567
_symmetry_space_group_name_H-M "P 21/C"
_symmetry_group_IT_number 14
_symmetry_cell_setting 'monoclinic'
loop_
_space_group_symop_operation_xyz
x,y,z
-x,1/2+y,1/2-z
-x,-y,-z
x,1/2-y,1/2+z
loop_
_atom_site_type_symbol
_atom_site_label
_atom_site_fract_x
_atom_site_fract_y
_atom_site_fract_z
Si Si1 0.924371 0.384856 0.599540
Si Si2 0.236696 0.732253 0.895986
Si Si3 0.101824 0.890878 0.348029
Si Si4 0.674005 0.559300 0.235770
Si Si5 0.384307 0.487077 0.269303
Si Si6 0.218863 0.292043 0.722786
Si Si7 0.458975 0.821038 0.399783
Si Si8 0.971396 0.241128 0.221601
O O1 0.847916 0.324678 0.572907
O O2 0.706491 0.446797 0.741701
O O3 0.971968 0.321682 0.643898
O O4 0.154974 0.436068 0.438365
O O5 0.255800 0.674838 0.803082
O O6 0.455396 0.729016 0.814472
O O7 0.032429 0.692097 0.080070
O O8 0.039961 0.838146 0.304692
O O9 0.872546 0.908338 0.546729
O O10 0.232802 0.980193 0.268628
O O11 0.485678 0.527153 0.289369
O O12 0.629525 0.634043 0.331201
O O13 0.553127 0.418952 0.119808
O O14 0.313971 0.203541 0.696782
O O15 0.179905 0.281229 0.650196
O O16 0.258632 0.783744 0.583435
#
# Coordination Sequence:
#
# PCOD9243820 Si02
#       8
#     4   4   4   4   4   4   4   4
#     4  10  22  41  60  90 123 159 205 260 302 360
#     4   9  17  37  63  82 117 159 205 257 297 359
#     4   9  19  37  62  91 120 152 210 260 305 359
#     4  10  20  38  67  94 114 162 216 262 299 366
#     4  11  22  38  65  93 118 158 216 258 303 362
#     4  10  21  38  58  91 125 159 203 252 315 370
#     4  11  21  38  62  89 122 164 204 248 313 376
#     4  10  24  41  58  89 128 164 196 249 319 378
#
# _framework density 21.428654999999999
#
# number of rings (size 3 to 8) (size 9 to 14) (size 15 to 20)
#    0.000    2.000    2.500    0.750    1.750    2.500 
#    2.250    1.250    0.000    0.000    0.000    0.000 
#    0.000    0.000    0.000    0.000    0.000    0.000 
#
# Total GULP energy -178277.795442 kJ/mol
# GULP energy per Si atom -5571.181108 kJ/mol
# Density = 2.137988 g / cm^3
# Si number density = 21.428655 Si / 1000 Ang^3
#
#
#
# Elastic Constant Matrix: (Units=GPa)
#
#
# Indices 1 2 3 4 5 6 
#
# 1 110.5530 53.2917 3.2244 0.0000 -14.5282 0.0000
# 2 53.2917 90.4687 17.2352 0.0000 -5.5450 0.0000
# 3 3.2244 17.2352 23.8141 0.0000 -5.0467 0.0000
# 4 0.0000 0.0000 0.0000 14.5538 0.0000 23.4713
# 5 -14.5282 -5.5450 -5.0467 0.0000 15.7788 0.0000
# 6 0.0000 0.0000 0.0000 23.4713 0.0000 -3.5671
#
#
#
# Elastic Compliance Matrix: (Units=1/GPa)
#
#
# Indices 1 2 3 4 5 6 
#
# 1 0.015156 -0.009586 0.007647 0.000000 0.013032 0.000000
# 2 -0.009586 0.018924 -0.013794 0.000000 -0.006588 0.000000
# 3 0.007647 -0.013794 0.055143 0.000000 0.019830 0.000000
# 4 0.000000 0.000000 0.000000 0.005917 0.000000 0.038936
# 5 0.013032 -0.006588 0.019830 0.000000 0.079402 0.000000
# 6 0.000000 0.000000 0.000000 0.038936 0.000000 -0.024143
#
#
# Mechanical properties :
#
#
# Convention : Reuss Voigt Hill
#
# Bulk Modulus (GPa) = 17.31405 41.37093 29.34249
# Shear Modulus (GPa) = 24.86108 15.42542 20.14325
#
# Velocity S-wave (km/s) = 3.40984 2.68591 3.06929
# Velocity P-wave (km/s) = 4.85799 5.38211 5.12675
#
# Compressibility (1/GPa) = 0.05775656
#
# Stress axis : x y z
#
# Youngs Moduli (GPa) = 65.98160 52.84183 18.13482
#
# Poissons Ratio (x) = 0.50653 -0.13868
# Poissons Ratio (y) = 0.63249 0.25016
# Poissons Ratio (z) = -0.50458 0.72893
#
# Static dielectric constant tensor:
#      x y z
#    x 1.821910 0.000000 -0.019720 
#    y 0.000000 1.820280 0.000000 
#    z -0.019720 0.000000 1.797690 
# 
# From -- ./inp_files/57912.got.cif
#   From: 2010.05.17/outbox.cif.g08.bks.cpg/sg14_29_cif.got.tgz:57912.got - 2010.06.03 17:49:19.
