data_PCOD9243051
_publ_section_title
;
Structure prediction by ZEFSAII (Michael W. Deem and Ramdas Pophale) SiO2 
 PCOD9243051
Probable space group: P 21/C
;
_chemical_formula_sum "Si O2"
_cell_formula_units_Z 32
_cell_length_a 11.741741
_cell_length_b 16.653264
_cell_length_c 9.750795
_cell_angle_alpha 90.000000
_cell_angle_beta 121.306107
_cell_angle_gamma 90.000000
_cell_volume 1629.051759
_symmetry_space_group_name_H-M "P 21/C"
_symmetry_group_IT_number 14
_symmetry_cell_setting 'monoclinic'
loop_
_space_group_symop_operation_xyz
x,y,z
-x,1/2+y,1/2-z
-x,-y,-z
x,1/2-y,1/2+z
loop_
_atom_site_type_symbol
_atom_site_label
_atom_site_fract_x
_atom_site_fract_y
_atom_site_fract_z
Si Si1 0.593318 0.880821 0.866744
Si Si2 0.302504 0.924420 0.752892
Si Si3 0.045275 0.574531 0.927556
Si Si4 0.290831 0.137604 0.338834
Si Si5 0.124649 0.980181 0.172405
Si Si6 0.319107 0.567123 0.574936
Si Si7 0.205990 0.189187 0.783309
Si Si8 0.611173 0.602775 0.802474
O O1 0.441681 0.876650 0.824462
O O2 0.606827 0.848742 0.721476
O O3 0.630049 0.975024 0.888470
O O4 0.706298 0.842339 0.033481
O O5 0.180718 0.894613 0.583985
O O6 0.337899 0.016333 0.725892
O O7 0.260275 0.923181 0.885933
O O8 0.082573 0.547488 0.797021
O O9 0.928593 0.639832 0.831468
O O10 0.000000 0.500000 0.000000
O O11 0.201556 0.063028 0.240774
O O12 0.198796 0.215719 0.298235
O O13 0.365915 0.110593 0.522346
O O14 0.219831 0.922553 0.140480
O O15 0.000000 0.000000 0.000000
O O16 0.456463 0.615212 0.673049
O O17 0.298724 0.169061 0.712213
#
# Coordination Sequence:
#
# PCOD9243051 Si02
#       8
#     4   4   4   4   4   4   4   4
#     4  10  20  36  61  89 123 158 202 255 316 370
#     4  11  19  37  64  94 121 158 211 265 312 367
#     4  12  22  37  65  96 127 168 218 263 312 386
#     4  11  24  37  62  93 126 162 213 266 315 382
#     4  11  23  39  62  94 127 167 216 264 315 374
#     4  10  20  36  64  91 121 152 206 268 315 356
#     4  12  22  41  62  91 129 172 206 257 328 388
#     4  11  20  37  63  92 117 159 213 262 310 370
#
# _framework density 19.643329999999999
#
# number of rings (size 3 to 8) (size 9 to 14) (size 15 to 20)
#    0.000    1.000    5.000    3.750    1.750    1.500 
#    0.000    0.000    5.500    0.000    0.000    0.000 
#    0.000    0.000    0.000    0.000    0.000    0.000 
#
# Total GULP energy -178562.915283 kJ/mol
# GULP energy per Si atom -5580.091103 kJ/mol
# Density = 1.959862 g / cm^3
# Si number density = 19.643330 Si / 1000 Ang^3
#
#
#
# Elastic Constant Matrix: (Units=GPa)
#
#
# Indices 1 2 3 4 5 6 
#
# 1 106.8468 13.1501 64.1342 0.0000 -14.9637 0.0000
# 2 13.1501 34.4410 20.7275 0.0000 -7.1077 0.0000
# 3 64.1342 20.7275 164.4035 0.0000 -4.0421 0.0000
# 4 0.0000 0.0000 0.0000 7.4764 0.0000 2.7478
# 5 -14.9637 -7.1077 -4.0421 0.0000 33.5799 0.0000
# 6 0.0000 0.0000 0.0000 2.7478 0.0000 8.2189
#
#
#
# Elastic Compliance Matrix: (Units=1/GPa)
#
#
# Indices 1 2 3 4 5 6 
#
# 1 0.013109 -0.001042 -0.004859 0.000000 0.005036 0.000000
# 2 -0.001042 0.032840 -0.003585 0.000000 0.006055 0.000000
# 3 -0.004859 -0.003585 0.008383 0.000000 -0.001915 0.000000
# 4 0.000000 0.000000 0.000000 0.152492 0.000000 -0.050983
# 5 0.005036 0.006055 -0.001915 0.000000 0.033075 0.000000
# 6 0.000000 0.000000 0.000000 -0.050983 0.000000 0.138716
#
#
# Mechanical properties :
#
#
# Convention : Reuss Voigt Hill
#
# Bulk Modulus (GPa) = 28.27979 55.74611 42.01295
# Shear Modulus (GPa) = 12.21377 23.70034 17.95705
#
# Velocity S-wave (km/s) = 2.49625 3.47729 3.02678
# Velocity P-wave (km/s) = 4.76825 6.67554 5.80082
#
# Compressibility (1/GPa) = 0.03536095
#
# Stress axis : x y z
#
# Youngs Moduli (GPa) = 76.28240 30.45051 119.29013
#
# Poissons Ratio (x) = 0.03172 0.57960
# Poissons Ratio (y) = 0.07947 0.42767
# Poissons Ratio (z) = 0.37064 0.10917
#
# Static dielectric constant tensor:
#      x y z
#    x 1.732250 0.000000 -0.019430 
#    y 0.000000 1.694000 0.000000 
#    z -0.019430 0.000000 1.652420 
# 
# From -- ./inp_files/13906.got.cif
#   From: 2010.05.17/outbox.cif.g08.bks.cpg/sg14_7_cif.got.tgz:13906.got - 2010.06.03 17:49:19.
