data_PCOD9243764
_publ_section_title
;
Structure prediction by ZEFSAII (Michael W. Deem and Ramdas Pophale) SiO2 
 PCOD9243764
Probable space group: P 21/C
;
_chemical_formula_sum "Si O2"
_cell_formula_units_Z 20
_cell_length_a 11.783302
_cell_length_b 8.372076
_cell_length_c 12.000973
_cell_angle_alpha 90.000000
_cell_angle_beta 134.016770
_cell_angle_gamma 90.000000
_cell_volume 851.388796
_symmetry_space_group_name_H-M "P 21/C"
_symmetry_group_IT_number 14
_symmetry_cell_setting 'monoclinic'
loop_
_space_group_symop_operation_xyz
x,y,z
-x,1/2+y,1/2-z
-x,-y,-z
x,1/2-y,1/2+z
loop_
_atom_site_type_symbol
_atom_site_label
_atom_site_fract_x
_atom_site_fract_y
_atom_site_fract_z
Si Si1 0.191981 0.197501 0.469988
Si Si2 0.183338 0.509279 0.152923
Si Si3 0.067993 0.518530 0.698974
Si Si4 0.643642 0.972915 0.015323
Si Si5 0.225013 0.647753 0.599020
O O1 0.331908 0.291817 0.505527
O O2 0.044710 0.323568 0.374325
O O3 0.246072 0.143710 0.629205
O O4 0.142288 0.044375 0.363545
O O5 0.210552 0.509883 0.302511
O O6 0.253862 0.670052 0.149400
O O7 0.000000 0.500000 0.000000
O O8 0.203785 0.552737 0.700617
O O9 0.950062 0.380206 0.573788
O O10 0.500000 0.000000 0.000000
O O11 0.657975 0.077272 0.913598
#
# Coordination Sequence:
#
# PCOD9243764 Si02
#       5
#     4   4   4   4   4
#     4  11  23  38  70  98 139 174 224 279 343 397
#     4  12  23  41  72 102 129 172 226 279 341 390
#     4  10  20  38  65 104 137 164 218 287 341 381
#     4  11  28  47  63  94 142 182 224 272 333 402
#     4  10  22  39  64  96 136 169 220 274 332 393
#
# _framework density 23.491031
#
# number of rings (size 3 to 8) (size 9 to 14) (size 15 to 20)
#    0.000    1.200    2.000    4.800    8.400    1.600 
#    0.000    1.000    0.000    0.000    0.000    0.000 
#    0.000    0.000    0.000    0.000    0.000    0.000 
#
# Total GULP energy -111834.238471 kJ/mol
# GULP energy per Si atom -5591.711924 kJ/mol
# Density = 2.343756 g / cm^3
# Si number density = 23.491031 Si / 1000 Ang^3
#
#
#
# Elastic Constant Matrix: (Units=GPa)
#
#
# Indices 1 2 3 4 5 6 
#
# 1 174.8299 42.1744 8.5846 0.0000 -23.5637 0.0000
# 2 42.1744 103.1124 7.6044 0.0000 -22.5953 0.0000
# 3 8.5846 7.6044 36.2853 0.0000 -21.8279 0.0000
# 4 0.0000 0.0000 0.0000 22.1521 0.0000 -21.2268
# 5 -23.5637 -22.5953 -21.8279 0.0000 38.6501 0.0000
# 6 0.0000 0.0000 0.0000 -21.2268 0.0000 41.1612
#
#
#
# Elastic Compliance Matrix: (Units=1/GPa)
#
#
# Indices 1 2 3 4 5 6 
#
# 1 0.006619 -0.002041 0.000866 0.000000 0.003331 0.000000
# 2 -0.002041 0.011892 0.002157 0.000000 0.006926 0.000000
# 3 0.000866 0.002157 0.042375 0.000000 0.025720 0.000000
# 4 0.000000 0.000000 0.000000 0.089243 0.000000 0.046022
# 5 0.003331 0.006926 0.025720 0.000000 0.046478 0.000000
# 6 0.000000 0.000000 0.000000 0.046022 0.000000 0.048028
#
#
# Mechanical properties :
#
#
# Convention : Reuss Voigt Hill
#
# Bulk Modulus (GPa) = 15.91141 47.88382 31.89762
# Shear Modulus (GPa) = 18.96664 37.45030 28.20847
#
# Velocity S-wave (km/s) = 2.84456 3.99712 3.46904
# Velocity P-wave (km/s) = 4.19247 6.45994 5.44553
#
# Compressibility (1/GPa) = 0.06284797
#
# Stress axis : x y z
#
# Youngs Moduli (GPa) = 151.08856 84.09331 23.59892
#
# Poissons Ratio (x) = 0.17164 -0.02043
# Poissons Ratio (y) = 0.30838 -0.05090
# Poissons Ratio (z) = -0.13077 -0.18139
#
# Static dielectric constant tensor:
#      x y z
#    x 1.983010 0.000000 0.035920 
#    y 0.000000 1.899670 0.000000 
#    z 0.035920 0.000000 1.931120 
# 
# From -- ./inp_files/27748.got.cif
#   From: 2010.05.17/outbox.cif.g08.bks.cpg/sg14_14_cif.got.tgz:27748.got - 2010.06.03 17:49:19.
