data_PCOD9243351
_publ_section_title
;
Structure prediction by ZEFSAII (Michael W. Deem and Ramdas Pophale) SiO2 
 PCOD9243351
Probable space group: P 21/C
;
_chemical_formula_sum "Si O2"
_cell_formula_units_Z 28
_cell_length_a 16.308336
_cell_length_b 8.926555
_cell_length_c 10.662586
_cell_angle_alpha 90.000000
_cell_angle_beta 70.918824
_cell_angle_gamma 90.000000
_cell_volume 1466.944876
_symmetry_space_group_name_H-M "P 21/C"
_symmetry_group_IT_number 14
_symmetry_cell_setting 'monoclinic'
loop_
_space_group_symop_operation_xyz
x,y,z
-x,1/2+y,1/2-z
-x,-y,-z
x,1/2-y,1/2+z
loop_
_atom_site_type_symbol
_atom_site_label
_atom_site_fract_x
_atom_site_fract_y
_atom_site_fract_z
Si Si1 0.596123 0.067541 0.451942
Si Si2 0.299360 0.931469 0.850597
Si Si3 0.998689 0.250000 0.500656
Si Si4 0.878295 0.504153 0.453518
Si Si5 0.299360 0.931470 0.350037
Si Si6 0.405507 0.571398 0.547242
Si Si7 0.121705 0.495847 0.831813
O O1 0.649810 0.024709 0.300579
O O2 0.649806 0.024707 0.549624
O O3 0.588031 0.247987 0.455988
O O4 0.500000 0.000000 0.500000
O O5 0.289137 0.750000 0.855430
O O6 0.204044 0.000752 0.913274
O O7 0.354641 0.971930 0.946257
O O8 0.060491 0.354079 0.553344
O O9 0.060491 0.145922 0.386164
O O10 0.937340 0.359263 0.451755
O O11 0.937341 0.140737 0.610905
O O12 0.846692 0.498963 0.326654
O O13 0.354637 0.971929 0.199093
O O14 0.204044 0.000752 0.382682
O O15 0.500000 0.500000 0.500000
#
# Coordination Sequence:
#
# PCOD9243351 Si02
#       7
#     4   4   4   4   4   4   4
#     4  10  22  40  58  87 119 156 198 247 303 362
#     4  10  20  37  62  86 120 159 198 243 303 371
#     4  10  24  38  62  92 122 162 200 256 304 364
#     4  11  21  42  62  91 124 160 207 249 307 360
#     4  10  20  37  62  86 120 159 198 243 303 371
#     4  10  20  38  62  83 111 156 200 247 307 360
#     4  11  21  42  62  91 124 160 207 249 307 360
#
# _framework density 19.087288999999998
#
# number of rings (size 3 to 8) (size 9 to 14) (size 15 to 20)
#    0.000    1.714    2.857    1.714    0.000    0.000 
#   18.000    0.000    0.000    0.000    0.000    0.000 
#    0.000    0.000    0.000    0.000    0.000    0.000 
#
# Total GULP energy -156400.340054 kJ/mol
# GULP energy per Si atom -5585.726430 kJ/mol
# Density = 1.904385 g / cm^3
# Si number density = 19.087289 Si / 1000 Ang^3
#
#
#
# Elastic Constant Matrix: (Units=GPa)
#
#
# Indices 1 2 3 4 5 6 
#
# 1 163.0281 38.4633 76.9115 0.0000 -6.2307 0.0000
# 2 38.4633 50.6936 29.0444 0.0000 -4.4172 0.0000
# 3 76.9115 29.0444 147.1353 0.0000 -1.2165 0.0000
# 4 0.0000 0.0000 0.0000 4.6955 0.0000 -4.5111
# 5 -6.2307 -4.4172 -1.2165 0.0000 38.7644 0.0000
# 6 0.0000 0.0000 0.0000 -4.5111 0.0000 14.3162
#
#
#
# Elastic Compliance Matrix: (Units=1/GPa)
#
#
# Indices 1 2 3 4 5 6 
#
# 1 0.009053 -0.004612 -0.003815 0.000000 0.000810 0.000000
# 2 -0.004612 0.024817 -0.002471 0.000000 0.002009 0.000000
# 3 -0.003815 -0.002471 0.009273 0.000000 -0.000604 0.000000
# 4 0.000000 0.000000 0.000000 0.305434 0.000000 0.096243
# 5 0.000810 0.002009 -0.000604 0.000000 0.026137 0.000000
# 6 0.000000 0.000000 0.000000 0.096243 0.000000 0.100177
#
#
# Mechanical properties :
#
#
# Convention : Reuss Voigt Hill
#
# Bulk Modulus (GPa) = 46.84714 72.18837 59.51776
# Shear Modulus (GPa) = 9.92449 25.98439 17.95444
#
# Velocity S-wave (km/s) = 2.28272 3.69364 3.07033
# Velocity P-wave (km/s) = 5.61646 7.48952 6.61958
#
# Compressibility (1/GPa) = 0.02134602
#
# Stress axis : x y z
#
# Youngs Moduli (GPa) = 110.46229 40.29508 107.83444
#
# Poissons Ratio (x) = 0.18586 0.41139
# Poissons Ratio (y) = 0.50950 0.26648
# Poissons Ratio (z) = 0.42141 0.09958
#
# Static dielectric constant tensor:
#      x y z
#    x 1.634460 0.000000 0.008390 
#    y 0.000000 1.648110 0.000000 
#    z 0.008390 0.000000 1.652340 
# 
# From -- ./inp_files/31517.got.cif
#   From: 2010.05.17/outbox.cif.g08.bks.cpg/sg14_16_cif.got.tgz:31517.got - 2010.06.03 17:49:19.
