data_PCOD9243221
_publ_section_title
;
Structure prediction by ZEFSAII (Michael W. Deem and Ramdas Pophale) SiO2 
 PCOD9243221
Probable space group: P 21/C
;
_chemical_formula_sum "Si O2"
_cell_formula_units_Z 28
_cell_length_a 14.523826
_cell_length_b 10.325451
_cell_length_c 15.193679
_cell_angle_alpha 90.000000
_cell_angle_beta 30.279538
_cell_angle_gamma 90.000000
_cell_volume 1148.874088
_symmetry_space_group_name_H-M "P 21/C"
_symmetry_group_IT_number 14
_symmetry_cell_setting 'monoclinic'
loop_
_space_group_symop_operation_xyz
x,y,z
-x,1/2+y,1/2-z
-x,-y,-z
x,1/2-y,1/2+z
loop_
_atom_site_type_symbol
_atom_site_label
_atom_site_fract_x
_atom_site_fract_y
_atom_site_fract_z
Si Si1 0.986513 0.193482 0.104057
Si Si2 0.208299 0.549730 0.454724
Si Si3 0.559234 0.047055 0.677566
Si Si4 0.622519 0.796085 0.739624
Si Si5 0.916686 0.308863 0.862908
Si Si6 0.718791 0.935248 0.909561
Si Si7 0.384174 0.684700 0.609116
O O1 0.842391 0.304723 0.484950
O O2 0.788964 0.225558 0.227342
O O3 0.967092 0.236235 0.222746
O O4 0.164626 0.266796 0.920795
O O5 0.404428 0.526747 0.247235
O O6 0.048318 0.456897 0.552419
O O7 0.248547 0.495375 0.520982
O O8 0.460505 0.189594 0.759375
O O9 0.761481 0.082621 0.478191
O O10 0.599783 0.940894 0.720767
O O11 0.500332 0.774240 0.927116
O O12 0.098019 0.358440 0.758707
O O13 0.538821 0.846630 0.052450
O O14 0.697829 0.046622 0.854315
#
# Coordination Sequence:
#
# PCOD9243221 Si02
#       7
#     4   4   4   4   4   4   4
#     4  10  21  35  60  82 118 157 198 246 300 350
#     4  10  20  37  58  92 114 152 207 251 284 366
#     4  11  18  35  58  89 120 150 201 256 297 345
#     4  11  22  34  61  91 119 155 202 250 301 354
#     4  11  20  37  59  85 121 157 202 248 307 347
#     4  10  21  36  61  86 123 156 192 249 305 358
#     4  11  20  42  56  90 127 152 194 249 304 359
#
# _framework density 24.371687000000001
#
# number of rings (size 3 to 8) (size 9 to 14) (size 15 to 20)
#    0.000    1.429    5.714    0.857    2.000    0.000 
#    2.571    2.857    0.000    3.429    0.000    0.000 
#    0.000    0.000    0.000    0.000    0.000    0.000 
#
# Total GULP energy -156336.952570 kJ/mol
# GULP energy per Si atom -5583.462592 kJ/mol
# Density = 2.431622 g / cm^3
# Si number density = 24.371687 Si / 1000 Ang^3
#
#
#
# Elastic Constant Matrix: (Units=GPa)
#
#
# Indices 1 2 3 4 5 6 
#
# 1 106.3221 27.3979 49.4901 0.0000 -11.3628 0.0000
# 2 27.3979 40.8243 36.5225 0.0000 -5.8309 0.0000
# 3 49.4901 36.5225 163.0024 0.0000 -45.5321 0.0000
# 4 0.0000 0.0000 0.0000 37.6328 0.0000 -9.0581
# 5 -11.3628 -5.8309 -45.5321 0.0000 38.4827 0.0000
# 6 0.0000 0.0000 0.0000 -9.0581 0.0000 17.2184
#
#
#
# Elastic Compliance Matrix: (Units=1/GPa)
#
#
# Indices 1 2 3 4 5 6 
#
# 1 0.012027 -0.005992 -0.002346 0.000000 -0.000133 0.000000
# 2 -0.005992 0.034333 -0.007341 0.000000 -0.005252 0.000000
# 3 -0.002346 -0.007341 0.011931 0.000000 0.012312 0.000000
# 4 0.000000 0.000000 0.000000 0.030425 0.000000 0.016006
# 5 -0.000133 -0.005252 0.012312 0.000000 0.039718 0.000000
# 6 0.000000 0.000000 0.000000 0.016006 0.000000 0.066498
#
#
# Mechanical properties :
#
#
# Convention : Reuss Voigt Hill
#
# Bulk Modulus (GPa) = 37.12725 59.66331 48.39528
# Shear Modulus (GPa) = 21.25239 31.78267 26.51753
#
# Velocity S-wave (km/s) = 2.95619 3.61512 3.30213
# Velocity P-wave (km/s) = 5.18834 6.47759 5.86848
#
# Compressibility (1/GPa) = 0.02693439
#
# Stress axis : x y z
#
# Youngs Moduli (GPa) = 83.14417 29.12611 83.81487
#
# Poissons Ratio (x) = 0.17452 0.19665
# Poissons Ratio (y) = 0.49818 0.61527
# Poissons Ratio (z) = 0.19507 0.21381
#
# Static dielectric constant tensor:
#      x y z
#    x 1.994500 0.000000 0.034170 
#    y 0.000000 1.960370 0.000000 
#    z 0.034170 0.000000 2.033570 
# 
# From -- ./inp_files/74689.got.cif
#   From: 2010.05.17/outbox.cif.g08.bks.cpg/sg14_38_cif.got.tgz:74689.got - 2010.06.03 17:49:19.
