data_PCOD9243115
_publ_section_title
;
Structure prediction by ZEFSAII (Michael W. Deem and Ramdas Pophale) SiO2 
 PCOD9243115
Probable space group: P 21/C
;
_chemical_formula_sum "Si O2"
_cell_formula_units_Z 32
_cell_length_a 10.832969
_cell_length_b 14.165635
_cell_length_c 13.417098
_cell_angle_alpha 90.000000
_cell_angle_beta 137.602367
_cell_angle_gamma 90.000000
_cell_volume 1388.280386
_symmetry_space_group_name_H-M "P 21/C"
_symmetry_group_IT_number 14
_symmetry_cell_setting 'monoclinic'
loop_
_space_group_symop_operation_xyz
x,y,z
-x,1/2+y,1/2-z
-x,-y,-z
x,1/2-y,1/2+z
loop_
_atom_site_type_symbol
_atom_site_label
_atom_site_fract_x
_atom_site_fract_y
_atom_site_fract_z
Si Si1 0.158004 0.642615 0.049649
Si Si2 0.884654 0.915782 0.653876
Si Si3 0.184661 0.473028 0.211026
Si Si4 0.383364 0.589020 0.003846
Si Si5 0.439479 0.336286 0.453892
Si Si6 0.249610 0.340152 0.733019
Si Si7 0.764039 0.229785 0.718574
Si Si8 0.168654 0.282658 0.463255
O O1 0.217139 0.545460 0.140505
O O2 0.196081 0.728849 0.147502
O O3 0.274755 0.653018 0.019771
O O4 0.947993 0.615233 0.898641
O O5 0.898602 0.870188 0.772308
O O6 0.826857 0.830847 0.545872
O O7 0.724481 0.992111 0.561156
O O8 0.061510 0.969190 0.717119
O O9 0.372260 0.431842 0.363845
O O10 0.364744 0.641425 0.885828
O O11 0.588641 0.582787 0.165691
O O12 0.355619 0.251940 0.337078
O O13 0.651930 0.314737 0.598936
O O14 0.329861 0.325541 0.492802
O O15 0.182761 0.321278 0.582812
O O16 0.964220 0.198140 0.800425
#
# Coordination Sequence:
#
# PCOD9243115 Si02
#       8
#     4   4   4   4   4   4   4   4
#     4  10  20  36  64  89 123 166 216 262 324 384
#     4  10  21  40  65  95 127 173 218 270 323 393
#     4  10  20  39  62  93 122 164 219 264 325 385
#     4  10  22  40  64  92 130 171 219 271 327 385
#     4  10  23  38  63  92 129 168 214 276 318 392
#     4  10  22  39  65  92 125 171 222 261 328 392
#     4  11  22  40  61  95 129 169 216 271 332 383
#     4  11  21  40  65  94 129 173 220 261 332 391
#
# _framework density 23.050098999999999
#
# number of rings (size 3 to 8) (size 9 to 14) (size 15 to 20)
#    0.000    1.750    1.250    3.375    3.500    1.500 
#    0.000    2.500    0.000    3.000    0.000    0.000 
#    0.000    0.000    0.000    0.000    0.000    0.000 
#
# Total GULP energy -178721.726470 kJ/mol
# GULP energy per Si atom -5585.053952 kJ/mol
# Density = 2.299764 g / cm^3
# Si number density = 23.050099 Si / 1000 Ang^3
#
#
#
# Elastic Constant Matrix: (Units=GPa)
#
#
# Indices 1 2 3 4 5 6 
#
# 1 76.2261 8.1034 35.5319 0.0000 -16.5488 0.0000
# 2 8.1034 50.3810 32.7175 0.0000 -0.7735 0.0000
# 3 35.5319 32.7175 115.8858 0.0000 2.5634 0.0000
# 4 0.0000 0.0000 0.0000 27.8972 0.0000 2.3108
# 5 -16.5488 -0.7735 2.5634 0.0000 25.8548 0.0000
# 6 0.0000 0.0000 0.0000 2.3108 0.0000 38.2434
#
#
#
# Elastic Compliance Matrix: (Units=1/GPa)
#
#
# Indices 1 2 3 4 5 6 
#
# 1 0.018701 0.001336 -0.006391 0.000000 0.012643 0.000000
# 2 0.001336 0.024452 -0.007364 0.000000 0.002317 0.000000
# 3 -0.006391 -0.007364 0.012791 0.000000 -0.005579 0.000000
# 4 0.000000 0.000000 0.000000 0.036026 0.000000 -0.002177
# 5 0.012643 0.002317 -0.005579 0.000000 0.047393 0.000000
# 6 0.000000 0.000000 0.000000 -0.002177 0.000000 0.026280
#
#
# Mechanical properties :
#
#
# Convention : Reuss Voigt Hill
#
# Bulk Modulus (GPa) = 32.14793 43.91093 38.02943
# Shear Modulus (GPa) = 24.89439 29.47509 27.18474
#
# Velocity S-wave (km/s) = 3.28992 3.57983 3.43793
# Velocity P-wave (km/s) = 5.32998 6.01485 5.68274
#
# Compressibility (1/GPa) = 0.03110620
#
# Stress axis : x y z
#
# Youngs Moduli (GPa) = 53.47410 40.89680 78.17863
#
# Poissons Ratio (x) = -0.05466 0.49962
# Poissons Ratio (y) = -0.07146 0.57574
# Poissons Ratio (z) = 0.34174 0.30118
#
# Static dielectric constant tensor:
#      x y z
#    x 1.900220 0.000000 0.013330 
#    y 0.000000 1.912880 0.000000 
#    z 0.013330 0.000000 1.870270 
# 
# From -- ./inp_files/45125.got.cif
#   From: 2010.05.17/outbox.cif.g08.bks.cpg/sg14_23_cif.got.tgz:45125.got - 2010.06.03 17:49:19.
