data_PCOD9243482
_publ_section_title
;
Structure prediction by ZEFSAII (Michael W. Deem and Ramdas Pophale) SiO2 
 PCOD9243482
Probable space group: P 21/C
;
_chemical_formula_sum "Si O2"
_cell_formula_units_Z 32
_cell_length_a 27.091430
_cell_length_b 12.050865
_cell_length_c 7.977081
_cell_angle_alpha 90.000000
_cell_angle_beta 142.989290
_cell_angle_gamma 90.000000
_cell_volume 1567.706961
_symmetry_space_group_name_H-M "P 21/C"
_symmetry_group_IT_number 14
_symmetry_cell_setting 'monoclinic'
loop_
_space_group_symop_operation_xyz
x,y,z
-x,1/2+y,1/2-z
-x,-y,-z
x,1/2-y,1/2+z
loop_
_atom_site_type_symbol
_atom_site_label
_atom_site_fract_x
_atom_site_fract_y
_atom_site_fract_z
Si Si1 0.415209 0.925046 0.077176
Si Si2 0.634614 0.659174 0.462038
Si Si3 0.706270 0.877794 0.791488
Si Si4 0.438156 0.518534 0.181375
Si Si5 0.998157 0.344582 0.134435
Si Si6 0.963725 0.877476 0.890940
Si Si7 0.443466 0.785135 0.467726
Si Si8 0.888388 0.944434 0.352734
O O1 0.405653 0.834795 0.904298
O O2 0.400861 0.858587 0.209628
O O3 0.371579 0.043900 0.951736
O O4 0.511535 0.958056 0.332919
O O5 0.694795 0.752568 0.696680
O O6 0.669186 0.625229 0.376833
O O7 0.542576 0.714054 0.206227
O O8 0.647121 0.958350 0.525853
O O9 0.797080 0.924921 0.042366
O O10 0.500000 0.500000 0.500000
O O11 0.433081 0.644778 0.110699
O O12 0.049098 0.346956 0.448107
O O13 0.977920 0.218280 0.028593
O O14 0.052247 0.387767 0.124627
O O15 0.921940 0.428673 0.950829
O O16 0.896142 0.890785 0.560449
O O17 0.000000 0.000000 0.000000
#
# Coordination Sequence:
#
# PCOD9243482 Si02
#       8
#     4   4   4   4   4   4   4   4
#     4  11  21  38  62  87 117 165 226 279 326 397
#     4  11  23  39  59  93 127 167 214 282 338 401
#     4  12  25  42  61  94 138 168 220 287 348 386
#     4  11  22  37  61  86 122 173 229 269 332 398
#     4  10  20  41  69 102 134 180 226 265 332 424
#     4  10  20  37  70 104 130 174 222 270 329 402
#     4  11  19  38  61  85 116 165 224 279 325 398
#     4  10  24  41  67  99 142 179 221 283 337 405
#
# _framework density 20.411978000000001
#
# number of rings (size 3 to 8) (size 9 to 14) (size 15 to 20)
#    0.000    1.250    5.000    1.500    5.250    0.000 
#    0.000    0.000    5.500    0.000    0.000    0.000 
#    0.000    0.000    0.000    0.000    0.000    0.000 
#
# Total GULP energy -178416.733989 kJ/mol
# GULP energy per Si atom -5575.522937 kJ/mol
# Density = 2.036552 g / cm^3
# Si number density = 20.411978 Si / 1000 Ang^3
#
#
#
# Elastic Constant Matrix: (Units=GPa)
#
#
# Indices 1 2 3 4 5 6 
#
# 1 58.3062 18.2111 28.9335 0.0000 -13.0590 0.0000
# 2 18.2111 123.4991 45.3691 0.0000 12.7934 0.0000
# 3 28.9335 45.3691 106.3636 0.0000 5.1576 0.0000
# 4 0.0000 0.0000 0.0000 23.0763 0.0000 -11.0375
# 5 -13.0590 12.7934 5.1576 0.0000 26.8084 0.0000
# 6 0.0000 0.0000 0.0000 -11.0375 0.0000 31.8858
#
#
#
# Elastic Compliance Matrix: (Units=1/GPa)
#
#
# Indices 1 2 3 4 5 6 
#
# 1 0.024269 -0.002827 -0.006092 0.000000 0.014343 0.000000
# 2 -0.002827 0.010337 -0.003366 0.000000 -0.005662 0.000000
# 3 -0.006092 -0.003366 0.012679 0.000000 -0.003800 0.000000
# 4 0.000000 0.000000 0.000000 0.051933 0.000000 0.017977
# 5 0.014343 -0.005662 -0.003800 0.000000 0.047722 0.000000
# 6 0.000000 0.000000 0.000000 0.017977 0.000000 0.037585
#
#
# Mechanical properties :
#
#
# Convention : Reuss Voigt Hill
#
# Bulk Modulus (GPa) = 44.02026 52.57736 48.29881
# Shear Modulus (GPa) = 23.07714 29.39777 26.23745
#
# Velocity S-wave (km/s) = 3.36604 3.79914 3.58913
# Velocity P-wave (km/s) = 6.05968 6.71257 6.39446
#
# Compressibility (1/GPa) = 0.02271681
#
# Stress axis : x y z
#
# Youngs Moduli (GPa) = 41.20498 96.73912 78.87254
#
# Poissons Ratio (x) = 0.27345 0.48045
# Poissons Ratio (y) = 0.11647 0.26547
# Poissons Ratio (z) = 0.25100 0.32560
#
# Static dielectric constant tensor:
#      x y z
#    x 1.793160 0.000000 -0.082430 
#    y 0.000000 1.823200 0.000000 
#    z -0.082430 0.000000 1.734950 
# 
# From -- ./inp_files/19986.got.cif
#   From: 2010.05.17/outbox.cif.g08.bks.cpg/sg14_10_cif.got.tgz:19986.got - 2010.06.03 17:49:19.
