data_PCOD9243881
_publ_section_title
;
Structure prediction by ZEFSAII (Michael W. Deem and Ramdas Pophale) SiO2 
 PCOD9243881
Probable space group: P 21/C
;
_chemical_formula_sum "Si O2"
_cell_formula_units_Z 28
_cell_length_a 8.852453
_cell_length_b 13.888598
_cell_length_c 17.664480
_cell_angle_alpha 90.000000
_cell_angle_beta 39.827853
_cell_angle_gamma 90.000000
_cell_volume 1391.011031
_symmetry_space_group_name_H-M "P 21/C"
_symmetry_group_IT_number 14
_symmetry_cell_setting 'monoclinic'
loop_
_space_group_symop_operation_xyz
x,y,z
-x,1/2+y,1/2-z
-x,-y,-z
x,1/2-y,1/2+z
loop_
_atom_site_type_symbol
_atom_site_label
_atom_site_fract_x
_atom_site_fract_y
_atom_site_fract_z
Si Si1 0.276491 0.640983 0.016284
Si Si2 0.507855 0.142589 0.406559
Si Si3 0.634323 0.146073 0.828987
Si Si4 0.978935 0.956496 0.423306
Si Si5 0.850703 0.146609 0.913755
Si Si6 0.645140 0.955802 0.275558
Si Si7 0.725243 0.000996 0.081579
O O1 0.454724 0.651431 0.018097
O O2 0.104327 0.550028 0.092762
O O3 0.143574 0.741862 0.064763
O O4 0.436038 0.613971 0.882817
O O5 0.597712 0.239754 0.332929
O O6 0.238810 0.118002 0.491561
O O7 0.650986 0.047663 0.327822
O O8 0.742576 0.134529 0.871577
O O9 0.382096 0.092634 0.918241
O O10 0.808720 0.097097 0.700978
O O11 0.000000 0.000000 0.500000
O O12 0.111047 0.101384 0.815551
O O13 0.697216 0.088999 0.034918
O O14 0.598635 0.001572 0.211298
O O15 0.000000 0.000000 0.000000
#
# Coordination Sequence:
#
# PCOD9243881 Si02
#       7
#     4   4   4   4   4   4   4
#     4  10  21  39  61  88 123 162 203 246 299 361
#     4  10  22  39  62  88 120 164 204 244 298 358
#     4  11  22  39  63  90 122 160 202 251 298 352
#     4  11  23  39  62  93 124 159 204 248 298 364
#     4  10  22  38  62  90 118 161 209 248 293 356
#     4  10  20  39  60  84 124 162 195 249 306 351
#     4  10  23  39  57  85 119 154 192 244 304 352
#
# _framework density 20.129244
#
# number of rings (size 3 to 8) (size 9 to 14) (size 15 to 20)
#    0.000    1.714    0.000    5.571    0.000    8.000 
#    0.000    4.286    0.000    0.000    0.000    0.000 
#    0.000    0.000    0.000    0.000    0.000    0.000 
#
# Total GULP energy -156185.105956 kJ/mol
# GULP energy per Si atom -5578.039498 kJ/mol
# Density = 2.008343 g / cm^3
# Si number density = 20.129244 Si / 1000 Ang^3
#
#
#
# Elastic Constant Matrix: (Units=GPa)
#
#
# Indices 1 2 3 4 5 6 
#
# 1 79.8463 41.4099 43.2545 0.0000 -2.0933 0.0000
# 2 41.4099 122.8576 69.9043 0.0000 -13.0225 0.0000
# 3 43.2545 69.9043 110.5830 0.0000 4.0050 0.0000
# 4 0.0000 0.0000 0.0000 24.8038 0.0000 -0.9303
# 5 -2.0933 -13.0225 4.0050 0.0000 30.0557 0.0000
# 6 0.0000 0.0000 0.0000 -0.9303 0.0000 15.4635
#
#
#
# Elastic Compliance Matrix: (Units=1/GPa)
#
#
# Indices 1 2 3 4 5 6 
#
# 1 0.016561 -0.002854 -0.004693 0.000000 0.000542 0.000000
# 2 -0.002854 0.014660 -0.008414 0.000000 0.007274 0.000000
# 3 -0.004693 -0.008414 0.016421 0.000000 -0.006161 0.000000
# 4 0.000000 0.000000 0.000000 0.040407 0.000000 0.002431
# 5 0.000542 0.007274 -0.006161 0.000000 0.037282 0.000000
# 6 0.000000 0.000000 0.000000 0.002431 0.000000 0.064815
#
#
# Mechanical properties :
#
#
# Convention : Reuss Voigt Hill
#
# Bulk Modulus (GPa) = 63.61893 69.15825 66.38859
# Shear Modulus (GPa) = 21.99642 24.64582 23.32112
#
# Velocity S-wave (km/s) = 3.30928 3.50291 3.40747
# Velocity P-wave (km/s) = 6.80262 7.12686 6.96663
#
# Compressibility (1/GPa) = 0.01571859
#
# Stress axis : x y z
#
# Youngs Moduli (GPa) = 60.38325 68.21150 60.89751
#
# Poissons Ratio (x) = 0.19468 0.28581
# Poissons Ratio (y) = 0.17234 0.51242
# Poissons Ratio (z) = 0.28339 0.57396
#
# Static dielectric constant tensor:
#      x y z
#    x 1.761900 0.000000 -0.000820 
#    y 0.000000 1.689190 0.000000 
#    z -0.000820 0.000000 1.732760 
# 
# From -- ./inp_files/55923.got.cif
#   From: 2010.05.17/outbox.cif.g08.bks.cpg/sg14_28_cif.got.tgz:55923.got - 2010.06.03 17:49:19.
