data_PCOD9243495
_publ_section_title
;
Structure prediction by ZEFSAII (Michael W. Deem and Ramdas Pophale) SiO2 
 PCOD9243495
Probable space group: P 21/C
;
_chemical_formula_sum "Si O2"
_cell_formula_units_Z 24
_cell_length_a 13.225422
_cell_length_b 8.098314
_cell_length_c 8.882279
_cell_angle_alpha 90.000000
_cell_angle_beta 76.828055
_cell_angle_gamma 90.000000
_cell_volume 926.295465
_symmetry_space_group_name_H-M "P 21/C"
_symmetry_group_IT_number 14
_symmetry_cell_setting 'monoclinic'
loop_
_space_group_symop_operation_xyz
x,y,z
-x,1/2+y,1/2-z
-x,-y,-z
x,1/2-y,1/2+z
loop_
_atom_site_type_symbol
_atom_site_label
_atom_site_fract_x
_atom_site_fract_y
_atom_site_fract_z
Si Si1 0.044600 0.982792 0.742004
Si Si2 0.765595 0.676339 0.933252
Si Si3 0.631111 0.988861 0.680545
Si Si4 0.106566 0.805844 0.030049
Si Si5 0.429672 0.371675 0.216942
Si Si6 0.688615 0.042631 0.993779
O O1 0.052611 0.864722 0.595051
O O2 0.130736 0.125109 0.686633
O O3 0.077667 0.873275 0.875804
O O4 0.939032 0.067907 0.828938
O O5 0.663722 0.630218 0.870190
O O6 0.754586 0.869072 0.974298
O O7 0.745572 0.558152 0.082933
O O8 0.580011 0.806991 0.704787
O O9 0.641323 0.059203 0.844865
O O10 0.546710 0.098941 0.622750
O O11 0.230960 0.812033 0.999647
O O12 0.397781 0.507016 0.352346
#
# Coordination Sequence:
#
# PCOD9243495 Si02
#       6
#     4   4   4   4   4   4
#     4  11  25  44  66  94 125 159 202 253 305 368
#     4  10  21  40  62  89 124 166 205 254 308 359
#     4  10  22  34  61  88 123 164 207 250 306 362
#     4  11  25  44  66  94 125 159 202 253 305 368
#     4  10  20  38  57  88 123 164 207 256 304 358
#     4  10  21  40  62  89 124 166 205 254 308 359
#
# _framework density 25.909659999999999
#
# number of rings (size 3 to 8) (size 9 to 14) (size 15 to 20)
#    0.000    1.667    1.667    2.000    2.333    3.333 
#    0.000    0.000    0.000    0.000    0.000    0.000 
#    0.000    0.000    0.000    0.000    0.000    0.000 
#
# Total GULP energy -134349.781553 kJ/mol
# GULP energy per Si atom -5597.907565 kJ/mol
# Density = 2.585069 g / cm^3
# Si number density = 25.909660 Si / 1000 Ang^3
#
#
#
# Elastic Constant Matrix: (Units=GPa)
#
#
# Indices 1 2 3 4 5 6 
#
# 1 49.9492 6.3457 5.2519 0.0000 -23.8405 0.0000
# 2 6.3457 73.8626 4.0705 0.0000 -11.6998 0.0000
# 3 5.2519 4.0705 69.1942 0.0000 -22.2929 0.0000
# 4 0.0000 0.0000 0.0000 43.4748 0.0000 -16.3411
# 5 -23.8405 -11.6998 -22.2929 0.0000 31.4406 0.0000
# 6 0.0000 0.0000 0.0000 -16.3411 0.0000 30.9583
#
#
#
# Elastic Compliance Matrix: (Units=1/GPa)
#
#
# Indices 1 2 3 4 5 6 
#
# 1 0.034298 0.001710 0.007621 0.000000 0.032047 0.000000
# 2 0.001710 0.014541 0.001524 0.000000 0.007788 0.000000
# 3 0.007621 0.001524 0.020515 0.000000 0.020892 0.000000
# 4 0.000000 0.000000 0.000000 0.028695 0.000000 0.015146
# 5 0.032047 0.007788 0.020892 0.000000 0.073818 0.000000
# 6 0.000000 0.000000 0.000000 0.015146 0.000000 0.040296
#
#
# Mechanical properties :
#
#
# Convention : Reuss Voigt Hill
#
# Bulk Modulus (GPa) = 10.98136 24.92691 17.95414
# Shear Modulus (GPa) = 22.64406 32.99727 27.82067
#
# Velocity S-wave (km/s) = 2.95949 3.57256 3.28038
# Velocity P-wave (km/s) = 3.99070 5.16325 4.61437
#
# Compressibility (1/GPa) = 0.09106338
#
# Stress axis : x y z
#
# Youngs Moduli (GPa) = 29.15649 68.76900 48.74491
#
# Poissons Ratio (x) = -0.11757 -0.37149
# Poissons Ratio (y) = -0.04985 -0.07429
# Poissons Ratio (z) = -0.22220 -0.10480
#
# Static dielectric constant tensor:
#      x y z
#    x 1.947840 0.000000 0.027720 
#    y 0.000000 2.067120 0.000000 
#    z 0.027720 0.000000 2.089200 
# 
# From -- ./inp_files/28028.got.cif
#   From: 2010.05.17/outbox.cif.g08.bks.cpg/sg14_15_cif.got.tgz:28028.got - 2010.06.03 17:49:19.
