data_PCOD9243695
_publ_section_title
;
Structure prediction by ZEFSAII (Michael W. Deem and Ramdas Pophale) SiO2 
 PCOD9243695
Probable space group: P 21/C
;
_chemical_formula_sum "Si O2"
_cell_formula_units_Z 28
_cell_length_a 22.487608
_cell_length_b 12.199434
_cell_length_c 28.052342
_cell_angle_alpha 90.000000
_cell_angle_beta 169.486585
_cell_angle_gamma 90.000000
_cell_volume 1404.214301
_symmetry_space_group_name_H-M "P 21/C"
_symmetry_group_IT_number 14
_symmetry_cell_setting 'monoclinic'
loop_
_space_group_symop_operation_xyz
x,y,z
-x,1/2+y,1/2-z
-x,-y,-z
x,1/2-y,1/2+z
loop_
_atom_site_type_symbol
_atom_site_label
_atom_site_fract_x
_atom_site_fract_y
_atom_site_fract_z
Si Si1 0.778036 0.029996 0.603874
Si Si2 0.285986 0.617183 0.548221
Si Si3 0.175842 0.415263 0.101864
Si Si4 0.465664 0.626235 0.455865
Si Si5 0.147415 0.312133 0.329836
Si Si6 0.365606 0.765351 0.973668
Si Si7 0.622102 0.661225 0.913657
O O1 0.617642 0.137571 0.499843
O O2 0.031015 0.081520 0.765671
O O3 0.586108 0.945995 0.418704
O O4 0.974936 0.963008 0.799177
O O5 0.573499 0.557906 0.744249
O O6 0.409054 0.648782 0.698006
O O7 0.148293 0.726017 0.412609
O O8 0.388839 0.334924 0.301290
O O9 0.000000 0.500000 0.000000
O O10 0.879090 0.359591 0.841128
O O11 0.500000 0.500000 0.500000
O O12 0.728984 0.653754 0.623950
O O13 0.473080 0.708973 0.505139
O O14 0.414846 0.257386 0.575876
O O15 0.996072 0.812770 0.690644
#
# Coordination Sequence:
#
# PCOD9243695 Si02
#       7
#     4   4   4   4   4   4   4
#     4  10  20  38  63  88 128 164 217 262 310 387
#     4  11  22  40  65  93 125 179 212 256 329 393
#     4  12  22  37  64  96 131 159 208 268 332 372
#     4  12  24  40  64  97 128 164 205 275 335 384
#     4  10  23  41  61  93 134 165 215 266 325 394
#     4  11  22  40  59  96 131 163 210 271 325 384
#     4  10  21  40  62  88 130 172 218 260 315 392
#
# _framework density 19.939978
#
# number of rings (size 3 to 8) (size 9 to 14) (size 15 to 20)
#    0.000    1.143    7.143    1.714    0.000    4.571 
#    0.000    2.857    0.000    5.143    0.000    0.000 
#    0.000    0.000    0.000    0.000    0.000    0.000 
#
# Total GULP energy -156028.259228 kJ/mol
# GULP energy per Si atom -5572.437830 kJ/mol
# Density = 1.989459 g / cm^3
# Si number density = 19.939978 Si / 1000 Ang^3
#
#
#
# Elastic Constant Matrix: (Units=GPa)
#
#
# Indices 1 2 3 4 5 6 
#
# 1 131.6802 15.3169 16.4586 0.0000 -16.1731 0.0000
# 2 15.3169 38.2681 4.5816 0.0000 -2.9955 0.0000
# 3 16.4586 4.5816 57.4106 0.0000 -27.2781 0.0000
# 4 0.0000 0.0000 0.0000 17.4321 0.0000 9.2438
# 5 -16.1731 -2.9955 -27.2781 0.0000 44.7802 0.0000
# 6 0.0000 0.0000 0.0000 9.2438 0.0000 28.7537
#
#
#
# Elastic Compliance Matrix: (Units=1/GPa)
#
#
# Indices 1 2 3 4 5 6 
#
# 1 0.008351 -0.003040 -0.001147 0.000000 0.002114 0.000000
# 2 -0.003040 0.027505 -0.001367 0.000000 -0.000090 0.000000
# 3 -0.001147 -0.001367 0.024792 0.000000 0.014596 0.000000
# 4 0.000000 0.000000 0.000000 0.069154 0.000000 -0.022232
# 5 0.002114 -0.000090 0.014596 0.000000 0.031980 0.000000
# 6 0.000000 0.000000 0.000000 -0.022232 0.000000 0.041925
#
#
# Mechanical properties :
#
#
# Convention : Reuss Voigt Hill
#
# Bulk Modulus (GPa) = 20.18544 33.34145 26.76345
# Shear Modulus (GPa) = 21.61449 30.92665 26.27057
#
# Velocity S-wave (km/s) = 3.29595 3.94253 3.63365
# Velocity P-wave (km/s) = 4.96281 6.12225 5.57277
#
# Compressibility (1/GPa) = 0.04954065
#
# Stress axis : x y z
#
# Youngs Moduli (GPa) = 119.75019 36.35761 40.33627
#
# Poissons Ratio (x) = 0.11051 0.04627
# Poissons Ratio (y) = 0.36399 0.05512
# Poissons Ratio (z) = 0.13735 0.04968
#
# Static dielectric constant tensor:
#      x y z
#    x 1.799520 0.000000 0.044140 
#    y 0.000000 1.731960 0.000000 
#    z 0.044140 0.000000 1.727100 
# 
# From -- ./inp_files/80671.got.cif
#   From: 2010.05.17/outbox.cif.g08.bks.cpg/sg14_41_cif.got.tgz:80671.got - 2010.06.03 17:49:19.
