data_PCOD9243499
_publ_section_title
;
Structure prediction by ZEFSAII (Michael W. Deem and Ramdas Pophale) SiO2 
 PCOD9243499
Probable space group: P 21/C
;
_chemical_formula_sum "Si O2"
_cell_formula_units_Z 24
_cell_length_a 12.664678
_cell_length_b 15.832744
_cell_length_c 11.675488
_cell_angle_alpha 90.000000
_cell_angle_beta 156.279331
_cell_angle_gamma 90.000000
_cell_volume 941.784937
_symmetry_space_group_name_H-M "P 21/C"
_symmetry_group_IT_number 14
_symmetry_cell_setting 'monoclinic'
loop_
_space_group_symop_operation_xyz
x,y,z
-x,1/2+y,1/2-z
-x,-y,-z
x,1/2-y,1/2+z
loop_
_atom_site_type_symbol
_atom_site_label
_atom_site_fract_x
_atom_site_fract_y
_atom_site_fract_z
Si Si1 0.176824 0.897757 0.491631
Si Si2 0.659072 0.789987 0.002437
Si Si3 0.444278 0.807402 0.065680
Si Si4 0.854949 0.881685 0.773097
Si Si5 0.356073 0.882005 0.413290
Si Si6 0.921831 0.584607 0.072363
O O1 0.408085 0.847350 0.787595
O O2 0.299315 0.909843 0.486314
O O3 0.108071 0.985915 0.483042
O O4 0.903038 0.847566 0.203635
O O5 0.526410 0.732841 0.770782
O O6 0.805720 0.719377 0.223053
O O7 0.705184 0.859467 0.291589
O O8 0.364058 0.720918 0.923535
O O9 0.202915 0.871740 0.835820
O O10 0.623441 0.913814 0.623823
O O11 0.858552 0.909565 0.645461
O O12 0.124041 0.904894 0.098739
#
# Coordination Sequence:
#
# PCOD9243499 Si02
#       6
#     4   4   4   4   4   4
#     4  11  22  37  59  85 114 147 184 230 280 331
#     4  10  20  38  58  79 110 153 196 220 259 336
#     4  10  20  38  58  79 110 153 196 220 259 336
#     4  11  21  35  58  85 113 145 184 232 280 328
#     4  11  21  35  58  85 113 145 184 232 280 328
#     4  11  22  37  59  85 114 147 184 230 280 331
#
# _framework density 25.483523000000002
#
# number of rings (size 3 to 8) (size 9 to 14) (size 15 to 20)
#    0.000    1.333    0.000   11.000    0.000    1.333 
#    0.000    0.000    0.000   20.000    0.000    0.000 
#    0.000    0.000    0.000    0.000    0.000    0.000 
#
# Total GULP energy -134405.983303 kJ/mol
# GULP energy per Si atom -5600.249304 kJ/mol
# Density = 2.542552 g / cm^3
# Si number density = 25.483523 Si / 1000 Ang^3
#
#
#
# Elastic Constant Matrix: (Units=GPa)
#
#
# Indices 1 2 3 4 5 6 
#
# 1 79.3087 -8.0269 10.9848 0.0000 7.5585 0.0000
# 2 -8.0269 39.5942 52.7998 0.0000 -4.2532 0.0000
# 3 10.9848 52.7998 183.5852 0.0000 10.6279 0.0000
# 4 0.0000 0.0000 0.0000 13.1174 0.0000 -14.1031
# 5 7.5585 -4.2532 10.6279 0.0000 44.5821 0.0000
# 6 0.0000 0.0000 0.0000 -14.1031 0.0000 -5.0847
#
#
#
# Elastic Compliance Matrix: (Units=1/GPa)
#
#
# Indices 1 2 3 4 5 6 
#
# 1 0.013658 0.005909 -0.002449 0.000000 -0.001168 0.000000
# 2 0.005909 0.045672 -0.013875 0.000000 0.006663 0.000000
# 3 -0.002449 -0.013875 0.009772 0.000000 -0.003238 0.000000
# 4 0.000000 0.000000 0.000000 0.019145 0.000000 -0.053100
# 5 -0.001168 0.006663 -0.003238 0.000000 0.024036 0.000000
# 6 0.000000 0.000000 0.000000 -0.053100 0.000000 -0.049389
#
#
# Mechanical properties :
#
#
# Convention : Reuss Voigt Hill
#
# Bulk Modulus (GPa) = 20.71592 46.00039 33.35815
# Shear Modulus (GPa) = 50.09335 26.97164 38.53250
#
# Velocity S-wave (km/s) = 4.43845 3.25683 3.89273
# Velocity P-wave (km/s) = 5.86628 5.67739 5.77261
#
# Compressibility (1/GPa) = 0.04827206
#
# Stress axis : x y z
#
# Youngs Moduli (GPa) = 73.21945 21.89507 102.33830
#
# Poissons Ratio (x) = -0.12938 0.25064
# Poissons Ratio (y) = -0.43267 1.41993
# Poissons Ratio (z) = 0.17932 0.30379
#
# Static dielectric constant tensor:
#      x y z
#    x 2.391270 0.000000 -0.052290 
#    y 0.000000 1.753320 0.000000 
#    z -0.052290 0.000000 1.909140 
# 
# From -- ./inp_files/47509.got.cif
#   From: 2010.05.17/outbox.cif.g08.bks.cpg/sg14_24_cif.got.tgz:47509.got - 2010.06.03 17:49:19.
