data_PCOD9243217
_publ_section_title
;
Structure prediction by ZEFSAII (Michael W. Deem and Ramdas Pophale) SiO2 
 PCOD9243217
Probable space group: P 21/C
;
_chemical_formula_sum "Si O2"
_cell_formula_units_Z 32
_cell_length_a 17.842247
_cell_length_b 11.328020
_cell_length_c 17.844135
_cell_angle_alpha 90.000000
_cell_angle_beta 157.703503
_cell_angle_gamma 90.000000
_cell_volume 1368.345961
_symmetry_space_group_name_H-M "P 21/C"
_symmetry_group_IT_number 14
_symmetry_cell_setting 'monoclinic'
loop_
_space_group_symop_operation_xyz
x,y,z
-x,1/2+y,1/2-z
-x,-y,-z
x,1/2-y,1/2+z
loop_
_atom_site_type_symbol
_atom_site_label
_atom_site_fract_x
_atom_site_fract_y
_atom_site_fract_z
Si Si1 0.764549 0.984813 0.689175
Si Si2 0.245096 0.447676 0.348583
Si Si3 0.992608 0.140989 0.298680
Si Si4 0.640858 0.183769 0.477048
Si Si5 0.331609 0.183708 0.082391
Si Si6 0.410260 0.668748 0.854630
Si Si7 0.534725 0.651162 0.572155
Si Si8 0.178901 0.946519 0.017015
O O1 0.691833 0.051266 0.546535
O O2 0.698168 0.074294 0.692233
O O3 0.639581 0.866094 0.575998
O O4 0.994381 0.965441 0.900735
O O5 0.053432 0.527530 0.191526
O O6 0.284854 0.358268 0.454469
O O7 0.426978 0.541924 0.512719
O O8 0.266051 0.386827 0.286445
O O9 0.915065 0.105399 0.145071
O O10 0.205805 0.200371 0.487550
O O11 0.839764 0.244633 0.179471
O O12 0.473327 0.242451 0.375691
O O13 0.558084 0.196892 0.317324
O O14 0.265974 0.072374 0.073275
O O15 0.394881 0.798304 0.875256
O O16 0.331278 0.638138 0.700139
#
# Coordination Sequence:
#
# PCOD9243217 Si02
#       8
#     4   4   4   4   4   4   4   4
#     4  10  20  37  58  89 124 157 208 264 316 387
#     4   9  21  42  63  88 128 170 208 263 317 380
#     4  10  23  39  60  91 126 165 213 263 318 381
#     4  10  20  40  65  89 125 165 208 262 324 375
#     4  11  22  40  66  90 125 169 211 264 322 377
#     4  10  21  36  62  90 120 166 206 259 329 378
#     4   9  20  41  65  90 127 167 211 260 319 391
#     4  11  22  37  59  94 124 158 213 267 317 380
#
# _framework density 23.385898999999998
#
# number of rings (size 3 to 8) (size 9 to 14) (size 15 to 20)
#    0.000    2.000    2.500    0.375    3.500    0.000 
#    2.250    0.625    0.000    0.000    0.000    0.000 
#    0.000    0.000    0.000    0.000    0.000    0.000 
#
# Total GULP energy -178612.439734 kJ/mol
# GULP energy per Si atom -5581.638742 kJ/mol
# Density = 2.333267 g / cm^3
# Si number density = 23.385899 Si / 1000 Ang^3
#
#
#
# Elastic Constant Matrix: (Units=GPa)
#
#
# Indices 1 2 3 4 5 6 
#
# 1 73.8379 23.7896 2.7686 0.0000 7.1256 0.0000
# 2 23.7896 73.8775 8.3355 0.0000 -4.4529 0.0000
# 3 2.7686 8.3355 34.7086 0.0000 -7.7101 0.0000
# 4 0.0000 0.0000 0.0000 17.4743 0.0000 4.7153
# 5 7.1256 -4.4529 -7.7101 0.0000 17.2019 0.0000
# 6 0.0000 0.0000 0.0000 4.7153 0.0000 36.6737
#
#
#
# Elastic Compliance Matrix: (Units=1/GPa)
#
#
# Indices 1 2 3 4 5 6 
#
# 1 0.016287 -0.005569 -0.001978 0.000000 -0.009075 0.000000
# 2 -0.005569 0.015902 -0.002163 0.000000 0.005453 0.000000
# 3 -0.001978 -0.002163 0.032813 0.000000 0.014966 0.000000
# 4 0.000000 0.000000 0.000000 0.059284 0.000000 -0.007622
# 5 -0.009075 0.005453 0.014966 0.000000 0.070012 0.000000
# 6 0.000000 0.000000 0.000000 -0.007622 0.000000 0.028248
#
#
# Mechanical properties :
#
#
# Convention : Reuss Voigt Hill
#
# Bulk Modulus (GPa) = 21.93792 28.02348 24.98070
# Shear Modulus (GPa) = 19.44323 24.10534 21.77429
#
# Velocity S-wave (km/s) = 2.88654 3.21403 3.05468
# Velocity P-wave (km/s) = 4.52888 5.07764 4.81109
#
# Compressibility (1/GPa) = 0.04558316
#
# Stress axis : x y z
#
# Youngs Moduli (GPa) = 61.39804 62.88574 30.47556
#
# Poissons Ratio (x) = 0.35018 0.06027
# Poissons Ratio (y) = 0.34190 0.06593
# Poissons Ratio (z) = 0.12143 0.13604
#
# Static dielectric constant tensor:
#      x y z
#    x 1.969560 0.000000 0.035610 
#    y 0.000000 1.894770 0.000000 
#    z 0.035610 0.000000 1.877020 
# 
# From -- ./inp_files/69928.got.cif
#   From: 2010.05.17/outbox.cif.g08.bks.cpg/sg14_35_cif.got.tgz:69928.got - 2010.06.03 17:49:19.
