data_PCOD9243296
_publ_section_title
;
Structure prediction by ZEFSAII (Michael W. Deem and Ramdas Pophale) SiO2 
 PCOD9243296
Probable space group: P 21/C
;
_chemical_formula_sum "Si O2"
_cell_formula_units_Z 24
_cell_length_a 11.103680
_cell_length_b 19.095350
_cell_length_c 5.656408
_cell_angle_alpha 90.000000
_cell_angle_beta 82.723740
_cell_angle_gamma 90.000000
_cell_volume 1189.662463
_symmetry_space_group_name_H-M "P 21/C"
_symmetry_group_IT_number 14
_symmetry_cell_setting 'monoclinic'
loop_
_space_group_symop_operation_xyz
x,y,z
-x,1/2+y,1/2-z
-x,-y,-z
x,1/2-y,1/2+z
loop_
_atom_site_type_symbol
_atom_site_label
_atom_site_fract_x
_atom_site_fract_y
_atom_site_fract_z
Si Si1 0.698609 0.977995 0.942742
Si Si2 0.404234 0.715744 0.125495
Si Si3 0.121885 0.576286 0.892497
Si Si4 0.486147 0.561976 0.195417
Si Si5 0.898872 0.980169 0.214707
Si Si6 0.869758 0.267332 0.259802
O O1 0.793202 0.020441 0.759691
O O2 0.613595 0.930332 0.802347
O O3 0.610511 0.033728 0.090347
O O4 0.782876 0.944592 0.125118
O O5 0.446165 0.746024 0.371998
O O6 0.440888 0.634687 0.100480
O O7 0.258174 0.726784 0.177136
O O8 0.155470 0.651669 0.788924
O O9 0.977799 0.564987 0.878671
O O10 0.140520 0.553925 0.158400
O O11 0.500000 0.500000 0.000000
O O12 0.000000 0.000000 0.000000
O O13 0.931543 0.260279 0.502360
#
# Coordination Sequence:
#
# PCOD9243296 Si02
#       6
#     4   4   4   4   4   4
#     4  10  21  35  59  89 124 163 210 268 314 380
#     4  10  23  39  59  87 127 171 212 263 326 387
#     4  10  20  37  60  92 121 162 206 266 319 380
#     4  11  24  36  61  93 131 170 220 269 320 383
#     4   9  20  35  60  88 120 156 201 264 318 377
#     4  10  22  34  59  88 123 161 202 259 320 381
#
# _framework density 20.173791000000001
#
# number of rings (size 3 to 8) (size 9 to 14) (size 15 to 20)
#    0.000    2.000    0.000    3.000   18.667    0.000 
#    0.000    0.000    0.000    2.000    0.000    0.000 
#    0.000    0.000    0.000    0.000    0.000    0.000 
#
# Total GULP energy -133731.612350 kJ/mol
# GULP energy per Si atom -5572.150515 kJ/mol
# Density = 2.012787 g / cm^3
# Si number density = 20.173791 Si / 1000 Ang^3
#
#
#
# Elastic Constant Matrix: (Units=GPa)
#
#
# Indices 1 2 3 4 5 6 
#
# 1 89.5307 11.2833 12.4052 0.0000 19.4019 0.0000
# 2 11.2833 77.1976 18.1413 0.0000 -2.3729 0.0000
# 3 12.4052 18.1413 121.9239 0.0000 -1.5698 0.0000
# 4 0.0000 0.0000 0.0000 24.5991 0.0000 -1.8701
# 5 19.4019 -2.3729 -1.5698 0.0000 31.3991 0.0000
# 6 0.0000 0.0000 0.0000 -1.8701 0.0000 5.3192
#
#
#
# Elastic Compliance Matrix: (Units=1/GPa)
#
#
# Indices 1 2 3 4 5 6 
#
# 1 0.013420 -0.001944 -0.001186 0.000000 -0.008499 0.000000
# 2 -0.001944 0.013731 -0.001818 0.000000 0.002148 0.000000
# 3 -0.001186 -0.001818 0.008606 0.000000 0.001026 0.000000
# 4 0.000000 0.000000 0.000000 0.041768 0.000000 0.014685
# 5 -0.008499 0.002148 0.001026 0.000000 0.037313 0.000000
# 6 0.000000 0.000000 0.000000 0.014685 0.000000 0.193162
#
#
# Mechanical properties :
#
#
# Convention : Reuss Voigt Hill
#
# Bulk Modulus (GPa) = 38.66553 41.36800 40.01676
# Shear Modulus (GPa) = 15.31313 28.71830 22.01572
#
# Velocity S-wave (km/s) = 2.75809 3.77708 3.30707
# Velocity P-wave (km/s) = 5.41762 6.29064 5.87038
#
# Compressibility (1/GPa) = 0.02586283
#
# Stress axis : x y z
#
# Youngs Moduli (GPa) = 74.51338 72.82741 116.19641
#
# Poissons Ratio (x) = 0.14159 0.13776
# Poissons Ratio (y) = 0.14487 0.21120
# Poissons Ratio (z) = 0.08834 0.13237
#
# Static dielectric constant tensor:
#      x y z
#    x 1.742760 0.000000 0.074230 
#    y 0.000000 1.712840 0.000000 
#    z 0.074230 0.000000 1.890930 
# 
# From -- ./inp_files/2688.got.cif
#   From: 2010.05.17/outbox.cif.g08.bks.cpg/sg14_2_cif.got.tgz:2688.got - 2010.06.03 17:49:19.
