data_PCOD9243736
_publ_section_title
;
Structure prediction by ZEFSAII (Michael W. Deem and Ramdas Pophale) SiO2 
 PCOD9243736
Probable space group: P 21/C
;
_chemical_formula_sum "Si O2"
_cell_formula_units_Z 24
_cell_length_a 9.646310
_cell_length_b 8.132036
_cell_length_c 14.678066
_cell_angle_alpha 90.000000
_cell_angle_beta 111.290219
_cell_angle_gamma 90.000000
_cell_volume 1072.828366
_symmetry_space_group_name_H-M "P 21/C"
_symmetry_group_IT_number 14
_symmetry_cell_setting 'monoclinic'
loop_
_space_group_symop_operation_xyz
x,y,z
-x,1/2+y,1/2-z
-x,-y,-z
x,1/2-y,1/2+z
loop_
_atom_site_type_symbol
_atom_site_label
_atom_site_fract_x
_atom_site_fract_y
_atom_site_fract_z
Si Si1 0.922659 0.302926 0.569206
Si Si2 0.162000 0.223528 0.759640
Si Si3 0.548999 0.932488 0.152354
Si Si4 0.419064 0.757821 0.958136
Si Si5 0.341144 0.553599 0.776681
Si Si6 0.959396 0.176721 0.870581
O O1 0.751711 0.293023 0.555986
O O2 0.940694 0.258116 0.467827
O O3 0.030509 0.194249 0.657077
O O4 0.980817 0.489037 0.601254
O O5 0.274467 0.072959 0.792446
O O6 0.267063 0.374242 0.755890
O O7 0.081249 0.261111 0.835728
O O8 0.460772 0.925472 0.225204
O O9 0.512942 0.100501 0.090933
O O10 0.505325 0.783743 0.073486
O O11 0.410668 0.599667 0.890953
O O12 0.199640 0.669312 0.717880
#
# Coordination Sequence:
#
# PCOD9243736 Si02
#       6
#     4   4   4   4   4   4
#     4  10  20  38  66  89 119 166 208 248 298 371
#     4  11  23  39  65  94 123 160 206 263 304 357
#     4  11  24  41  64  92 123 166 211 247 306 377
#     4  11  22  40  66  89 124 167 206 250 306 374
#     4  11  23  40  62  93 128 161 200 263 312 352
#     4  10  20  38  64  91 121 160 213 244 299 373
#
# _framework density 22.370774000000001
#
# number of rings (size 3 to 8) (size 9 to 14) (size 15 to 20)
#    0.000    1.333    5.000    1.000    0.000    2.000 
#    0.000    2.500    0.000    0.000    0.000    0.000 
#    0.000    0.000    0.000    0.000    0.000    0.000 
#
# Total GULP energy -134125.290696 kJ/mol
# GULP energy per Si atom -5588.553779 kJ/mol
# Density = 2.231986 g / cm^3
# Si number density = 22.370774 Si / 1000 Ang^3
#
#
#
# Elastic Constant Matrix: (Units=GPa)
#
#
# Indices 1 2 3 4 5 6 
#
# 1 120.1368 -2.5863 46.7001 0.0000 -21.9426 0.0000
# 2 -2.5863 24.1080 -0.7151 0.0000 -2.9182 0.0000
# 3 46.7001 -0.7151 100.6338 0.0000 -14.3540 0.0000
# 4 0.0000 0.0000 0.0000 23.8949 0.0000 -2.2554
# 5 -21.9426 -2.9182 -14.3540 0.0000 49.7733 0.0000
# 6 0.0000 0.0000 0.0000 -2.2554 0.0000 21.4758
#
#
#
# Elastic Compliance Matrix: (Units=1/GPa)
#
#
# Indices 1 2 3 4 5 6 
#
# 1 0.010737 0.001447 -0.004469 0.000000 0.003529 0.000000
# 2 0.001447 0.042015 0.000073 0.000000 0.003122 0.000000
# 3 -0.004469 0.000073 0.012234 0.000000 0.001562 0.000000
# 4 0.000000 0.000000 0.000000 0.042269 0.000000 0.004439
# 5 0.003529 0.003122 0.001562 0.000000 0.022281 0.000000
# 6 0.000000 0.000000 0.000000 0.004439 0.000000 0.047030
#
#
# Mechanical properties :
#
#
# Convention : Reuss Voigt Hill
#
# Bulk Modulus (GPa) = 16.92426 36.85290 26.88858
# Shear Modulus (GPa) = 24.73275 32.46077 28.59676
#
# Velocity S-wave (km/s) = 3.32864 3.81338 3.57922
# Velocity P-wave (km/s) = 4.72809 5.99154 5.39692
#
# Compressibility (1/GPa) = 0.05908678
#
# Stress axis : x y z
#
# Youngs Moduli (GPa) = 93.13811 23.80089 81.73822
#
# Poissons Ratio (x) = -0.03443 0.36527
# Poissons Ratio (y) = -0.13473 -0.00593
# Poissons Ratio (z) = 0.41622 -0.00173
#
# Static dielectric constant tensor:
#      x y z
#    x 1.751190 0.000000 0.022520 
#    y 0.000000 1.891300 0.000000 
#    z 0.022520 0.000000 1.833660 
# 
# From -- ./inp_files/28766.got.cif
#   From: 2010.05.17/outbox.cif.g08.bks.cpg/sg14_15_cif.got.tgz:28766.got - 2010.06.03 17:49:19.
