data_PCOD9243311
_publ_section_title
;
Structure prediction by ZEFSAII (Michael W. Deem and Ramdas Pophale) SiO2 
 PCOD9243311
Probable space group: P 21/C
;
_chemical_formula_sum "Si O2"
_cell_formula_units_Z 24
_cell_length_a 9.768005
_cell_length_b 9.615429
_cell_length_c 8.982729
_cell_angle_alpha 90.000000
_cell_angle_beta 88.160381
_cell_angle_gamma 90.000000
_cell_volume 843.255037
_symmetry_space_group_name_H-M "P 21/C"
_symmetry_group_IT_number 14
_symmetry_cell_setting 'monoclinic'
loop_
_space_group_symop_operation_xyz
x,y,z
-x,1/2+y,1/2-z
-x,-y,-z
x,1/2-y,1/2+z
loop_
_atom_site_type_symbol
_atom_site_label
_atom_site_fract_x
_atom_site_fract_y
_atom_site_fract_z
Si Si1 0.843843 0.243808 0.966001
Si Si2 0.504330 0.131418 0.280930
Si Si3 0.688097 0.996087 0.029584
Si Si4 0.374626 0.620480 0.884922
Si Si5 0.884699 0.685921 0.398954
Si Si6 0.079080 0.005474 0.728515
O O1 0.768501 0.297406 0.119259
O O2 0.994980 0.180885 0.979914
O O3 0.735764 0.124146 0.924028
O O4 0.867137 0.388892 0.885909
O O5 0.583533 0.125733 0.438815
O O6 0.516302 0.285928 0.213042
O O7 0.560462 0.041823 0.135096
O O8 0.374453 0.039169 0.334370
O O9 0.810418 0.998949 0.145177
O O10 0.728865 0.849264 0.952914
O O11 0.937301 0.565594 0.285652
O O12 0.908759 0.841005 0.338700
#
# Coordination Sequence:
#
# PCOD9243311 Si02
#       6
#     4   4   4   4   4   4
#     4  10  20  37  61  84 119 164 210 248 316 373
#     4  10  22  43  68  92 129 163 215 264 319 370
#     4  10  21  39  57  87 121 161 204 259 313 373
#     4  10  22  42  68  95 126 168 209 268 315 374
#     4  11  22  35  58  88 123 163 208 254 312 379
#     4  11  20  36  56  84 120 163 203 258 309 378
#
# _framework density 28.461141999999999
#
# number of rings (size 3 to 8) (size 9 to 14) (size 15 to 20)
#    0.000    1.667    1.667    4.500    0.000    2.000 
#    0.000    0.000    0.000    0.000    0.000    0.000 
#    0.000    0.000    0.000    0.000    0.000    0.000 
#
# Total GULP energy -133925.764650 kJ/mol
# GULP energy per Si atom -5580.240194 kJ/mol
# Density = 2.839636 g / cm^3
# Si number density = 28.461142 Si / 1000 Ang^3
#
#
#
# Elastic Constant Matrix: (Units=GPa)
#
#
# Indices 1 2 3 4 5 6 
#
# 1 28.9731 9.1579 -13.5870 0.0000 0.4049 0.0000
# 2 9.1579 186.3820 55.6452 0.0000 -15.3751 0.0000
# 3 -13.5870 55.6452 106.5608 0.0000 6.2689 0.0000
# 4 0.0000 0.0000 0.0000 55.7215 0.0000 -12.4739
# 5 0.4049 -15.3751 6.2689 0.0000 32.6925 0.0000
# 6 0.0000 0.0000 0.0000 -12.4739 0.0000 57.4075
#
#
#
# Elastic Compliance Matrix: (Units=1/GPa)
#
#
# Indices 1 2 3 4 5 6 
#
# 1 0.039626 -0.004582 0.007688 0.000000 -0.004120 0.000000
# 2 -0.004582 0.007353 -0.004683 0.000000 0.004413 0.000000
# 3 0.007688 -0.004683 0.013093 0.000000 -0.004808 0.000000
# 4 0.000000 0.000000 0.000000 0.018864 0.000000 0.004099
# 5 -0.004120 0.004413 -0.004808 0.000000 0.033636 0.000000
# 6 0.000000 0.000000 0.000000 0.004099 0.000000 0.018310
#
#
# Mechanical properties :
#
#
# Convention : Reuss Voigt Hill
#
# Bulk Modulus (GPa) = 17.56982 47.14978 32.35980
# Shear Modulus (GPa) = 32.67773 47.21094 39.94433
#
# Velocity S-wave (km/s) = 3.39212 4.07724 3.75035
# Velocity P-wave (km/s) = 4.63989 6.22635 5.49072
#
# Compressibility (1/GPa) = 0.05691576
#
# Stress axis : x y z
#
# Youngs Moduli (GPa) = 25.23614 136.00405 76.37664
#
# Poissons Ratio (x) = 0.62317 -0.58715
# Poissons Ratio (y) = 0.11563 0.35770
# Poissons Ratio (z) = -0.19400 0.63696
#
# Static dielectric constant tensor:
#      x y z
#    x 2.282810 0.000000 0.050460 
#    y 0.000000 2.321550 0.000000 
#    z 0.050460 0.000000 2.469230 
# 
# From -- ./inp_files/28023.got.cif
#   From: 2010.05.17/outbox.cif.g08.bks.cpg/sg14_15_cif.got.tgz:28023.got - 2010.06.03 17:49:19.
