data_PCOD9243853
_publ_section_title
;
Structure prediction by ZEFSAII (Michael W. Deem and Ramdas Pophale) SiO2 
 PCOD9243853
Probable space group: P 21/C
;
_chemical_formula_sum "Si O2"
_cell_formula_units_Z 32
_cell_length_a 13.491721
_cell_length_b 8.945884
_cell_length_c 21.719424
_cell_angle_alpha 90.000000
_cell_angle_beta 31.286425
_cell_angle_gamma 90.000000
_cell_volume 1361.354295
_symmetry_space_group_name_H-M "P 21/C"
_symmetry_group_IT_number 14
_symmetry_cell_setting 'monoclinic'
loop_
_space_group_symop_operation_xyz
x,y,z
-x,1/2+y,1/2-z
-x,-y,-z
x,1/2-y,1/2+z
loop_
_atom_site_type_symbol
_atom_site_label
_atom_site_fract_x
_atom_site_fract_y
_atom_site_fract_z
Si Si1 0.720147 0.081975 0.827186
Si Si2 0.748515 0.828466 0.207337
Si Si3 0.831604 0.107206 0.236115
Si Si4 0.720073 0.049064 0.610079
Si Si5 0.830916 0.425993 0.396398
Si Si6 0.054932 0.626412 0.121263
Si Si7 0.520038 0.440054 0.657956
Si Si8 0.985252 0.752438 0.478851
O O1 0.707838 0.260435 0.829754
O O2 0.693835 0.033338 0.912368
O O3 0.604095 0.019375 0.830495
O O4 0.937048 0.019623 0.702644
O O5 0.563729 0.727737 0.293762
O O6 0.899750 0.720479 0.162932
O O7 0.714823 0.975309 0.264959
O O8 0.866046 0.862464 0.083340
O O9 0.957549 0.187385 0.116536
O O10 0.980561 0.025848 0.201855
O O11 0.762797 0.081264 0.516123
O O12 0.822268 0.186039 0.591454
O O13 0.528139 0.014086 0.750476
O O14 0.848226 0.898424 0.550742
O O15 0.885284 0.251470 0.361601
O O16 0.728015 0.441288 0.517453
#
# Coordination Sequence:
#
# PCOD9243853 Si02
#       8
#     4   4   4   4   4   4   4   4
#     4  11  20  38  62  77 108 152 195 224 267 333
#     4   8  18  31  57  80 106 138 179 225 270 330
#     4  11  19  34  57  87 104 135 198 233 261 312
#     4   9  15  32  58  81 105 145 185 221 281 340
#     4  11  24  36  52  85 117 147 182 234 276 326
#     4   9  18  36  56  79 109 146 183 226 278 326
#     4  10  20  39  56  78 114 152 180 220 289 338
#     4   9  14  29  57  84 103 135 186 230 263 324
#
# _framework density 23.506004999999998
#
# number of rings (size 3 to 8) (size 9 to 14) (size 15 to 20)
#    0.000    2.250    2.500    3.000    0.000    0.000 
#    4.500    1.875    0.000    0.000    0.000    0.000 
#    0.000    0.000    0.000    0.000    0.000    0.000 
#
# Total GULP energy -178542.134932 kJ/mol
# GULP energy per Si atom -5579.441717 kJ/mol
# Density = 2.345250 g / cm^3
# Si number density = 23.506005 Si / 1000 Ang^3
#
#
#
# Elastic Constant Matrix: (Units=GPa)
#
#
# Indices 1 2 3 4 5 6 
#
# 1 29.8563 10.4928 -12.2913 0.0000 5.0244 0.0000
# 2 10.4928 91.2345 8.6057 0.0000 -2.3402 0.0000
# 3 -12.2913 8.6057 54.0520 0.0000 1.5301 0.0000
# 4 0.0000 0.0000 0.0000 26.3203 0.0000 4.3217
# 5 5.0244 -2.3402 1.5301 0.0000 30.1132 0.0000
# 6 0.0000 0.0000 0.0000 4.3217 0.0000 20.9908
#
#
#
# Elastic Compliance Matrix: (Units=1/GPa)
#
#
# Indices 1 2 3 4 5 6 
#
# 1 0.041251 -0.005941 0.010549 0.000000 -0.007880 0.000000
# 2 -0.005941 0.012011 -0.003323 0.000000 0.002094 0.000000
# 3 0.010549 -0.003323 0.021517 0.000000 -0.003112 0.000000
# 4 0.000000 0.000000 0.000000 0.039323 0.000000 -0.008096
# 5 -0.007880 0.002094 -0.003112 0.000000 0.034844 0.000000
# 6 0.000000 0.000000 0.000000 -0.008096 0.000000 0.049307
#
#
# Mechanical properties :
#
#
# Convention : Reuss Voigt Hill
#
# Bulk Modulus (GPa) = 12.92832 20.97303 16.95068
# Shear Modulus (GPa) = 22.57695 26.70724 24.64210
#
# Velocity S-wave (km/s) = 3.10252 3.37440 3.24131
# Velocity P-wave (km/s) = 4.28323 4.91160 4.60814
#
# Compressibility (1/GPa) = 0.07734957
#
# Stress axis : x y z
#
# Youngs Moduli (GPa) = 24.24182 83.25557 46.47544
#
# Poissons Ratio (x) = 0.49466 -0.49029
# Poissons Ratio (y) = 0.14403 0.15442
# Poissons Ratio (z) = -0.25574 0.27663
#
# Static dielectric constant tensor:
#      x y z
#    x 1.909090 0.000000 0.011520 
#    y 0.000000 1.886280 0.000000 
#    z 0.011520 0.000000 1.898560 
# 
# From -- ./inp_files/73829.got.cif
#   From: 2010.05.17/outbox.cif.g08.bks.cpg/sg14_37_cif.got.tgz:73829.got - 2010.06.03 17:49:19.
