data_PCOD9243294
_publ_section_title
;
Structure prediction by ZEFSAII (Michael W. Deem and Ramdas Pophale) SiO2 
 PCOD9243294
Probable space group: P 21/C
;
_chemical_formula_sum "Si O2"
_cell_formula_units_Z 24
_cell_length_a 15.759799
_cell_length_b 8.741540
_cell_length_c 15.536831
_cell_angle_alpha 90.000000
_cell_angle_beta 33.871012
_cell_angle_gamma 90.000000
_cell_volume 1192.915472
_symmetry_space_group_name_H-M "P 21/C"
_symmetry_group_IT_number 14
_symmetry_cell_setting 'monoclinic'
loop_
_space_group_symop_operation_xyz
x,y,z
-x,1/2+y,1/2-z
-x,-y,-z
x,1/2-y,1/2+z
loop_
_atom_site_type_symbol
_atom_site_label
_atom_site_fract_x
_atom_site_fract_y
_atom_site_fract_z
Si Si1 0.708621 0.973427 0.130960
Si Si2 0.190498 0.590654 0.092126
Si Si3 0.326505 0.061167 0.647936
Si Si4 0.527022 0.220745 0.747386
Si Si5 0.108911 0.561580 0.683938
Si Si6 0.615476 0.603803 0.455652
O O1 0.588520 0.107119 0.204894
O O2 0.744179 0.988671 0.201377
O O3 0.619553 0.814532 0.188580
O O4 0.846808 0.999182 0.949072
O O5 0.244336 0.504887 0.132967
O O6 0.123138 0.756688 0.172135
O O7 0.060179 0.494363 0.155057
O O8 0.333815 0.626963 0.910957
O O9 0.332510 0.244154 0.637234
O O10 0.500000 0.000000 0.500000
O O11 0.474378 0.162534 0.884451
O O12 0.237730 0.490744 0.636837
O O13 0.500000 0.500000 0.500000
#
# Coordination Sequence:
#
# PCOD9243294 Si02
#       6
#     4   4   4   4   4   4
#     4  10  22  37  63  90 121 159 203 250 302 363
#     4  11  22  41  64  86 127 161 203 252 305 367
#     4  12  21  38  65  94 121 157 203 254 305 353
#     4  10  20  37  60  89 119 157 201 244 307 359
#     4  10  24  42  61  90 123 166 202 247 310 363
#     4  11  23  39  63  92 122 153 207 254 299 367
#
# _framework density 20.118777000000001
#
# number of rings (size 3 to 8) (size 9 to 14) (size 15 to 20)
#    0.000    1.333    3.333    2.000    4.667    2.000 
#    0.000    0.833    0.000    0.000    0.000    0.000 
#    0.000    0.000    0.000    0.000    0.000    0.000 
#
# Total GULP energy -134143.458242 kJ/mol
# GULP energy per Si atom -5589.310760 kJ/mol
# Density = 2.007299 g / cm^3
# Si number density = 20.118777 Si / 1000 Ang^3
#
#
#
# Elastic Constant Matrix: (Units=GPa)
#
#
# Indices 1 2 3 4 5 6 
#
# 1 84.5241 15.8689 20.4769 0.0000 -0.7186 0.0000
# 2 15.8689 71.5954 19.8067 0.0000 -14.6571 0.0000
# 3 20.4769 19.8067 29.3765 0.0000 2.9916 0.0000
# 4 0.0000 0.0000 0.0000 19.3184 0.0000 -5.2479
# 5 -0.7186 -14.6571 2.9916 0.0000 27.9307 0.0000
# 6 0.0000 0.0000 0.0000 -5.2479 0.0000 32.2967
#
#
#
# Elastic Compliance Matrix: (Units=1/GPa)
#
#
# Indices 1 2 3 4 5 6 
#
# 1 0.014293 -0.000110 -0.010030 0.000000 0.001384 0.000000
# 2 -0.000110 0.020758 -0.015194 0.000000 0.012517 0.000000
# 3 -0.010030 -0.015194 0.052689 0.000000 -0.013875 0.000000
# 4 0.000000 0.000000 0.000000 0.054155 0.000000 0.008800
# 5 0.001384 0.012517 -0.013875 0.000000 0.043893 0.000000
# 6 0.000000 0.000000 0.000000 0.008800 0.000000 0.032393
#
#
# Mechanical properties :
#
#
# Convention : Reuss Voigt Hill
#
# Bulk Modulus (GPa) = 26.97380 33.08902 30.03141
# Shear Modulus (GPa) = 17.78059 24.53205 21.15632
#
# Velocity S-wave (km/s) = 2.97607 3.49572 3.24631
# Velocity P-wave (km/s) = 5.02451 5.72503 5.38617
#
# Compressibility (1/GPa) = 0.03707302
#
# Stress axis : x y z
#
# Youngs Moduli (GPa) = 69.96323 48.17507 18.97920
#
# Poissons Ratio (x) = 0.00529 0.19036
# Poissons Ratio (y) = 0.00769 0.28836
# Poissons Ratio (z) = 0.70173 0.73196
#
# Static dielectric constant tensor:
#      x y z
#    x 1.720080 0.000000 0.002170 
#    y 0.000000 1.783190 0.000000 
#    z 0.002170 0.000000 1.700200 
# 
# From -- ./inp_files/39062.got.cif
#   From: 2010.05.17/outbox.cif.g08.bks.cpg/sg14_20_cif.got.tgz:39062.got - 2010.06.03 17:49:19.
