data_PCOD9243025
_publ_section_title
;
Structure prediction by ZEFSAII (Michael W. Deem and Ramdas Pophale) SiO2 
 PCOD9243025
Probable space group: P 21/C
;
_chemical_formula_sum "Si O2"
_cell_formula_units_Z 32
_cell_length_a 8.378620
_cell_length_b 8.747020
_cell_length_c 22.789348
_cell_angle_alpha 90.000000
_cell_angle_beta 61.054033
_cell_angle_gamma 90.000000
_cell_volume 1461.539458
_symmetry_space_group_name_H-M "P 21/C"
_symmetry_group_IT_number 14
_symmetry_cell_setting 'monoclinic'
loop_
_space_group_symop_operation_xyz
x,y,z
-x,1/2+y,1/2-z
-x,-y,-z
x,1/2-y,1/2+z
loop_
_atom_site_type_symbol
_atom_site_label
_atom_site_fract_x
_atom_site_fract_y
_atom_site_fract_z
Si Si1 0.208027 0.869376 0.982517
Si Si2 0.863211 0.437281 0.758613
Si Si3 0.804180 0.414345 0.237851
Si Si4 0.065252 0.652826 0.904410
Si Si5 0.449785 0.570720 0.104715
Si Si6 0.251642 0.941936 0.520419
Si Si7 0.444256 0.563011 0.615802
Si Si8 0.910454 0.545872 0.391572
O O1 0.136437 0.760345 0.943542
O O2 0.367868 0.979673 0.932474
O O3 0.280426 0.738609 0.013351
O O4 0.071702 0.964076 0.048605
O O5 0.850837 0.254228 0.754766
O O6 0.667695 0.486706 0.818980
O O7 0.022723 0.481342 0.775826
O O8 0.932431 0.498069 0.683289
O O9 0.789634 0.394953 0.170854
O O10 0.628451 0.468730 0.305212
O O11 0.952572 0.504387 0.942494
O O12 0.925687 0.772244 0.897511
O O13 0.340276 0.513373 0.066687
O O14 0.460772 0.754453 0.105800
O O15 0.649563 0.510525 0.054349
O O16 0.282452 0.499345 0.602844
#
# Coordination Sequence:
#
# PCOD9243025 Si02
#       8
#     4   4   4   4   4   4   4   4
#     4  12  24  39  59  90 126 166 203 248 309 379
#     4   9  18  34  59  88 115 148 199 262 307 351
#     4   9  19  36  59  86 117 155 200 253 310 362
#     4  11  23  40  59  88 130 164 196 249 317 383
#     4  10  20  36  60  89 119 152 200 266 310 350
#     4  11  23  35  58  87 122 160 201 251 311 369
#     4  10  21  39  63  88 118 157 213 263 297 356
#     4  10  21  37  63  89 116 157 211 256 307 363
#
# _framework density 21.894722000000002
#
# number of rings (size 3 to 8) (size 9 to 14) (size 15 to 20)
#    0.000    1.750    2.500    1.875    3.500    1.000 
#    0.000    3.750    0.000    1.500    0.000    0.000 
#    0.000    0.000    0.000    0.000    0.000    0.000 
#
# Total GULP energy -178527.079636 kJ/mol
# GULP energy per Si atom -5578.971239 kJ/mol
# Density = 2.184489 g / cm^3
# Si number density = 21.894722 Si / 1000 Ang^3
#
#
#
# Elastic Constant Matrix: (Units=GPa)
#
#
# Indices 1 2 3 4 5 6 
#
# 1 29.7322 9.6127 39.5658 0.0000 -3.9147 0.0000
# 2 9.6127 44.5203 49.3282 0.0000 -14.8183 0.0000
# 3 39.5658 49.3282 180.0188 0.0000 -11.8522 0.0000
# 4 0.0000 0.0000 0.0000 28.5321 0.0000 -2.2699
# 5 -3.9147 -14.8183 -11.8522 0.0000 24.9195 0.0000
# 6 0.0000 0.0000 0.0000 -2.2699 0.0000 30.2600
#
#
#
# Elastic Compliance Matrix: (Units=1/GPa)
#
#
# Indices 1 2 3 4 5 6 
#
# 1 0.048008 0.003502 -0.011229 0.000000 0.004283 0.000000
# 2 0.003502 0.039537 -0.010343 0.000000 0.019141 0.000000
# 3 -0.011229 -0.010343 0.010670 0.000000 -0.002840 0.000000
# 4 0.000000 0.000000 0.000000 0.035259 0.000000 0.002645
# 5 0.004283 0.019141 -0.002840 0.000000 0.050834 0.000000
# 6 0.000000 0.000000 0.000000 0.002645 0.000000 0.033245
#
#
# Mechanical properties :
#
#
# Convention : Reuss Voigt Hill
#
# Bulk Modulus (GPa) = 16.10979 50.14274 33.12626
# Shear Modulus (GPa) = 18.22254 27.12664 22.67459
#
# Velocity S-wave (km/s) = 2.88806 3.52370 3.22159
# Velocity P-wave (km/s) = 4.30058 6.28544 5.38525
#
# Compressibility (1/GPa) = 0.06207407
#
# Stress axis : x y z
#
# Youngs Moduli (GPa) = 20.82970 25.29299 93.71877
#
# Poissons Ratio (x) = -0.08857 1.05238
# Poissons Ratio (y) = -0.07294 0.96934
# Poissons Ratio (z) = 0.23390 0.26161
#
# Static dielectric constant tensor:
#      x y z
#    x 1.827940 0.000000 0.030370 
#    y 0.000000 1.794370 0.000000 
#    z 0.030370 0.000000 1.858410 
# 
# From -- ./inp_files/72069.got.cif
#   From: 2010.05.17/outbox.cif.g08.bks.cpg/sg14_37_cif.got.tgz:72069.got - 2010.06.03 17:49:19.
