data_PCOD9243715
_publ_section_title
;
Structure prediction by ZEFSAII (Michael W. Deem and Ramdas Pophale) SiO2 
 PCOD9243715
Probable space group: P 21/C
;
_chemical_formula_sum "Si O2"
_cell_formula_units_Z 30
_cell_length_a 29.916527
_cell_length_b 4.970362
_cell_length_c 8.529813
_cell_angle_alpha 90.000000
_cell_angle_beta 58.968678
_cell_angle_gamma 90.000000
_cell_volume 1086.829850
_symmetry_space_group_name_H-M "P 21/C"
_symmetry_group_IT_number 14
_symmetry_cell_setting 'monoclinic'
loop_
_space_group_symop_operation_xyz
x,y,z
-x,1/2+y,1/2-z
-x,-y,-z
x,1/2-y,1/2+z
loop_
_atom_site_type_symbol
_atom_site_label
_atom_site_fract_x
_atom_site_fract_y
_atom_site_fract_z
Si Si1 0.648384 0.407751 0.275685
Si Si2 0.047675 0.380073 0.724825
Si Si3 0.066604 0.770092 0.949892
Si Si4 0.574268 0.381908 0.156441
Si Si5 0.787665 0.529845 0.828900
Si Si6 0.716505 0.026146 0.932219
Si Si7 0.145184 0.440017 0.996266
Si Si8 0.500000 0.000000 0.500000
O O1 0.612992 0.549996 0.203990
O O2 0.610218 0.292438 0.478077
O O3 0.688860 0.551418 0.318329
O O4 0.678475 0.168859 0.128074
O O5 0.055408 0.427305 0.525277
O O6 0.093627 0.174752 0.673663
O O7 0.987913 0.343514 0.876109
O O8 0.064667 0.649693 0.782396
O O9 0.120706 0.655578 0.921330
O O10 0.541942 0.204218 0.340201
O O11 0.536010 0.523685 0.101619
O O12 0.758763 0.262637 0.821759
O O13 0.825545 0.694736 0.643638
O O14 0.817689 0.459081 0.933846
O O15 0.744279 0.758946 0.942161
#
# Coordination Sequence:
#
# PCOD9243715 Si02
#       8
#     4   4   4   4   4   4   4   2
#     4   9  20  43  70  92 143 196 270 301 375 435
#     4  11  25  43  65  94 131 176 227 283 349 440
#     4  11  25  43  65  94 131 175 226 282 346 441
#     4   9  20  40  67 108 152 208 243 320 365 453
#     4  12  28  44  71  99 143 181 235 311 396 427
#     4  11  24  48  68 101 137 190 248 326 367 446
#     4  12  26  42  62 101 129 177 227 290 369 464
#     4  10  20  38  64 102 164 194 252 302 390 436
#
# _framework density 27.603216
#
# number of rings (size 3 to 8) (size 9 to 14) (size 15 to 20)
#    0.000    1.333    2.667    1.600    5.600    2.667 
#    0.000   20.000    0.000    0.000    0.000    0.000 
#    0.000    0.000    0.000    0.000    0.000    0.000 
#
# Total GULP energy -167361.409898 kJ/mol
# GULP energy per Si atom -5578.713663 kJ/mol
# Density = 2.754039 g / cm^3
# Si number density = 27.603216 Si / 1000 Ang^3
#
#
#
# Elastic Constant Matrix: (Units=GPa)
#
#
# Indices 1 2 3 4 5 6 
#
# 1 209.5461 25.3915 34.7419 0.0000 22.9401 0.0000
# 2 25.3915 62.3792 20.6976 0.0000 -10.1111 0.0000
# 3 34.7419 20.6976 134.0501 0.0000 2.1273 0.0000
# 4 0.0000 0.0000 0.0000 32.0777 0.0000 -8.1956
# 5 22.9401 -10.1111 2.1273 0.0000 40.7097 0.0000
# 6 0.0000 0.0000 0.0000 -8.1956 0.0000 3.1661
#
#
#
# Elastic Compliance Matrix: (Units=1/GPa)
#
#
# Indices 1 2 3 4 5 6 
#
# 1 0.005667 -0.002585 -0.001010 0.000000 -0.003783 0.000000
# 2 -0.002585 0.018877 -0.002344 0.000000 0.006268 0.000000
# 3 -0.001010 -0.002344 0.008090 0.000000 -0.000436 0.000000
# 4 0.000000 0.000000 0.000000 0.092058 0.000000 0.238299
# 5 -0.003783 0.006268 -0.000436 0.000000 0.028275 0.000000
# 6 0.000000 0.000000 0.000000 0.238299 0.000000 0.932700
#
#
# Mechanical properties :
#
#
# Convention : Reuss Voigt Hill
#
# Bulk Modulus (GPa) = 48.17651 63.07082 55.62366
# Shear Modulus (GPa) = 4.52708 36.86699 20.69704
#
# Velocity S-wave (km/s) = 1.28204 3.65856 2.74123
# Velocity P-wave (km/s) = 4.43651 6.38321 5.49673
#
# Compressibility (1/GPa) = 0.02075700
#
# Stress axis : x y z
#
# Youngs Moduli (GPa) = 176.46278 52.97490 123.60313
#
# Poissons Ratio (x) = 0.13693 0.12479
# Poissons Ratio (y) = 0.45613 0.28975
# Poissons Ratio (z) = 0.17815 0.12418
#
# Static dielectric constant tensor:
#      x y z
#    x 2.178510 0.000000 -0.030010 
#    y 0.000000 2.145400 0.000000 
#    z -0.030010 0.000000 2.128610 
# 
# From -- ./inp_files/19884.got.cif
#   From: 2010.05.17/outbox.cif.g08.bks.cpg/sg14_10_cif.got.tgz:19884.got - 2010.06.03 17:49:19.
