data_PCOD9243886
_publ_section_title
;
Structure prediction by ZEFSAII (Michael W. Deem and Ramdas Pophale) SiO2 
 PCOD9243886
Probable space group: P 21/C
;
_chemical_formula_sum "Si O2"
_cell_formula_units_Z 24
_cell_length_a 11.117831
_cell_length_b 10.913068
_cell_length_c 12.303174
_cell_angle_alpha 90.000000
_cell_angle_beta 122.192983
_cell_angle_gamma 90.000000
_cell_volume 1263.243578
_symmetry_space_group_name_H-M "P 21/C"
_symmetry_group_IT_number 14
_symmetry_cell_setting 'monoclinic'
loop_
_space_group_symop_operation_xyz
x,y,z
-x,1/2+y,1/2-z
-x,-y,-z
x,1/2-y,1/2+z
loop_
_atom_site_type_symbol
_atom_site_label
_atom_site_fract_x
_atom_site_fract_y
_atom_site_fract_z
Si Si1 0.615755 0.448837 0.812940
Si Si2 0.340712 0.549507 0.921917
Si Si3 0.089778 0.559843 0.140036
Si Si4 0.940061 0.548540 0.296319
Si Si5 0.914325 0.329903 0.449960
Si Si6 0.600070 0.324398 0.260270
O O1 0.744381 0.473550 0.792430
O O2 0.509743 0.564994 0.768411
O O3 0.548464 0.314755 0.755308
O O4 0.690442 0.429045 0.967049
O O5 0.225525 0.455888 0.817292
O O6 0.349679 0.661428 0.841675
O O7 0.500000 0.500000 0.000000
O O8 0.075650 0.703043 0.107213
O O9 0.028110 0.533992 0.228766
O O10 0.000000 0.500000 0.000000
O O11 0.960694 0.433070 0.386211
O O12 0.992958 0.660544 0.396131
O O13 0.746848 0.347366 0.396094
#
# Coordination Sequence:
#
# PCOD9243886 Si02
#       6
#     4   4   4   4   4   4
#     4  10  20  39  60  88 119 158 202 248 304 360
#     4   9  18  37  57  80 115 159 197 243 300 358
#     4  11  22  36  61  90 121 155 201 254 304 353
#     4  10  20  40  58  87 118 161 201 240 311 363
#     4   9  22  39  61  86 123 161 196 253 304 357
#     4   9  20  38  61  83 119 159 200 247 299 361
#
# _framework density 18.998712000000001
#
# number of rings (size 3 to 8) (size 9 to 14) (size 15 to 20)
#    0.000    2.333    1.667    0.000    2.333    4.000 
#   12.000    3.333    0.000    0.000    0.000    0.000 
#    0.000    0.000    0.000    0.000    0.000    0.000 
#
# Total GULP energy -133638.372793 kJ/mol
# GULP energy per Si atom -5568.265533 kJ/mol
# Density = 1.895547 g / cm^3
# Si number density = 18.998712 Si / 1000 Ang^3
#
#
#
# Elastic Constant Matrix: (Units=GPa)
#
#
# Indices 1 2 3 4 5 6 
#
# 1 111.9383 43.9650 44.3297 0.0000 -3.4663 0.0000
# 2 43.9650 85.7427 25.6505 0.0000 14.8441 0.0000
# 3 44.3297 25.6505 101.0778 0.0000 7.4645 0.0000
# 4 0.0000 0.0000 0.0000 19.7105 0.0000 8.1390
# 5 -3.4663 14.8441 7.4645 0.0000 19.8867 0.0000
# 6 0.0000 0.0000 0.0000 8.1390 0.0000 25.2331
#
#
#
# Elastic Compliance Matrix: (Units=1/GPa)
#
#
# Indices 1 2 3 4 5 6 
#
# 1 0.014184 -0.007484 -0.005057 0.000000 0.009956 0.000000
# 2 -0.007484 0.018121 -0.000227 0.000000 -0.014745 0.000000
# 3 -0.005057 -0.000227 0.012570 0.000000 -0.005430 0.000000
# 4 0.000000 0.000000 0.000000 0.058530 0.000000 -0.018879
# 5 0.009956 -0.014745 -0.005430 0.000000 0.065064 0.000000
# 6 0.000000 0.000000 0.000000 -0.018879 0.000000 0.045720
#
#
# Mechanical properties :
#
#
# Convention : Reuss Voigt Hill
#
# Bulk Modulus (GPa) = 51.70997 58.51657 55.11327
# Shear Modulus (GPa) = 20.31110 25.28697 22.79904
#
# Velocity S-wave (km/s) = 3.27322 3.65222 3.46790
# Velocity P-wave (km/s) = 6.44686 6.97511 6.71618
#
# Compressibility (1/GPa) = 0.01933863
#
# Stress axis : x y z
#
# Youngs Moduli (GPa) = 70.50377 55.18493 79.55585
#
# Poissons Ratio (x) = 0.41299 0.40229
# Poissons Ratio (y) = 0.52763 0.01810
# Poissons Ratio (z) = 0.35651 0.01255
#
# Static dielectric constant tensor:
#      x y z
#    x 1.698450 0.000000 0.006090 
#    y 0.000000 1.702580 0.000000 
#    z 0.006090 0.000000 1.701260 
# 
# From -- ./inp_files/28717.got.cif
#   From: 2010.05.17/outbox.cif.g08.bks.cpg/sg14_15_cif.got.tgz:28717.got - 2010.06.03 17:49:19.
