data_PCOD9243564
_publ_section_title
;
Structure prediction by ZEFSAII (Michael W. Deem and Ramdas Pophale) SiO2 
 PCOD9243564
Probable space group: P 21/C
;
_chemical_formula_sum "Si O2"
_cell_formula_units_Z 32
_cell_length_a 24.909527
_cell_length_b 9.434541
_cell_length_c 15.362194
_cell_angle_alpha 90.000000
_cell_angle_beta 153.078072
_cell_angle_gamma 90.000000
_cell_volume 1634.642863
_symmetry_space_group_name_H-M "P 21/C"
_symmetry_group_IT_number 14
_symmetry_cell_setting 'monoclinic'
loop_
_space_group_symop_operation_xyz
x,y,z
-x,1/2+y,1/2-z
-x,-y,-z
x,1/2-y,1/2+z
loop_
_atom_site_type_symbol
_atom_site_label
_atom_site_fract_x
_atom_site_fract_y
_atom_site_fract_z
Si Si1 0.661552 0.904048 0.702679
Si Si2 0.936647 0.854413 0.068643
Si Si3 0.331515 0.076837 0.996193
Si Si4 0.583333 0.383768 0.234937
Si Si5 0.516364 0.430751 0.617846
Si Si6 0.660438 0.690880 0.854607
Si Si7 0.057218 0.336176 0.752115
Si Si8 0.944700 0.655138 0.916016
O O1 0.556601 0.922494 0.480971
O O2 0.632791 0.766971 0.721968
O O3 0.652182 0.033272 0.757696
O O4 0.794702 0.886119 0.861329
O O5 0.963600 0.753410 0.190157
O O6 0.968157 0.760389 0.030252
O O7 0.002522 0.006154 0.171654
O O8 0.194790 0.117485 0.789816
O O9 0.394649 0.081787 0.995018
O O10 0.379222 0.198146 0.129708
O O11 0.361278 0.934698 0.093802
O O12 0.584602 0.217170 0.219961
O O13 0.500000 0.500000 0.500000
O O14 0.594650 0.547258 0.779067
O O15 0.800445 0.660570 0.054726
O O16 0.013509 0.239996 0.608823
O O17 0.000000 0.500000 0.000000
#
# Coordination Sequence:
#
# PCOD9243564 Si02
#       8
#     4   4   4   4   4   4   4   4
#     4   9  19  38  61  86 118 169 196 251 310 373
#     4  11  22  41  68  91 131 167 219 266 329 377
#     4  10  23  41  62  84 124 169 199 248 319 370
#     4  10  20  38  60  87 125 159 207 247 307 377
#     4  12  22  35  60  92 122 153 206 253 301 366
#     4   9  20  39  59  85 125 157 202 245 311 365
#     4  10  23  41  64  95 123 171 213 264 320 387
#     4  11  24  44  66  91 129 168 216 268 323 383
#
# _framework density 19.576142000000001
#
# number of rings (size 3 to 8) (size 9 to 14) (size 15 to 20)
#    0.000    1.750    1.250    3.375    1.750    3.000 
#    2.250    0.000    0.000    0.000    0.000    0.000 
#    0.000    0.000    0.000    0.000    0.000    0.000 
#
# Total GULP energy -178574.436211 kJ/mol
# GULP energy per Si atom -5580.451132 kJ/mol
# Density = 1.953159 g / cm^3
# Si number density = 19.576142 Si / 1000 Ang^3
#
#
#
# Elastic Constant Matrix: (Units=GPa)
#
#
# Indices 1 2 3 4 5 6 
#
# 1 74.7695 31.1030 29.5375 0.0000 -23.0751 0.0000
# 2 31.1030 154.3842 37.2793 0.0000 -6.7192 0.0000
# 3 29.5375 37.2793 42.6654 0.0000 -12.6401 0.0000
# 4 0.0000 0.0000 0.0000 20.3607 0.0000 -7.4867
# 5 -23.0751 -6.7192 -12.6401 0.0000 25.0753 0.0000
# 6 0.0000 0.0000 0.0000 -7.4867 0.0000 24.1492
#
#
#
# Elastic Compliance Matrix: (Units=1/GPa)
#
#
# Indices 1 2 3 4 5 6 
#
# 1 0.022652 -0.001536 -0.009742 0.000000 0.015523 0.000000
# 2 -0.001536 0.008373 -0.007061 0.000000 -0.002729 0.000000
# 3 -0.009742 -0.007061 0.038953 0.000000 0.008779 0.000000
# 4 0.000000 0.000000 0.000000 0.055433 0.000000 0.017185
# 5 0.015523 -0.002729 0.008779 0.000000 0.057859 0.000000
# 6 0.000000 0.000000 0.000000 0.017185 0.000000 0.046737
#
#
# Mechanical properties :
#
#
# Convention : Reuss Voigt Hill
#
# Bulk Modulus (GPa) = 30.02886 51.96207 40.99546
# Shear Modulus (GPa) = 17.99945 25.51032 21.75488
#
# Velocity S-wave (km/s) = 3.03555 3.61381 3.33723
# Velocity P-wave (km/s) = 5.25917 6.63431 5.98636
#
# Compressibility (1/GPa) = 0.03330130
#
# Stress axis : x y z
#
# Youngs Moduli (GPa) = 44.14537 119.43025 25.67182
#
# Poissons Ratio (x) = 0.18341 0.25008
# Poissons Ratio (y) = 0.06780 0.18128
# Poissons Ratio (z) = 0.43005 0.84334
#
# Static dielectric constant tensor:
#      x y z
#    x 1.691520 0.000000 -0.034820 
#    y 0.000000 1.701580 0.000000 
#    z -0.034820 0.000000 1.717720 
# 
# From -- ./inp_files/51390.got.cif
#   From: 2010.05.17/outbox.cif.g08.bks.cpg/sg14_26_cif.got.tgz:51390.got - 2010.06.03 17:49:19.
