data_PCOD9243465
_publ_section_title
;
Structure prediction by ZEFSAII (Michael W. Deem and Ramdas Pophale) SiO2 
 PCOD9243465
Probable space group: P 21/C
;
_chemical_formula_sum "Si O2"
_cell_formula_units_Z 28
_cell_length_a 9.061899
_cell_length_b 12.446711
_cell_length_c 13.770697
_cell_angle_alpha 90.000000
_cell_angle_beta 53.620383
_cell_angle_gamma 90.000000
_cell_volume 1250.495668
_symmetry_space_group_name_H-M "P 21/C"
_symmetry_group_IT_number 14
_symmetry_cell_setting 'monoclinic'
loop_
_space_group_symop_operation_xyz
x,y,z
-x,1/2+y,1/2-z
-x,-y,-z
x,1/2-y,1/2+z
loop_
_atom_site_type_symbol
_atom_site_label
_atom_site_fract_x
_atom_site_fract_y
_atom_site_fract_z
Si Si1 0.609193 0.938113 0.873730
Si Si2 0.495598 0.212457 0.567468
Si Si3 0.711324 0.793336 0.154546
Si Si4 0.533224 0.595366 0.111058
Si Si5 0.120843 0.744197 0.497299
Si Si6 0.279346 0.961530 0.860603
Si Si7 0.184893 0.541615 0.877890
O O1 0.627556 0.818443 0.908922
O O2 0.461435 0.923427 0.845858
O O3 0.768115 0.999123 0.749863
O O4 0.500000 0.000000 0.000000
O O5 0.418314 0.186858 0.703198
O O6 0.714427 0.238385 0.489342
O O7 0.463334 0.118806 0.503730
O O8 0.608375 0.708758 0.126218
O O9 0.741679 0.914284 0.104898
O O10 0.907771 0.742230 0.108403
O O11 0.331347 0.565122 0.229468
O O12 0.664603 0.504860 0.105369
O O13 0.132556 0.621932 0.456271
O O14 0.169906 0.829639 0.393299
O O15 0.000000 0.500000 0.000000
#
# Coordination Sequence:
#
# PCOD9243465 Si02
#       7
#     4   4   4   4   4   4   4
#     4  10  20  37  66  96 130 176 221 274 334 408
#     4  11  23  42  66  99 134 174 226 278 343 402
#     4  12  22  46  66  96 137 175 228 281 343 413
#     4  11  23  42  71  96 131 186 221 277 349 408
#     4  11  23  42  68  96 136 174 227 283 338 414
#     4  10  23  40  66  94 134 180 219 279 344 404
#     4  11  21  42  68  97 131 179 225 274 344 404
#
# _framework density 22.391120999999998
#
# number of rings (size 3 to 8) (size 9 to 14) (size 15 to 20)
#    0.000    1.143    5.714    3.000    2.000    2.286 
#    7.714    0.000    0.000    0.000    0.000    0.000 
#    0.000    0.000    0.000    0.000    0.000    0.000 
#
# Total GULP energy -156009.829171 kJ/mol
# GULP energy per Si atom -5571.779613 kJ/mol
# Density = 2.234016 g / cm^3
# Si number density = 22.391121 Si / 1000 Ang^3
#
#
#
# Elastic Constant Matrix: (Units=GPa)
#
#
# Indices 1 2 3 4 5 6 
#
# 1 37.1658 2.1084 31.0518 0.0000 -5.5379 0.0000
# 2 2.1084 146.9090 0.2686 0.0000 5.6023 0.0000
# 3 31.0518 0.2686 86.4039 0.0000 -4.0961 0.0000
# 4 0.0000 0.0000 0.0000 27.6964 0.0000 2.6604
# 5 -5.5379 5.6023 -4.0961 0.0000 30.0785 0.0000
# 6 0.0000 0.0000 0.0000 2.6604 0.0000 28.0227
#
#
#
# Elastic Compliance Matrix: (Units=1/GPa)
#
#
# Indices 1 2 3 4 5 6 
#
# 1 0.039369 -0.000749 -0.013886 0.000000 0.005497 0.000000
# 2 -0.000749 0.006870 0.000182 0.000000 -0.001393 0.000000
# 3 -0.013886 0.000182 0.016547 0.000000 -0.000337 0.000000
# 4 0.000000 0.000000 0.000000 0.036438 0.000000 -0.003459
# 5 0.005497 -0.001393 -0.000337 0.000000 0.034472 0.000000
# 6 0.000000 0.000000 0.000000 -0.003459 0.000000 0.036014
#
#
# Mechanical properties :
#
#
# Convention : Reuss Voigt Hill
#
# Bulk Modulus (GPa) = 29.51498 37.48179 33.49839
# Shear Modulus (GPa) = 23.81967 32.96286 28.39127
#
# Velocity S-wave (km/s) = 3.26513 3.84101 3.56472
# Velocity P-wave (km/s) = 5.23688 6.03714 5.65120
#
# Compressibility (1/GPa) = 0.03388110
#
# Stress axis : x y z
#
# Youngs Moduli (GPa) = 25.40042 145.55037 60.43314
#
# Poissons Ratio (x) = 0.10906 0.83915
# Poissons Ratio (y) = 0.01903 -0.01099
# Poissons Ratio (z) = 0.35270 -0.02647
#
# Static dielectric constant tensor:
#      x y z
#    x 1.823110 0.000000 0.007850 
#    y 0.000000 1.940510 0.000000 
#    z 0.007850 0.000000 1.945570 
# 
# From -- ./inp_files/57525.got.cif
#   From: 2010.05.17/outbox.cif.g08.bks.cpg/sg14_29_cif.got.tgz:57525.got - 2010.06.03 17:49:19.
