data_PCOD9243279
_publ_section_title
;
Structure prediction by ZEFSAII (Michael W. Deem and Ramdas Pophale) SiO2 
 PCOD9243279
Probable space group: P 21/C
;
_chemical_formula_sum "Si O2"
_cell_formula_units_Z 28
_cell_length_a 15.639236
_cell_length_b 11.507944
_cell_length_c 12.477428
_cell_angle_alpha 90.000000
_cell_angle_beta 145.807850
_cell_angle_gamma 90.000000
_cell_volume 1261.977235
_symmetry_space_group_name_H-M "P 21/C"
_symmetry_group_IT_number 14
_symmetry_cell_setting 'monoclinic'
loop_
_space_group_symop_operation_xyz
x,y,z
-x,1/2+y,1/2-z
-x,-y,-z
x,1/2-y,1/2+z
loop_
_atom_site_type_symbol
_atom_site_label
_atom_site_fract_x
_atom_site_fract_y
_atom_site_fract_z
Si Si1 0.906565 0.357623 0.917127
Si Si2 0.854642 0.178715 0.125301
Si Si3 0.209559 0.332707 0.951746
Si Si4 0.683558 0.081718 0.511975
Si Si5 0.762200 0.918278 0.292145
Si Si6 0.310412 0.660116 0.745376
Si Si7 0.553084 0.841183 0.904310
O O1 0.862524 0.383648 0.748097
O O2 0.819373 0.456355 0.892399
O O3 0.837838 0.235479 0.875748
O O4 0.086679 0.367209 0.108179
O O5 0.783834 0.306086 0.078291
O O6 0.029399 0.190927 0.269909
O O7 0.749766 0.110531 0.930716
O O8 0.238407 0.457959 0.927347
O O9 0.268975 0.342738 0.135758
O O10 0.309529 0.235114 0.999792
O O11 0.649838 0.092318 0.604810
O O12 0.536122 0.094153 0.282989
O O13 0.624008 0.923581 0.067869
O O14 0.442312 0.749760 0.849628
#
# Coordination Sequence:
#
# PCOD9243279 Si02
#       7
#     4   4   4   4   4   4   4
#     4   9  19  36  61  86 108 150 200 242 289 337
#     4   9  20  38  60  85 115 149 195 245 286 338
#     4  11  23  39  60  88 116 151 196 238 289 346
#     4  10  23  40  60  86 117 155 195 236 289 347
#     4  10  20  37  60  85 114 147 195 248 289 337
#     4  10  20  38  56  80 120 155 189 236 286 341
#     4  11  23  36  57  86 120 156 190 235 288 347
#
# _framework density 22.187404000000001
#
# number of rings (size 3 to 8) (size 9 to 14) (size 15 to 20)
#    0.000    2.000    0.000    3.429    0.000    9.143 
#    0.000    1.429    0.000    0.000    0.000    0.000 
#    0.000    0.000    0.000    0.000    0.000    0.000 
#
# Total GULP energy -156368.118971 kJ/mol
# GULP energy per Si atom -5584.575678 kJ/mol
# Density = 2.213690 g / cm^3
# Si number density = 22.187404 Si / 1000 Ang^3
#
#
#
# Elastic Constant Matrix: (Units=GPa)
#
#
# Indices 1 2 3 4 5 6 
#
# 1 77.0783 11.9552 33.4636 0.0000 -12.9300 0.0000
# 2 11.9552 20.0581 2.8474 0.0000 3.9934 0.0000
# 3 33.4636 2.8474 113.9829 0.0000 -25.4289 0.0000
# 4 0.0000 0.0000 0.0000 18.1415 0.0000 1.2031
# 5 -12.9300 3.9934 -25.4289 0.0000 31.4976 0.0000
# 6 0.0000 0.0000 0.0000 1.2031 0.0000 30.9061
#
#
#
# Elastic Compliance Matrix: (Units=1/GPa)
#
#
# Indices 1 2 3 4 5 6 
#
# 1 0.017107 -0.010804 -0.003513 0.000000 0.005556 0.000000
# 2 -0.010804 0.059022 -0.001173 0.000000 -0.012865 0.000000
# 3 -0.003513 -0.001173 0.011642 0.000000 0.008106 0.000000
# 4 0.000000 0.000000 0.000000 0.055265 0.000000 -0.002151
# 5 0.005556 -0.012865 0.008106 0.000000 0.042204 0.000000
# 6 0.000000 0.000000 0.000000 -0.002151 0.000000 0.032440
#
#
# Mechanical properties :
#
#
# Convention : Reuss Voigt Hill
#
# Bulk Modulus (GPa) = 17.60788 34.18353 25.89571
# Shear Modulus (GPa) = 18.68536 26.96592 22.82564
#
# Velocity S-wave (km/s) = 2.90515 3.49000 3.21092
# Velocity P-wave (km/s) = 4.38251 5.62853 5.04414
#
# Compressibility (1/GPa) = 0.05679276
#
# Stress axis : x y z
#
# Youngs Moduli (GPa) = 58.45684 16.94278 85.89458
#
# Poissons Ratio (x) = 0.18304 0.30173
# Poissons Ratio (y) = 0.63154 0.10073
# Poissons Ratio (z) = 0.20535 0.01987
#
# Static dielectric constant tensor:
#      x y z
#    x 1.854160 0.000000 -0.039390 
#    y 0.000000 1.797360 0.000000 
#    z -0.039390 0.000000 1.815540 
# 
# From -- ./inp_files/48795.got.cif
#   From: 2010.05.17/outbox.cif.g08.bks.cpg/sg14_25_cif.got.tgz:48795.got - 2010.06.03 17:49:19.
