data_PCOD9243846
_publ_section_title
;
Structure prediction by ZEFSAII (Michael W. Deem and Ramdas Pophale) SiO2 
 PCOD9243846
Probable space group: P 21/C
;
_chemical_formula_sum "Si O2"
_cell_formula_units_Z 26
_cell_length_a 8.986046
_cell_length_b 10.089403
_cell_length_c 13.466229
_cell_angle_alpha 90.000000
_cell_angle_beta 47.233632
_cell_angle_gamma 90.000000
_cell_volume 896.297580
_symmetry_space_group_name_H-M "P 21/C"
_symmetry_group_IT_number 14
_symmetry_cell_setting 'monoclinic'
loop_
_space_group_symop_operation_xyz
x,y,z
-x,1/2+y,1/2-z
-x,-y,-z
x,1/2-y,1/2+z
loop_
_atom_site_type_symbol
_atom_site_label
_atom_site_fract_x
_atom_site_fract_y
_atom_site_fract_z
Si Si1 0.591361 0.693001 0.365468
Si Si2 0.026414 0.710521 0.194862
Si Si3 0.242259 0.269896 0.428551
Si Si4 0.329421 0.565991 0.939544
Si Si5 0.647349 0.167582 0.286871
Si Si6 0.780785 0.436295 0.516022
Si Si7 0.000000 0.500000 0.000000
O O1 0.690640 0.740023 0.215681
O O2 0.427376 0.810032 0.450617
O O3 0.443273 0.569003 0.431073
O O4 0.796730 0.691039 0.334176
O O5 0.169929 0.687503 0.222323
O O6 0.086692 0.592544 0.086498
O O7 0.068551 0.852115 0.122811
O O8 0.463370 0.269684 0.379417
O O9 0.157723 0.417034 0.479858
O O10 0.104709 0.140651 0.509165
O O11 0.510956 0.463734 0.870786
O O12 0.242184 0.549185 0.868966
O O13 0.732984 0.147912 0.137509
#
# Coordination Sequence:
#
# PCOD9243846 Si02
#       7
#     4   4   4   4   4   4   2
#     4  10  21  41  66 101 147 186 250 312 369 458
#     4  11  23  42  69 102 145 196 248 318 388 448
#     4  10  20  41  67 101 142 189 249 309 382 459
#     4  10  20  40  70 102 141 193 248 318 372 458
#     4  10  22  42  69 102 144 192 258 311 382 460
#     4  10  23  44  71 100 149 197 253 318 378 461
#     4  10  20  38  72 108 140 194 252 302 396 448
#
# _framework density 29.008223000000001
#
# number of rings (size 3 to 8) (size 9 to 14) (size 15 to 20)
#    0.000    1.846    3.077    0.462    0.000    1.231 
#    2.769    6.154    6.769    0.000    0.000    0.000 
#    0.000    0.000    0.000    0.000    0.000    1.538 
#
# Total GULP energy -144940.822760 kJ/mol
# GULP energy per Si atom -5574.647029 kJ/mol
# Density = 2.894220 g / cm^3
# Si number density = 29.008223 Si / 1000 Ang^3
#
#
#
# Elastic Constant Matrix: (Units=GPa)
#
#
# Indices 1 2 3 4 5 6 
#
# 1 168.2170 29.9301 66.8311 0.0000 -63.2928 0.0000
# 2 29.9301 164.0680 46.0671 0.0000 -26.9295 0.0000
# 3 66.8311 46.0671 152.8619 0.0000 -34.8248 0.0000
# 4 0.0000 0.0000 0.0000 26.2225 0.0000 -16.4513
# 5 -63.2928 -26.9295 -34.8248 0.0000 70.7601 0.0000
# 6 0.0000 0.0000 0.0000 -16.4513 0.0000 23.7295
#
#
#
# Elastic Compliance Matrix: (Units=1/GPa)
#
#
# Indices 1 2 3 4 5 6 
#
# 1 0.009788 0.000187 -0.002618 0.000000 0.007537 0.000000
# 2 0.000187 0.006858 -0.001707 0.000000 0.001937 0.000000
# 3 -0.002618 -0.001707 0.008469 0.000000 0.001176 0.000000
# 4 0.000000 0.000000 0.000000 0.067489 0.000000 0.046789
# 5 0.007537 0.001937 0.001176 0.000000 0.022190 0.000000
# 6 0.000000 0.000000 0.000000 0.046789 0.000000 0.074580
#
#
# Mechanical properties :
#
#
# Convention : Reuss Voigt Hill
#
# Bulk Modulus (GPa) = 59.39148 85.64483 72.51816
# Shear Modulus (GPa) = 24.59852 46.96367 35.78109
#
# Velocity S-wave (km/s) = 2.91518 4.02802 3.51591
# Velocity P-wave (km/s) = 5.64353 7.15693 6.44481
#
# Compressibility (1/GPa) = 0.01683743
#
# Stress axis : x y z
#
# Youngs Moduli (GPa) = 102.16981 145.81013 118.07673
#
# Poissons Ratio (x) = -0.02724 0.30916
# Poissons Ratio (y) = -0.01908 0.20158
# Poissons Ratio (z) = 0.26751 0.24893
#
# Static dielectric constant tensor:
#      x y z
#    x -16.361550 0.000000 -6.813040 
#    y 0.000000 3.343130 0.000000 
#    z -6.813040 0.000000 -0.003520 
# 
# From -- ./inp_files/65350.got.cif
#   From: 2010.05.17/outbox.cif.g08.bks.cpg/sg14_33_cif.got.tgz:65350.got - 2010.06.03 17:49:19.
