data_PCOD9243062
_publ_section_title
;
Structure prediction by ZEFSAII (Michael W. Deem and Ramdas Pophale) SiO2 
 PCOD9243062
Probable space group: P 21/C
;
_chemical_formula_sum "Si O2"
_cell_formula_units_Z 28
_cell_length_a 5.242423
_cell_length_b 16.117399
_cell_length_c 13.701420
_cell_angle_alpha 90.000000
_cell_angle_beta 115.831750
_cell_angle_gamma 90.000000
_cell_volume 1042.011423
_symmetry_space_group_name_H-M "P 21/C"
_symmetry_group_IT_number 14
_symmetry_cell_setting 'monoclinic'
loop_
_space_group_symop_operation_xyz
x,y,z
-x,1/2+y,1/2-z
-x,-y,-z
x,1/2-y,1/2+z
loop_
_atom_site_type_symbol
_atom_site_label
_atom_site_fract_x
_atom_site_fract_y
_atom_site_fract_z
Si Si1 0.023270 0.304822 0.784848
Si Si2 0.546394 0.100417 0.389297
Si Si3 0.232886 0.553939 0.890841
Si Si4 0.457613 0.621123 0.590361
Si Si5 0.113615 0.289502 0.488270
Si Si6 0.271404 0.525709 0.283685
Si Si7 0.480228 0.811182 0.313351
O O1 0.882570 0.387929 0.715304
O O2 0.826398 0.230841 0.714296
O O3 0.360944 0.319204 0.833792
O O4 0.994954 0.284284 0.897178
O O5 0.800347 0.096241 0.509405
O O6 0.324131 0.041935 0.411514
O O7 0.603713 0.053484 0.299181
O O8 0.469440 0.606935 0.876111
O O9 0.963295 0.544777 0.776375
O O10 0.672406 0.659332 0.546705
O O11 0.505020 0.522011 0.611728
O O12 0.504364 0.659002 0.706947
O O13 0.138659 0.651893 0.517494
O O14 0.284799 0.250945 0.606728
#
# Coordination Sequence:
#
# PCOD9243062 Si02
#       7
#     4   4   4   4   4   4   4
#     4  10  24  39  65  99 135 177 234 285 345 409
#     4  10  20  36  61  97 134 170 223 288 349 408
#     4  10  20  37  61  98 133 173 222 280 362 406
#     4  11  26  46  71 100 140 187 233 281 357 418
#     4  11  26  47  68 105 142 181 233 294 342 424
#     4  11  22  39  66  97 138 182 229 291 344 420
#     4  11  23  46  70 100 137 192 227 291 354 419
#
# _framework density 26.871103999999999
#
# number of rings (size 3 to 8) (size 9 to 14) (size 15 to 20)
#    0.000    1.429    2.857    2.143    6.000    4.571 
#    0.000    1.429    0.000    0.000    0.000    0.000 
#    0.000    0.000    0.000    0.000    0.000    0.000 
#
# Total GULP energy -156538.240847 kJ/mol
# GULP energy per Si atom -5590.651459 kJ/mol
# Density = 2.680994 g / cm^3
# Si number density = 26.871104 Si / 1000 Ang^3
#
#
#
# Elastic Constant Matrix: (Units=GPa)
#
#
# Indices 1 2 3 4 5 6 
#
# 1 96.0652 11.8378 15.0897 0.0000 -7.6597 0.0000
# 2 11.8378 82.2825 13.1938 0.0000 -7.6317 0.0000
# 3 15.0897 13.1938 99.8512 0.0000 -13.3983 0.0000
# 4 0.0000 0.0000 0.0000 45.5274 0.0000 7.5127
# 5 -7.6597 -7.6317 -13.3983 0.0000 33.9538 0.0000
# 6 0.0000 0.0000 0.0000 7.5127 0.0000 48.1289
#
#
#
# Elastic Compliance Matrix: (Units=1/GPa)
#
#
# Indices 1 2 3 4 5 6 
#
# 1 0.010891 -0.001208 -0.001260 0.000000 0.001688 0.000000
# 2 -0.001208 0.012717 -0.001215 0.000000 0.002106 0.000000
# 3 -0.001260 -0.001215 0.010866 0.000000 0.003731 0.000000
# 4 0.000000 0.000000 0.000000 0.022546 0.000000 -0.003519
# 5 0.001688 0.002106 0.003731 0.000000 0.031778 0.000000
# 6 0.000000 0.000000 0.000000 -0.003519 0.000000 0.021327
#
#
# Mechanical properties :
#
#
# Convention : Reuss Voigt Hill
#
# Bulk Modulus (GPa) = 36.88887 39.82682 38.35785
# Shear Modulus (GPa) = 39.51704 41.39386 40.45545
#
# Velocity S-wave (km/s) = 3.83902 3.92913 3.88433
# Velocity P-wave (km/s) = 5.78002 5.95295 5.86712
#
# Compressibility (1/GPa) = 0.02710844
#
# Stress axis : x y z
#
# Youngs Moduli (GPa) = 91.81916 78.63303 92.02663
#
# Poissons Ratio (x) = 0.09501 0.11592
# Poissons Ratio (y) = 0.11094 0.11183
# Poissons Ratio (z) = 0.11566 0.09555
#
# Static dielectric constant tensor:
#      x y z
#    x 2.143170 0.000000 0.085740 
#    y 0.000000 2.109770 0.000000 
#    z 0.085740 0.000000 2.218980 
# 
# From -- ./inp_files/37909.got.cif
#   From: 2010.05.17/outbox.cif.g08.bks.cpg/sg14_19_cif.got.tgz:37909.got - 2010.06.03 17:49:19.
