data_PCOD9243624
_publ_section_title
;
Structure prediction by ZEFSAII (Michael W. Deem and Ramdas Pophale) SiO2 
 PCOD9243624
Probable space group: P 21/C
;
_chemical_formula_sum "Si O2"
_cell_formula_units_Z 12
_cell_length_a 7.810294
_cell_length_b 11.732997
_cell_length_c 8.868810
_cell_angle_alpha 90.000000
_cell_angle_beta 28.279413
_cell_angle_gamma 90.000000
_cell_volume 385.044489
_symmetry_space_group_name_H-M "P 21/C"
_symmetry_group_IT_number 14
_symmetry_cell_setting 'monoclinic'
loop_
_space_group_symop_operation_xyz
x,y,z
-x,1/2+y,1/2-z
-x,-y,-z
x,1/2-y,1/2+z
loop_
_atom_site_type_symbol
_atom_site_label
_atom_site_fract_x
_atom_site_fract_y
_atom_site_fract_z
Si Si1 0.180867 0.085341 0.701870
Si Si2 0.406131 0.250000 0.750000
Si Si3 0.915390 0.914659 0.701871
O O1 0.118695 0.161387 0.898917
O O2 0.287394 0.172026 0.482819
O O3 0.500000 0.000000 0.500000
O O4 0.878618 0.000000 0.871382
O O5 0.753033 0.172025 0.517181
O O6 0.416530 0.338613 0.601082
O O7 0.000000 0.000000 0.500000
#
# Coordination Sequence:
#
# PCOD9243624 Si02
#       3
#     4   4   4
#     4   9  20  39  58  85 118 152 195 244 288 345
#     4  10  20  38  62  82 118 158 190 244 298 338
#     4   9  20  39  58  85 118 152 195 244 288 345
#
# _framework density 31.165229
#
# number of rings (size 3 to 8) (size 9 to 14) (size 15 to 20)
#    0.000    2.667    0.000    0.000    0.000   10.667 
#    0.000   43.333    0.000    0.000    0.000    0.000 
#    0.000    0.000    0.000    0.000    0.000    0.000 
#
# Total GULP energy -67128.687241 kJ/mol
# GULP energy per Si atom -5594.057270 kJ/mol
# Density = 3.109430 g / cm^3
# Si number density = 31.165229 Si / 1000 Ang^3
#
#
#
# Elastic Constant Matrix: (Units=GPa)
#
#
# Indices 1 2 3 4 5 6 
#
# 1 231.2232 173.2674 80.9655 0.0000 -1.0659 0.0000
# 2 173.2674 247.2223 87.6917 0.0000 -1.3125 0.0000
# 3 80.9655 87.6917 75.1965 0.0000 -1.3272 0.0000
# 4 0.0000 0.0000 0.0000 89.9247 0.0000 -1.9635
# 5 -1.0659 -1.3125 -1.3272 0.0000 40.3670 0.0000
# 6 0.0000 0.0000 0.0000 -1.9635 0.0000 217.9154
#
#
#
# Elastic Compliance Matrix: (Units=1/GPa)
#
#
# Indices 1 2 3 4 5 6 
#
# 1 0.009886 -0.005377 -0.004375 0.000000 -0.000058 0.000000
# 2 -0.005377 0.009823 -0.005666 0.000000 -0.000009 0.000000
# 3 -0.004375 -0.005666 0.024625 0.000000 0.000510 0.000000
# 4 0.000000 0.000000 0.000000 0.011123 0.000000 0.000100
# 5 -0.000058 -0.000009 0.000510 0.000000 0.024788 0.000000
# 6 0.000000 0.000000 0.000000 0.000100 0.000000 0.004590
#
#
# Mechanical properties :
#
#
# Convention : Reuss Voigt Hill
#
# Bulk Modulus (GPa) = 74.08091 137.49902 105.78997
# Shear Modulus (GPa) = 41.60788 83.75591 62.68189
#
# Velocity S-wave (km/s) = 3.65783 5.18971 4.48959
# Velocity P-wave (km/s) = 6.45458 8.95131 7.80345
#
# Compressibility (1/GPa) = 0.01349875
#
# Stress axis : x y z
#
# Youngs Moduli (GPa) = 101.15656 101.79918 40.60853
#
# Poissons Ratio (x) = 0.54738 0.17764
# Poissons Ratio (y) = 0.54392 0.23009
# Poissons Ratio (z) = 0.44252 0.57681
#
# Static dielectric constant tensor:
#      x y z
#    x 2.380060 0.000000 0.001000 
#    y 0.000000 2.424640 0.000000 
#    z 0.001000 0.000000 2.445470 
# 
# From -- ./inp_files/4751.got.cif
#   From: 2010.05.17/outbox.cif.g08.bks.cpg/sg14_3_cif.got.tgz:4751.got - 2010.06.03 17:49:19.
