data_PCOD9243260
_publ_section_title
;
Structure prediction by ZEFSAII (Michael W. Deem and Ramdas Pophale) SiO2 
 PCOD9243260
Probable space group: P 21/C
;
_chemical_formula_sum "Si O2"
_cell_formula_units_Z 32
_cell_length_a 30.316336
_cell_length_b 11.140484
_cell_length_c 8.552447
_cell_angle_alpha 90.000000
_cell_angle_beta 29.475603
_cell_angle_gamma 90.000000
_cell_volume 1421.290876
_symmetry_space_group_name_H-M "P 21/C"
_symmetry_group_IT_number 14
_symmetry_cell_setting 'monoclinic'
loop_
_space_group_symop_operation_xyz
x,y,z
-x,1/2+y,1/2-z
-x,-y,-z
x,1/2-y,1/2+z
loop_
_atom_site_type_symbol
_atom_site_label
_atom_site_fract_x
_atom_site_fract_y
_atom_site_fract_z
Si Si1 0.428172 0.124902 0.214509
Si Si2 0.954278 0.883450 0.222736
Si Si3 0.195935 0.707182 0.489762
Si Si4 0.978540 0.132204 0.632922
Si Si5 0.629058 0.386652 0.207553
Si Si6 0.802558 0.064071 0.690263
Si Si7 0.542744 0.841692 0.228285
Si Si8 0.374739 0.592104 0.425576
O O1 0.519013 0.100261 0.035085
O O2 0.465253 0.163941 0.931391
O O3 0.390221 0.240443 0.418162
O O4 0.356259 0.021703 0.406857
O O5 0.027553 0.246683 0.912758
O O6 0.853115 0.937443 0.541586
O O7 0.993916 0.870616 0.272711
O O8 0.000000 0.000000 0.000000
O O9 0.182650 0.642917 0.697825
O O10 0.172541 0.847943 0.533753
O O11 0.126172 0.646762 0.585589
O O12 0.298374 0.689637 0.114375
O O13 0.000000 0.000000 0.500000
O O14 0.652180 0.362871 0.317470
O O15 0.698079 0.051663 0.976367
O O16 0.447168 0.828532 0.609206
O O17 0.577573 0.969765 0.169187
#
# Coordination Sequence:
#
# PCOD9243260 Si02
#       8
#     4   4   4   4   4   4   4   4
#     4  10  20  37  59  89 122 171 217 270 336 400
#     4  12  26  48  76 106 139 182 227 289 346 419
#     4  12  24  43  70  99 136 175 226 284 337 409
#     4  12  25  49  74 105 139 183 229 278 354 415
#     4  10  22  38  62  90 126 170 222 276 332 399
#     4  12  25  43  68 102 136 177 233 284 345 407
#     4  10  20  37  60  84 128 170 216 271 335 401
#     4  10  22  39  59  91 126 173 221 276 332 400
#
# _framework density 22.514744
#
# number of rings (size 3 to 8) (size 9 to 14) (size 15 to 20)
#    0.000    1.000    2.500    4.500    1.750    3.000 
#    2.250    1.250    0.000    0.000    0.000    0.000 
#    0.000    0.000    0.000    0.000    0.000    0.000 
#
# Total GULP energy -178343.690974 kJ/mol
# GULP energy per Si atom -5573.240343 kJ/mol
# Density = 2.246350 g / cm^3
# Si number density = 22.514744 Si / 1000 Ang^3
#
#
#
# Elastic Constant Matrix: (Units=GPa)
#
#
# Indices 1 2 3 4 5 6 
#
# 1 180.5154 53.2316 28.9173 0.0000 5.9622 0.0000
# 2 53.2316 111.1050 35.2592 0.0000 12.1157 0.0000
# 3 28.9173 35.2592 43.7569 0.0000 -4.5605 0.0000
# 4 0.0000 0.0000 0.0000 33.7036 0.0000 2.0756
# 5 5.9622 12.1157 -4.5605 0.0000 24.8785 0.0000
# 6 0.0000 0.0000 0.0000 2.0756 0.0000 47.5596
#
#
#
# Elastic Compliance Matrix: (Units=1/GPa)
#
#
# Indices 1 2 3 4 5 6 
#
# 1 0.006663 -0.002218 -0.002722 0.000000 -0.001016 0.000000
# 2 -0.002218 0.014536 -0.011143 0.000000 -0.008590 0.000000
# 3 -0.002722 -0.011143 0.034932 0.000000 0.012482 0.000000
# 4 0.000000 0.000000 0.000000 0.029750 0.000000 -0.001298
# 5 -0.001016 -0.008590 0.012482 0.000000 0.046910 0.000000
# 6 0.000000 0.000000 0.000000 -0.001298 0.000000 0.021083
#
#
# Mechanical properties :
#
#
# Convention : Reuss Voigt Hill
#
# Bulk Modulus (GPa) = 41.72577 63.35484 52.54031
# Shear Modulus (GPa) = 25.76933 35.75962 30.76447
#
# Velocity S-wave (km/s) = 3.38680 3.98964 3.70051
# Velocity P-wave (km/s) = 5.81951 7.03017 6.45330
#
# Compressibility (1/GPa) = 0.02396601
#
# Stress axis : x y z
#
# Youngs Moduli (GPa) = 150.07487 68.79542 28.62684
#
# Poissons Ratio (x) = 0.15257 0.07793
# Poissons Ratio (y) = 0.33283 0.31898
# Poissons Ratio (z) = 0.40856 0.76656
#
# Static dielectric constant tensor:
#      x y z
#    x 1.808600 0.000000 -0.015050 
#    y 0.000000 2.081430 0.000000 
#    z -0.015050 0.000000 1.975380 
# 
# From -- ./inp_files/19996.got.cif
#   From: 2010.05.17/outbox.cif.g08.bks.cpg/sg14_10_cif.got.tgz:19996.got - 2010.06.03 17:49:19.
