data_PCOD9243567
_publ_section_title
;
Structure prediction by ZEFSAII (Michael W. Deem and Ramdas Pophale) SiO2 
 PCOD9243567
Probable space group: P 21/C
;
_chemical_formula_sum "Si O2"
_cell_formula_units_Z 24
_cell_length_a 18.296705
_cell_length_b 8.352220
_cell_length_c 14.507498
_cell_angle_alpha 90.000000
_cell_angle_beta 156.684310
_cell_angle_gamma 90.000000
_cell_volume 877.485251
_symmetry_space_group_name_H-M "P 21/C"
_symmetry_group_IT_number 14
_symmetry_cell_setting 'monoclinic'
loop_
_space_group_symop_operation_xyz
x,y,z
-x,1/2+y,1/2-z
-x,-y,-z
x,1/2-y,1/2+z
loop_
_atom_site_type_symbol
_atom_site_label
_atom_site_fract_x
_atom_site_fract_y
_atom_site_fract_z
Si Si1 0.266812 0.717569 0.615591
Si Si2 0.274902 0.281859 0.190841
Si Si3 0.572490 0.267873 0.883523
Si Si4 0.791388 0.525457 0.721923
Si Si5 0.024187 0.010334 0.725040
Si Si6 0.218868 0.535314 0.738902
O O1 0.430478 0.746341 0.730535
O O2 0.274525 0.683182 0.733916
O O3 0.153790 0.558721 0.453710
O O4 0.146673 0.874857 0.456068
O O5 0.392559 0.262447 0.235779
O O6 0.325454 0.410883 0.329006
O O7 0.285944 0.121650 0.263695
O O8 0.074021 0.346467 0.926992
O O9 0.673844 0.426051 0.041802
O O10 0.705464 0.126813 0.073732
O O11 0.848209 0.619751 0.695341
O O12 0.000000 0.500000 0.000000
O O13 0.000000 0.500000 0.500000
#
# Coordination Sequence:
#
# PCOD9243567 Si02
#       6
#     4   4   4   4   4   4
#     4  11  23  40  64  92 124 163 215 261 307 376
#     4  11  22  38  62  92 127 163 205 262 324 375
#     4  11  24  40  61  93 128 163 205 261 323 374
#     4   9  18  36  60  84 113 157 207 247 296 367
#     4  10  20  38  60  88 120 163 211 260 308 368
#     4  12  23  42  67  93 124 169 217 261 307 374
#
# _framework density 27.350887
#
# number of rings (size 3 to 8) (size 9 to 14) (size 15 to 20)
#    0.000    1.333    0.000    9.000    0.000    1.333 
#    0.000    5.000    0.000    0.000    0.000    0.000 
#    0.000    0.000    0.000    0.000    0.000    0.000 
#
# Total GULP energy -133990.483964 kJ/mol
# GULP energy per Si atom -5582.936832 kJ/mol
# Density = 2.728863 g / cm^3
# Si number density = 27.350887 Si / 1000 Ang^3
#
#
#
# Elastic Constant Matrix: (Units=GPa)
#
#
# Indices 1 2 3 4 5 6 
#
# 1 196.2229 19.1139 45.4826 0.0000 22.4619 0.0000
# 2 19.1139 65.4363 8.7540 0.0000 5.5145 0.0000
# 3 45.4826 8.7540 60.1269 0.0000 0.8732 0.0000
# 4 0.0000 0.0000 0.0000 37.8782 0.0000 2.7992
# 5 22.4619 5.5145 0.8732 0.0000 54.3434 0.0000
# 6 0.0000 0.0000 0.0000 2.7992 0.0000 37.5712
#
#
#
# Elastic Compliance Matrix: (Units=1/GPa)
#
#
# Indices 1 2 3 4 5 6 
#
# 1 0.006605 -0.001072 -0.004804 0.000000 -0.002544 0.000000
# 2 -0.001072 0.015891 -0.001486 0.000000 -0.001145 0.000000
# 3 -0.004804 -0.001486 0.020455 0.000000 0.001808 0.000000
# 4 0.000000 0.000000 0.000000 0.026547 0.000000 -0.001978
# 5 -0.002544 -0.001145 0.001808 0.000000 0.019540 0.000000
# 6 0.000000 0.000000 0.000000 -0.001978 0.000000 0.026763
#
#
# Mechanical properties :
#
#
# Convention : Reuss Voigt Hill
#
# Bulk Modulus (GPa) = 35.42602 52.05412 43.74007
# Shear Modulus (GPa) = 35.73118 42.52095 39.12607
#
# Velocity S-wave (km/s) = 3.61834 3.94718 3.78633
# Velocity P-wave (km/s) = 5.51698 6.31244 5.92807
#
# Compressibility (1/GPa) = 0.02822784
#
# Stress axis : x y z
#
# Youngs Moduli (GPa) = 151.39238 62.93047 48.88749
#
# Poissons Ratio (x) = 0.06749 0.23483
# Poissons Ratio (y) = 0.16235 0.07263
# Poissons Ratio (z) = 0.72721 0.09350
#
# Static dielectric constant tensor:
#      x y z
#    x 2.313480 0.000000 -0.081750 
#    y 0.000000 2.365000 0.000000 
#    z -0.081750 0.000000 2.341810 
# 
# From -- ./inp_files/48636.got.cif
#   From: 2010.05.17/outbox.cif.g08.bks.cpg/sg14_25_cif.got.tgz:48636.got - 2010.06.03 17:49:19.
