data_PCOD9243822
_publ_section_title
;
Structure prediction by ZEFSAII (Michael W. Deem and Ramdas Pophale) SiO2 
 PCOD9243822
Probable space group: P 21/C
;
_chemical_formula_sum "Si O2"
_cell_formula_units_Z 32
_cell_length_a 5.297160
_cell_length_b 15.368496
_cell_length_c 16.071295
_cell_angle_alpha 90.000000
_cell_angle_beta 99.465357
_cell_angle_gamma 90.000000
_cell_volume 1290.541237
_symmetry_space_group_name_H-M "P 21/C"
_symmetry_group_IT_number 14
_symmetry_cell_setting 'monoclinic'
loop_
_space_group_symop_operation_xyz
x,y,z
-x,1/2+y,1/2-z
-x,-y,-z
x,1/2-y,1/2+z
loop_
_atom_site_type_symbol
_atom_site_label
_atom_site_fract_x
_atom_site_fract_y
_atom_site_fract_z
Si Si1 0.250456 0.349423 0.154818
Si Si2 0.472185 0.892544 0.628675
Si Si3 0.022081 0.495205 0.900210
Si Si4 0.519403 0.293610 0.026729
Si Si5 0.462192 0.132962 0.939114
Si Si6 0.163893 0.973247 0.926999
Si Si7 0.929509 0.302180 0.665484
Si Si8 0.364225 0.778293 0.204150
O O1 0.003148 0.409793 0.144100
O O2 0.375802 0.365161 0.072630
O O3 0.467033 0.347722 0.235603
O O4 0.176258 0.248060 0.147018
O O5 0.241744 0.951791 0.647689
O O6 0.352597 0.846597 0.540287
O O7 0.521436 0.810236 0.690790
O O8 0.727577 0.943736 0.616872
O O9 0.000000 0.500000 0.000000
O O10 0.708287 0.240434 0.095723
O O11 0.344214 0.220802 0.971694
O O12 0.668476 0.169956 0.884182
O O13 0.263168 0.063217 0.892800
O O14 0.602037 0.080694 0.019834
O O15 0.050779 0.904454 0.854173
O O16 0.000000 0.000000 0.000000
O O17 0.864333 0.262249 0.753211
#
# Coordination Sequence:
#
# PCOD9243822 Si02
#       8
#     4   4   4   4   4   4   4   4
#     4  11  23  39  65  94 133 176 220 274 338 408
#     4  11  25  44  68  99 136 177 229 282 341 413
#     4  12  25  42  72 104 134 173 234 292 337 400
#     4   9  19  39  64  90 126 171 221 277 332 400
#     4   9  20  40  62  90 121 167 215 277 328 407
#     4  10  20  38  67  95 120 158 229 285 330 386
#     4  10  22  39  62  92 131 176 220 278 343 408
#     4  10  25  44  61  90 139 180 221 266 356 420
#
# _framework density 24.7958
#
# number of rings (size 3 to 8) (size 9 to 14) (size 15 to 20)
#    0.000    1.750    1.250    1.875    5.250    3.000 
#    4.500    0.000    0.000    0.000    0.000    0.000 
#    0.000    0.000    0.000    0.000    0.000    0.000 
#
# Total GULP energy -178409.431427 kJ/mol
# GULP energy per Si atom -5575.294732 kJ/mol
# Density = 2.473936 g / cm^3
# Si number density = 24.795800 Si / 1000 Ang^3
#
#
#
# Elastic Constant Matrix: (Units=GPa)
#
#
# Indices 1 2 3 4 5 6 
#
# 1 62.0616 14.2906 1.1340 0.0000 -6.6923 0.0000
# 2 14.2906 102.8599 16.2852 0.0000 -2.2931 0.0000
# 3 1.1340 16.2852 56.5321 0.0000 -15.1993 0.0000
# 4 0.0000 0.0000 0.0000 38.3975 0.0000 -2.6083
# 5 -6.6923 -2.2931 -15.1993 0.0000 24.3117 0.0000
# 6 0.0000 0.0000 0.0000 -2.6083 0.0000 38.4277
#
#
#
# Elastic Compliance Matrix: (Units=1/GPa)
#
#
# Indices 1 2 3 4 5 6 
#
# 1 0.017289 -0.002581 0.001936 0.000000 0.005726 0.000000
# 2 -0.002581 0.010594 -0.003513 0.000000 -0.001907 0.000000
# 3 0.001936 -0.003513 0.022498 0.000000 0.014267 0.000000
# 4 0.000000 0.000000 0.000000 0.026164 0.000000 0.001776
# 5 0.005726 -0.001907 0.014267 0.000000 0.051448 0.000000
# 6 0.000000 0.000000 0.000000 0.001776 0.000000 0.026143
#
#
# Mechanical properties :
#
#
# Convention : Reuss Voigt Hill
#
# Bulk Modulus (GPa) = 23.77193 31.65258 27.71225
# Shear Modulus (GPa) = 28.33262 32.87695 30.60479
#
# Velocity S-wave (km/s) = 3.38396 3.64525 3.51703
# Velocity P-wave (km/s) = 4.98760 5.52360 5.26243
#
# Compressibility (1/GPa) = 0.04206642
#
# Stress axis : x y z
#
# Youngs Moduli (GPa) = 57.83875 94.39123 44.44828
#
# Poissons Ratio (x) = 0.24362 -0.08606
# Poissons Ratio (y) = 0.14928 0.15614
# Poissons Ratio (z) = -0.11199 0.33159
#
# Static dielectric constant tensor:
#      x y z
#    x 1.993060 0.000000 0.019260 
#    y 0.000000 2.020700 0.000000 
#    z 0.019260 0.000000 2.097520 
# 
# From -- ./inp_files/53313.got.cif
#   From: 2010.05.17/outbox.cif.g08.bks.cpg/sg14_27_cif.got.tgz:53313.got - 2010.06.03 17:49:19.
