data_PCOD9243653
_publ_section_title
;
Structure prediction by ZEFSAII (Michael W. Deem and Ramdas Pophale) SiO2 
 PCOD9243653
Probable space group: P 21/C
;
_chemical_formula_sum "Si O2"
_cell_formula_units_Z 32
_cell_length_a 25.440988
_cell_length_b 5.241580
_cell_length_c 12.474814
_cell_angle_alpha 90.000000
_cell_angle_beta 126.611041
_cell_angle_gamma 90.000000
_cell_volume 1335.318674
_symmetry_space_group_name_H-M "P 21/C"
_symmetry_group_IT_number 14
_symmetry_cell_setting 'monoclinic'
loop_
_space_group_symop_operation_xyz
x,y,z
-x,1/2+y,1/2-z
-x,-y,-z
x,1/2-y,1/2+z
loop_
_atom_site_type_symbol
_atom_site_label
_atom_site_fract_x
_atom_site_fract_y
_atom_site_fract_z
Si Si1 0.498365 0.904482 0.685187
Si Si2 0.859641 0.267726 0.678611
Si Si3 0.635028 0.238113 0.595412
Si Si4 0.772731 0.187221 0.228995
Si Si5 0.368786 0.247179 0.770012
Si Si6 0.763959 0.581576 0.948751
Si Si7 0.999292 0.286347 0.323241
Si Si8 0.864341 0.532289 0.467556
O O1 0.498391 0.704360 0.784144
O O2 0.431158 0.843525 0.543418
O O3 0.563019 0.824615 0.699697
O O4 0.820769 0.467661 0.707518
O O5 0.932278 0.212491 0.810108
O O6 0.877920 0.324784 0.576852
O O7 0.799325 0.075046 0.584112
O O8 0.698643 0.280503 0.598282
O O9 0.621037 0.497928 0.643672
O O10 0.654096 0.995309 0.691822
O O11 0.822826 0.416094 0.320836
O O12 0.758503 0.074168 0.329983
O O13 0.309107 0.179683 0.617317
O O14 0.814756 0.793535 0.973857
O O15 0.993828 0.519787 0.231806
O O16 0.066647 0.333030 0.470122
#
# Coordination Sequence:
#
# PCOD9243653 Si02
#       8
#     4   4   4   4   4   4   4   4
#     4  12  26  42  65 101 130 161 213 264 311 377
#     4  10  22  38  62  92 123 169 211 269 320 372
#     4  11  23  44  65  91 128 171 208 257 319 386
#     4  10  23  39  62  94 125 161 219 264 316 377
#     4  11  23  43  69  89 127 175 208 253 326 376
#     4  10  21  40  63  90 125 169 210 263 318 382
#     4  10  20  38  62  89 126 171 212 260 324 382
#     4  10  20  40  61  86 129 166 212 262 319 384
#
# _framework density 23.964317999999999
#
# number of rings (size 3 to 8) (size 9 to 14) (size 15 to 20)
#    0.000    1.500    2.500    2.250    1.750    2.500 
#    0.000    0.625    0.000    0.000    0.000    0.000 
#    0.000    0.000    0.000    0.000    0.000    0.000 
#
# Total GULP energy -178459.966197 kJ/mol
# GULP energy per Si atom -5576.873944 kJ/mol
# Density = 2.390977 g / cm^3
# Si number density = 23.964318 Si / 1000 Ang^3
#
#
#
# Elastic Constant Matrix: (Units=GPa)
#
#
# Indices 1 2 3 4 5 6 
#
# 1 90.0425 -22.6585 46.1928 0.0000 36.3921 0.0000
# 2 -22.6585 65.3868 -6.4320 0.0000 -5.2707 0.0000
# 3 46.1928 -6.4320 78.5226 0.0000 36.1310 0.0000
# 4 0.0000 0.0000 0.0000 26.2321 0.0000 13.7554
# 5 36.3921 -5.2707 36.1310 0.0000 43.1696 0.0000
# 6 0.0000 0.0000 0.0000 13.7554 0.0000 25.0373
#
#
#
# Elastic Compliance Matrix: (Units=1/GPa)
#
#
# Indices 1 2 3 4 5 6 
#
# 1 0.020215 0.005489 -0.006358 0.000000 -0.011050 0.000000
# 2 0.005489 0.016956 -0.001079 0.000000 -0.001654 0.000000
# 3 -0.006358 -0.001079 0.022738 0.000000 -0.013803 0.000000
# 4 0.000000 0.000000 0.000000 0.053548 0.000000 -0.029419
# 5 -0.011050 -0.001654 -0.013803 0.000000 0.043830 0.000000
# 6 0.000000 0.000000 0.000000 -0.029419 0.000000 0.056103
#
#
# Mechanical properties :
#
#
# Convention : Reuss Voigt Hill
#
# Bulk Modulus (GPa) = 17.85300 29.79513 23.82407
# Shear Modulus (GPa) = 21.19038 33.34446 27.26742
#
# Velocity S-wave (km/s) = 2.97686 3.73422 3.37684
# Velocity P-wave (km/s) = 4.39108 5.57249 5.01668
#
# Compressibility (1/GPa) = 0.05601299
#
# Stress axis : x y z
#
# Youngs Moduli (GPa) = 49.46924 58.97538 43.97902
#
# Poissons Ratio (x) = -0.32371 0.27961
# Poissons Ratio (y) = -0.27153 0.04746
# Poissons Ratio (z) = 0.31451 0.06364
#
# Static dielectric constant tensor:
#      x y z
#    x 2.241550 0.000000 -0.278380 
#    y 0.000000 2.057430 0.000000 
#    z -0.278380 0.000000 2.282300 
# 
# From -- ./inp_files/51000.got.cif
#   From: 2010.05.17/outbox.cif.g08.bks.cpg/sg14_26_cif.got.tgz:51000.got - 2010.06.03 17:49:19.
