data_PCOD9243288
_publ_section_title
;
Structure prediction by ZEFSAII (Michael W. Deem and Ramdas Pophale) SiO2 
 PCOD9243288
Probable space group: P 21/C
;
_chemical_formula_sum "Si O2"
_cell_formula_units_Z 20
_cell_length_a 5.377896
_cell_length_b 12.290889
_cell_length_c 11.244409
_cell_angle_alpha 90.000000
_cell_angle_beta 108.604417
_cell_angle_gamma 90.000000
_cell_volume 704.406396
_symmetry_space_group_name_H-M "P 21/C"
_symmetry_group_IT_number 14
_symmetry_cell_setting 'monoclinic'
loop_
_space_group_symop_operation_xyz
x,y,z
-x,1/2+y,1/2-z
-x,-y,-z
x,1/2-y,1/2+z
loop_
_atom_site_type_symbol
_atom_site_label
_atom_site_fract_x
_atom_site_fract_y
_atom_site_fract_z
Si Si1 0.389886 0.276081 0.107596
Si Si2 0.753772 0.116867 0.927405
Si Si3 0.278827 0.944881 0.829807
Si Si4 0.798072 0.466573 0.187756
Si Si5 0.344160 0.211157 0.346292
O O1 0.579815 0.379808 0.113883
O O2 0.237433 0.272668 0.210955
O O3 0.569544 0.169554 0.155238
O O4 0.226203 0.266455 0.960753
O O5 0.494992 0.037806 0.881787
O O6 0.885607 0.091936 0.823532
O O7 0.630723 0.235995 0.907070
O O8 0.119851 0.915989 0.929023
O O9 0.084265 0.984235 0.695355
O O10 0.346817 0.417429 0.825844
#
# Coordination Sequence:
#
# PCOD9243288 Si02
#       5
#     4   4   4   4   4
#     4  10  22  41  60  90 125 159 201 253 305 361
#     4   9  20  38  58  84 123 160 200 248 299 356
#     4  10  20  37  60  87 119 161 205 244 298 367
#     4  11  21  36  64  88 120 160 206 247 306 358
#     4  10  21  40  63  85 126 162 196 252 309 354
#
# _framework density 28.392702
#
# number of rings (size 3 to 8) (size 9 to 14) (size 15 to 20)
#    0.000    2.000    2.000    1.200    2.800    0.000 
#    0.000    3.000    0.000    0.000    0.000    0.000 
#    0.000    0.000    0.000    0.000    0.000    0.000 
#
# Total GULP energy -111493.067028 kJ/mol
# GULP energy per Si atom -5574.653351 kJ/mol
# Density = 2.832808 g / cm^3
# Si number density = 28.392702 Si / 1000 Ang^3
#
#
#
# Elastic Constant Matrix: (Units=GPa)
#
#
# Indices 1 2 3 4 5 6 
#
# 1 78.1340 40.9456 23.8018 0.0000 12.9090 0.0000
# 2 40.9456 225.5527 39.1034 0.0000 27.7970 0.0000
# 3 23.8018 39.1034 158.3898 0.0000 -21.2658 0.0000
# 4 0.0000 0.0000 0.0000 42.9353 0.0000 18.5052
# 5 12.9090 27.7970 -21.2658 0.0000 41.1589 0.0000
# 6 0.0000 0.0000 0.0000 18.5052 0.0000 43.2346
#
#
#
# Elastic Compliance Matrix: (Units=1/GPa)
#
#
# Indices 1 2 3 4 5 6 
#
# 1 0.015292 -0.001728 -0.002534 0.000000 -0.004939 0.000000
# 2 -0.001728 0.005532 -0.001649 0.000000 -0.004046 0.000000
# 3 -0.002534 -0.001649 0.007906 0.000000 0.005994 0.000000
# 4 0.000000 0.000000 0.000000 0.028559 0.000000 -0.012224
# 5 -0.004939 -0.004046 0.005994 0.000000 0.031674 0.000000
# 6 0.000000 0.000000 0.000000 -0.012224 0.000000 0.028362
#
#
# Mechanical properties :
#
#
# Convention : Reuss Voigt Hill
#
# Bulk Modulus (GPa) = 59.14800 74.41979 66.78389
# Shear Modulus (GPa) = 37.09615 49.34747 43.22181
#
# Velocity S-wave (km/s) = 3.61853 4.17350 3.90588
# Velocity P-wave (km/s) = 6.19158 7.03505 6.62675
#
# Compressibility (1/GPa) = 0.01690674
#
# Stress axis : x y z
#
# Youngs Moduli (GPa) = 65.39325 180.77245 126.48124
#
# Poissons Ratio (x) = 0.31238 0.32056
# Poissons Ratio (y) = 0.11300 0.20860
# Poissons Ratio (z) = 0.16574 0.29814
#
# Static dielectric constant tensor:
#      x y z
#    x 2.380930 0.000000 -0.217590 
#    y 0.000000 2.215250 0.000000 
#    z -0.217590 0.000000 2.405590 
# 
# From -- ./inp_files/20878.got.cif
#   From: 2010.05.17/outbox.cif.g08.bks.cpg/sg14_11_cif.got.tgz:20878.got - 2010.06.03 17:49:19.
