data_PCOD9243038
_publ_section_title
;
Structure prediction by ZEFSAII (Michael W. Deem and Ramdas Pophale) SiO2 
 PCOD9243038
Probable space group: P 21/C
;
_chemical_formula_sum "Si O2"
_cell_formula_units_Z 28
_cell_length_a 7.439980
_cell_length_b 10.132738
_cell_length_c 14.854415
_cell_angle_alpha 90.000000
_cell_angle_beta 93.192468
_cell_angle_gamma 90.000000
_cell_volume 1118.097372
_symmetry_space_group_name_H-M "P 21/C"
_symmetry_group_IT_number 14
_symmetry_cell_setting 'monoclinic'
loop_
_space_group_symop_operation_xyz
x,y,z
-x,1/2+y,1/2-z
-x,-y,-z
x,1/2-y,1/2+z
loop_
_atom_site_type_symbol
_atom_site_label
_atom_site_fract_x
_atom_site_fract_y
_atom_site_fract_z
Si Si1 0.700905 0.713688 0.722735
Si Si2 0.227353 0.596750 0.608759
Si Si3 0.566180 0.789125 0.024068
Si Si4 0.531390 0.504352 0.222153
Si Si5 0.699546 0.992408 0.547474
Si Si6 0.053171 0.841217 0.558806
Si Si7 0.871398 0.824906 0.895963
O O1 0.692413 0.682481 0.615402
O O2 0.652548 0.573722 0.767330
O O3 0.852911 0.773215 0.793611
O O4 0.551831 0.836043 0.721074
O O5 0.373928 0.641135 0.535668
O O6 0.347991 0.547600 0.693262
O O7 0.121072 0.729470 0.626350
O O8 0.083991 0.478967 0.593502
O O9 0.567683 0.629239 0.019558
O O10 0.671872 0.827423 0.937267
O O11 0.618683 0.445790 0.134212
O O12 0.885434 0.923273 0.588453
O O13 0.782276 0.067050 0.465200
O O14 0.988737 0.767035 0.464697
#
# Coordination Sequence:
#
# PCOD9243038 Si02
#       7
#     4   4   4   4   4   4   4
#     4   9  19  37  59  85 119 144 197 245 283 349
#     4  10  20  36  61  85 118 145 198 240 291 354
#     4   9  19  37  60  85 111 152 192 246 290 327
#     4   9  19  39  58  86 116 150 191 247 289 335
#     4   9  20  40  55  78 120 149 198 233 284 348
#     4  10  21  38  56  84 117 155 194 233 288 356
#     4  10  20  37  60  84 120 155 185 242 299 346
#
# _framework density 25.042543999999999
#
# number of rings (size 3 to 8) (size 9 to 14) (size 15 to 20)
#    0.000    2.571    0.000    0.857    2.000    0.571 
#   30.857    0.000    0.000    0.000    0.000    0.000 
#    0.000    0.000    0.000    0.000    0.000    0.000 
#
# Total GULP energy -156173.186978 kJ/mol
# GULP energy per Si atom -5577.613821 kJ/mol
# Density = 2.498555 g / cm^3
# Si number density = 25.042544 Si / 1000 Ang^3
#
#
#
# Elastic Constant Matrix: (Units=GPa)
#
#
# Indices 1 2 3 4 5 6 
#
# 1 57.5352 -16.3199 10.4525 0.0000 5.0914 0.0000
# 2 -16.3199 59.7220 3.3511 0.0000 9.4911 0.0000
# 3 10.4525 3.3511 107.5463 0.0000 2.4956 0.0000
# 4 0.0000 0.0000 0.0000 23.9364 0.0000 -4.4620
# 5 5.0914 9.4911 2.4956 0.0000 18.5137 0.0000
# 6 0.0000 0.0000 0.0000 -4.4620 0.0000 35.3430
#
#
#
# Elastic Compliance Matrix: (Units=1/GPa)
#
#
# Indices 1 2 3 4 5 6 
#
# 1 0.020586 0.007180 -0.002014 0.000000 -0.009071 0.000000
# 2 0.007180 0.020747 -0.001055 0.000000 -0.012468 0.000000
# 3 -0.002014 -0.001055 0.009531 0.000000 -0.000190 0.000000
# 4 0.000000 0.000000 0.000000 0.042784 0.000000 0.005402
# 5 -0.009071 -0.012468 -0.000190 0.000000 0.062926 0.000000
# 6 0.000000 0.000000 0.000000 0.005402 0.000000 0.028976
#
#
# Mechanical properties :
#
#
# Convention : Reuss Voigt Hill
#
# Bulk Modulus (GPa) = 16.92451 24.41901 20.67176
# Shear Modulus (GPa) = 25.37762 30.71327 28.04544
#
# Velocity S-wave (km/s) = 3.18682 3.50586 3.35014
# Velocity P-wave (km/s) = 4.50711 5.11471 4.82049
#
# Compressibility (1/GPa) = 0.05908592
#
# Stress axis : x y z
#
# Youngs Moduli (GPa) = 48.57720 48.19991 104.91701
#
# Poissons Ratio (x) = -0.34607 0.21130
# Poissons Ratio (y) = -0.34878 0.11068
# Poissons Ratio (z) = 0.09783 0.05085
#
# Static dielectric constant tensor:
#      x y z
#    x 2.089080 0.000000 0.021560 
#    y 0.000000 2.179190 0.000000 
#    z 0.021560 0.000000 1.955500 
# 
# From -- ./inp_files/39724.got.cif
#   From: 2010.05.17/outbox.cif.g08.bks.cpg/sg14_20_cif.got.tgz:39724.got - 2010.06.03 17:49:19.
