data_PCOD9243301
_publ_section_title
;
Structure prediction by ZEFSAII (Michael W. Deem and Ramdas Pophale) SiO2 
 PCOD9243301
Probable space group: P 21/C
;
_chemical_formula_sum "Si O2"
_cell_formula_units_Z 28
_cell_length_a 11.167462
_cell_length_b 5.182891
_cell_length_c 24.290789
_cell_angle_alpha 90.000000
_cell_angle_beta 106.959641
_cell_angle_gamma 90.000000
_cell_volume 1344.800637
_symmetry_space_group_name_H-M "P 21/C"
_symmetry_group_IT_number 14
_symmetry_cell_setting 'monoclinic'
loop_
_space_group_symop_operation_xyz
x,y,z
-x,1/2+y,1/2-z
-x,-y,-z
x,1/2-y,1/2+z
loop_
_atom_site_type_symbol
_atom_site_label
_atom_site_fract_x
_atom_site_fract_y
_atom_site_fract_z
Si Si1 0.072799 0.690035 0.277459
Si Si2 0.521887 0.235365 0.825416
Si Si3 0.144297 0.921356 0.908294
Si Si4 0.640267 0.263166 0.223700
Si Si5 0.883459 0.583426 0.020546
Si Si6 0.417627 0.809901 0.953741
Si Si7 0.627125 0.492390 0.942453
O O1 0.077219 0.593561 0.341110
O O2 0.215027 0.734338 0.274695
O O3 0.001661 0.460155 0.236052
O O4 0.442804 0.973732 0.810387
O O5 0.617943 0.245844 0.786835
O O6 0.598365 0.281123 0.892197
O O7 0.421861 0.467549 0.803771
O O8 0.293264 0.944792 0.915753
O O9 0.129297 0.651190 0.937846
O O10 0.105801 0.153597 0.943273
O O11 0.765547 0.608801 0.962472
O O12 0.000000 0.500000 0.000000
O O13 0.510453 0.684927 0.922811
O O14 0.379229 0.605311 0.995354
O O15 0.500000 0.000000 0.000000
#
# Coordination Sequence:
#
# PCOD9243301 Si02
#       7
#     4   4   4   4   4   4   4
#     4  12  26  43  67  94 127 174 223 261 315 383
#     4  10  22  39  65  91 124 168 202 271 320 371
#     4  11  24  42  66  91 129 167 208 270 316 363
#     4  10  23  43  61  92 127 159 218 263 320 365
#     4  11  24  43  62  93 131 168 208 252 316 390
#     4  10  20  37  60  94 123 152 202 258 310 374
#     4  10  22  34  61  94 122 161 206 247 320 378
#
# _framework density 20.820929
#
# number of rings (size 3 to 8) (size 9 to 14) (size 15 to 20)
#    0.000    1.429    1.429    3.000    4.000    2.286 
#    0.000    0.000    0.000    0.000    0.000    0.000 
#    0.000    0.000    0.000    0.000    0.000    0.000 
#
# Total GULP energy -156302.969599 kJ/mol
# GULP energy per Si atom -5582.248914 kJ/mol
# Density = 2.077354 g / cm^3
# Si number density = 20.820929 Si / 1000 Ang^3
#
#
#
# Elastic Constant Matrix: (Units=GPa)
#
#
# Indices 1 2 3 4 5 6 
#
# 1 -199.3867 -156.9443 139.8995 0.0000 -30.6131 0.0000
# 2 -156.9443 8.4835 72.8528 0.0000 -16.0298 0.0000
# 3 139.8995 72.8528 49.4858 0.0000 8.9315 0.0000
# 4 0.0000 0.0000 0.0000 36.2903 0.0000 -0.8691
# 5 -30.6131 -16.0298 8.9315 0.0000 10.9244 0.0000
# 6 0.0000 0.0000 0.0000 -0.8691 0.0000 12.2944
#
#
#
# Elastic Compliance Matrix: (Units=1/GPa)
#
#
# Indices 1 2 3 4 5 6 
#
# 1 0.001691 -0.004782 0.003134 0.000000 -0.004841 0.000000
# 2 -0.004782 0.008267 0.001850 0.000000 -0.002782 0.000000
# 3 0.003134 0.001850 0.007683 0.000000 0.005215 0.000000
# 4 0.000000 0.000000 0.000000 0.027602 0.000000 0.001951
# 5 -0.004841 -0.002782 0.005215 0.000000 0.069626 0.000000
# 6 0.000000 0.000000 0.000000 0.001951 0.000000 0.081476
#
#
# Mechanical properties :
#
#
# Convention : Reuss Voigt Hill
#
# Bulk Modulus (GPa) = 55.41662 -3.31125 26.05268
# Shear Modulus (GPa) = 24.75785 -1.24655 11.75565
#
# Velocity S-wave (km/s) = 3.45205 -0.77460 2.37872
# Velocity P-wave (km/s) = 6.52399 1.54719 4.48156
#
# Compressibility (1/GPa) = 0.01804513
#
# Stress axis : x y z
#
# Youngs Moduli (GPa) = 591.47781 120.96448 130.15458
#
# Poissons Ratio (x) = 0.57843 -0.40788
# Poissons Ratio (y) = 2.82834 -0.24081
# Poissons Ratio (z) = -1.85360 -0.22380
#
# Static dielectric constant tensor:
#      x y z
#    x 1.595550 0.000000 0.227530 
#    y 0.000000 1.677800 0.000000 
#    z 0.227530 0.000000 1.474600 
# 
# From -- ./inp_files/66329.got.cif
#   From: 2010.05.17/outbox.cif.g08.bks.cpg/sg14_34_cif.got.tgz:66329.got - 2010.06.03 17:49:19.
