data_PCOD9243543
_publ_section_title
;
Structure prediction by ZEFSAII (Michael W. Deem and Ramdas Pophale) SiO2 
 PCOD9243543
Probable space group: P 21/C
;
_chemical_formula_sum "Si O2"
_cell_formula_units_Z 28
_cell_length_a 20.958777
_cell_length_b 9.024829
_cell_length_c 13.919758
_cell_angle_alpha 90.000000
_cell_angle_beta 31.229172
_cell_angle_gamma 90.000000
_cell_volume 1365.066819
_symmetry_space_group_name_H-M "P 21/C"
_symmetry_group_IT_number 14
_symmetry_cell_setting 'monoclinic'
loop_
_space_group_symop_operation_xyz
x,y,z
-x,1/2+y,1/2-z
-x,-y,-z
x,1/2-y,1/2+z
loop_
_atom_site_type_symbol
_atom_site_label
_atom_site_fract_x
_atom_site_fract_y
_atom_site_fract_z
Si Si1 0.793138 0.560978 0.413452
Si Si2 0.285761 0.175412 0.168194
Si Si3 0.254307 0.121702 0.436744
Si Si4 0.035997 0.905387 0.704683
Si Si5 0.240241 0.829450 0.883731
Si Si6 0.887490 0.939340 0.082084
Si Si7 0.552381 0.105026 0.849516
O O1 0.763231 0.548755 0.340122
O O2 0.742574 0.720104 0.515900
O O3 0.737479 0.436065 0.553785
O O4 0.938978 0.558065 0.246363
O O5 0.267540 0.144323 0.304565
O O6 0.202008 0.319285 0.255115
O O7 0.432076 0.182997 0.960398
O O8 0.123046 0.042727 0.620694
O O9 0.361383 0.003189 0.325825
O O10 0.125639 0.775143 0.557968
O O11 0.952274 0.868609 0.904442
O O12 0.357620 0.726200 0.720166
O O13 0.198094 0.929586 0.849105
O O14 0.000000 0.000000 0.000000
O O15 0.500000 0.000000 0.000000
#
# Coordination Sequence:
#
# PCOD9243543 Si02
#       7
#     4   4   4   4   4   4   4
#     4  11  21  36  62  91 120 159 206 250 318 357
#     4  11  22  38  61  89 120 162 207 252 303 366
#     4  10  20  41  60  83 123 166 193 262 302 363
#     4  10  20  38  60  84 129 156 196 255 316 360
#     4  10  21  40  62  88 122 165 203 254 307 366
#     4  11  22  37  61  96 124 157 204 253 316 372
#     4   9  22  42  62  85 122 164 210 246 310 356
#
# _framework density 20.511816
#
# number of rings (size 3 to 8) (size 9 to 14) (size 15 to 20)
#    0.000    1.714    2.857    3.429    0.000    2.286 
#    7.714    0.000    0.000    0.000    0.000    0.000 
#    0.000    0.000    0.000    0.000    0.000    0.000 
#
# Total GULP energy -156271.810395 kJ/mol
# GULP energy per Si atom -5581.136086 kJ/mol
# Density = 2.046513 g / cm^3
# Si number density = 20.511816 Si / 1000 Ang^3
#
#
#
# Elastic Constant Matrix: (Units=GPa)
#
#
# Indices 1 2 3 4 5 6 
#
# 1 61.5509 8.2407 29.9609 0.0000 -10.7232 0.0000
# 2 8.2407 78.8180 35.0084 0.0000 -12.4737 0.0000
# 3 29.9609 35.0084 102.0239 0.0000 -33.9323 0.0000
# 4 0.0000 0.0000 0.0000 39.6722 0.0000 -9.4985
# 5 -10.7232 -12.4737 -33.9323 0.0000 33.3521 0.0000
# 6 0.0000 0.0000 0.0000 -9.4985 0.0000 20.2129
#
#
#
# Elastic Compliance Matrix: (Units=1/GPa)
#
#
# Indices 1 2 3 4 5 6 
#
# 1 0.018989 0.000588 -0.005554 0.000000 0.000675 0.000000
# 2 0.000588 0.014994 -0.005123 0.000000 0.000584 0.000000
# 3 -0.005554 -0.005123 0.018076 0.000000 0.014689 0.000000
# 4 0.000000 0.000000 0.000000 0.028402 0.000000 0.013347
# 5 0.000675 0.000584 0.014689 0.000000 0.045363 0.000000
# 6 0.000000 0.000000 0.000000 0.013347 0.000000 0.055746
#
#
# Mechanical properties :
#
#
# Convention : Reuss Voigt Hill
#
# Bulk Modulus (GPa) = 31.36676 43.20144 37.28410
# Shear Modulus (GPa) = 23.54332 29.92627 26.73480
#
# Velocity S-wave (km/s) = 3.39159 3.82380 3.61416
# Velocity P-wave (km/s) = 5.53736 6.37203 5.96930
#
# Compressibility (1/GPa) = 0.03188088
#
# Stress axis : x y z
#
# Youngs Moduli (GPa) = 52.66230 66.69283 55.32213
#
# Poissons Ratio (x) = -0.03923 0.30725
# Poissons Ratio (y) = -0.03098 0.28344
# Poissons Ratio (z) = 0.29248 0.34170
#
# Static dielectric constant tensor:
#      x y z
#    x 1.774920 0.000000 -0.002680 
#    y 0.000000 1.765700 0.000000 
#    z -0.002680 0.000000 1.732450 
# 
# From -- ./inp_files/50045.got.cif
#   From: 2010.05.17/outbox.cif.g08.bks.cpg/sg14_26_cif.got.tgz:50045.got - 2010.06.03 17:49:19.
