data_PCOD9243068
_publ_section_title
;
Structure prediction by ZEFSAII (Michael W. Deem and Ramdas Pophale) SiO2 
 PCOD9243068
Probable space group: P 21/C
;
_chemical_formula_sum "Si O2"
_cell_formula_units_Z 20
_cell_length_a 11.389050
_cell_length_b 13.315061
_cell_length_c 5.617943
_cell_angle_alpha 90.000000
_cell_angle_beta 93.432386
_cell_angle_gamma 90.000000
_cell_volume 850.409745
_symmetry_space_group_name_H-M "P 21/C"
_symmetry_group_IT_number 14
_symmetry_cell_setting 'monoclinic'
loop_
_space_group_symop_operation_xyz
x,y,z
-x,1/2+y,1/2-z
-x,-y,-z
x,1/2-y,1/2+z
loop_
_atom_site_type_symbol
_atom_site_label
_atom_site_fract_x
_atom_site_fract_y
_atom_site_fract_z
Si Si1 0.495370 0.298362 0.912003
Si Si2 0.257844 0.376391 0.991832
Si Si3 0.607791 0.472123 0.680390
Si Si4 0.035707 0.085910 0.694677
Si Si5 0.182122 0.541996 0.597660
O O1 0.530171 0.243528 0.671939
O O2 0.352524 0.303694 0.886158
O O3 0.556094 0.405845 0.885413
O O4 0.231714 0.466642 0.803853
O O5 0.331440 0.428175 0.212777
O O6 0.130668 0.342102 0.076691
O O7 0.500000 0.500000 0.500000
O O8 0.709212 0.416694 0.540365
O O9 0.911639 0.118308 0.794618
O O10 0.000000 0.000000 0.500000
O O11 0.107917 0.028417 0.908590
#
# Coordination Sequence:
#
# PCOD9243068 Si02
#       5
#     4   4   4   4   4
#     4  12  27  40  57  89 131 167 201 254 317 373
#     4  10  20  36  62  85 118 157 211 253 301 359
#     4  11  21  37  62  88 119 162 211 249 299 366
#     4   8  16  31  54  93 112 141 189 267 299 343
#     4   9  17  31  60  88 115 143 202 257 295 344
#
# _framework density 23.518075
#
# number of rings (size 3 to 8) (size 9 to 14) (size 15 to 20)
#    0.000    2.000    2.000    1.800    5.600    0.000 
#    0.000    0.000    0.000    2.400    0.000    0.000 
#    0.000    0.000    0.000    0.000    0.000    0.000 
#
# Total GULP energy -111640.557563 kJ/mol
# GULP energy per Si atom -5582.027878 kJ/mol
# Density = 2.346455 g / cm^3
# Si number density = 23.518075 Si / 1000 Ang^3
#
#
#
# Elastic Constant Matrix: (Units=GPa)
#
#
# Indices 1 2 3 4 5 6 
#
# 1 132.5107 22.8502 52.6016 0.0000 -31.4996 0.0000
# 2 22.8502 36.9733 22.9068 0.0000 -15.4024 0.0000
# 3 52.6016 22.9068 111.4487 0.0000 -5.3498 0.0000
# 4 0.0000 0.0000 0.0000 35.5948 0.0000 -11.4505
# 5 -31.4996 -15.4024 -5.3498 0.0000 65.3693 0.0000
# 6 0.0000 0.0000 0.0000 -11.4505 0.0000 22.8235
#
#
#
# Elastic Compliance Matrix: (Units=1/GPa)
#
#
# Indices 1 2 3 4 5 6 
#
# 1 0.010674 -0.002080 -0.004404 0.000000 0.004293 0.000000
# 2 -0.002080 0.034742 -0.005837 0.000000 0.006706 0.000000
# 3 -0.004404 -0.005837 0.012131 0.000000 -0.002505 0.000000
# 4 0.000000 0.000000 0.000000 0.033501 0.000000 0.016807
# 5 0.004293 0.006706 -0.002505 0.000000 0.018742 0.000000
# 6 0.000000 0.000000 0.000000 0.016807 0.000000 0.052247
#
#
# Mechanical properties :
#
#
# Convention : Reuss Voigt Hill
#
# Bulk Modulus (GPa) = 30.39107 53.07221 41.73164
# Shear Modulus (GPa) = 25.29766 36.92913 31.11339
#
# Velocity S-wave (km/s) = 3.28330 3.96693 3.64119
# Velocity P-wave (km/s) = 5.22722 6.60285 5.95489
#
# Compressibility (1/GPa) = 0.03290440
#
# Stress axis : x y z
#
# Youngs Moduli (GPa) = 93.68488 28.78370 82.43287
#
# Poissons Ratio (x) = 0.05986 0.36307
# Poissons Ratio (y) = 0.19482 0.48119
# Poissons Ratio (z) = 0.41263 0.16802
#
# Static dielectric constant tensor:
#      x y z
#    x 1.804390 0.000000 -0.390860 
#    y 0.000000 1.946100 0.000000 
#    z -0.390860 0.000000 1.280670 
# 
# From -- ./inp_files/2467.got.cif
#   From: 2010.05.17/outbox.cif.g08.bks.cpg/sg14_2_cif.got.tgz:2467.got - 2010.06.03 17:49:19.
