data_PCOD9243742
_publ_section_title
;
Structure prediction by ZEFSAII (Michael W. Deem and Ramdas Pophale) SiO2 
 PCOD9243742
Probable space group: P 21/C
;
_chemical_formula_sum "Si O2"
_cell_formula_units_Z 24
_cell_length_a 11.932725
_cell_length_b 9.422829
_cell_length_c 21.430963
_cell_angle_alpha 90.000000
_cell_angle_beta 157.523353
_cell_angle_gamma 90.000000
_cell_volume 921.244050
_symmetry_space_group_name_H-M "P 21/C"
_symmetry_group_IT_number 14
_symmetry_cell_setting 'monoclinic'
loop_
_space_group_symop_operation_xyz
x,y,z
-x,1/2+y,1/2-z
-x,-y,-z
x,1/2-y,1/2+z
loop_
_atom_site_type_symbol
_atom_site_label
_atom_site_fract_x
_atom_site_fract_y
_atom_site_fract_z
Si Si1 0.554461 0.501569 0.953701
Si Si2 0.693801 0.678469 0.275499
Si Si3 0.837931 0.346697 0.913535
Si Si4 0.898427 0.325155 0.802364
Si Si5 0.955271 0.230729 0.705457
Si Si6 0.486147 0.398224 0.416857
O O1 0.794783 0.373211 0.075282
O O2 0.763292 0.626596 0.035964
O O3 0.500000 0.500000 0.000000
O O4 0.317815 0.446820 0.781934
O O5 0.483999 0.635583 0.224236
O O6 0.566819 0.819117 0.175580
O O7 0.001976 0.231551 0.040685
O O8 0.850608 0.292655 0.849318
O O9 0.000000 0.500000 0.000000
O O10 0.867369 0.208938 0.732214
O O11 0.662625 0.449087 0.665111
O O12 0.815735 0.382053 0.612946
O O13 0.291126 0.197668 0.864611
#
# Coordination Sequence:
#
# PCOD9243742 Si02
#       6
#     4   4   4   4   4   4
#     4  10  21  38  67  95 132 165 219 281 337 397
#     4  11  22  42  69  93 127 181 223 270 343 389
#     4  12  24  45  69  93 137 181 228 276 328 407
#     4  11  21  39  64  92 134 175 219 273 337 394
#     4  10  21  36  62  97 126 168 216 275 342 393
#     4  10  20  38  64  91 127 174 215 277 337 400
#
# _framework density 26.051728000000001
#
# number of rings (size 3 to 8) (size 9 to 14) (size 15 to 20)
#    0.000    1.333    3.333    4.500    0.000    2.667 
#    0.000    0.833    0.000    0.000    0.000    0.000 
#    0.000    0.000    0.000    0.000    0.000    0.000 
#
# Total GULP energy -134184.105473 kJ/mol
# GULP energy per Si atom -5591.004395 kJ/mol
# Density = 2.599243 g / cm^3
# Si number density = 26.051728 Si / 1000 Ang^3
#
#
#
# Elastic Constant Matrix: (Units=GPa)
#
#
# Indices 1 2 3 4 5 6 
#
# 1 192.5841 10.4061 40.1222 0.0000 -5.9458 0.0000
# 2 10.4061 56.0542 22.9751 0.0000 -13.9911 0.0000
# 3 40.1222 22.9751 92.0847 0.0000 -10.5097 0.0000
# 4 0.0000 0.0000 0.0000 35.5760 0.0000 -7.9764
# 5 -5.9458 -13.9911 -10.5097 0.0000 46.3693 0.0000
# 6 0.0000 0.0000 0.0000 -7.9764 0.0000 41.1022
#
#
#
# Elastic Compliance Matrix: (Units=1/GPa)
#
#
# Indices 1 2 3 4 5 6 
#
# 1 0.005712 -0.000006 -0.002468 0.000000 0.000171 0.000000
# 2 -0.000006 0.021070 -0.004649 0.000000 0.005303 0.000000
# 3 -0.002468 -0.004649 0.013241 0.000000 0.001282 0.000000
# 4 0.000000 0.000000 0.000000 0.029388 0.000000 0.005703
# 5 0.000171 0.005303 0.001282 0.000000 0.023479 0.000000
# 6 0.000000 0.000000 0.000000 0.005703 0.000000 0.025436
#
#
# Mechanical properties :
#
#
# Convention : Reuss Voigt Hill
#
# Bulk Modulus (GPa) = 38.79373 54.19222 46.49297
# Shear Modulus (GPa) = 35.41966 42.42413 38.92189
#
# Velocity S-wave (km/s) = 3.69126 4.03979 3.86945
# Velocity P-wave (km/s) = 5.75244 6.52739 6.15213
#
# Compressibility (1/GPa) = 0.02577736
#
# Stress axis : x y z
#
# Youngs Moduli (GPa) = 175.06103 47.46050 75.52274
#
# Poissons Ratio (x) = 0.00030 0.18638
# Poissons Ratio (y) = 0.00109 0.35111
# Poissons Ratio (z) = 0.43202 0.22065
#
# Static dielectric constant tensor:
#      x y z
#    x 2.040230 0.000000 0.072330 
#    y 0.000000 2.166280 0.000000 
#    z 0.072330 0.000000 2.129760 
# 
# From -- ./inp_files/73219.got.cif
#   From: 2010.05.17/outbox.cif.g08.bks.cpg/sg14_37_cif.got.tgz:73219.got - 2010.06.03 17:49:19.
