data_PCOD9243268
_publ_section_title
;
Structure prediction by ZEFSAII (Michael W. Deem and Ramdas Pophale) SiO2 
 PCOD9243268
Probable space group: P 21/C
;
_chemical_formula_sum "Si O2"
_cell_formula_units_Z 20
_cell_length_a 11.454369
_cell_length_b 7.601448
_cell_length_c 16.628367
_cell_angle_alpha 90.000000
_cell_angle_beta 146.772897
_cell_angle_gamma 90.000000
_cell_volume 793.350592
_symmetry_space_group_name_H-M "P 21/C"
_symmetry_group_IT_number 14
_symmetry_cell_setting 'monoclinic'
loop_
_space_group_symop_operation_xyz
x,y,z
-x,1/2+y,1/2-z
-x,-y,-z
x,1/2-y,1/2+z
loop_
_atom_site_type_symbol
_atom_site_label
_atom_site_fract_x
_atom_site_fract_y
_atom_site_fract_z
Si Si1 0.237569 0.697578 0.246784
Si Si2 0.208943 0.388268 0.963593
Si Si3 0.515529 0.949535 0.221194
Si Si4 0.087896 0.477961 0.416352
Si Si5 0.334538 0.754095 0.475052
O O1 0.359964 0.617282 0.242953
O O2 0.374168 0.697492 0.407052
O O3 0.030000 0.575775 0.142252
O O4 0.131636 0.892830 0.181232
O O5 0.187118 0.186903 0.923300
O O6 0.360831 0.397082 0.128584
O O7 0.289565 0.539325 0.952022
O O8 0.502236 0.808885 0.139442
O O9 0.265269 0.993413 0.087645
O O10 0.118903 0.650829 0.380845
#
# Coordination Sequence:
#
# PCOD9243268 Si02
#       5
#     4   4   4   4   4
#     4  10  20  38  59  84 113 148 186 231 278 330
#     4  10  20  37  60  80 115 149 182 230 282 325
#     4  10  20  38  59  84 113 148 186 231 278 330
#     4   8  22  32  60  78 116 140 186 228 272 328
#     4  10  20  37  60  80 115 149 182 230 282 325
#
# _framework density 25.209536
#
# number of rings (size 3 to 8) (size 9 to 14) (size 15 to 20)
#    2.400    0.000    0.000    3.600    0.000    0.000 
#    0.000    4.000    0.000    0.000    0.000    0.000 
#    0.000    0.000    0.000    0.000    0.000    0.000 
#
# Total GULP energy -111475.754897 kJ/mol
# GULP energy per Si atom -5573.787745 kJ/mol
# Density = 2.515216 g / cm^3
# Si number density = 25.209536 Si / 1000 Ang^3
#
#
#
# Elastic Constant Matrix: (Units=GPa)
#
#
# Indices 1 2 3 4 5 6 
#
# 1 50.2197 9.4563 10.7911 0.0000 9.2317 0.0000
# 2 9.4563 84.9194 18.1949 0.0000 -10.0956 0.0000
# 3 10.7911 18.1949 103.4688 0.0000 -5.8460 0.0000
# 4 0.0000 0.0000 0.0000 33.0771 0.0000 8.5172
# 5 9.2317 -10.0956 -5.8460 0.0000 16.3211 0.0000
# 6 0.0000 0.0000 0.0000 8.5172 0.0000 26.9064
#
#
#
# Elastic Compliance Matrix: (Units=1/GPa)
#
#
# Indices 1 2 3 4 5 6 
#
# 1 0.024520 -0.004207 -0.002805 0.000000 -0.017476 0.000000
# 2 -0.004207 0.013780 -0.001397 0.000000 0.010403 0.000000
# 3 -0.002805 -0.001397 0.010455 0.000000 0.004468 0.000000
# 4 0.000000 0.000000 0.000000 0.032915 0.000000 -0.010419
# 5 -0.017476 0.010403 0.004468 0.000000 0.079191 0.000000
# 6 0.000000 0.000000 0.000000 -0.010419 0.000000 0.040464
#
#
# Mechanical properties :
#
#
# Convention : Reuss Voigt Hill
#
# Bulk Modulus (GPa) = 31.31034 35.05470 33.18252
# Shear Modulus (GPa) = 21.85415 28.60529 25.22972
#
# Velocity S-wave (km/s) = 2.94751 3.37219 3.16698
# Velocity P-wave (km/s) = 4.90212 5.39423 5.15405
#
# Compressibility (1/GPa) = 0.03193833
#
# Stress axis : x y z
#
# Youngs Moduli (GPa) = 40.78308 72.56667 95.64524
#
# Poissons Ratio (x) = 0.30530 0.26827
# Poissons Ratio (y) = 0.17158 0.13359
# Poissons Ratio (z) = 0.11439 0.10135
#
# Static dielectric constant tensor:
#      x y z
#    x 1.946560 0.000000 0.031360 
#    y 0.000000 2.024620 0.000000 
#    z 0.031360 0.000000 2.026620 
# 
# From -- ./inp_files/58822.got.cif
#   From: 2010.05.17/outbox.cif.g08.bks.cpg/sg14_30_cif.got.tgz:58822.got - 2010.06.03 17:49:19.
