data_PCOD9243805
_publ_section_title
;
Structure prediction by ZEFSAII (Michael W. Deem and Ramdas Pophale) SiO2 
 PCOD9243805
Probable space group: P 21/C
;
_chemical_formula_sum "Si O2"
_cell_formula_units_Z 24
_cell_length_a 8.052708
_cell_length_b 15.176582
_cell_length_c 8.926126
_cell_angle_alpha 90.000000
_cell_angle_beta 89.124554
_cell_angle_gamma 90.000000
_cell_volume 1090.757580
_symmetry_space_group_name_H-M "P 21/C"
_symmetry_group_IT_number 14
_symmetry_cell_setting 'monoclinic'
loop_
_space_group_symop_operation_xyz
x,y,z
-x,1/2+y,1/2-z
-x,-y,-z
x,1/2-y,1/2+z
loop_
_atom_site_type_symbol
_atom_site_label
_atom_site_fract_x
_atom_site_fract_y
_atom_site_fract_z
Si Si1 0.119040 0.584780 0.171972
Si Si2 0.546092 0.666937 0.801417
Si Si3 0.349242 0.758991 0.574060
Si Si4 0.253949 0.925183 0.975653
Si Si5 0.425847 0.473736 0.709803
Si Si6 0.222103 0.410530 0.986768
O O1 0.241766 0.667487 0.157108
O O2 0.122091 0.558837 0.346800
O O3 0.943953 0.610467 0.102120
O O4 0.187928 0.502499 0.074405
O O5 0.515561 0.728524 0.659711
O O6 0.505645 0.567281 0.754174
O O7 0.405092 0.699822 0.917028
O O8 0.716535 0.659929 0.891243
O O9 0.242196 0.670311 0.551525
O O10 0.434293 0.924753 0.888290
O O11 0.274874 0.999784 0.101600
O O12 0.364761 0.427067 0.860841
#
# Coordination Sequence:
#
# PCOD9243805 Si02
#       6
#     4   4   4   4   4   4
#     4  11  22  41  59  90 128 162 201 253 318 372
#     4  11  21  38  62  89 118 162 214 252 302 365
#     4  11  22  38  63  87 121 164 204 260 310 359
#     4  10  21  38  64  91 122 156 211 257 305 365
#     4  10  20  38  66  93 113 160 215 258 291 369
#     4  11  23  38  64  89 125 162 204 254 309 380
#
# _framework density 22.003056000000001
#
# number of rings (size 3 to 8) (size 9 to 14) (size 15 to 20)
#    0.000    1.333    5.000    1.500    0.000    0.667 
#    3.000    0.000    0.000    0.000    0.000    0.000 
#    0.000    0.000    0.000    0.000    0.000    0.000 
#
# Total GULP energy -134098.542625 kJ/mol
# GULP energy per Si atom -5587.439276 kJ/mol
# Density = 2.195298 g / cm^3
# Si number density = 22.003056 Si / 1000 Ang^3
#
#
#
# Elastic Constant Matrix: (Units=GPa)
#
#
# Indices 1 2 3 4 5 6 
#
# 1 54.4016 12.5133 14.8804 0.0000 33.5059 0.0000
# 2 12.5133 63.8600 16.6247 0.0000 14.6619 0.0000
# 3 14.8804 16.6247 108.4794 0.0000 39.4798 0.0000
# 4 0.0000 0.0000 0.0000 30.7032 0.0000 5.7486
# 5 33.5059 14.6619 39.4798 0.0000 40.9132 0.0000
# 6 0.0000 0.0000 0.0000 5.7486 0.0000 19.2062
#
#
#
# Elastic Compliance Matrix: (Units=1/GPa)
#
#
# Indices 1 2 3 4 5 6 
#
# 1 0.044222 -0.000846 0.010995 0.000000 -0.046522 0.000000
# 2 -0.000846 0.017105 -0.000812 0.000000 -0.004653 0.000000
# 3 0.010995 -0.000812 0.016963 0.000000 -0.025082 0.000000
# 4 0.000000 0.000000 0.000000 0.034503 0.000000 -0.010327
# 5 -0.046522 -0.004653 -0.025082 0.000000 0.088411 0.000000
# 6 0.000000 0.000000 0.000000 -0.010327 0.000000 0.055158
#
#
# Mechanical properties :
#
#
# Convention : Reuss Voigt Hill
#
# Bulk Modulus (GPa) = 10.31327 34.97531 22.64429
# Shear Modulus (GPa) = 18.51789 30.34604 24.43196
#
# Velocity S-wave (km/s) = 2.90419 3.71775 3.33587
# Velocity P-wave (km/s) = 3.99289 5.86166 5.01509
#
# Compressibility (1/GPa) = 0.09696250
#
# Stress axis : x y z
#
# Youngs Moduli (GPa) = 22.61330 58.46318 58.95276
#
# Poissons Ratio (x) = 0.04948 -0.64817
# Poissons Ratio (y) = 0.01914 0.04785
# Poissons Ratio (z) = -0.24863 0.04746
#
# Static dielectric constant tensor:
#      x y z
#    x 1.799620 0.000000 0.060590 
#    y 0.000000 1.793100 0.000000 
#    z 0.060590 0.000000 1.838750 
# 
# From -- ./inp_files/8621.got.cif
#   From: 2010.05.17/outbox.cif.g08.bks.cpg/sg14_5_cif.got.tgz:8621.got - 2010.06.03 17:49:19.
