data_PCOD9243611
_publ_section_title
;
Structure prediction by ZEFSAII (Michael W. Deem and Ramdas Pophale) SiO2 
 PCOD9243611
Probable space group: P 21/C
;
_chemical_formula_sum "Si O2"
_cell_formula_units_Z 20
_cell_length_a 11.478797
_cell_length_b 8.698335
_cell_length_c 14.256536
_cell_angle_alpha 90.000000
_cell_angle_beta 38.159927
_cell_angle_gamma 90.000000
_cell_volume 879.499555
_symmetry_space_group_name_H-M "P 21/C"
_symmetry_group_IT_number 14
_symmetry_cell_setting 'monoclinic'
loop_
_space_group_symop_operation_xyz
x,y,z
-x,1/2+y,1/2-z
-x,-y,-z
x,1/2-y,1/2+z
loop_
_atom_site_type_symbol
_atom_site_label
_atom_site_fract_x
_atom_site_fract_y
_atom_site_fract_z
Si Si1 0.887578 0.298360 0.034967
Si Si2 0.224292 0.210192 0.079397
Si Si3 0.523448 0.100926 0.302492
Si Si4 0.713797 0.701125 0.668276
Si Si5 0.960062 0.034032 0.684602
O O1 0.720291 0.180241 0.151567
O O2 0.891406 0.388972 0.131773
O O3 0.097052 0.225239 0.893809
O O4 0.878197 0.416028 0.954311
O O5 0.195020 0.070028 0.167179
O O6 0.055912 0.335828 0.187788
O O7 0.418434 0.306812 0.952745
O O8 0.218230 0.143097 0.977417
O O9 0.391298 0.141154 0.295570
O O10 0.569515 0.925545 0.295560
#
# Coordination Sequence:
#
# PCOD9243611 Si02
#       5
#     4   4   4   4   4
#     4  10  21  37  68  84 128 160 208 247 302 371
#     4   9  22  37  62  89 122 158 205 247 312 350
#     4  10  20  38  61  90 117 163 208 247 307 358
#     4   9  21  38  61  92 117 163 205 250 304 360
#     4  10  21  40  60  93 120 163 202 252 311 356
#
# _framework density 22.740206000000001
#
# number of rings (size 3 to 8) (size 9 to 14) (size 15 to 20)
#    1.200    1.200    0.000    1.800    5.600    0.800 
#    0.000    1.000    0.000    0.000    0.000    0.000 
#    0.000    0.000    0.000    0.000    0.000    0.000 
#
# Total GULP energy -111455.011740 kJ/mol
# GULP energy per Si atom -5572.750587 kJ/mol
# Density = 2.268845 g / cm^3
# Si number density = 22.740206 Si / 1000 Ang^3
#
#
#
# Elastic Constant Matrix: (Units=GPa)
#
#
# Indices 1 2 3 4 5 6 
#
# 1 38.9134 10.5674 22.5923 0.0000 -14.3919 0.0000
# 2 10.5674 88.1105 38.3416 0.0000 -11.3719 0.0000
# 3 22.5923 38.3416 55.3931 0.0000 -24.0803 0.0000
# 4 0.0000 0.0000 0.0000 65.9928 0.0000 -9.6990
# 5 -14.3919 -11.3719 -24.0803 0.0000 37.1394 0.0000
# 6 0.0000 0.0000 0.0000 -9.6990 0.0000 6.9647
#
#
#
# Elastic Compliance Matrix: (Units=1/GPa)
#
#
# Indices 1 2 3 4 5 6 
#
# 1 0.034929 0.002403 -0.013514 0.000000 0.005509 0.000000
# 2 0.002403 0.016689 -0.013793 0.000000 -0.002902 0.000000
# 3 -0.013514 -0.013793 0.040381 0.000000 0.016722 0.000000
# 4 0.000000 0.000000 0.000000 0.019053 0.000000 0.026533
# 5 0.005509 -0.002902 0.016722 0.000000 0.039014 0.000000
# 6 0.000000 0.000000 0.000000 0.026533 0.000000 0.180531
#
#
# Mechanical properties :
#
#
# Convention : Reuss Voigt Hill
#
# Bulk Modulus (GPa) = 23.70252 36.15775 29.93013
# Shear Modulus (GPa) = 12.67528 29.41374 21.04451
#
# Velocity S-wave (km/s) = 2.36348 3.60038 3.04539
# Velocity P-wave (km/s) = 4.23011 5.76356 5.05532
#
# Compressibility (1/GPa) = 0.04218961
#
# Stress axis : x y z
#
# Youngs Moduli (GPa) = 28.62952 59.92059 24.76410
#
# Poissons Ratio (x) = -0.14396 0.33467
# Poissons Ratio (y) = -0.06878 0.34157
# Poissons Ratio (z) = 0.38690 0.82648
#
# Static dielectric constant tensor:
#      x y z
#    x 1.867430 0.000000 -0.010180 
#    y 0.000000 1.898090 0.000000 
#    z -0.010180 0.000000 1.877710 
# 
# From -- ./inp_files/58861.got.cif
#   From: 2010.05.17/outbox.cif.g08.bks.cpg/sg14_30_cif.got.tgz:58861.got - 2010.06.03 17:49:19.
