data_PCOD9243227
_publ_section_title
;
Structure prediction by ZEFSAII (Michael W. Deem and Ramdas Pophale) SiO2 
 PCOD9243227
Probable space group: P 21/C
;
_chemical_formula_sum "Si O2"
_cell_formula_units_Z 24
_cell_length_a 10.215249
_cell_length_b 6.281199
_cell_length_c 18.347866
_cell_angle_alpha 90.000000
_cell_angle_beta 83.984943
_cell_angle_gamma 90.000000
_cell_volume 1170.791088
_symmetry_space_group_name_H-M "P 21/C"
_symmetry_group_IT_number 14
_symmetry_cell_setting 'monoclinic'
loop_
_space_group_symop_operation_xyz
x,y,z
-x,1/2+y,1/2-z
-x,-y,-z
x,1/2-y,1/2+z
loop_
_atom_site_type_symbol
_atom_site_label
_atom_site_fract_x
_atom_site_fract_y
_atom_site_fract_z
Si Si1 0.728590 0.489461 0.171711
Si Si2 0.306631 0.623362 0.055328
Si Si3 0.402698 0.235129 0.439711
Si Si4 0.199285 0.798888 0.712210
Si Si5 0.068606 0.125054 0.833642
Si Si6 0.198929 0.614786 0.443771
O O1 0.612558 0.614903 0.137386
O O2 0.709544 0.369048 0.249300
O O3 0.848804 0.655971 0.170185
O O4 0.768739 0.305263 0.113299
O O5 0.444942 0.750009 0.049179
O O6 0.266201 0.584568 0.140454
O O7 0.334704 0.413794 0.005565
O O8 0.197447 0.767774 0.021334
O O9 0.320490 0.450044 0.438415
O O10 0.076250 0.668516 0.686829
O O11 0.141804 0.968668 0.772616
O O12 0.081326 0.015153 0.912493
#
# Coordination Sequence:
#
# PCOD9243227 Si02
#       6
#     4   4   4   4   4   4
#     4   9  19  38  57  81 115 152 190 236 292 338
#     4  10  21  36  60  89 113 152 197 229 289 351
#     4   9  19  40  58  83 122 148 184 246 283 340
#     4  11  21  36  58  84 112 156 196 237 293 342
#     4  10  20  37  59  78 119 152 189 250 286 335
#     4   9  19  37  61  82 116 152 185 239 292 334
#
# _framework density 20.498961000000001
#
# number of rings (size 3 to 8) (size 9 to 14) (size 15 to 20)
#    0.000    2.333    1.667    0.500    0.000    2.000 
#    9.000    7.500    0.000    0.000    0.000    0.000 
#    0.000    0.000    0.000    0.000    0.000    0.000 
#
# Total GULP energy -133803.974876 kJ/mol
# GULP energy per Si atom -5575.165620 kJ/mol
# Density = 2.045230 g / cm^3
# Si number density = 20.498961 Si / 1000 Ang^3
#
#
#
# Elastic Constant Matrix: (Units=GPa)
#
#
# Indices 1 2 3 4 5 6 
#
# 1 28.0346 10.3557 29.4598 0.0000 14.9447 0.0000
# 2 10.3557 56.6157 25.5296 0.0000 15.3746 0.0000
# 3 29.4598 25.5296 119.6321 0.0000 15.0137 0.0000
# 4 0.0000 0.0000 0.0000 29.6388 0.0000 19.4188
# 5 14.9447 15.3746 15.0137 0.0000 29.5132 0.0000
# 6 0.0000 0.0000 0.0000 19.4188 0.0000 26.0350
#
#
#
# Elastic Compliance Matrix: (Units=1/GPa)
#
#
# Indices 1 2 3 4 5 6 
#
# 1 0.061789 0.001195 -0.012248 0.000000 -0.025680 0.000000
# 2 0.001195 0.021854 -0.003689 0.000000 -0.010113 0.000000
# 3 -0.012248 -0.003689 0.011903 0.000000 0.002069 0.000000
# 4 0.000000 0.000000 0.000000 0.065986 0.000000 -0.049217
# 5 -0.025680 -0.010113 0.002069 0.000000 0.051103 0.000000
# 6 0.000000 0.000000 0.000000 -0.049217 0.000000 0.075120
#
#
# Mechanical properties :
#
#
# Convention : Reuss Voigt Hill
#
# Bulk Modulus (GPa) = 15.13730 37.21917 26.17824
# Shear Modulus (GPa) = 14.73801 26.29987 20.51894
#
# Velocity S-wave (km/s) = 2.68426 3.58576 3.16725
# Velocity P-wave (km/s) = 4.12401 5.94472 5.11601
#
# Compressibility (1/GPa) = 0.06606200
#
# Stress axis : x y z
#
# Youngs Moduli (GPa) = 16.18406 45.75801 84.01526
#
# Poissons Ratio (x) = -0.05466 1.02901
# Poissons Ratio (y) = -0.01933 0.30991
# Poissons Ratio (z) = 0.19822 0.16879
#
# Static dielectric constant tensor:
#      x y z
#    x 1.691890 0.000000 0.039310 
#    y 0.000000 1.711970 0.000000 
#    z 0.039310 0.000000 1.756600 
# 
# From -- ./inp_files/49610.got.cif
#   From: 2010.05.17/outbox.cif.g08.bks.cpg/sg14_25_cif.got.tgz:49610.got - 2010.06.03 17:49:19.
