data_PCOD9243749
_publ_section_title
;
Structure prediction by ZEFSAII (Michael W. Deem and Ramdas Pophale) SiO2 
 PCOD9243749
Probable space group: P 21/C
;
_chemical_formula_sum "Si O2"
_cell_formula_units_Z 20
_cell_length_a 14.402914
_cell_length_b 6.977917
_cell_length_c 9.735167
_cell_angle_alpha 90.000000
_cell_angle_beta 118.066096
_cell_angle_gamma 90.000000
_cell_volume 863.351689
_symmetry_space_group_name_H-M "P 21/C"
_symmetry_group_IT_number 14
_symmetry_cell_setting 'monoclinic'
loop_
_space_group_symop_operation_xyz
x,y,z
-x,1/2+y,1/2-z
-x,-y,-z
x,1/2-y,1/2+z
loop_
_atom_site_type_symbol
_atom_site_label
_atom_site_fract_x
_atom_site_fract_y
_atom_site_fract_z
Si Si1 0.689901 0.705742 0.806905
Si Si2 0.172048 0.663177 0.793457
Si Si3 0.612137 0.548463 0.015846
Si Si4 0.089077 0.095730 0.471507
Si Si5 0.155239 0.505972 0.487708
O O1 0.650892 0.770413 0.632890
O O2 0.732538 0.898281 0.913683
O O3 0.610911 0.600870 0.854263
O O4 0.797443 0.584998 0.872947
O O5 0.296291 0.610448 0.899493
O O6 0.145677 0.636485 0.616121
O O7 0.111272 0.502003 0.840806
O O8 0.146815 0.861867 0.850141
O O9 0.500000 0.500000 0.000000
O O10 0.077411 0.323934 0.438973
O O11 0.000000 0.000000 0.500000
#
# Coordination Sequence:
#
# PCOD9243749 Si02
#       5
#     4   4   4   4   4
#     4   8  20  39  60  93 132 171 233 285 333 420
#     4  10  21  40  60  99 134 178 223 289 339 420
#     4  10  20  38  64  92 137 183 227 282 348 411
#     4   9  20  41  66  89 134 178 231 289 346 417
#     4   9  21  38  64  92 135 173 229 279 356 397
#
# _framework density 23.16553
#
# number of rings (size 3 to 8) (size 9 to 14) (size 15 to 20)
#    1.200    1.600    0.000    0.000    0.000    8.800 
#    3.600    2.000    0.000    0.000    0.000    0.000 
#    0.000    0.000    0.000    0.000    0.000    0.000 
#
# Total GULP energy -111746.839470 kJ/mol
# GULP energy per Si atom -5587.341974 kJ/mol
# Density = 2.311280 g / cm^3
# Si number density = 23.165530 Si / 1000 Ang^3
#
#
#
# Elastic Constant Matrix: (Units=GPa)
#
#
# Indices 1 2 3 4 5 6 
#
# 1 181.5870 67.7370 41.1386 0.0000 -4.1526 0.0000
# 2 67.7370 116.7252 26.3849 0.0000 -24.8366 0.0000
# 3 41.1386 26.3849 63.9107 0.0000 -27.5107 0.0000
# 4 0.0000 0.0000 0.0000 31.9570 0.0000 -16.2714
# 5 -4.1526 -24.8366 -27.5107 0.0000 34.9234 0.0000
# 6 0.0000 0.0000 0.0000 -16.2714 0.0000 29.6650
#
#
#
# Elastic Compliance Matrix: (Units=1/GPa)
#
#
# Indices 1 2 3 4 5 6 
#
# 1 0.008928 -0.005347 -0.007141 0.000000 -0.008366 0.000000
# 2 -0.005347 0.013411 0.002628 0.000000 0.010972 0.000000
# 3 -0.007141 0.002628 0.029652 0.000000 0.024378 0.000000
# 4 0.000000 0.000000 0.000000 0.043418 0.000000 0.023815
# 5 -0.008366 0.010972 0.024378 0.000000 0.054646 0.000000
# 6 0.000000 0.000000 0.000000 0.023815 0.000000 0.046772
#
#
# Mechanical properties :
#
#
# Convention : Reuss Voigt Hill
#
# Bulk Modulus (GPa) = 30.98681 70.30487 50.64584
# Shear Modulus (GPa) = 21.99710 34.43990 28.21850
#
# Velocity S-wave (km/s) = 3.08484 3.85994 3.49395
# Velocity P-wave (km/s) = 5.10819 7.09086 6.17956
#
# Compressibility (1/GPa) = 0.03227180
#
# Stress axis : x y z
#
# Youngs Moduli (GPa) = 112.00734 74.56807 33.72476
#
# Poissons Ratio (x) = 0.39872 0.24081
# Poissons Ratio (y) = 0.59891 -0.08864
# Poissons Ratio (z) = 0.79980 -0.19599
#
# Static dielectric constant tensor:
#      x y z
#    x 1.839710 0.000000 0.046680 
#    y 0.000000 1.919850 0.000000 
#    z 0.046680 0.000000 1.868810 
# 
# From -- ./inp_files/31418.got.cif
#   From: 2010.05.17/outbox.cif.g08.bks.cpg/sg14_16_cif.got.tgz:31418.got - 2010.06.03 17:49:19.
