data_PCOD9243678
_publ_section_title
;
Structure prediction by ZEFSAII (Michael W. Deem and Ramdas Pophale) SiO2 
 PCOD9243678
Probable space group: P 21/C
;
_chemical_formula_sum "Si O2"
_cell_formula_units_Z 24
_cell_length_a 11.218005
_cell_length_b 7.743788
_cell_length_c 23.069607
_cell_angle_alpha 90.000000
_cell_angle_beta 149.902890
_cell_angle_gamma 90.000000
_cell_volume 1004.966822
_symmetry_space_group_name_H-M "P 21/C"
_symmetry_group_IT_number 14
_symmetry_cell_setting 'monoclinic'
loop_
_space_group_symop_operation_xyz
x,y,z
-x,1/2+y,1/2-z
-x,-y,-z
x,1/2-y,1/2+z
loop_
_atom_site_type_symbol
_atom_site_label
_atom_site_fract_x
_atom_site_fract_y
_atom_site_fract_z
Si Si1 0.222069 0.375510 0.610055
Si Si2 0.085468 0.524682 0.732154
Si Si3 0.312481 0.150291 0.849405
Si Si4 0.480361 0.812629 0.464826
Si Si5 0.086956 0.244944 0.934884
Si Si6 0.303482 0.457001 0.217333
O O1 0.242029 0.275818 0.557292
O O2 0.461842 0.485839 0.719179
O O3 0.202752 0.222995 0.649164
O O4 0.000000 0.500000 0.500000
O O5 0.196798 0.335844 0.785426
O O6 0.271926 0.672521 0.831144
O O7 0.878487 0.545241 0.693094
O O8 0.026889 0.571882 0.640957
O O9 0.376325 0.067936 0.815235
O O10 0.531939 0.185230 0.985376
O O11 0.730962 0.789351 0.539334
O O12 0.500000 0.000000 0.500000
O O13 0.892617 0.391763 0.865622
#
# Coordination Sequence:
#
# PCOD9243678 Si02
#       6
#     4   4   4   4   4   4
#     4  12  28  47  69  97 128 177 230 280 337 393
#     4  10  20  38  62  98 135 169 216 269 331 407
#     4  10  21  37  63  94 130 171 212 270 336 398
#     4   9  19  34  60  93 126 164 206 257 324 392
#     4  11  23  42  67  95 130 173 218 273 334 398
#     4  12  26  46  68  97 135 176 227 285 332 396
#
# _framework density 23.881385000000002
#
# number of rings (size 3 to 8) (size 9 to 14) (size 15 to 20)
#    0.000    1.333    0.000    6.500    0.000    8.000 
#    0.000    4.167    0.000    0.000    0.000    0.000 
#    0.000    0.000    0.000    0.000    0.000    0.000 
#
# Total GULP energy -134171.465230 kJ/mol
# GULP energy per Si atom -5590.477718 kJ/mol
# Density = 2.382703 g / cm^3
# Si number density = 23.881385 Si / 1000 Ang^3
#
#
#
# Elastic Constant Matrix: (Units=GPa)
#
#
# Indices 1 2 3 4 5 6 
#
# 1 64.2537 25.5478 6.5925 0.0000 -11.6486 0.0000
# 2 25.5478 121.9615 24.0529 0.0000 4.9240 0.0000
# 3 6.5925 24.0529 67.5680 0.0000 -16.2352 0.0000
# 4 0.0000 0.0000 0.0000 49.9096 0.0000 -3.7932
# 5 -11.6486 4.9240 -16.2352 0.0000 24.2713 0.0000
# 6 0.0000 0.0000 0.0000 -3.7932 0.0000 43.9672
#
#
#
# Elastic Compliance Matrix: (Units=1/GPa)
#
#
# Indices 1 2 3 4 5 6 
#
# 1 0.019567 -0.005172 0.002908 0.000000 0.012385 0.000000
# 2 -0.005172 0.010646 -0.005243 0.000000 -0.008149 0.000000
# 3 0.002908 -0.005243 0.020224 0.000000 0.015987 0.000000
# 4 0.000000 0.000000 0.000000 0.020168 0.000000 0.001740
# 5 0.012385 -0.008149 0.015987 0.000000 0.059492 0.000000
# 6 0.000000 0.000000 0.000000 0.001740 0.000000 0.022894
#
#
# Mechanical properties :
#
#
# Convention : Reuss Voigt Hill
#
# Bulk Modulus (GPa) = 28.23108 40.68552 34.45830
# Shear Modulus (GPa) = 27.80650 36.80229 32.30439
#
# Velocity S-wave (km/s) = 3.41597 3.92987 3.68190
# Velocity P-wave (km/s) = 5.23503 6.13721 5.70398
#
# Compressibility (1/GPa) = 0.03542195
#
# Stress axis : x y z
#
# Youngs Moduli (GPa) = 51.10686 93.93349 49.44603
#
# Poissons Ratio (x) = 0.48585 -0.14379
# Poissons Ratio (y) = 0.26434 0.25925
# Poissons Ratio (z) = -0.14862 0.49251
#
# Static dielectric constant tensor:
#      x y z
#    x 1.956210 0.000000 -0.165250 
#    y 0.000000 1.836130 0.000000 
#    z -0.165250 0.000000 2.428870 
# 
# From -- ./inp_files/28184.got.cif
#   From: 2010.05.17/outbox.cif.g08.bks.cpg/sg14_15_cif.got.tgz:28184.got - 2010.06.03 17:49:19.
