data_PCOD9243053
_publ_section_title
;
Structure prediction by ZEFSAII (Michael W. Deem and Ramdas Pophale) SiO2 
 PCOD9243053
Probable space group: P 21/C
;
_chemical_formula_sum "Si O2"
_cell_formula_units_Z 28
_cell_length_a 26.486950
_cell_length_b 10.015490
_cell_length_c 25.903417
_cell_angle_alpha 90.000000
_cell_angle_beta 168.959825
_cell_angle_gamma 90.000000
_cell_volume 1315.902633
_symmetry_space_group_name_H-M "P 21/C"
_symmetry_group_IT_number 14
_symmetry_cell_setting 'monoclinic'
loop_
_space_group_symop_operation_xyz
x,y,z
-x,1/2+y,1/2-z
-x,-y,-z
x,1/2-y,1/2+z
loop_
_atom_site_type_symbol
_atom_site_label
_atom_site_fract_x
_atom_site_fract_y
_atom_site_fract_z
Si Si1 0.414972 0.919747 0.179011
Si Si2 0.746262 0.352582 0.786841
Si Si3 0.535376 0.811754 0.719979
Si Si4 0.755695 0.829176 0.277044
Si Si5 0.971741 0.249162 0.847747
Si Si6 0.562708 0.306122 0.717532
Si Si7 0.052823 0.475902 0.234154
O O1 0.532866 0.820644 0.253560
O O2 0.408860 0.833010 0.224618
O O3 0.534681 0.060871 0.315930
O O4 0.139748 0.961206 0.875801
O O5 0.540308 0.297103 0.537602
O O6 0.737798 0.514582 0.775954
O O7 0.644516 0.303615 0.739864
O O8 0.044863 0.318558 0.071230
O O9 0.322381 0.798828 0.460248
O O10 0.825238 0.822783 0.987103
O O11 0.894974 0.747453 0.462471
O O12 0.961158 0.404636 0.820712
O O13 0.278321 0.371967 0.442412
O O14 0.777580 0.403166 0.958492
#
# Coordination Sequence:
#
# PCOD9243053 Si02
#       7
#     4   4   4   4   4   4   4
#     4  11  26  44  65  93 133 173 211 263 309 394
#     4  10  21  34  60  95 125 164 209 264 324 368
#     4  11  26  41  66  94 127 170 218 253 325 376
#     4  10  20  36  61  90 130 159 211 268 324 370
#     4  11  23  40  65  90 132 163 214 262 323 378
#     4  12  24  41  64  93 136 163 215 261 318 375
#     4  11  24  38  62  92 128 171 203 257 324 368
#
# _framework density 21.278169999999999
#
# number of rings (size 3 to 8) (size 9 to 14) (size 15 to 20)
#    0.000    1.143    2.857    3.429    8.000    3.429 
#    0.000    0.000    0.000    5.143    0.000    0.000 
#    0.000    0.000    0.000    0.000    0.000    0.000 
#
# Total GULP energy -156430.631831 kJ/mol
# GULP energy per Si atom -5586.808280 kJ/mol
# Density = 2.122974 g / cm^3
# Si number density = 21.278170 Si / 1000 Ang^3
#
#
#
# Elastic Constant Matrix: (Units=GPa)
#
#
# Indices 1 2 3 4 5 6 
#
# 1 67.0804 -19.5746 -99.3435 0.0000 -94.6995 0.0000
# 2 -19.5746 9.1038 -112.7779 0.0000 -93.2241 0.0000
# 3 -99.3435 -112.7779 -304.5885 0.0000 -281.3263 0.0000
# 4 0.0000 0.0000 0.0000 3.0034 0.0000 2.4940
# 5 -94.6995 -93.2241 -281.3263 0.0000 -172.2999 0.0000
# 6 0.0000 0.0000 0.0000 2.4940 0.0000 17.0096
#
#
#
# Elastic Compliance Matrix: (Units=1/GPa)
#
#
# Indices 1 2 3 4 5 6 
#
# 1 0.010736 -0.003813 -0.002864 0.000000 0.000837 0.000000
# 2 -0.003813 0.021559 -0.004132 0.000000 -0.002823 0.000000
# 3 -0.002864 -0.004132 0.008538 0.000000 -0.010131 0.000000
# 4 0.000000 0.000000 0.000000 0.379122 0.000000 -0.055588
# 5 0.000837 -0.002823 -0.010131 0.000000 0.011804 0.000000
# 6 0.000000 0.000000 0.000000 -0.055588 0.000000 0.066941
#
#
# Mechanical properties :
#
#
# Convention : Reuss Voigt Hill
#
# Bulk Modulus (GPa) = 52.03888 -76.86625 -12.41368
# Shear Modulus (GPa) = 9.49269 -30.23794 -10.37262
#
# Velocity S-wave (km/s) = 2.11446 -3.77381 -2.21028
# Velocity P-wave (km/s) = 5.52003 7.42911 3.51575
#
# Compressibility (1/GPa) = 0.01921640
#
# Stress axis : x y z
#
# Youngs Moduli (GPa) = 93.14109 46.38540 117.12752
#
# Poissons Ratio (x) = 0.17686 0.33540
# Poissons Ratio (y) = 0.35512 0.48395
# Poissons Ratio (z) = 0.26671 0.19166
#
# Static dielectric constant tensor:
#      x y z
#    x 1.817220 0.000000 -0.004470 
#    y 0.000000 1.641410 0.000000 
#    z -0.004470 0.000000 1.766560 
# 
# From -- ./inp_files/80920.got.cif
#   From: 2010.05.17/outbox.cif.g08.bks.cpg/sg14_41_cif.got.tgz:80920.got - 2010.06.03 17:49:19.
