data_PCOD9243150
_publ_section_title
;
Structure prediction by ZEFSAII (Michael W. Deem and Ramdas Pophale) SiO2 
 PCOD9243150
Probable space group: P 21/C
;
_chemical_formula_sum "Si O2"
_cell_formula_units_Z 28
_cell_length_a 15.650478
_cell_length_b 13.731750
_cell_length_c 8.923986
_cell_angle_alpha 90.000000
_cell_angle_beta 38.138888
_cell_angle_gamma 90.000000
_cell_volume 1184.400157
_symmetry_space_group_name_H-M "P 21/C"
_symmetry_group_IT_number 14
_symmetry_cell_setting 'monoclinic'
loop_
_space_group_symop_operation_xyz
x,y,z
-x,1/2+y,1/2-z
-x,-y,-z
x,1/2-y,1/2+z
loop_
_atom_site_type_symbol
_atom_site_label
_atom_site_fract_x
_atom_site_fract_y
_atom_site_fract_z
Si Si1 0.100391 0.717240 0.696115
Si Si2 0.718007 0.946172 0.157943
Si Si3 0.511568 0.872941 0.891605
Si Si4 0.562442 0.038555 0.622650
Si Si5 0.074770 0.342843 0.803142
Si Si6 0.339569 0.257810 0.082315
Si Si7 0.705660 0.218263 0.327042
O O1 0.227162 0.679339 0.419371
O O2 0.175390 0.785456 0.713451
O O3 0.005853 0.779576 0.712269
O O4 0.019487 0.644202 0.918106
O O5 0.587190 0.984488 0.243661
O O6 0.692760 0.834302 0.241709
O O7 0.696242 0.998344 0.346983
O O8 0.857332 0.937119 0.870035
O O9 0.572264 0.818058 0.659669
O O10 0.586599 0.831637 0.935460
O O11 0.553739 0.983572 0.791424
O O12 0.355985 0.827212 0.113785
O O13 0.584882 0.151598 0.559040
O O14 0.200956 0.279682 0.696131
#
# Coordination Sequence:
#
# PCOD9243150 Si02
#       7
#     4   4   4   4   4   4   4
#     4  10  24  37  69  89 129 185 218 255 317 383
#     4  10  20  36  66  95 129 158 213 274 319 386
#     4  11  22  37  69  99 124 169 205 271 347 384
#     4  10  23  40  66 100 132 168 206 274 350 383
#     4  11  19  41  63  96 122 177 230 255 306 385
#     4  11  18  35  68  95 123 162 215 269 318 386
#     4  11  22  44  63  95 136 169 215 267 328 398
#
# _framework density 23.640658999999999
#
# number of rings (size 3 to 8) (size 9 to 14) (size 15 to 20)
#    0.000    1.429    4.286    0.857    4.000    0.000 
#    0.000    7.857    0.000    0.000    0.000    0.000 
#    0.000    0.000    0.000    0.000    0.000    0.000 
#
# Total GULP energy -156134.194542 kJ/mol
# GULP energy per Si atom -5576.221234 kJ/mol
# Density = 2.358685 g / cm^3
# Si number density = 23.640659 Si / 1000 Ang^3
#
#
#
# Elastic Constant Matrix: (Units=GPa)
#
#
# Indices 1 2 3 4 5 6 
#
# 1 99.9530 -17.8522 20.1791 0.0000 -4.0292 0.0000
# 2 -17.8522 47.9698 23.0730 0.0000 -1.9337 0.0000
# 3 20.1791 23.0730 179.3675 0.0000 38.4951 0.0000
# 4 0.0000 0.0000 0.0000 45.4474 0.0000 2.1833
# 5 -4.0292 -1.9337 38.4951 0.0000 39.1603 0.0000
# 6 0.0000 0.0000 0.0000 2.1833 0.0000 15.8586
#
#
#
# Elastic Compliance Matrix: (Units=1/GPa)
#
#
# Indices 1 2 3 4 5 6 
#
# 1 0.011909 0.006113 -0.003110 0.000000 0.004584 0.000000
# 2 0.006113 0.026143 -0.005656 0.000000 0.007480 0.000000
# 3 -0.003110 -0.005656 0.008594 0.000000 -0.009048 0.000000
# 4 0.000000 0.000000 0.000000 0.022150 0.000000 -0.003049
# 5 0.004584 0.007480 -0.009048 0.000000 0.035271 0.000000
# 6 0.000000 0.000000 0.000000 -0.003049 0.000000 0.063477
#
#
# Mechanical properties :
#
#
# Convention : Reuss Voigt Hill
#
# Bulk Modulus (GPa) = 24.18943 42.01003 33.09973
# Shear Modulus (GPa) = 26.79078 40.21927 33.50503
#
# Velocity S-wave (km/s) = 3.37003 4.12913 3.76874
# Velocity P-wave (km/s) = 5.03956 6.36724 5.74190
#
# Compressibility (1/GPa) = 0.04134037
#
# Stress axis : x y z
#
# Youngs Moduli (GPa) = 83.96925 38.25078 116.35582
#
# Poissons Ratio (x) = -0.23382 0.36186
# Poissons Ratio (y) = -0.51328 0.65810
# Poissons Ratio (z) = 0.26114 0.21634
#
# Static dielectric constant tensor:
#      x y z
#    x 1.849080 0.000000 0.030810 
#    y 0.000000 1.986000 0.000000 
#    z 0.030810 0.000000 1.987330 
# 
# From -- ./inp_files/16387.got.cif
#   From: 2010.05.17/outbox.cif.g08.bks.cpg/sg14_9_cif.got.tgz:16387.got - 2010.06.03 17:49:19.
