data_PCOD9243861
_publ_section_title
;
Structure prediction by ZEFSAII (Michael W. Deem and Ramdas Pophale) SiO2 
 PCOD9243861
Probable space group: P 21/C
;
_chemical_formula_sum "Si O2"
_cell_formula_units_Z 24
_cell_length_a 5.776300
_cell_length_b 23.151462
_cell_length_c 9.301128
_cell_angle_alpha 90.000000
_cell_angle_beta 126.374617
_cell_angle_gamma 90.000000
_cell_volume 1001.484306
_symmetry_space_group_name_H-M "P 21/C"
_symmetry_group_IT_number 14
_symmetry_cell_setting 'monoclinic'
loop_
_space_group_symop_operation_xyz
x,y,z
-x,1/2+y,1/2-z
-x,-y,-z
x,1/2-y,1/2+z
loop_
_atom_site_type_symbol
_atom_site_label
_atom_site_fract_x
_atom_site_fract_y
_atom_site_fract_z
Si Si1 0.957051 0.438248 0.056636
Si Si2 0.542950 0.438248 0.443364
Si Si3 0.250000 0.239238 0.250000
Si Si4 0.873326 0.671847 0.021749
Si Si5 0.373327 0.171847 0.021749
Si Si6 0.750000 0.384132 0.250000
O O1 0.250000 0.428644 0.250000
O O2 0.954163 0.386461 0.943021
O O3 0.734261 0.425498 0.102694
O O4 0.000000 0.500000 0.000000
O O5 0.500000 0.500000 0.500000
O O6 0.545837 0.386461 0.556979
O O7 0.765739 0.425498 0.397306
O O8 0.092627 0.199269 0.309064
O O9 0.063394 0.281291 0.078982
O O10 0.436606 0.281291 0.421018
O O11 0.407374 0.199269 0.190936
O O12 0.533960 0.655475 0.870749
O O13 0.033961 0.155475 0.870749
#
# Coordination Sequence:
#
# PCOD9243861 Si02
#       6
#     4   4   4   4   4   4
#     4  10  22  39  58  83 117 151 197 240 282 341
#     4  10  22  39  58  83 117 151 197 240 282 341
#     4  10  20  39  60  84 127 146 190 242 282 348
#     4  10  21  39  57  89 116 153 190 239 289 339
#     4  10  21  39  57  89 116 153 190 239 289 339
#     4  10  20  39  58  82 115 150 194 236 292 336
#
# _framework density 23.964431000000001
#
# number of rings (size 3 to 8) (size 9 to 14) (size 15 to 20)
#    0.000    2.000    5.000    0.000    0.000   10.667 
#    0.000    0.000    0.000    0.000    0.000    0.000 
#    0.000    0.000    0.000    0.000    0.000    0.000 
#
# Total GULP energy -133986.877680 kJ/mol
# GULP energy per Si atom -5582.786570 kJ/mol
# Density = 2.390989 g / cm^3
# Si number density = 23.964431 Si / 1000 Ang^3
#
#
#
# Elastic Constant Matrix: (Units=GPa)
#
#
# Indices 1 2 3 4 5 6 
#
# 1 72.7255 59.4782 56.1860 0.0000 -34.2050 0.0000
# 2 59.4782 219.8610 86.9434 0.0000 -60.3894 0.0000
# 3 56.1860 86.9434 154.6234 0.0000 -42.7393 0.0000
# 4 0.0000 0.0000 0.0000 56.3441 0.0000 -26.1949
# 5 -34.2050 -60.3894 -42.7393 0.0000 56.7385 0.0000
# 6 0.0000 0.0000 0.0000 -26.1949 0.0000 32.1864
#
#
#
# Elastic Compliance Matrix: (Units=1/GPa)
#
#
# Indices 1 2 3 4 5 6 
#
# 1 0.023045 -0.002079 -0.005022 0.000000 0.007897 0.000000
# 2 -0.002079 0.007252 -0.001939 0.000000 0.005005 0.000000
# 3 -0.005022 -0.001939 0.010072 0.000000 0.002496 0.000000
# 4 0.000000 0.000000 0.000000 0.028551 0.000000 0.023236
# 5 0.007897 0.005005 0.002496 0.000000 0.029592 0.000000
# 6 0.000000 0.000000 0.000000 0.023236 0.000000 0.049979
#
#
# Mechanical properties :
#
#
# Convention : Reuss Voigt Hill
#
# Bulk Modulus (GPa) = 44.86530 94.71391 69.78960
# Shear Modulus (GPa) = 28.73532 45.36063 37.04797
#
# Velocity S-wave (km/s) = 3.46653 4.35539 3.93613
# Velocity P-wave (km/s) = 5.89786 8.05612 7.05995
#
# Compressibility (1/GPa) = 0.02228894
#
# Stress axis : x y z
#
# Youngs Moduli (GPa) = 43.39371 137.88768 99.28196
#
# Poissons Ratio (x) = 0.28671 0.49859
# Poissons Ratio (y) = 0.09023 0.19250
# Poissons Ratio (z) = 0.21792 0.26735
#
# Static dielectric constant tensor:
#      x y z
#    x 2.163050 0.000000 -0.080280 
#    y 0.000000 2.099450 0.000000 
#    z -0.080280 0.000000 1.966050 
# 
# From -- ./inp_files/6314.got.cif
#   From: 2010.05.17/outbox.cif.g08.bks.cpg/sg14_4_cif.got.tgz:6314.got - 2010.06.03 17:49:19.
