data_PCOD9243847
_publ_section_title
;
Structure prediction by ZEFSAII (Michael W. Deem and Ramdas Pophale) SiO2 
 PCOD9243847
Probable space group: P 21/C
;
_chemical_formula_sum "Si O2"
_cell_formula_units_Z 28
_cell_length_a 8.879527
_cell_length_b 9.381705
_cell_length_c 20.982686
_cell_angle_alpha 90.000000
_cell_angle_beta 47.004851
_cell_angle_gamma 90.000000
_cell_volume 1278.481464
_symmetry_space_group_name_H-M "P 21/C"
_symmetry_group_IT_number 14
_symmetry_cell_setting 'monoclinic'
loop_
_space_group_symop_operation_xyz
x,y,z
-x,1/2+y,1/2-z
-x,-y,-z
x,1/2-y,1/2+z
loop_
_atom_site_type_symbol
_atom_site_label
_atom_site_fract_x
_atom_site_fract_y
_atom_site_fract_z
Si Si1 0.213730 0.670093 0.958776
Si Si2 0.789585 0.005769 0.762083
Si Si3 0.991097 0.386547 0.560190
Si Si4 0.548659 0.689465 0.603673
Si Si5 0.505478 0.669597 0.989325
Si Si6 0.255925 0.105645 0.366988
Si Si7 0.050863 0.298328 0.677838
O O1 0.190311 0.781375 0.908511
O O2 0.350692 0.714107 0.978357
O O3 0.293227 0.523336 0.905678
O O4 0.980408 0.650952 0.051211
O O5 0.565949 0.041060 0.855717
O O6 0.900764 0.161261 0.727116
O O7 0.748480 0.945888 0.703817
O O8 0.914686 0.894907 0.769632
O O9 0.782705 0.679995 0.512772
O O10 0.000000 0.500000 0.500000
O O11 0.978288 0.402300 0.640312
O O12 0.440609 0.769487 0.576603
O O13 0.578848 0.774228 0.661152
O O14 0.728787 0.726947 0.903535
O O15 0.500000 0.500000 0.000000
#
# Coordination Sequence:
#
# PCOD9243847 Si02
#       7
#     4   4   4   4   4   4   4
#     4  10  20  38  72  92 123 171 230 277 322 412
#     4  12  27  44  66 101 149 177 232 283 359 413
#     4  10  23  43  68  97 129 176 229 282 342 398
#     4  10  25  41  65 100 131 171 227 285 330 414
#     4  11  22  41  73  99 128 177 233 278 343 405
#     4  10  21  43  64  94 128 180 223 270 341 409
#     4  11  28  44  67 102 140 185 228 286 347 419
#
# _framework density 21.900981999999999
#
# number of rings (size 3 to 8) (size 9 to 14) (size 15 to 20)
#    0.000    1.429    2.857    0.857    8.000    4.571 
#    0.000    0.000    0.000    0.000    0.000    0.000 
#    0.000    0.000    0.000    0.000    0.000    0.000 
#
# Total GULP energy -156203.450900 kJ/mol
# GULP energy per Si atom -5578.694675 kJ/mol
# Density = 2.185113 g / cm^3
# Si number density = 21.900982 Si / 1000 Ang^3
#
#
#
# Elastic Constant Matrix: (Units=GPa)
#
#
# Indices 1 2 3 4 5 6 
#
# 1 147.9780 31.2083 33.1227 0.0000 39.3123 0.0000
# 2 31.2083 47.9758 10.2264 0.0000 13.9848 0.0000
# 3 33.1227 10.2264 47.5529 0.0000 28.1433 0.0000
# 4 0.0000 0.0000 0.0000 29.1658 0.0000 -0.2433
# 5 39.3123 13.9848 28.1433 0.0000 33.4352 0.0000
# 6 0.0000 0.0000 0.0000 -0.2433 0.0000 35.0412
#
#
#
# Elastic Compliance Matrix: (Units=1/GPa)
#
#
# Indices 1 2 3 4 5 6 
#
# 1 0.010356 -0.003639 -0.000250 0.000000 -0.010444 0.000000
# 2 -0.003639 0.025073 0.001628 0.000000 -0.007579 0.000000
# 3 -0.000250 0.001628 0.042010 0.000000 -0.035748 0.000000
# 4 0.000000 0.000000 0.000000 0.034289 0.000000 0.000238
# 5 -0.010444 -0.007579 -0.035748 0.000000 0.075448 0.000000
# 6 0.000000 0.000000 0.000000 0.000238 0.000000 0.028539
#
#
# Mechanical properties :
#
#
# Convention : Reuss Voigt Hill
#
# Bulk Modulus (GPa) = 13.71405 43.62461 28.66933
# Shear Modulus (GPa) = 20.44644 30.79175 25.61909
#
# Velocity S-wave (km/s) = 3.05878 3.75367 3.42390
# Velocity P-wave (km/s) = 4.33016 6.22487 5.36187
#
# Compressibility (1/GPa) = 0.07291790
#
# Stress axis : x y z
#
# Youngs Moduli (GPa) = 96.56645 39.88326 23.80400
#
# Poissons Ratio (x) = 0.14513 0.00594
# Poissons Ratio (y) = 0.35138 -0.03876
# Poissons Ratio (z) = 0.02411 -0.06494
#
# Static dielectric constant tensor:
#      x y z
#    x 1.845790 0.000000 0.018220 
#    y 0.000000 1.766150 0.000000 
#    z 0.018220 0.000000 1.852170 
# 
# From -- ./inp_files/64981.got.cif
#   From: 2010.05.17/outbox.cif.g08.bks.cpg/sg14_33_cif.got.tgz:64981.got - 2010.06.03 17:49:19.
