data_PCOD9243323
_publ_section_title
;
Structure prediction by ZEFSAII (Michael W. Deem and Ramdas Pophale) SiO2 
 PCOD9243323
Probable space group: P 21/C
;
_chemical_formula_sum "Si O2"
_cell_formula_units_Z 28
_cell_length_a 5.457904
_cell_length_b 29.656816
_cell_length_c 8.304683
_cell_angle_alpha 90.000000
_cell_angle_beta 58.732262
_cell_angle_gamma 90.000000
_cell_volume 1148.981951
_symmetry_space_group_name_H-M "P 21/C"
_symmetry_group_IT_number 14
_symmetry_cell_setting 'monoclinic'
loop_
_space_group_symop_operation_xyz
x,y,z
-x,1/2+y,1/2-z
-x,-y,-z
x,1/2-y,1/2+z
loop_
_atom_site_type_symbol
_atom_site_label
_atom_site_fract_x
_atom_site_fract_y
_atom_site_fract_z
Si Si1 0.138564 0.106478 0.401950
Si Si2 0.657596 0.510101 0.114791
Si Si3 0.460867 0.644167 0.461041
Si Si4 0.428235 0.580447 0.745592
Si Si5 0.715734 0.722731 0.568889
Si Si6 0.333868 0.157594 0.644538
Si Si7 0.716112 0.196671 0.277934
O O1 0.221999 0.129276 0.206439
O O2 0.189347 0.141363 0.529951
O O3 0.824649 0.087319 0.537892
O O4 0.352685 0.063308 0.345616
O O5 0.519034 0.472718 0.280823
O O6 0.500000 0.500000 0.000000
O O7 0.000000 0.500000 0.000000
O O8 0.342507 0.603273 0.606950
O O9 0.493783 0.688139 0.559882
O O10 0.305265 0.657967 0.350498
O O11 0.662719 0.613906 0.740882
O O12 0.795346 0.698175 0.708880
O O13 0.550603 0.768885 0.655117
O O14 0.993812 0.723185 0.360358
O O15 0.646162 0.175965 0.477185
#
# Coordination Sequence:
#
# PCOD9243323 Si02
#       7
#     4   4   4   4   4   4   4
#     4  10  20  37  61  86 123 161 208 256 316 378
#     4  10  20  37  66  97 131 173 218 261 325 387
#     4  10  23  39  60  90 120 162 212 259 317 386
#     4  10  20  37  61  86 123 161 208 256 316 378
#     4  11  24  40  60  88 121 160 210 265 325 390
#     4  10  21  37  60  82 118 162 200 263 313 388
#     4  11  24  40  60  88 121 160 210 265 325 390
#
# _framework density 24.369399999999999
#
# number of rings (size 3 to 8) (size 9 to 14) (size 15 to 20)
#    0.000    1.714    1.429    2.571    0.000    9.714 
#    0.000    0.000    0.000    3.429    0.000    0.000 
#    0.000    0.000    0.000    0.000    0.000    0.000 
#
# Total GULP energy -156367.279415 kJ/mol
# GULP energy per Si atom -5584.545693 kJ/mol
# Density = 2.431393 g / cm^3
# Si number density = 24.369400 Si / 1000 Ang^3
#
#
#
# Elastic Constant Matrix: (Units=GPa)
#
#
# Indices 1 2 3 4 5 6 
#
# 1 67.4277 17.3496 13.8052 0.0000 3.1861 0.0000
# 2 17.3496 101.6719 22.3903 0.0000 19.7184 0.0000
# 3 13.8052 22.3903 94.5625 0.0000 -1.6134 0.0000
# 4 0.0000 0.0000 0.0000 29.1781 0.0000 2.3942
# 5 3.1861 19.7184 -1.6134 0.0000 35.3979 0.0000
# 6 0.0000 0.0000 0.0000 2.3942 0.0000 23.3457
#
#
#
# Elastic Compliance Matrix: (Units=1/GPa)
#
#
# Indices 1 2 3 4 5 6 
#
# 1 0.015786 -0.002255 -0.001775 0.000000 -0.000245 0.000000
# 2 -0.002255 0.012094 -0.002648 0.000000 -0.006655 0.000000
# 3 -0.001775 -0.002648 0.011498 0.000000 0.002159 0.000000
# 4 0.000000 0.000000 0.000000 0.034563 0.000000 -0.003545
# 5 -0.000245 -0.006655 0.002159 0.000000 0.032078 0.000000
# 6 0.000000 0.000000 0.000000 -0.003545 0.000000 0.043198
#
#
# Mechanical properties :
#
#
# Convention : Reuss Voigt Hill
#
# Bulk Modulus (GPa) = 38.42898 41.19471 39.81185
# Shear Modulus (GPa) = 29.19759 31.59213 30.39486
#
# Velocity S-wave (km/s) = 3.46515 3.60444 3.53548
# Velocity P-wave (km/s) = 5.64033 5.85351 5.74791
#
# Compressibility (1/GPa) = 0.02602203
#
# Stress axis : x y z
#
# Youngs Moduli (GPa) = 63.34733 82.68440 86.97220
#
# Poissons Ratio (x) = 0.18648 0.15436
# Poissons Ratio (y) = 0.14287 0.23030
# Poissons Ratio (z) = 0.11243 0.21894
#
# Static dielectric constant tensor:
#      x y z
#    x 2.027990 0.000000 -0.059720 
#    y 0.000000 2.026930 0.000000 
#    z -0.059720 0.000000 1.957620 
# 
# From -- ./inp_files/6912.got.cif
#   From: 2010.05.17/outbox.cif.g08.bks.cpg/sg14_4_cif.got.tgz:6912.got - 2010.06.03 17:49:19.
