data_PCOD9243091
_publ_section_title
;
Structure prediction by ZEFSAII (Michael W. Deem and Ramdas Pophale) SiO2 
 PCOD9243091
Probable space group: P 21/C
;
_chemical_formula_sum "Si O2"
_cell_formula_units_Z 28
_cell_length_a 9.459325
_cell_length_b 7.620170
_cell_length_c 25.863679
_cell_angle_alpha 90.000000
_cell_angle_beta 136.208602
_cell_angle_gamma 90.000000
_cell_volume 1290.158436
_symmetry_space_group_name_H-M "P 21/C"
_symmetry_group_IT_number 14
_symmetry_cell_setting 'monoclinic'
loop_
_space_group_symop_operation_xyz
x,y,z
-x,1/2+y,1/2-z
-x,-y,-z
x,1/2-y,1/2+z
loop_
_atom_site_type_symbol
_atom_site_label
_atom_site_fract_x
_atom_site_fract_y
_atom_site_fract_z
Si Si1 0.231079 0.343532 0.261333
Si Si2 0.983042 0.703317 0.193887
Si Si3 0.927762 0.959243 0.839568
Si Si4 0.998962 0.683342 0.537702
Si Si5 0.271309 0.106171 0.469367
Si Si6 0.639817 0.287232 0.535475
Si Si7 0.352338 0.576180 0.572368
O O1 0.111388 0.240041 0.275276
O O2 0.454558 0.396182 0.340337
O O3 0.112511 0.526251 0.222614
O O4 0.219677 0.205520 0.210780
O O5 0.797947 0.677454 0.104885
O O6 0.103252 0.877004 0.207166
O O7 0.155665 0.879414 0.890221
O O8 0.931293 0.049537 0.897332
O O9 0.916494 0.855058 0.543325
O O10 0.794192 0.593726 0.460570
O O11 0.179367 0.714866 0.545349
O O12 0.471796 0.224923 0.532753
O O13 0.311407 0.902821 0.475912
O O14 0.579610 0.401300 0.469257
#
# Coordination Sequence:
#
# PCOD9243091 Si02
#       7
#     4   4   4   4   4   4   4
#     4  12  22  38  60  90 126 159 196 254 308 362
#     4  11  22  36  59  91 124 156 198 251 308 357
#     4  10  22  39  60  86 124 161 198 250 300 368
#     4   9  22  42  61  84 121 163 209 249 296 363
#     4  10  20  36  62  95 120 156 209 254 301 365
#     4  10  20  36  66  92 121 158 207 252 307 354
#     4  10  22  41  61  86 120 166 204 250 305 354
#
# _framework density 21.702763000000001
#
# number of rings (size 3 to 8) (size 9 to 14) (size 15 to 20)
#    0.000    1.714    4.286    0.000    2.000    2.286 
#    7.714    0.000    0.000    0.000    0.000    0.000 
#    0.000    0.000    0.000    0.000    0.000    0.000 
#
# Total GULP energy -156121.391637 kJ/mol
# GULP energy per Si atom -5575.763987 kJ/mol
# Density = 2.165337 g / cm^3
# Si number density = 21.702763 Si / 1000 Ang^3
#
#
#
# Elastic Constant Matrix: (Units=GPa)
#
#
# Indices 1 2 3 4 5 6 
#
# 1 47.3024 -10.7700 -21.5245 0.0000 4.6831 0.0000
# 2 -10.7700 106.5654 2.5137 0.0000 -0.3653 0.0000
# 3 -21.5245 2.5137 60.0157 0.0000 13.1895 0.0000
# 4 0.0000 0.0000 0.0000 10.7116 0.0000 3.4557
# 5 4.6831 -0.3653 13.1895 0.0000 17.1163 0.0000
# 6 0.0000 0.0000 0.0000 3.4557 0.0000 22.4881
#
#
#
# Elastic Compliance Matrix: (Units=1/GPa)
#
#
# Indices 1 2 3 4 5 6 
#
# 1 0.030728 0.002674 0.015341 0.000000 -0.020172 0.000000
# 2 0.002674 0.009631 0.000808 0.000000 -0.001149 0.000000
# 3 0.015341 0.000808 0.027748 0.000000 -0.025563 0.000000
# 4 0.000000 0.000000 0.000000 0.098226 0.000000 -0.015094
# 5 -0.020172 -0.001149 -0.025563 0.000000 0.083617 0.000000
# 6 0.000000 0.000000 0.000000 -0.015094 0.000000 0.046787
#
#
# Mechanical properties :
#
#
# Convention : Reuss Voigt Hill
#
# Bulk Modulus (GPa) = 9.45575 17.14689 13.30132
# Shear Modulus (GPa) = 16.98709 26.30748 21.64728
#
# Velocity S-wave (km/s) = 2.80074 3.48540 3.16166
# Velocity P-wave (km/s) = 3.85036 4.91073 4.41251
#
# Compressibility (1/GPa) = 0.10575571
#
# Stress axis : x y z
#
# Youngs Moduli (GPa) = 32.54407 103.82924 36.03801
#
# Poissons Ratio (x) = -0.27769 -0.55288
# Poissons Ratio (y) = -0.08704 -0.02913
# Poissons Ratio (z) = -0.49927 -0.08393
#
# Static dielectric constant tensor:
#      x y z
#    x 1.840350 0.000000 -0.016330 
#    y 0.000000 1.829750 0.000000 
#    z -0.016330 0.000000 1.818770 
# 
# From -- ./inp_files/76396.got.cif
#   From: 2010.05.17/outbox.cif.g08.bks.cpg/sg14_39_cif.got.tgz:76396.got - 2010.06.03 17:49:19.
