data_PCOD9243518
_publ_section_title
;
Structure prediction by ZEFSAII (Michael W. Deem and Ramdas Pophale) SiO2 
 PCOD9243518
Probable space group: P 21/C
;
_chemical_formula_sum "Si O2"
_cell_formula_units_Z 32
_cell_length_a 8.270751
_cell_length_b 27.497606
_cell_length_c 12.539278
_cell_angle_alpha 90.000000
_cell_angle_beta 147.468250
_cell_angle_gamma 90.000000
_cell_volume 1533.579932
_symmetry_space_group_name_H-M "P 21/C"
_symmetry_group_IT_number 14
_symmetry_cell_setting 'monoclinic'
loop_
_space_group_symop_operation_xyz
x,y,z
-x,1/2+y,1/2-z
-x,-y,-z
x,1/2-y,1/2+z
loop_
_atom_site_type_symbol
_atom_site_label
_atom_site_fract_x
_atom_site_fract_y
_atom_site_fract_z
Si Si1 0.120542 0.543127 0.964017
Si Si2 0.389884 0.732574 0.414662
Si Si3 0.100763 0.192294 0.950355
Si Si4 0.920447 0.487992 0.663826
Si Si5 0.038609 0.585671 0.597865
Si Si6 0.121423 0.195137 0.219718
Si Si7 0.652805 0.909085 0.666326
Si Si8 0.565173 0.951835 0.263088
O O1 0.904092 0.508552 0.773114
O O2 0.891283 0.569160 0.915717
O O3 0.306612 0.580075 0.996168
O O4 0.353766 0.505630 0.147285
O O5 0.578367 0.704404 0.427262
O O6 0.646828 0.762887 0.618471
O O7 0.149530 0.769943 0.230075
O O8 0.191364 0.702139 0.389883
O O9 0.013772 0.136737 0.873992
O O10 0.097538 0.195641 0.077735
O O11 0.655632 0.457679 0.461489
O O12 0.966666 0.535990 0.618672
O O13 0.210664 0.453458 0.823965
O O14 0.376180 0.579349 0.741598
O O15 0.820743 0.587273 0.373911
O O16 0.264947 0.143343 0.331858
#
# Coordination Sequence:
#
# PCOD9243518 Si02
#       8
#     4   4   4   4   4   4   4   4
#     4  11  21  34  58  81 117 159 202 239 285 342
#     4  10  22  43  65  92 117 155 204 256 306 371
#     4  10  22  41  66  90 120 157 200 250 313 359
#     4  11  20  37  57  81 122 162 192 236 293 351
#     4  10  20  39  59  82 122 158 192 241 300 354
#     4  10  22  41  66  90 124 155 200 254 309 358
#     4  10  20  38  59  87 119 161 193 241 298 357
#     4  10  21  38  52  84 121 157 197 244 285 346
#
# _framework density 20.866209999999999
#
# number of rings (size 3 to 8) (size 9 to 14) (size 15 to 20)
#    0.000    1.750    2.500    2.250    1.750    0.000 
#    9.000    6.250    0.000    0.000    0.000    0.000 
#    0.000    0.000    0.000    0.000    0.000    0.000 
#
# Total GULP energy -178567.663418 kJ/mol
# GULP energy per Si atom -5580.239482 kJ/mol
# Density = 2.081872 g / cm^3
# Si number density = 20.866210 Si / 1000 Ang^3
#
#
#
# Elastic Constant Matrix: (Units=GPa)
#
#
# Indices 1 2 3 4 5 6 
#
# 1 108.5480 46.8682 29.4489 0.0000 33.8513 0.0000
# 2 46.8682 91.5321 16.5672 0.0000 27.6213 0.0000
# 3 29.4489 16.5672 58.5633 0.0000 14.5364 0.0000
# 4 0.0000 0.0000 0.0000 21.7910 0.0000 3.5008
# 5 33.8513 27.6213 14.5364 0.0000 48.8273 0.0000
# 6 0.0000 0.0000 0.0000 3.5008 0.0000 5.4780
#
#
#
# Elastic Compliance Matrix: (Units=1/GPa)
#
#
# Indices 1 2 3 4 5 6 
#
# 1 0.014294 -0.004739 -0.004376 0.000000 -0.005926 0.000000
# 2 -0.004739 0.014972 -0.000611 0.000000 -0.005002 0.000000
# 3 -0.004376 -0.000611 0.020095 0.000000 -0.002603 0.000000
# 4 0.000000 0.000000 0.000000 0.051141 0.000000 -0.032682
# 5 -0.005926 -0.005002 -0.002603 0.000000 0.028194 0.000000
# 6 0.000000 0.000000 0.000000 -0.032682 0.000000 0.203435
#
#
# Mechanical properties :
#
#
# Convention : Reuss Voigt Hill
#
# Bulk Modulus (GPa) = 33.43467 49.37909 41.40688
# Shear Modulus (GPa) = 13.82931 26.26988 20.04959
#
# Velocity S-wave (km/s) = 2.57721 3.55204 3.10314
# Velocity P-wave (km/s) = 4.99141 6.36700 5.72070
#
# Compressibility (1/GPa) = 0.02990907
#
# Stress axis : x y z
#
# Youngs Moduli (GPa) = 69.95954 66.79329 49.76342
#
# Poissons Ratio (x) = 0.31651 0.21778
# Poissons Ratio (y) = 0.33151 0.03040
# Poissons Ratio (z) = 0.30616 0.04080
#
# Static dielectric constant tensor:
#      x y z
#    x 1.813260 0.000000 -0.022890 
#    y 0.000000 1.740360 0.000000 
#    z -0.022890 0.000000 1.775070 
# 
# From -- ./inp_files/42211.got.cif
#   From: 2010.05.17/outbox.cif.g08.bks.cpg/sg14_22_cif.got.tgz:42211.got - 2010.06.03 17:49:19.
