data_PCOD9243461
_publ_section_title
;
Structure prediction by ZEFSAII (Michael W. Deem and Ramdas Pophale) SiO2 
 PCOD9243461
Probable space group: P 21/C
;
_chemical_formula_sum "Si O2"
_cell_formula_units_Z 26
_cell_length_a 13.234129
_cell_length_b 13.905746
_cell_length_c 9.700734
_cell_angle_alpha 90.000000
_cell_angle_beta 40.123682
_cell_angle_gamma 90.000000
_cell_volume 1150.473356
_symmetry_space_group_name_H-M "P 21/C"
_symmetry_group_IT_number 14
_symmetry_cell_setting 'monoclinic'
loop_
_space_group_symop_operation_xyz
x,y,z
-x,1/2+y,1/2-z
-x,-y,-z
x,1/2-y,1/2+z
loop_
_atom_site_type_symbol
_atom_site_label
_atom_site_fract_x
_atom_site_fract_y
_atom_site_fract_z
Si Si1 0.220600 0.805126 0.802218
Si Si2 0.461444 0.027946 0.763496
Si Si3 0.113934 0.292238 0.251976
Si Si4 0.260525 0.472047 0.222846
Si Si5 0.706782 0.679344 0.206012
Si Si6 0.414567 0.766899 0.343867
Si Si7 0.500000 0.000000 0.000000
O O1 0.272183 0.765949 0.600638
O O2 0.206385 0.919204 0.796089
O O3 0.362716 0.787721 0.761245
O O4 0.062448 0.761535 0.029256
O O5 0.325442 0.059487 0.803537
O O6 0.547667 0.121773 0.738978
O O7 0.590223 0.974645 0.536315
O O8 0.408269 0.971069 0.951802
O O9 0.139061 0.397922 0.290071
O O10 0.238577 0.227352 0.207135
O O11 0.154117 0.303781 0.049504
O O12 0.561763 0.730250 0.278103
O O13 0.647817 0.571633 0.297580
#
# Coordination Sequence:
#
# PCOD9243461 Si02
#       7
#     4   4   4   4   4   4   2
#     4  11  24  40  69  94 141 171 225 269 354 401
#     4  10  20  37  66  92 128 165 228 276 321 383
#     4  12  24  45  64 101 132 179 215 288 341 414
#     4  10  21  40  65  95 127 178 218 272 337 407
#     4  12  25  41  72  93 135 171 234 272 337 394
#     4  11  22  42  63  97 122 181 216 281 319 407
#     4  12  22  38  60 102 122 166 216 290 312 384
#
# _framework density 22.599395000000001
#
# number of rings (size 3 to 8) (size 9 to 14) (size 15 to 20)
#    0.000    0.923    3.077    5.077    2.154    0.000 
#    0.000    0.000    0.000    3.692    0.000    0.000 
#    0.000    0.000    0.000    0.000    0.000    0.000 
#
# Total GULP energy -144832.308264 kJ/mol
# GULP energy per Si atom -5570.473395 kJ/mol
# Density = 2.254796 g / cm^3
# Si number density = 22.599395 Si / 1000 Ang^3
#
#
#
# Elastic Constant Matrix: (Units=GPa)
#
#
# Indices 1 2 3 4 5 6 
#
# 1 51.1230 -8.1544 13.0220 0.0000 15.6927 0.0000
# 2 -8.1544 56.1927 -11.9266 0.0000 -2.6233 0.0000
# 3 13.0220 -11.9266 48.6199 0.0000 9.1998 0.0000
# 4 0.0000 0.0000 0.0000 17.9010 0.0000 3.1536
# 5 15.6927 -2.6233 9.1998 0.0000 42.5388 0.0000
# 6 0.0000 0.0000 0.0000 3.1536 0.0000 17.7616
#
#
#
# Elastic Compliance Matrix: (Units=1/GPa)
#
#
# Indices 1 2 3 4 5 6 
#
# 1 0.023307 0.002118 -0.004296 0.000000 -0.007538 0.000000
# 2 0.002118 0.018967 0.004183 0.000000 -0.000516 0.000000
# 3 -0.004296 0.004183 0.023351 0.000000 -0.003207 0.000000
# 4 0.000000 0.000000 0.000000 0.057667 0.000000 -0.010239
# 5 -0.007538 -0.000516 -0.003207 0.000000 0.026951 0.000000
# 6 0.000000 0.000000 0.000000 -0.010239 0.000000 0.058119
#
#
# Mechanical properties :
#
#
# Convention : Reuss Voigt Hill
#
# Bulk Modulus (GPa) = 14.36049 15.75749 15.05899
# Shear Modulus (GPa) = 21.97195 26.50661 24.23928
#
# Velocity S-wave (km/s) = 3.12145 3.42846 3.27855
# Velocity P-wave (km/s) = 4.39994 4.76027 4.58365
#
# Compressibility (1/GPa) = 0.06963550
#
# Stress axis : x y z
#
# Youngs Moduli (GPa) = 42.90593 52.72306 42.82402
#
# Poissons Ratio (x) = -0.11169 0.18398
# Poissons Ratio (y) = -0.09089 -0.17913
# Poissons Ratio (z) = 0.18434 -0.22054
#
# Static dielectric constant tensor:
#      x y z
#    x 1.834320 0.000000 0.003580 
#    y 0.000000 2.017120 0.000000 
#    z 0.003580 0.000000 1.832530 
# 
# From -- ./inp_files/16177.got.cif
#   From: 2010.05.17/outbox.cif.g08.bks.cpg/sg14_9_cif.got.tgz:16177.got - 2010.06.03 17:49:19.
