data_PCOD9243626
_publ_section_title
;
Structure prediction by ZEFSAII (Michael W. Deem and Ramdas Pophale) SiO2 
 PCOD9243626
Probable space group: P 21/C
;
_chemical_formula_sum "Si O2"
_cell_formula_units_Z 20
_cell_length_a 18.637391
_cell_length_b 9.366603
_cell_length_c 13.258965
_cell_angle_alpha 90.000000
_cell_angle_beta 159.747498
_cell_angle_gamma 90.000000
_cell_volume 801.219036
_symmetry_space_group_name_H-M "P 21/C"
_symmetry_group_IT_number 14
_symmetry_cell_setting 'monoclinic'
loop_
_space_group_symop_operation_xyz
x,y,z
-x,1/2+y,1/2-z
-x,-y,-z
x,1/2-y,1/2+z
loop_
_atom_site_type_symbol
_atom_site_label
_atom_site_fract_x
_atom_site_fract_y
_atom_site_fract_z
Si Si1 0.633568 0.755706 0.676071
Si Si2 0.491937 0.093100 0.292803
Si Si3 0.244610 0.728268 0.020026
Si Si4 0.050442 0.444243 0.797367
Si Si5 0.232845 0.178387 0.351676
O O1 0.550034 0.868780 0.646940
O O2 0.438361 0.710000 0.350994
O O3 0.793722 0.813055 0.802790
O O4 0.745787 0.629015 0.884135
O O5 0.682349 0.183378 0.494642
O O6 0.572212 0.932984 0.379765
O O7 0.299031 0.165002 0.979018
O O8 0.077687 0.612069 0.837030
O O9 0.145496 0.882489 0.903014
O O10 0.055985 0.385566 0.689702
#
# Coordination Sequence:
#
# PCOD9243626 Si02
#       5
#     4   4   4   4   4
#     4  10  20  38  62  84 110 150 188 232 284 332
#     4   9  19  35  57  84 113 146 187 232 279 333
#     4  10  22  39  58  84 116 149 188 232 278 334
#     4  10  22  39  58  84 116 149 188 232 278 334
#     4   9  19  35  57  84 113 146 187 232 279 333
#
# _framework density 24.961963000000001
#
# number of rings (size 3 to 8) (size 9 to 14) (size 15 to 20)
#    0.000    2.400    0.000    1.200    0.000   11.200 
#    0.000    6.000    0.000    0.000    0.000    0.000 
#    0.000    0.000    0.000    0.000    0.000    0.000 
#
# Total GULP energy -111827.690086 kJ/mol
# GULP energy per Si atom -5591.384504 kJ/mol
# Density = 2.490515 g / cm^3
# Si number density = 24.961963 Si / 1000 Ang^3
#
#
#
# Elastic Constant Matrix: (Units=GPa)
#
#
# Indices 1 2 3 4 5 6 
#
# 1 147.8393 20.8558 13.1302 0.0000 -14.1759 0.0000
# 2 20.8558 104.5186 15.0616 0.0000 -14.6325 0.0000
# 3 13.1302 15.0616 67.2124 0.0000 -12.4622 0.0000
# 4 0.0000 0.0000 0.0000 37.7502 0.0000 14.6915
# 5 -14.1759 -14.6325 -12.4622 0.0000 30.9063 0.0000
# 6 0.0000 0.0000 0.0000 14.6915 0.0000 34.1119
#
#
#
# Elastic Compliance Matrix: (Units=1/GPa)
#
#
# Indices 1 2 3 4 5 6 
#
# 1 0.007211 -0.000978 -0.000716 0.000000 0.002556 0.000000
# 2 -0.000978 0.010523 -0.001434 0.000000 0.003956 0.000000
# 3 -0.000716 -0.001434 0.016377 0.000000 0.005597 0.000000
# 4 0.000000 0.000000 0.000000 0.031824 0.000000 -0.013706
# 5 0.002556 0.003956 0.005597 0.000000 0.037658 0.000000
# 6 0.000000 0.000000 0.000000 -0.013706 0.000000 0.035218
#
#
# Mechanical properties :
#
#
# Convention : Reuss Voigt Hill
#
# Bulk Modulus (GPa) = 35.89832 46.40728 41.15280
# Shear Modulus (GPa) = 32.39375 38.58852 35.49114
#
# Velocity S-wave (km/s) = 3.60630 3.93605 3.77478
# Velocity P-wave (km/s) = 5.63498 6.26803 5.95992
#
# Compressibility (1/GPa) = 0.02785646
#
# Stress axis : x y z
#
# Youngs Moduli (GPa) = 138.68311 95.02836 61.06136
#
# Poissons Ratio (x) = 0.09293 0.04370
# Poissons Ratio (y) = 0.13562 0.08754
# Poissons Ratio (z) = 0.09924 0.13624
#
# Static dielectric constant tensor:
#      x y z
#    x 1.982190 0.000000 0.049350 
#    y 0.000000 1.939630 0.000000 
#    z 0.049350 0.000000 2.011850 
# 
# From -- ./inp_files/49996.got.cif
#   From: 2010.05.17/outbox.cif.g08.bks.cpg/sg14_25_cif.got.tgz:49996.got - 2010.06.03 17:49:19.
