data_PCOD9243332
_publ_section_title
;
Structure prediction by ZEFSAII (Michael W. Deem and Ramdas Pophale) SiO2 
 PCOD9243332
Probable space group: P 21/C
;
_chemical_formula_sum "Si O2"
_cell_formula_units_Z 32
_cell_length_a 14.969235
_cell_length_b 11.290457
_cell_length_c 17.781168
_cell_angle_alpha 90.000000
_cell_angle_beta 147.106541
_cell_angle_gamma 90.000000
_cell_volume 1632.052396
_symmetry_space_group_name_H-M "P 21/C"
_symmetry_group_IT_number 14
_symmetry_cell_setting 'monoclinic'
loop_
_space_group_symop_operation_xyz
x,y,z
-x,1/2+y,1/2-z
-x,-y,-z
x,1/2-y,1/2+z
loop_
_atom_site_type_symbol
_atom_site_label
_atom_site_fract_x
_atom_site_fract_y
_atom_site_fract_z
Si Si1 0.518337 0.898511 0.077046
Si Si2 0.120126 0.502240 0.723763
Si Si3 0.350883 0.293999 0.942851
Si Si4 0.020754 0.302418 0.265754
Si Si5 0.134830 0.429091 0.143388
Si Si6 0.179463 0.885464 0.794957
Si Si7 0.925950 0.279693 0.540548
Si Si8 0.703004 0.299206 0.247946
O O1 0.580277 0.778289 0.080552
O O2 0.670148 0.932632 0.238703
O O3 0.325832 0.886839 0.960613
O O4 0.500000 0.000000 0.000000
O O5 0.259346 0.414358 0.854991
O O6 0.201692 0.588995 0.720483
O O7 0.037792 0.583623 0.729745
O O8 0.985880 0.413348 0.594713
O O9 0.213202 0.211398 0.883963
O O10 0.508696 0.316746 0.105441
O O11 0.972510 0.187097 0.280938
O O12 0.920345 0.282865 0.117527
O O13 0.132855 0.489968 0.224949
O O14 0.069225 0.295412 0.099958
O O15 0.000000 0.500000 0.000000
O O16 0.249658 0.809466 0.773972
O O17 0.767938 0.273817 0.376753
#
# Coordination Sequence:
#
# PCOD9243332 Si02
#       8
#     4   4   4   4   4   4   4   4
#     4   9  18  33  57  87 110 148 193 244 278 340
#     4  10  21  38  62  87 117 162 195 239 291 360
#     4  10  20  37  61  88 116 154 201 236 293 351
#     4  10  22  38  61  82 117 159 198 233 292 361
#     4  11  19  34  59  88 115 146 196 250 288 339
#     4   9  20  36  59  83 113 149 201 241 291 347
#     4  11  22  36  60  86 122 153 194 240 300 345
#     4  10  20  39  59  89 116 149 197 252 293 345
#
# _framework density 19.607213999999999
#
# number of rings (size 3 to 8) (size 9 to 14) (size 15 to 20)
#    0.000    2.000    3.750    0.750    3.500    0.000 
#    0.000    2.500    0.000    0.000    0.000    0.000 
#    0.000    0.000    0.000    0.000    0.000    0.000 
#
# Total GULP energy -178368.702316 kJ/mol
# GULP energy per Si atom -5574.021947 kJ/mol
# Density = 1.956259 g / cm^3
# Si number density = 19.607214 Si / 1000 Ang^3
#
#
#
# Elastic Constant Matrix: (Units=GPa)
#
#
# Indices 1 2 3 4 5 6 
#
# 1 38.2722 9.5363 15.1748 0.0000 -0.8871 0.0000
# 2 9.5363 89.7143 3.9973 0.0000 -0.6325 0.0000
# 3 15.1748 3.9973 123.8263 0.0000 -9.2572 0.0000
# 4 0.0000 0.0000 0.0000 17.9656 0.0000 1.5252
# 5 -0.8871 -0.6325 -9.2572 0.0000 17.0037 0.0000
# 6 0.0000 0.0000 0.0000 1.5252 0.0000 24.7587
#
#
#
# Elastic Compliance Matrix: (Units=1/GPa)
#
#
# Indices 1 2 3 4 5 6 
#
# 1 0.028174 -0.002847 -0.003397 0.000000 -0.000485 0.000000
# 2 -0.002847 0.011451 0.000000 0.000000 0.000277 0.000000
# 3 -0.003397 0.000000 0.008839 0.000000 0.004635 0.000000
# 4 0.000000 0.000000 0.000000 0.055954 0.000000 -0.003447
# 5 -0.000485 0.000277 0.004635 0.000000 0.061319 0.000000
# 6 0.000000 0.000000 0.000000 -0.003447 0.000000 0.040602
#
#
# Mechanical properties :
#
#
# Convention : Reuss Voigt Hill
#
# Bulk Modulus (GPa) = 27.79672 34.35886 31.07779
# Shear Modulus (GPa) = 21.66202 26.81922 24.24062
#
# Velocity S-wave (km/s) = 3.32746 3.70242 3.51994
# Velocity P-wave (km/s) = 5.38240 5.98656 5.69250
#
# Compressibility (1/GPa) = 0.03597547
#
# Stress axis : x y z
#
# Youngs Moduli (GPa) = 35.49417 87.32813 113.13975
#
# Poissons Ratio (x) = 0.24861 0.38434
# Poissons Ratio (y) = 0.10105 0.00000
# Poissons Ratio (z) = 0.12058 0.00000
#
# Static dielectric constant tensor:
#      x y z
#    x 1.711110 0.000000 0.014720 
#    y 0.000000 1.736540 0.000000 
#    z 0.014720 0.000000 1.719640 
# 
# From -- ./inp_files/59499.got.cif
#   From: 2010.05.17/outbox.cif.g08.bks.cpg/sg14_30_cif.got.tgz:59499.got - 2010.06.03 17:49:19.
