data_PCOD9243800
_publ_section_title
;
Structure prediction by ZEFSAII (Michael W. Deem and Ramdas Pophale) SiO2 
 PCOD9243800
Probable space group: P 21/C
;
_chemical_formula_sum "Si O2"
_cell_formula_units_Z 32
_cell_length_a 15.631387
_cell_length_b 5.308599
_cell_length_c 15.464685
_cell_angle_alpha 90.000000
_cell_angle_beta 77.981930
_cell_angle_gamma 90.000000
_cell_volume 1255.144631
_symmetry_space_group_name_H-M "P 21/C"
_symmetry_group_IT_number 14
_symmetry_cell_setting 'monoclinic'
loop_
_space_group_symop_operation_xyz
x,y,z
-x,1/2+y,1/2-z
-x,-y,-z
x,1/2-y,1/2+z
loop_
_atom_site_type_symbol
_atom_site_label
_atom_site_fract_x
_atom_site_fract_y
_atom_site_fract_z
Si Si1 0.615267 0.794647 0.444747
Si Si2 0.050727 0.680368 0.756902
Si Si3 0.988654 0.751035 0.947145
Si Si4 0.261316 0.228536 0.323250
Si Si5 0.549777 0.664203 0.761949
Si Si6 0.762473 0.272575 0.781569
Si Si7 0.343188 0.710428 0.525719
Si Si8 0.793729 0.849124 0.977665
O O1 0.577860 0.807497 0.356789
O O2 0.595451 0.531217 0.494309
O O3 0.723106 0.769675 0.426232
O O4 0.603289 0.040245 0.505996
O O5 0.144168 0.716733 0.693360
O O6 0.013989 0.397237 0.763749
O O7 0.058585 0.747239 0.856104
O O8 0.891273 0.786616 0.928640
O O9 0.000000 0.500000 0.000000
O O10 0.000000 0.000000 0.000000
O O11 0.364061 0.278675 0.312095
O O12 0.232475 0.461711 0.268426
O O13 0.214532 0.235221 0.425030
O O14 0.250138 0.960064 0.280679
O O15 0.518370 0.382698 0.747875
O O16 0.685024 0.250752 0.867885
O O17 0.250848 0.628791 0.501915
#
# Coordination Sequence:
#
# PCOD9243800 Si02
#       8
#     4   4   4   4   4   4   4   4
#     4  10  22  41  65  95 123 170 214 255 329 395
#     4  12  26  40  64  98 134 176 233 287 337 378
#     4  12  26  44  62  96 141 183 220 282 349 380
#     4  12  24  42  67 100 122 175 219 267 321 406
#     4  12  24  44  69  99 132 162 208 274 341 400
#     4  12  22  41  66  92 133 170 232 271 314 391
#     4  10  20  38  66  90 123 165 226 256 314 373
#     4  10  26  40  71  90 136 172 230 260 326 392
#
# _framework density 25.495068
#
# number of rings (size 3 to 8) (size 9 to 14) (size 15 to 20)
#    0.750    0.000    2.500    5.250    5.250    0.000 
#    0.000    1.250    0.000    0.000    0.000    0.000 
#    0.000    0.000    0.000    0.000    0.000    0.000 
#
# Total GULP energy -178989.797902 kJ/mol
# GULP energy per Si atom -5593.431184 kJ/mol
# Density = 2.543704 g / cm^3
# Si number density = 25.495068 Si / 1000 Ang^3
#
#
#
# Elastic Constant Matrix: (Units=GPa)
#
#
# Indices 1 2 3 4 5 6 
#
# 1 99.4233 9.0960 -4.0916 0.0000 1.2901 0.0000
# 2 9.0960 143.4821 8.0999 0.0000 12.4556 0.0000
# 3 -4.0916 8.0999 68.4240 0.0000 3.5690 0.0000
# 4 0.0000 0.0000 0.0000 36.3554 0.0000 23.0901
# 5 1.2901 12.4556 3.5690 0.0000 38.9912 0.0000
# 6 0.0000 0.0000 0.0000 23.0901 0.0000 49.3299
#
#
#
# Elastic Compliance Matrix: (Units=1/GPa)
#
#
# Indices 1 2 3 4 5 6 
#
# 1 0.010150 -0.000667 0.000696 0.000000 -0.000187 0.000000
# 2 -0.000667 0.007249 -0.000782 0.000000 -0.002222 0.000000
# 3 0.000696 -0.000782 0.014808 0.000000 -0.001129 0.000000
# 4 0.000000 0.000000 0.000000 0.039143 0.000000 -0.018322
# 5 -0.000187 -0.002222 -0.001129 0.000000 0.026466 0.000000
# 6 0.000000 0.000000 0.000000 -0.018322 0.000000 0.028848
#
#
# Mechanical properties :
#
#
# Convention : Reuss Voigt Hill
#
# Bulk Modulus (GPa) = 32.57262 37.50421 35.03842
# Shear Modulus (GPa) = 36.12643 44.81696 40.47170
#
# Velocity S-wave (km/s) = 3.76839 4.19724 3.98858
# Velocity P-wave (km/s) = 5.63366 6.18316 5.91479
#
# Compressibility (1/GPa) = 0.03070063
#
# Stress axis : x y z
#
# Youngs Moduli (GPa) = 98.52192 137.95387 67.53195
#
# Poissons Ratio (x) = 0.09195 -0.04697
# Poissons Ratio (y) = 0.06567 0.05281
# Poissons Ratio (z) = -0.06853 0.10789
#
# Static dielectric constant tensor:
#      x y z
#    x 2.044680 0.000000 0.034640 
#    y 0.000000 2.195910 0.000000 
#    z 0.034640 0.000000 1.949170 
# 
# From -- ./inp_files/59880.got.cif
#   From: 2010.05.17/outbox.cif.g08.bks.cpg/sg14_30_cif.got.tgz:59880.got - 2010.06.03 17:49:19.
