data_PCOD9243445
_publ_section_title
;
Structure prediction by ZEFSAII (Michael W. Deem and Ramdas Pophale) SiO2 
 PCOD9243445
Probable space group: P 21/C
;
_chemical_formula_sum "Si O2"
_cell_formula_units_Z 28
_cell_length_a 9.467521
_cell_length_b 12.828718
_cell_length_c 13.264679
_cell_angle_alpha 90.000000
_cell_angle_beta 50.889915
_cell_angle_gamma 90.000000
_cell_volume 1250.091604
_symmetry_space_group_name_H-M "P 21/C"
_symmetry_group_IT_number 14
_symmetry_cell_setting 'monoclinic'
loop_
_space_group_symop_operation_xyz
x,y,z
-x,1/2+y,1/2-z
-x,-y,-z
x,1/2-y,1/2+z
loop_
_atom_site_type_symbol
_atom_site_label
_atom_site_fract_x
_atom_site_fract_y
_atom_site_fract_z
Si Si1 0.168624 0.037589 0.564747
Si Si2 0.102344 0.242986 0.163006
Si Si3 0.065823 0.611718 0.591663
Si Si4 0.381112 0.928250 0.290898
Si Si5 0.769773 0.530284 0.324320
Si Si6 0.237967 0.700617 0.314884
Si Si7 0.697294 0.991613 0.274693
O O1 0.163697 0.163657 0.560794
O O2 0.288669 0.018127 0.611472
O O3 0.244155 0.979647 0.433761
O O4 0.967018 0.993258 0.681594
O O5 0.035640 0.304086 0.292038
O O6 0.233548 0.148348 0.133749
O O7 0.923098 0.195397 0.193897
O O8 0.901432 0.531408 0.642705
O O9 0.215820 0.549522 0.588912
O O10 0.154438 0.669741 0.459372
O O11 0.316809 0.815280 0.283824
O O12 0.566082 0.917425 0.270823
O O13 0.378436 0.999756 0.192197
O O14 0.369894 0.607180 0.223474
#
# Coordination Sequence:
#
# PCOD9243445 Si02
#       7
#     4   4   4   4   4   4   4
#     4  10  21  40  61  93 122 169 209 250 300 379
#     4  10  20  37  65  93 116 161 216 254 293 359
#     4  10  22  40  66  87 119 166 217 249 294 379
#     4  12  24  39  64  97 128 158 204 267 314 356
#     4  10  20  38  61  92 123 155 220 254 291 374
#     4  12  22  40  69  87 120 177 206 245 319 364
#     4  10  24  42  60  92 132 159 205 259 312 372
#
# _framework density 22.39836
#
# number of rings (size 3 to 8) (size 9 to 14) (size 15 to 20)
#    0.000    1.714    5.714    2.143    2.000    2.286 
#    0.000    0.714    3.143    0.000    0.000    0.000 
#    0.000    0.000    0.000    0.000    0.000    0.000 
#
# Total GULP energy -156440.434408 kJ/mol
# GULP energy per Si atom -5587.158372 kJ/mol
# Density = 2.234738 g / cm^3
# Si number density = 22.398360 Si / 1000 Ang^3
#
#
#
# Elastic Constant Matrix: (Units=GPa)
#
#
# Indices 1 2 3 4 5 6 
#
# 1 74.8099 -8.6385 13.3389 0.0000 11.9413 0.0000
# 2 -8.6385 101.5008 8.6396 0.0000 15.2141 0.0000
# 3 13.3389 8.6396 8.7484 0.0000 -6.0094 0.0000
# 4 0.0000 0.0000 0.0000 23.5824 0.0000 13.0968
# 5 11.9413 15.2141 -6.0094 0.0000 10.4433 0.0000
# 6 0.0000 0.0000 0.0000 13.0968 0.0000 29.6185
#
#
#
# Elastic Compliance Matrix: (Units=1/GPa)
#
#
# Indices 1 2 3 4 5 6 
#
# 1 -0.002486 -0.010381 0.043629 0.000000 0.043072 0.000000
# 2 -0.010381 0.001802 0.033734 0.000000 0.028658 0.000000
# 3 0.043629 0.033734 -0.088564 0.000000 -0.149995 0.000000
# 4 0.000000 0.000000 0.000000 0.056207 0.000000 -0.024854
# 5 0.043072 0.028658 -0.149995 0.000000 -0.081555 0.000000
# 6 0.000000 0.000000 0.000000 -0.024854 0.000000 0.044753
#
#
# Mechanical properties :
#
#
# Convention : Reuss Voigt Hill
#
# Bulk Modulus (GPa) = 22.36305 23.52658 22.94482
# Shear Modulus (GPa) = -26.46876 24.17677 -1.14599
#
# Velocity S-wave (km/s) = -3.44136 3.28899 -0.71607
# Velocity P-wave (km/s) = 2.40513 4.99497 3.09557
#
# Compressibility (1/GPa) = 0.04471663
#
# Stress axis : x y z
#
# Youngs Moduli (GPa) = -402.25634 555.04538 -11.29132
#
# Poissons Ratio (x) = 5.76210 0.49263
# Poissons Ratio (y) = -4.17595 0.38091
# Poissons Ratio (z) = 17.55008 -18.72418
#
# Static dielectric constant tensor:
#      x y z
#    x 1.852590 0.000000 -0.027260 
#    y 0.000000 1.863130 0.000000 
#    z -0.027260 0.000000 1.839600 
# 
# From -- ./inp_files/39936.got.cif
#   From: 2010.05.17/outbox.cif.g08.bks.cpg/sg14_20_cif.got.tgz:39936.got - 2010.06.03 17:49:19.
