data_PCOD9243790
_publ_section_title
;
Structure prediction by ZEFSAII (Michael W. Deem and Ramdas Pophale) SiO2 
 PCOD9243790
Probable space group: P 21/C
;
_chemical_formula_sum "Si O2"
_cell_formula_units_Z 24
_cell_length_a 7.577088
_cell_length_b 14.028580
_cell_length_c 13.143612
_cell_angle_alpha 90.000000
_cell_angle_beta 44.328782
_cell_angle_gamma 90.000000
_cell_volume 976.265537
_symmetry_space_group_name_H-M "P 21/C"
_symmetry_group_IT_number 14
_symmetry_cell_setting 'monoclinic'
loop_
_space_group_symop_operation_xyz
x,y,z
-x,1/2+y,1/2-z
-x,-y,-z
x,1/2-y,1/2+z
loop_
_atom_site_type_symbol
_atom_site_label
_atom_site_fract_x
_atom_site_fract_y
_atom_site_fract_z
Si Si1 0.427541 0.007349 0.180350
Si Si2 0.755754 0.184599 0.496222
Si Si3 0.055511 0.887379 0.079677
Si Si4 0.594705 0.686683 0.667192
Si Si5 0.095209 0.985303 0.686981
Si Si6 0.218590 0.384362 0.948903
O O1 0.356035 0.036742 0.324135
O O2 0.444662 0.893530 0.168305
O O3 0.689560 0.057723 0.050368
O O4 0.199928 0.044063 0.203689
O O5 0.853108 0.285628 0.412733
O O6 0.520456 0.198106 0.670641
O O7 0.977394 0.146709 0.480488
O O8 0.736658 0.104333 0.416593
O O9 0.877459 0.855602 0.060552
O O10 0.886688 0.959990 0.215063
O O11 0.613211 0.790116 0.610756
O O12 0.139354 0.066576 0.584640
#
# Coordination Sequence:
#
# PCOD9243790 Si02
#       6
#     4   4   4   4   4   4
#     4  11  20  41  64  86 115 162 200 237 288 363
#     4  10  20  41  62  83 120 164 193 240 301 350
#     4  11  25  37  59  96 122 147 197 255 301 334
#     4  11  21  39  64  86 122 158 199 242 289 354
#     4  11  22  41  63  88 119 156 200 243 296 354
#     4  10  20  38  66  84 113 163 206 228 287 370
#
# _framework density 24.583476999999998
#
# number of rings (size 3 to 8) (size 9 to 14) (size 15 to 20)
#    0.000    1.333    5.000    2.000    0.000    2.000 
#    3.000    0.000    0.000    0.000    0.000    0.000 
#    0.000    0.000    0.000    0.000    0.000    0.000 
#
# Total GULP energy -134293.395309 kJ/mol
# GULP energy per Si atom -5595.558138 kJ/mol
# Density = 2.452752 g / cm^3
# Si number density = 24.583477 Si / 1000 Ang^3
#
#
#
# Elastic Constant Matrix: (Units=GPa)
#
#
# Indices 1 2 3 4 5 6 
#
# 1 41.6325 14.3341 12.7990 0.0000 -13.0234 0.0000
# 2 14.3341 150.0842 27.9309 0.0000 -7.6781 0.0000
# 3 12.7990 27.9309 76.7813 0.0000 -15.3154 0.0000
# 4 0.0000 0.0000 0.0000 38.7252 0.0000 -4.3164
# 5 -13.0234 -7.6781 -15.3154 0.0000 16.8353 0.0000
# 6 0.0000 0.0000 0.0000 -4.3164 0.0000 27.0117
#
#
#
# Elastic Compliance Matrix: (Units=1/GPa)
#
#
# Indices 1 2 3 4 5 6 
#
# 1 0.032179 -0.001862 0.000133 0.000000 0.024165 0.000000
# 2 -0.001862 0.007271 -0.002395 0.000000 -0.000303 0.000000
# 3 0.000133 -0.002395 0.016707 0.000000 0.014210 0.000000
# 4 0.000000 0.000000 0.000000 0.026291 0.000000 0.004201
# 5 0.024165 -0.000303 0.014210 0.000000 0.090881 0.000000
# 6 0.000000 0.000000 0.000000 0.004201 0.000000 0.037692
#
#
# Mechanical properties :
#
#
# Convention : Reuss Voigt Hill
#
# Bulk Modulus (GPa) = 20.87230 42.06956 31.47093
# Shear Modulus (GPa) = 21.25491 30.74339 25.99915
#
# Velocity S-wave (km/s) = 2.94360 3.54018 3.25558
# Velocity P-wave (km/s) = 4.47905 5.81898 5.19242
#
# Compressibility (1/GPa) = 0.04791040
#
# Stress axis : x y z
#
# Youngs Moduli (GPa) = 31.07608 137.53323 59.85350
#
# Poissons Ratio (x) = 0.25607 -0.00799
# Poissons Ratio (y) = 0.05786 0.14335
# Poissons Ratio (z) = -0.00415 0.32940
#
# Static dielectric constant tensor:
#      x y z
#    x 1.989620 0.000000 -0.019800 
#    y 0.000000 1.953770 0.000000 
#    z -0.019800 0.000000 1.976240 
# 
# From -- ./inp_files/24075.got.cif
#   From: 2010.05.17/outbox.cif.g08.bks.cpg/sg14_13_cif.got.tgz:24075.got - 2010.06.03 17:49:19.
