data_PCOD9243413
_publ_section_title
;
Structure prediction by ZEFSAII (Michael W. Deem and Ramdas Pophale) SiO2 
 PCOD9243413
Probable space group: P 21/C
;
_chemical_formula_sum "Si O2"
_cell_formula_units_Z 32
_cell_length_a 12.428768
_cell_length_b 8.813493
_cell_length_c 14.743837
_cell_angle_alpha 90.000000
_cell_angle_beta 67.724628
_cell_angle_gamma 90.000000
_cell_volume 1494.525629
_symmetry_space_group_name_H-M "P 21/C"
_symmetry_group_IT_number 14
_symmetry_cell_setting 'monoclinic'
loop_
_space_group_symop_operation_xyz
x,y,z
-x,1/2+y,1/2-z
-x,-y,-z
x,1/2-y,1/2+z
loop_
_atom_site_type_symbol
_atom_site_label
_atom_site_fract_x
_atom_site_fract_y
_atom_site_fract_z
Si Si1 0.387532 0.928075 0.146886
Si Si2 0.201976 0.986391 0.349825
Si Si3 0.136023 0.843010 0.934247
Si Si4 0.113429 0.003803 0.769371
Si Si5 0.369403 0.576128 0.439330
Si Si6 0.385494 0.938509 0.432635
Si Si7 0.371850 0.566997 0.151433
Si Si8 0.004147 0.696438 0.146451
O O1 0.290189 0.007112 0.238450
O O2 0.377012 0.747526 0.164034
O O3 0.516943 0.985727 0.128694
O O4 0.362678 0.957060 0.048809
O O5 0.170452 0.808796 0.367574
O O6 0.277503 0.013285 0.415745
O O7 0.089519 0.088058 0.372141
O O8 0.246054 0.944670 0.930393
O O9 0.067137 0.937849 0.880575
O O10 0.080182 0.775592 0.043631
O O11 0.062210 0.171147 0.778270
O O12 0.253338 0.999282 0.728662
O O13 0.076941 0.900805 0.695664
O O14 0.388040 0.756834 0.420909
O O15 0.372229 0.966818 0.543552
O O16 0.506381 0.999579 0.355043
#
# Coordination Sequence:
#
# PCOD9243413 Si02
#       8
#     4   4   4   4   4   4   4   4
#     4  10  20  37  63  97 132 176 212 267 340 395
#     4  11  23  40  69  98 132 181 220 280 338 406
#     4  11  24  46  70  97 136 182 229 286 338 396
#     4  12  26  45  70  97 132 184 223 292 332 406
#     4   9  21  38  64  95 137 171 213 279 329 403
#     4   9  21  38  64  96 136 171 216 273 336 403
#     4  10  21  42  63  96 136 173 218 271 338 401
#     4  12  28  46  69 100 136 178 240 277 339 407
#
# _framework density 21.411476
#
# number of rings (size 3 to 8) (size 9 to 14) (size 15 to 20)
#    0.000    1.500    1.250    3.750    5.250    2.000 
#    0.000    0.000    0.000    0.000    0.000    0.000 
#    0.000    0.000    0.000    0.000    0.000    0.000 
#
# Total GULP energy -178819.813327 kJ/mol
# GULP energy per Si atom -5588.119166 kJ/mol
# Density = 2.136274 g / cm^3
# Si number density = 21.411476 Si / 1000 Ang^3
#
#
#
# Elastic Constant Matrix: (Units=GPa)
#
#
# Indices 1 2 3 4 5 6 
#
# 1 97.9268 18.3098 31.1087 0.0000 13.7686 0.0000
# 2 18.3098 17.5014 19.4491 0.0000 6.2729 0.0000
# 3 31.1087 19.4491 87.0821 0.0000 1.8186 0.0000
# 4 0.0000 0.0000 0.0000 14.9521 0.0000 2.2427
# 5 13.7686 6.2729 1.8186 0.0000 30.3737 0.0000
# 6 0.0000 0.0000 0.0000 2.2427 0.0000 45.1252
#
#
#
# Elastic Compliance Matrix: (Units=1/GPa)
#
#
# Indices 1 2 3 4 5 6 
#
# 1 0.013394 -0.009831 -0.002508 0.000000 -0.003891 0.000000
# 2 -0.009831 0.090389 -0.016400 0.000000 -0.013229 0.000000
# 3 -0.002508 -0.016400 0.015967 0.000000 0.003568 0.000000
# 4 0.000000 0.000000 0.000000 0.067382 0.000000 -0.003349
# 5 -0.003891 -0.013229 0.003568 0.000000 0.037206 0.000000
# 6 0.000000 0.000000 0.000000 -0.003349 0.000000 0.022327
#
#
# Mechanical properties :
#
#
# Convention : Reuss Voigt Hill
#
# Bulk Modulus (GPa) = 16.05802 37.80505 26.93154
# Shear Modulus (GPa) = 15.38938 26.99973 21.19456
#
# Velocity S-wave (km/s) = 2.68385 3.55490 3.14963
# Velocity P-wave (km/s) = 4.13764 5.87746 5.08255
#
# Compressibility (1/GPa) = 0.06227418
#
# Stress axis : x y z
#
# Youngs Moduli (GPa) = 74.66301 11.06326 62.62729
#
# Poissons Ratio (x) = 0.10876 0.15705
# Poissons Ratio (y) = 0.73399 1.02706
# Poissons Ratio (z) = 0.18724 0.18143
#
# Static dielectric constant tensor:
#      x y z
#    x 1.784300 0.000000 -0.000200 
#    y 0.000000 1.743080 0.000000 
#    z -0.000200 0.000000 1.806010 
# 
# From -- ./inp_files/43713.got.cif
#   From: 2010.05.17/outbox.cif.g08.bks.cpg/sg14_22_cif.got.tgz:43713.got - 2010.06.03 17:49:19.
