data_PCOD9243941
_publ_section_title
;
Structure prediction by ZEFSAII (Michael W. Deem and Ramdas Pophale) SiO2 
 PCOD9243941
Probable space group: P 21/C
;
_chemical_formula_sum "Si O2"
_cell_formula_units_Z 20
_cell_length_a 11.677255
_cell_length_b 11.895886
_cell_length_c 12.455756
_cell_angle_alpha 90.000000
_cell_angle_beta 147.514167
_cell_angle_gamma 90.000000
_cell_volume 929.299212
_symmetry_space_group_name_H-M "P 21/C"
_symmetry_group_IT_number 14
_symmetry_cell_setting 'monoclinic'
loop_
_space_group_symop_operation_xyz
x,y,z
-x,1/2+y,1/2-z
-x,-y,-z
x,1/2-y,1/2+z
loop_
_atom_site_type_symbol
_atom_site_label
_atom_site_fract_x
_atom_site_fract_y
_atom_site_fract_z
Si Si1 0.677170 0.162082 0.610022
Si Si2 0.514205 0.375825 0.564377
Si Si3 0.114569 0.096155 0.874853
Si Si4 0.454425 0.528214 0.786588
Si Si5 0.829997 0.485356 0.959784
O O1 0.587063 0.286908 0.534613
O O2 0.561142 0.077295 0.435515
O O3 0.931460 0.163103 0.792729
O O4 0.618492 0.115564 0.681567
O O5 0.500000 0.500000 0.500000
O O6 0.290969 0.341483 0.442052
O O7 0.686197 0.384296 0.796914
O O8 0.976460 0.028839 0.678994
O O9 0.251686 0.017336 0.061242
O O10 0.639853 0.567323 0.850488
O O11 0.000000 0.500000 0.000000
#
# Coordination Sequence:
#
# PCOD9243941 Si02
#       5
#     4   4   4   4   4
#     4  10  22  42  65  93 124 168 212 262 325 379
#     4  11  23  41  62  93 131 168 211 261 316 387
#     4  10  21  42  62  93 125 165 214 263 321 371
#     4   9  21  41  65  94 126 161 217 268 313 379
#     4  10  20  39  62  90 127 169 209 255 317 378
#
# _framework density 21.521591999999998
#
# number of rings (size 3 to 8) (size 9 to 14) (size 15 to 20)
#    0.000    2.000    2.000    0.600    0.000    3.200 
#   25.200    0.000    0.000    0.000    0.000    0.000 
#    0.000    0.000    0.000    0.000    0.000    0.000 
#
# Total GULP energy -111441.324465 kJ/mol
# GULP energy per Si atom -5572.066223 kJ/mol
# Density = 2.147261 g / cm^3
# Si number density = 21.521592 Si / 1000 Ang^3
#
#
#
# Elastic Constant Matrix: (Units=GPa)
#
#
# Indices 1 2 3 4 5 6 
#
# 1 155.5099 41.7657 54.1684 0.0000 40.0264 0.0000
# 2 41.7657 66.2274 30.0654 0.0000 22.9608 0.0000
# 3 54.1684 30.0654 151.8015 0.0000 17.4527 0.0000
# 4 0.0000 0.0000 0.0000 12.0445 0.0000 -0.3651
# 5 40.0264 22.9608 17.4527 0.0000 58.6656 0.0000
# 6 0.0000 0.0000 0.0000 -0.3651 0.0000 14.8089
#
#
#
# Elastic Compliance Matrix: (Units=1/GPa)
#
#
# Indices 1 2 3 4 5 6 
#
# 1 0.009175 -0.003324 -0.002118 0.000000 -0.004329 0.000000
# 2 -0.003324 0.019875 -0.002192 0.000000 -0.004859 0.000000
# 3 -0.002118 -0.002192 0.007779 0.000000 -0.000011 0.000000
# 4 0.000000 0.000000 0.000000 0.083088 0.000000 0.002048
# 5 -0.004329 -0.004859 -0.000011 0.000000 0.021904 0.000000
# 6 0.000000 0.000000 0.000000 0.002048 0.000000 0.067577
#
#
# Mechanical properties :
#
#
# Convention : Reuss Voigt Hill
#
# Bulk Modulus (GPa) = 46.37801 69.50421 57.94111
# Shear Modulus (GPa) = 21.56537 33.60642 27.58589
#
# Velocity S-wave (km/s) = 3.16893 3.95590 3.58408
# Velocity P-wave (km/s) = 5.91488 7.29594 6.64140
#
# Compressibility (1/GPa) = 0.02156194
#
# Stress axis : x y z
#
# Youngs Moduli (GPa) = 108.98987 50.31387 128.55598
#
# Poissons Ratio (x) = 0.16724 0.27228
# Poissons Ratio (y) = 0.36227 0.28176
# Poissons Ratio (z) = 0.23084 0.11027
#
# Static dielectric constant tensor:
#      x y z
#    x 1.865620 0.000000 0.008580 
#    y 0.000000 1.799110 0.000000 
#    z 0.008580 0.000000 1.788390 
# 
# From -- ./inp_files/44532.got.cif
#   From: 2010.05.17/outbox.cif.g08.bks.cpg/sg14_23_cif.got.tgz:44532.got - 2010.06.03 17:49:19.
