data_PCOD9243965
_publ_section_title
;
Structure prediction by ZEFSAII (Michael W. Deem and Ramdas Pophale) SiO2 
 PCOD9243965
Probable space group: P 21/C
;
_chemical_formula_sum "Si O2"
_cell_formula_units_Z 28
_cell_length_a 6.545684
_cell_length_b 13.433469
_cell_length_c 18.692819
_cell_angle_alpha 90.000000
_cell_angle_beta 59.877388
_cell_angle_gamma 90.000000
_cell_volume 1421.709086
_symmetry_space_group_name_H-M "P 21/C"
_symmetry_group_IT_number 14
_symmetry_cell_setting 'monoclinic'
loop_
_space_group_symop_operation_xyz
x,y,z
-x,1/2+y,1/2-z
-x,-y,-z
x,1/2-y,1/2+z
loop_
_atom_site_type_symbol
_atom_site_label
_atom_site_fract_x
_atom_site_fract_y
_atom_site_fract_z
Si Si1 0.371308 0.428540 0.198411
Si Si2 0.667694 0.066892 0.021770
Si Si3 0.180755 0.407922 0.387170
Si Si4 0.492628 0.287118 0.834837
Si Si5 0.079938 0.607898 0.187145
Si Si6 0.165903 0.042229 0.410379
Si Si7 0.604231 0.695589 0.317126
O O1 0.260409 0.443665 0.295709
O O2 0.222516 0.507020 0.178453
O O3 0.648495 0.459017 0.150339
O O4 0.345743 0.313128 0.181827
O O5 0.545785 0.153205 0.090540
O O6 0.757098 0.989882 0.065724
O O7 0.899394 0.109056 0.940638
O O8 0.500000 0.000000 0.000000
O O9 0.348282 0.313180 0.370407
O O10 0.750796 0.299728 0.822694
O O11 0.340785 0.370209 0.902788
O O12 0.498959 0.310384 0.747269
O O13 0.992734 0.594265 0.122029
O O14 0.840361 0.628516 0.272937
O O15 0.000000 0.000000 0.500000
#
# Coordination Sequence:
#
# PCOD9243965 Si02
#       7
#     4   4   4   4   4   4   4
#     4  10  22  40  62  89 119 165 210 253 311 373
#     4  11  23  38  60  92 127 162 204 262 317 373
#     4  10  22  40  59  87 124 162 203 259 309 372
#     4   9  21  39  62  86 119 164 207 253 309 375
#     4  10  20  39  63  88 119 161 209 247 313 372
#     4  10  22  38  59  87 123 156 196 267 308 362
#     4  10  22  39  62  91 122 163 206 258 307 373
#
# _framework density 19.694604999999999
#
# number of rings (size 3 to 8) (size 9 to 14) (size 15 to 20)
#    0.000    2.000    0.000    3.429    2.000   10.286 
#    2.571    0.000    0.000    0.000    0.000    0.000 
#    0.000    0.000    0.000    0.000    0.000    0.000 
#
# Total GULP energy -156051.461683 kJ/mol
# GULP energy per Si atom -5573.266489 kJ/mol
# Density = 1.964978 g / cm^3
# Si number density = 19.694605 Si / 1000 Ang^3
#
#
#
# Elastic Constant Matrix: (Units=GPa)
#
#
# Indices 1 2 3 4 5 6 
#
# 1 88.4432 13.7599 39.3611 0.0000 -17.8693 0.0000
# 2 13.7599 52.9396 10.8283 0.0000 1.3411 0.0000
# 3 39.3611 10.8283 116.6041 0.0000 -26.7938 0.0000
# 4 0.0000 0.0000 0.0000 28.1932 0.0000 -3.4668
# 5 -17.8693 1.3411 -26.7938 0.0000 14.6758 0.0000
# 6 0.0000 0.0000 0.0000 -3.4668 0.0000 30.1832
#
#
#
# Elastic Compliance Matrix: (Units=1/GPa)
#
#
# Indices 1 2 3 4 5 6 
#
# 1 0.016110 -0.004515 -0.000718 0.000000 0.018718 0.000000
# 2 -0.004515 0.021180 -0.003705 0.000000 -0.014197 0.000000
# 3 -0.000718 -0.003705 0.015572 0.000000 0.027895 0.000000
# 4 0.000000 0.000000 0.000000 0.035978 0.000000 0.004132
# 5 0.018718 -0.014197 0.027895 0.000000 0.143156 0.000000
# 6 0.000000 0.000000 0.000000 0.004132 0.000000 0.033606
#
#
# Mechanical properties :
#
#
# Convention : Reuss Voigt Hill
#
# Bulk Modulus (GPa) = 28.58167 42.87618 35.72893
# Shear Modulus (GPa) = 16.94108 27.54628 22.24368
#
# Velocity S-wave (km/s) = 2.93608 3.74394 3.36435
# Velocity P-wave (km/s) = 5.10275 6.36453 5.76824
#
# Compressibility (1/GPa) = 0.03498746
#
# Stress axis : x y z
#
# Youngs Moduli (GPa) = 62.07165 47.21350 64.21676
#
# Poissons Ratio (x) = 0.21315 0.04610
# Poissons Ratio (y) = 0.28023 0.23794
# Poissons Ratio (z) = 0.04456 0.17494
#
# Static dielectric constant tensor:
#      x y z
#    x 1.770990 0.000000 -0.007810 
#    y 0.000000 1.737070 0.000000 
#    z -0.007810 0.000000 1.689300 
# 
# From -- ./inp_files/53403.got.cif
#   From: 2010.05.17/outbox.cif.g08.bks.cpg/sg14_27_cif.got.tgz:53403.got - 2010.06.03 17:49:19.
