data_PCOD9243571
_publ_section_title
;
Structure prediction by ZEFSAII (Michael W. Deem and Ramdas Pophale) SiO2 
 PCOD9243571
Probable space group: P 21/C
;
_chemical_formula_sum "Si O2"
_cell_formula_units_Z 32
_cell_length_a 8.919433
_cell_length_b 23.507508
_cell_length_c 13.950349
_cell_angle_alpha 90.000000
_cell_angle_beta 32.158581
_cell_angle_gamma 90.000000
_cell_volume 1556.884351
_symmetry_space_group_name_H-M "P 21/C"
_symmetry_group_IT_number 14
_symmetry_cell_setting 'monoclinic'
loop_
_space_group_symop_operation_xyz
x,y,z
-x,1/2+y,1/2-z
-x,-y,-z
x,1/2-y,1/2+z
loop_
_atom_site_type_symbol
_atom_site_label
_atom_site_fract_x
_atom_site_fract_y
_atom_site_fract_z
Si Si1 0.383968 0.537730 0.148295
Si Si2 0.680289 0.521524 0.183227
Si Si3 0.276360 0.433194 0.481785
Si Si4 0.863416 0.850809 0.605216
Si Si5 0.653965 0.739935 0.071653
Si Si6 0.521126 0.844380 0.277621
Si Si7 0.449712 0.845063 0.532423
Si Si8 0.812131 0.664965 0.340443
O O1 0.505506 0.513379 0.180411
O O2 0.524702 0.599085 0.051494
O O3 0.043815 0.543584 0.336505
O O4 0.500000 0.500000 0.000000
O O5 0.502898 0.483684 0.353821
O O6 0.703944 0.589065 0.186909
O O7 0.000000 0.500000 0.000000
O O8 0.296081 0.391794 0.377294
O O9 0.351365 0.388656 0.526382
O O10 0.819959 0.808737 0.539499
O O11 0.749930 0.821427 0.764311
O O12 0.196117 0.862448 0.437102
O O13 0.541688 0.783551 0.212736
O O14 0.454814 0.705953 0.105764
O O15 0.802970 0.781772 0.915878
O O16 0.600162 0.838632 0.347544
O O17 0.132244 0.855192 0.671361
#
# Coordination Sequence:
#
# PCOD9243571 Si02
#       8
#     4   4   4   4   4   4   4   4
#     4  11  24  43  67  92 128 172 220 265 322 397
#     4  12  24  41  67  95 133 170 215 276 329 379
#     4  10  22  42  67  93 129 176 219 262 326 404
#     4  11  22  40  63  97 131 168 217 272 330 379
#     4  11  20  38  62  92 127 167 219 271 315 386
#     4  10  21  39  67  90 130 177 212 265 333 377
#     4  10  20  38  60  89 123 166 215 258 318 384
#     4   9  22  38  60  89 125 170 210 262 329 383
#
# _framework density 20.553871000000001
#
# number of rings (size 3 to 8) (size 9 to 14) (size 15 to 20)
#    0.000    1.500    2.500    2.625    3.500    0.500 
#    0.000    0.000   11.000    0.000    0.000    0.000 
#    0.000    0.000    0.000    0.000    0.000    0.000 
#
# Total GULP energy -178305.916684 kJ/mol
# GULP energy per Si atom -5572.059896 kJ/mol
# Density = 2.050709 g / cm^3
# Si number density = 20.553871 Si / 1000 Ang^3
#
#
#
# Elastic Constant Matrix: (Units=GPa)
#
#
# Indices 1 2 3 4 5 6 
#
# 1 61.4944 22.0324 31.9615 0.0000 8.7192 0.0000
# 2 22.0324 108.4329 49.5108 0.0000 6.4520 0.0000
# 3 31.9615 49.5108 90.5033 0.0000 6.2303 0.0000
# 4 0.0000 0.0000 0.0000 25.8220 0.0000 -2.5894
# 5 8.7192 6.4520 6.2303 0.0000 28.2344 0.0000
# 6 0.0000 0.0000 0.0000 -2.5894 0.0000 22.6604
#
#
#
# Elastic Compliance Matrix: (Units=1/GPa)
#
#
# Indices 1 2 3 4 5 6 
#
# 1 0.020620 -0.000976 -0.006423 0.000000 -0.004727 0.000000
# 2 -0.000976 0.012390 -0.006356 0.000000 -0.001127 0.000000
# 3 -0.006423 -0.006356 0.016813 0.000000 -0.000274 0.000000
# 4 0.000000 0.000000 0.000000 0.039176 0.000000 0.004477
# 5 -0.004727 -0.001127 -0.000274 0.000000 0.037196 0.000000
# 6 0.000000 0.000000 0.000000 0.004477 0.000000 0.044641
#
#
# Mechanical properties :
#
#
# Convention : Reuss Voigt Hill
#
# Bulk Modulus (GPa) = 44.81403 51.93776 48.37589
# Shear Modulus (GPa) = 24.29756 25.80508 25.05132
#
# Velocity S-wave (km/s) = 3.44196 3.54713 3.49494
# Velocity P-wave (km/s) = 6.13568 6.48846 6.31454
#
# Compressibility (1/GPa) = 0.02231444
#
# Stress axis : x y z
#
# Youngs Moduli (GPa) = 48.49735 80.71240 59.47663
#
# Poissons Ratio (x) = 0.07876 0.38200
# Poissons Ratio (y) = 0.04732 0.37801
# Poissons Ratio (z) = 0.31148 0.51298
#
# Static dielectric constant tensor:
#      x y z
#    x 1.753490 0.000000 0.044690 
#    y 0.000000 1.837270 0.000000 
#    z 0.044690 0.000000 1.768990 
# 
# From -- ./inp_files/42187.got.cif
#   From: 2010.05.17/outbox.cif.g08.bks.cpg/sg14_22_cif.got.tgz:42187.got - 2010.06.03 17:49:19.
