data_PCOD9243788
_publ_section_title
;
Structure prediction by ZEFSAII (Michael W. Deem and Ramdas Pophale) SiO2 
 PCOD9243788
Probable space group: P 21/C
;
_chemical_formula_sum "Si O2"
_cell_formula_units_Z 32
_cell_length_a 10.996044
_cell_length_b 17.973056
_cell_length_c 13.379524
_cell_angle_alpha 90.000000
_cell_angle_beta 34.728691
_cell_angle_gamma 90.000000
_cell_volume 1506.393825
_symmetry_space_group_name_H-M "P 21/C"
_symmetry_group_IT_number 14
_symmetry_cell_setting 'monoclinic'
loop_
_space_group_symop_operation_xyz
x,y,z
-x,1/2+y,1/2-z
-x,-y,-z
x,1/2-y,1/2+z
loop_
_atom_site_type_symbol
_atom_site_label
_atom_site_fract_x
_atom_site_fract_y
_atom_site_fract_z
Si Si1 0.625901 0.802462 0.236013
Si Si2 0.281274 0.586693 0.449774
Si Si3 0.040840 0.912284 0.459158
Si Si4 0.180820 0.413306 0.550228
Si Si5 0.458813 0.587829 0.541186
Si Si6 0.151582 0.655084 0.100209
Si Si7 0.352007 0.344915 0.899786
Si Si8 0.902073 0.697539 0.736015
O O1 0.404141 0.834482 0.426616
O O2 0.583234 0.735195 0.188524
O O3 0.768905 0.775241 0.231096
O O4 0.753769 0.865591 0.089387
O O5 0.227305 0.500000 0.499998
O O6 0.407918 0.614800 0.464203
O O7 0.443123 0.602335 0.250417
O O8 0.067450 0.634407 0.589396
O O9 0.839525 0.877424 0.538571
O O10 0.250314 0.900619 0.249683
O O11 0.083334 0.877423 0.538567
O O12 0.000000 0.000000 0.500000
O O13 0.336327 0.385199 0.535794
O O14 0.943958 0.397667 0.749587
O O15 0.500000 0.500000 0.500000
O O16 0.039725 0.735194 0.188518
O O17 0.257377 0.334478 0.073379
#
# Coordination Sequence:
#
# PCOD9243788 Si02
#       8
#     4   4   4   4   4   4   4   4
#     4  12  27  46  69 102 140 186 231 278 352 424
#     4  11  24  44  70 102 142 181 231 289 346 407
#     4  12  22  40  76 109 136 175 231 300 356 397
#     4  11  24  44  70 102 142 181 231 289 346 407
#     4  10  20  38  66 105 137 172 221 292 344 395
#     4  12  25  45  70 103 140 178 233 291 346 418
#     4  12  25  45  70 103 140 178 233 291 346 418
#     4  12  27  46  69 102 140 186 231 278 352 424
#
# _framework density 21.242784
#
# number of rings (size 3 to 8) (size 9 to 14) (size 15 to 20)
#    0.000    0.500    6.250    3.750    0.000    1.500 
#    2.250    1.250    0.000    0.000    0.000    0.000 
#    0.000    0.000    0.000    0.000    0.000    0.000 
#
# Total GULP energy -179101.447044 kJ/mol
# GULP energy per Si atom -5596.920220 kJ/mol
# Density = 2.119443 g / cm^3
# Si number density = 21.242784 Si / 1000 Ang^3
#
#
#
# Elastic Constant Matrix: (Units=GPa)
#
#
# Indices 1 2 3 4 5 6 
#
# 1 32.8933 -6.3845 3.4152 0.0000 0.1779 0.0000
# 2 -6.3845 76.9544 26.7059 0.0000 2.0826 0.0000
# 3 3.4152 26.7059 165.0943 0.0000 8.1370 0.0000
# 4 0.0000 0.0000 0.0000 42.2334 0.0000 1.0416
# 5 0.1779 2.0826 8.1370 0.0000 16.6416 0.0000
# 6 0.0000 0.0000 0.0000 1.0416 0.0000 25.6558
#
#
#
# Elastic Compliance Matrix: (Units=1/GPa)
#
#
# Indices 1 2 3 4 5 6 
#
# 1 0.031095 0.002971 -0.001116 0.000000 -0.000159 0.000000
# 2 0.002971 0.014058 -0.002303 0.000000 -0.000665 0.000000
# 3 -0.001116 -0.002303 0.006597 0.000000 -0.002925 0.000000
# 4 0.000000 0.000000 0.000000 0.023702 0.000000 -0.000962
# 5 -0.000159 -0.000665 -0.002925 0.000000 0.061606 0.000000
# 6 0.000000 0.000000 0.000000 -0.000962 0.000000 0.039017
#
#
# Mechanical properties :
#
#
# Convention : Reuss Voigt Hill
#
# Bulk Modulus (GPa) = 19.66368 35.82389 27.74379
# Shear Modulus (GPa) = 25.78371 33.65319 29.71845
#
# Velocity S-wave (km/s) = 3.48769 3.98454 3.74437
# Velocity P-wave (km/s) = 5.04929 6.17004 5.63759
#
# Compressibility (1/GPa) = 0.05085518
#
# Stress axis : x y z
#
# Youngs Moduli (GPa) = 32.15970 71.13193 151.58579
#
# Poissons Ratio (x) = -0.21136 0.16918
# Poissons Ratio (y) = -0.09556 0.34907
# Poissons Ratio (z) = 0.03589 0.16380
#
# Static dielectric constant tensor:
#      x y z
#    x 1.758200 0.000000 -0.000390 
#    y 0.000000 1.755200 0.000000 
#    z -0.000390 0.000000 1.752010 
# 
# From -- ./inp_files/45443.got.cif
#   From: 2010.05.17/outbox.cif.g08.bks.cpg/sg14_23_cif.got.tgz:45443.got - 2010.06.03 17:49:19.
