data_PCOD9243442
_publ_section_title
;
Structure prediction by ZEFSAII (Michael W. Deem and Ramdas Pophale) SiO2 
 PCOD9243442
Probable space group: P 21/C
;
_chemical_formula_sum "Si O2"
_cell_formula_units_Z 28
_cell_length_a 9.637906
_cell_length_b 14.789609
_cell_length_c 13.540219
_cell_angle_alpha 90.000000
_cell_angle_beta 45.819166
_cell_angle_gamma 90.000000
_cell_volume 1384.112214
_symmetry_space_group_name_H-M "P 21/C"
_symmetry_group_IT_number 14
_symmetry_cell_setting 'monoclinic'
loop_
_space_group_symop_operation_xyz
x,y,z
-x,1/2+y,1/2-z
-x,-y,-z
x,1/2-y,1/2+z
loop_
_atom_site_type_symbol
_atom_site_label
_atom_site_fract_x
_atom_site_fract_y
_atom_site_fract_z
Si Si1 0.128984 0.868784 0.859168
Si Si2 0.818827 0.962826 0.887092
Si Si3 0.598626 0.489865 0.318627
Si Si4 0.393467 0.149693 0.575366
Si Si5 0.985421 0.354619 0.355897
Si Si6 0.477889 0.017232 0.365470
Si Si7 0.309200 0.788822 0.151134
O O1 0.302426 0.942131 0.755671
O O2 0.217981 0.774412 0.780039
O O3 0.940555 0.888773 0.885326
O O4 0.065416 0.866317 0.004333
O O5 0.731681 0.946630 0.821773
O O6 0.963487 0.047362 0.815688
O O7 0.628203 0.997000 0.040615
O O8 0.615376 0.509170 0.195504
O O9 0.650399 0.387520 0.324989
O O10 0.366066 0.086720 0.492015
O O11 0.503674 0.237792 0.483132
O O12 0.201414 0.176268 0.728154
O O13 0.511258 0.080890 0.588230
O O14 0.834549 0.294588 0.370563
#
# Coordination Sequence:
#
# PCOD9243442 Si02
#       7
#     4   4   4   4   4   4   4
#     4  11  21  41  65  91 117 172 212 250 311 389
#     4  10  20  37  65  89 118 159 215 254 297 378
#     4  10  21  39  62  95 124 159 206 266 311 366
#     4  10  22  40  63  92 126 163 208 262 309 377
#     4  11  21  41  62  91 123 166 211 257 305 380
#     4  10  20  40  69  89 119 163 214 255 314 369
#     4  10  26  39  57  94 137 155 207 264 319 360
#
# _framework density 20.229572999999998
#
# number of rings (size 3 to 8) (size 9 to 14) (size 15 to 20)
#    0.000    1.714    2.857    1.286    4.000    0.000 
#    0.000    4.286    0.000    0.000    0.000    0.000 
#    0.000    0.000    0.000    0.000    0.000    0.000 
#
# Total GULP energy -156295.207396 kJ/mol
# GULP energy per Si atom -5581.971693 kJ/mol
# Density = 2.018353 g / cm^3
# Si number density = 20.229573 Si / 1000 Ang^3
#
#
#
# Elastic Constant Matrix: (Units=GPa)
#
#
# Indices 1 2 3 4 5 6 
#
# 1 101.1386 30.8077 35.0930 0.0000 25.8973 0.0000
# 2 30.8077 35.4174 13.9462 0.0000 -0.9048 0.0000
# 3 35.0930 13.9462 98.2784 0.0000 12.3191 0.0000
# 4 0.0000 0.0000 0.0000 12.2201 0.0000 -0.1761
# 5 25.8973 -0.9048 12.3191 0.0000 38.0494 0.0000
# 6 0.0000 0.0000 0.0000 -0.1761 0.0000 15.4411
#
#
#
# Elastic Compliance Matrix: (Units=1/GPa)
#
#
# Indices 1 2 3 4 5 6 
#
# 1 0.018733 -0.015434 -0.002976 0.000000 -0.012154 0.000000
# 2 -0.015434 0.042795 -0.002091 0.000000 0.012199 0.000000
# 3 -0.002976 -0.002091 0.011764 0.000000 -0.001833 0.000000
# 4 0.000000 0.000000 0.000000 0.081846 0.000000 0.000934
# 5 -0.012154 0.012199 -0.001833 0.000000 0.035437 0.000000
# 6 0.000000 0.000000 0.000000 0.000934 0.000000 0.064773
#
#
# Mechanical properties :
#
#
# Convention : Reuss Voigt Hill
#
# Bulk Modulus (GPa) = 30.96781 43.83646 37.40214
# Shear Modulus (GPa) = 16.28063 23.47461 19.87762
#
# Velocity S-wave (km/s) = 2.83997 3.41018 3.13805
# Velocity P-wave (km/s) = 5.10836 6.10101 5.62661
#
# Compressibility (1/GPa) = 0.03229159
#
# Stress axis : x y z
#
# Youngs Moduli (GPa) = 53.38084 23.36731 85.00363
#
# Poissons Ratio (x) = 0.36065 0.25294
# Poissons Ratio (y) = 0.82387 0.17773
# Poissons Ratio (z) = 0.15884 0.04886
#
# Static dielectric constant tensor:
#      x y z
#    x 1.725830 0.000000 -0.015800 
#    y 0.000000 1.729040 0.000000 
#    z -0.015800 0.000000 1.712260 
# 
# From -- ./inp_files/41157.got.cif
#   From: 2010.05.17/outbox.cif.g08.bks.cpg/sg14_21_cif.got.tgz:41157.got - 2010.06.03 17:49:19.
