data_PCOD9243568
_publ_section_title
;
Structure prediction by ZEFSAII (Michael W. Deem and Ramdas Pophale) SiO2 
 PCOD9243568
Probable space group: P 21/C
;
_chemical_formula_sum "Si O2"
_cell_formula_units_Z 24
_cell_length_a 24.210718
_cell_length_b 4.959928
_cell_length_c 18.740052
_cell_angle_alpha 90.000000
_cell_angle_beta 156.979062
_cell_angle_gamma 90.000000
_cell_volume 880.046349
_symmetry_space_group_name_H-M "P 21/C"
_symmetry_group_IT_number 14
_symmetry_cell_setting 'monoclinic'
loop_
_space_group_symop_operation_xyz
x,y,z
-x,1/2+y,1/2-z
-x,-y,-z
x,1/2-y,1/2+z
loop_
_atom_site_type_symbol
_atom_site_label
_atom_site_fract_x
_atom_site_fract_y
_atom_site_fract_z
Si Si1 0.311237 0.607517 0.298998
Si Si2 0.941478 0.804267 0.771726
Si Si3 0.489692 0.675268 0.899477
Si Si4 0.130974 0.303611 0.973266
Si Si5 0.761152 0.361979 0.161163
Si Si6 0.409067 0.925674 0.156501
O O1 0.427497 0.452453 0.485158
O O2 0.389638 0.844596 0.349209
O O3 0.190569 0.707146 0.209994
O O4 0.255808 0.403745 0.172606
O O5 0.004074 0.505975 0.844841
O O6 0.851158 0.834858 0.590831
O O7 0.858274 0.913683 0.741185
O O8 0.075006 0.005036 0.921474
O O9 0.616526 0.492982 0.019853
O O10 0.381648 0.657429 0.704885
O O11 0.714412 0.157498 0.043429
O O12 0.458263 0.232334 0.206964
#
# Coordination Sequence:
#
# PCOD9243568 Si02
#       6
#     4   4   4   4   4   4
#     4  11  23  41  64  93 134 170 215 267 328 383
#     4  10  24  45  70  93 129 169 227 261 327 384
#     4  10  23  41  61  96 132 173 211 264 329 392
#     4  10  24  46  68  96 126 177 213 274 322 387
#     4  11  23  39  66  96 130 170 216 273 317 391
#     4  10  20  38  60  88 124 165 207 254 311 382
#
# _framework density 27.271288999999999
#
# number of rings (size 3 to 8) (size 9 to 14) (size 15 to 20)
#    0.000    1.667    1.667    1.500    4.667    1.333 
#    0.000    5.000    0.000    0.000    0.000    0.000 
#    0.000    0.000    0.000    0.000    0.000    0.000 
#
# Total GULP energy -134434.172298 kJ/mol
# GULP energy per Si atom -5601.423846 kJ/mol
# Density = 2.720922 g / cm^3
# Si number density = 27.271289 Si / 1000 Ang^3
#
#
#
# Elastic Constant Matrix: (Units=GPa)
#
#
# Indices 1 2 3 4 5 6 
#
# 1 144.6597 6.1526 34.6793 0.0000 -11.8540 0.0000
# 2 6.1526 67.3724 28.1712 0.0000 12.3155 0.0000
# 3 34.6793 28.1712 84.9540 0.0000 -5.6448 0.0000
# 4 0.0000 0.0000 0.0000 41.1016 0.0000 8.4462
# 5 -11.8540 12.3155 -5.6448 0.0000 41.1218 0.0000
# 6 0.0000 0.0000 0.0000 8.4462 0.0000 19.2291
#
#
#
# Elastic Compliance Matrix: (Units=1/GPa)
#
#
# Indices 1 2 3 4 5 6 
#
# 1 0.007801 0.000297 -0.003168 0.000000 0.001725 0.000000
# 2 0.000297 0.018847 -0.006802 0.000000 -0.006493 0.000000
# 3 -0.003168 -0.006802 0.015537 0.000000 0.003257 0.000000
# 4 0.000000 0.000000 0.000000 0.026744 0.000000 -0.011747
# 5 0.001725 -0.006493 0.003257 0.000000 0.027207 0.000000
# 6 0.000000 0.000000 0.000000 -0.011747 0.000000 0.057164
#
#
# Mechanical properties :
#
#
# Convention : Reuss Voigt Hill
#
# Bulk Modulus (GPa) = 43.78834 48.33248 46.06041
# Shear Modulus (GPa) = 27.73784 35.48939 31.61361
#
# Velocity S-wave (km/s) = 3.19267 3.61133 3.40844
# Velocity P-wave (km/s) = 5.44815 5.92877 5.69353
#
# Compressibility (1/GPa) = 0.02283713
#
# Stress axis : x y z
#
# Youngs Moduli (GPa) = 128.18798 53.05906 64.36430
#
# Poissons Ratio (x) = -0.01577 0.20393
# Poissons Ratio (y) = -0.03809 0.43783
# Poissons Ratio (z) = 0.40615 0.36093
#
# Static dielectric constant tensor:
#      x y z
#    x 2.142140 0.000000 -0.052120 
#    y 0.000000 2.134150 0.000000 
#    z -0.052120 0.000000 2.220390 
# 
# From -- ./inp_files/61611.got.cif
#   From: 2010.05.17/outbox.cif.g08.bks.cpg/sg14_31_cif.got.tgz:61611.got - 2010.06.03 17:49:19.
