data_PCOD9243185
_publ_section_title
;
Structure prediction by ZEFSAII (Michael W. Deem and Ramdas Pophale) SiO2 
 PCOD9243185
Probable space group: P 21/C
;
_chemical_formula_sum "Si O2"
_cell_formula_units_Z 28
_cell_length_a 11.805128
_cell_length_b 8.616058
_cell_length_c 25.930864
_cell_angle_alpha 90.000000
_cell_angle_beta 27.935163
_cell_angle_gamma 90.000000
_cell_volume 1235.606075
_symmetry_space_group_name_H-M "P 21/C"
_symmetry_group_IT_number 14
_symmetry_cell_setting 'monoclinic'
loop_
_space_group_symop_operation_xyz
x,y,z
-x,1/2+y,1/2-z
-x,-y,-z
x,1/2-y,1/2+z
loop_
_atom_site_type_symbol
_atom_site_label
_atom_site_fract_x
_atom_site_fract_y
_atom_site_fract_z
Si Si1 0.769480 0.604456 0.447559
Si Si2 0.125460 0.091930 0.729513
Si Si3 0.308515 0.719615 0.138868
Si Si4 0.748937 0.677397 0.237409
Si Si5 0.024978 0.891261 0.057144
Si Si6 0.287311 0.835098 0.850364
Si Si7 0.806140 0.328744 0.211384
O O1 0.515349 0.672802 0.531057
O O2 0.765326 0.496209 0.500643
O O3 0.934197 0.505996 0.341766
O O4 0.928647 0.754649 0.397266
O O5 0.281092 0.961891 0.637511
O O6 0.285075 0.203858 0.701669
O O7 0.951764 0.202370 0.766689
O O8 0.347984 0.732662 0.184716
O O9 0.530385 0.665275 0.285182
O O10 0.808240 0.503823 0.229617
O O11 0.970269 0.750514 0.116695
O O12 0.084559 0.829393 0.976640
O O13 0.793393 0.007421 0.147143
O O14 0.292732 0.699545 0.806147
#
# Coordination Sequence:
#
# PCOD9243185 Si02
#       7
#     4   4   4   4   4   4   4
#     4   9  20  39  60  85 117 153 190 236 290 343
#     4  10  23  39  61  89 113 149 198 233 287 354
#     4  11  21  41  62  82 117 151 186 242 289 336
#     4  11  21  37  57  85 119 149 190 243 285 337
#     4   9  20  36  56  83 118 154 192 232 287 348
#     4  10  20  37  57  82 115 156 192 233 289 340
#     4  10  22  35  57  89 114 148 199 232 281 352
#
# _framework density 22.660944000000001
#
# number of rings (size 3 to 8) (size 9 to 14) (size 15 to 20)
#    0.000    2.000    0.000    3.857    0.000    4.000 
#    0.000    9.286    0.000    0.000    0.000    0.000 
#    0.000    0.000    0.000    0.000    0.000    0.000 
#
# Total GULP energy -156273.358623 kJ/mol
# GULP energy per Si atom -5581.191379 kJ/mol
# Density = 2.260937 g / cm^3
# Si number density = 22.660944 Si / 1000 Ang^3
#
#
#
# Elastic Constant Matrix: (Units=GPa)
#
#
# Indices 1 2 3 4 5 6 
#
# 1 61.0800 22.6801 -6.5044 0.0000 -9.6634 0.0000
# 2 22.6801 112.6878 10.4327 0.0000 -7.3900 0.0000
# 3 -6.5044 10.4327 22.9888 0.0000 -2.5748 0.0000
# 4 0.0000 0.0000 0.0000 16.1076 0.0000 0.9154
# 5 -9.6634 -7.3900 -2.5748 0.0000 30.7059 0.0000
# 6 0.0000 0.0000 0.0000 0.9154 0.0000 38.5165
#
#
#
# Elastic Compliance Matrix: (Units=1/GPa)
#
#
# Indices 1 2 3 4 5 6 
#
# 1 0.019798 -0.004362 0.008239 0.000000 0.005872 0.000000
# 2 -0.004362 0.010335 -0.005855 0.000000 0.000624 0.000000
# 3 0.008239 -0.005855 0.049081 0.000000 0.005300 0.000000
# 4 0.000000 0.000000 0.000000 0.062166 0.000000 -0.001477
# 5 0.005872 0.000624 0.005300 0.000000 0.035009 0.000000
# 6 0.000000 0.000000 0.000000 -0.001477 0.000000 0.025998
#
#
# Mechanical properties :
#
#
# Convention : Reuss Voigt Hill
#
# Bulk Modulus (GPa) = 13.28758 27.77481 20.53119
# Shear Modulus (GPa) = 21.60480 28.40922 25.00701
#
# Velocity S-wave (km/s) = 3.09106 3.54455 3.32554
# Velocity P-wave (km/s) = 4.31461 5.38842 4.88114
#
# Compressibility (1/GPa) = 0.07525823
#
# Stress axis : x y z
#
# Youngs Moduli (GPa) = 50.50982 96.75865 20.37444
#
# Poissons Ratio (x) = 0.42210 -0.16787
# Poissons Ratio (y) = 0.22034 0.11929
# Poissons Ratio (z) = -0.41615 0.56649
#
# Static dielectric constant tensor:
#      x y z
#    x 1.885790 0.000000 0.000490 
#    y 0.000000 1.856310 0.000000 
#    z 0.000490 0.000000 1.870320 
# 
# From -- ./inp_files/77092.got.cif
#   From: 2010.05.17/outbox.cif.g08.bks.cpg/sg14_39_cif.got.tgz:77092.got - 2010.06.03 17:49:19.
