data_PCOD9243997
_publ_section_title
;
Structure prediction by ZEFSAII (Michael W. Deem and Ramdas Pophale) SiO2 
 PCOD9243997
Probable space group: P 21/C
;
_chemical_formula_sum "Si O2"
_cell_formula_units_Z 32
_cell_length_a 18.102691
_cell_length_b 12.291046
_cell_length_c 14.517739
_cell_angle_alpha 90.000000
_cell_angle_beta 154.322055
_cell_angle_gamma 90.000000
_cell_volume 1399.690073
_symmetry_space_group_name_H-M "P 21/C"
_symmetry_group_IT_number 14
_symmetry_cell_setting 'monoclinic'
loop_
_space_group_symop_operation_xyz
x,y,z
-x,1/2+y,1/2-z
-x,-y,-z
x,1/2-y,1/2+z
loop_
_atom_site_type_symbol
_atom_site_label
_atom_site_fract_x
_atom_site_fract_y
_atom_site_fract_z
Si Si1 0.224052 0.242576 0.908097
Si Si2 0.104045 0.038121 0.864785
Si Si3 0.238955 0.840221 0.910321
Si Si4 0.997628 0.921189 0.912203
Si Si5 0.402083 0.825626 0.739380
Si Si6 0.479954 0.457213 0.873878
Si Si7 0.397223 0.436971 0.173045
Si Si8 0.293543 0.723351 0.802255
O O1 0.133836 0.321822 0.733711
O O2 0.094156 0.151007 0.798718
O O3 0.400481 0.189941 0.070787
O O4 0.278550 0.331397 0.046394
O O5 0.286935 0.051383 0.122548
O O6 0.119990 0.934470 0.816105
O O7 0.975718 0.999903 0.799679
O O8 0.289133 0.753708 0.046814
O O9 0.416416 0.899943 0.084381
O O10 0.178913 0.784960 0.748699
O O11 0.179949 0.862277 0.118169
O O12 0.000000 0.000000 0.000000
O O13 0.382029 0.793120 0.822906
O O14 0.350317 0.950558 0.667946
O O15 0.572905 0.532316 0.902209
O O16 0.500000 0.500000 0.000000
O O17 0.571946 0.341233 0.983133
#
# Coordination Sequence:
#
# PCOD9243997 Si02
#       8
#     4   4   4   4   4   4   4   4
#     4  11  24  44  66  97 137 175 222 278 337 409
#     4  11  23  45  68  96 134 180 217 288 342 392
#     4  10  20  40  66  98 128 167 225 271 340 388
#     4  12  28  43  63 101 134 178 237 266 334 408
#     4  11  21  40  71  99 133 165 221 283 336 395
#     4  11  17  34  68  98 123 159 226 275 327 377
#     4  10  20  39  64 100 128 165 216 279 330 397
#     4  12  23  38  69  98 131 176 216 278 336 403
#
# _framework density 22.862204999999999
#
# number of rings (size 3 to 8) (size 9 to 14) (size 15 to 20)
#    0.000    1.000    6.250    3.000    1.750    2.500 
#    0.000    0.625    0.000    0.000    0.000    0.000 
#    0.000    0.000    0.000    0.000    0.000    0.000 
#
# Total GULP energy -178879.549180 kJ/mol
# GULP energy per Si atom -5589.985912 kJ/mol
# Density = 2.281017 g / cm^3
# Si number density = 22.862205 Si / 1000 Ang^3
#
#
#
# Elastic Constant Matrix: (Units=GPa)
#
#
# Indices 1 2 3 4 5 6 
#
# 1 79.2243 25.8757 -2.2036 0.0000 -13.9038 0.0000
# 2 25.8757 107.1309 -1.7529 0.0000 -7.6216 0.0000
# 3 -2.2036 -1.7529 40.0490 0.0000 -6.1175 0.0000
# 4 0.0000 0.0000 0.0000 34.5293 0.0000 -13.6489
# 5 -13.9038 -7.6216 -6.1175 0.0000 18.8376 0.0000
# 6 0.0000 0.0000 0.0000 -13.6489 0.0000 43.4264
#
#
#
# Elastic Compliance Matrix: (Units=1/GPa)
#
#
# Indices 1 2 3 4 5 6 
#
# 1 0.015600 -0.002937 0.002427 0.000000 0.011114 0.000000
# 2 -0.002937 0.010208 0.000615 0.000000 0.002162 0.000000
# 3 0.002427 0.000615 0.026770 0.000000 0.010734 0.000000
# 4 0.000000 0.000000 0.000000 0.033069 0.000000 0.010394
# 5 0.011114 0.002162 0.010734 0.000000 0.065649 0.000000
# 6 0.000000 0.000000 0.000000 0.010394 0.000000 0.026294
#
#
# Mechanical properties :
#
#
# Convention : Reuss Voigt Hill
#
# Bulk Modulus (GPa) = 18.94383 30.02696 24.48540
# Shear Modulus (GPa) = 25.64432 32.99100 29.31766
#
# Velocity S-wave (km/s) = 3.35280 3.80285 3.58490
# Velocity P-wave (km/s) = 4.82622 5.69602 5.27907
#
# Compressibility (1/GPa) = 0.05278763
#
# Stress axis : x y z
#
# Youngs Moduli (GPa) = 64.10329 97.96493 37.35593
#
# Poissons Ratio (x) = 0.28777 -0.09068
# Poissons Ratio (y) = 0.18830 -0.02299
# Poissons Ratio (z) = -0.15561 -0.06028
#
# Static dielectric constant tensor:
#      x y z
#    x 1.868050 0.000000 0.047500 
#    y 0.000000 1.924770 0.000000 
#    z 0.047500 0.000000 1.928910 
# 
# From -- ./inp_files/48931.got.cif
#   From: 2010.05.17/outbox.cif.g08.bks.cpg/sg14_25_cif.got.tgz:48931.got - 2010.06.03 17:49:19.
