data_PCOD9243614
_publ_section_title
;
Structure prediction by ZEFSAII (Michael W. Deem and Ramdas Pophale) SiO2 
 PCOD9243614
Probable space group: P 21/C
;
_chemical_formula_sum "Si O2"
_cell_formula_units_Z 32
_cell_length_a 21.993247
_cell_length_b 8.923854
_cell_length_c 13.426211
_cell_angle_alpha 90.000000
_cell_angle_beta 33.770796
_cell_angle_gamma 90.000000
_cell_volume 1464.772114
_symmetry_space_group_name_H-M "P 21/C"
_symmetry_group_IT_number 14
_symmetry_cell_setting 'monoclinic'
loop_
_space_group_symop_operation_xyz
x,y,z
-x,1/2+y,1/2-z
-x,-y,-z
x,1/2-y,1/2+z
loop_
_atom_site_type_symbol
_atom_site_label
_atom_site_fract_x
_atom_site_fract_y
_atom_site_fract_z
Si Si1 0.065654 0.708336 0.240187
Si Si2 0.411928 0.922798 0.373930
Si Si3 0.346268 0.742164 0.149759
Si Si4 0.642163 0.962817 0.969666
Si Si5 0.880313 0.386918 0.611651
Si Si6 0.085023 0.122377 0.683871
Si Si7 0.289244 0.668768 0.438836
Si Si8 0.247414 0.169009 0.635408
O O1 0.072451 0.669855 0.347523
O O2 0.098390 0.553438 0.139941
O O3 0.951651 0.773300 0.356853
O O4 0.160321 0.831539 0.094338
O O5 0.423609 0.840187 0.464289
O O6 0.519231 0.913810 0.162140
O O7 0.316621 0.830972 0.448279
O O8 0.363541 0.086780 0.457801
O O9 0.221723 0.712857 0.283527
O O10 0.353977 0.668010 0.247234
O O11 0.361225 0.919903 0.116622
O O12 0.676906 0.052418 0.023000
O O13 0.724415 0.824003 0.849447
O O14 0.826320 0.550544 0.702737
O O15 0.978208 0.379749 0.400968
O O16 0.184491 0.183446 0.615430
#
# Coordination Sequence:
#
# PCOD9243614 Si02
#       8
#     4   4   4   4   4   4   4   4
#     4  11  21  39  61  88 121 165 197 248 309 360
#     4  10  21  43  64  84 127 163 197 260 311 347
#     4  10  21  39  64  88 121 163 199 249 314 367
#     4  11  23  40  65  90 117 162 213 249 299 368
#     4  10  20  42  61  84 128 168 195 249 318 357
#     4  11  23  38  63  90 124 163 207 248 305 372
#     4  11  21  41  63  86 128 160 196 254 312 360
#     4  10  20  38  61  92 119 157 206 253 293 362
#
# _framework density 21.846402000000001
#
# number of rings (size 3 to 8) (size 9 to 14) (size 15 to 20)
#    0.000    1.500    6.250    3.000    1.750    1.000 
#    4.500    3.750    0.000    0.000    0.000    0.000 
#    0.000    0.000    0.000    0.000    0.000    0.000 
#
# Total GULP energy -178703.681927 kJ/mol
# GULP energy per Si atom -5584.490060 kJ/mol
# Density = 2.179668 g / cm^3
# Si number density = 21.846402 Si / 1000 Ang^3
#
#
#
# Elastic Constant Matrix: (Units=GPa)
#
#
# Indices 1 2 3 4 5 6 
#
# 1 36.3341 12.3875 3.9039 0.0000 5.1769 0.0000
# 2 12.3875 52.2642 4.6080 0.0000 -7.7667 0.0000
# 3 3.9039 4.6080 57.8317 0.0000 3.0788 0.0000
# 4 0.0000 0.0000 0.0000 21.3758 0.0000 -6.9679
# 5 5.1769 -7.7667 3.0788 0.0000 29.4720 0.0000
# 6 0.0000 0.0000 0.0000 -6.9679 0.0000 21.4146
#
#
#
# Elastic Compliance Matrix: (Units=1/GPa)
#
#
# Indices 1 2 3 4 5 6 
#
# 1 0.031649 -0.008554 -0.001045 0.000000 -0.007704 0.000000
# 2 -0.008554 0.022430 -0.001613 0.000000 0.007582 0.000000
# 3 -0.001045 -0.001613 0.017601 0.000000 -0.002080 0.000000
# 4 0.000000 0.000000 0.000000 0.052332 0.000000 0.017028
# 5 -0.007704 0.007582 -0.002080 0.000000 0.037499 0.000000
# 6 0.000000 0.000000 0.000000 0.017028 0.000000 0.052238
#
#
# Mechanical properties :
#
#
# Convention : Reuss Voigt Hill
#
# Bulk Modulus (GPa) = 20.30222 20.91432 20.60827
# Shear Modulus (GPa) = 19.79471 22.82118 21.30795
#
# Velocity S-wave (km/s) = 3.01339 3.23556 3.12645
# Velocity P-wave (km/s) = 4.62825 4.85311 4.74201
#
# Compressibility (1/GPa) = 0.04925570
#
# Stress axis : x y z
#
# Youngs Moduli (GPa) = 31.59684 44.58308 56.81374
#
# Poissons Ratio (x) = 0.38137 0.05935
# Poissons Ratio (y) = 0.27028 0.09166
# Poissons Ratio (z) = 0.03301 0.07193
#
# Static dielectric constant tensor:
#      x y z
#    x 1.818160 0.000000 0.017050 
#    y 0.000000 1.824380 0.000000 
#    z 0.017050 0.000000 1.809250 
# 
# From -- ./inp_files/51333.got.cif
#   From: 2010.05.17/outbox.cif.g08.bks.cpg/sg14_26_cif.got.tgz:51333.got - 2010.06.03 17:49:19.
