data_PCOD9243133
_publ_section_title
;
Structure prediction by ZEFSAII (Michael W. Deem and Ramdas Pophale) SiO2 
 PCOD9243133
Probable space group: P 21/C
;
_chemical_formula_sum "Si O2"
_cell_formula_units_Z 24
_cell_length_a 8.268057
_cell_length_b 15.246883
_cell_length_c 12.950060
_cell_angle_alpha 90.000000
_cell_angle_beta 145.734086
_cell_angle_gamma 90.000000
_cell_volume 919.160413
_symmetry_space_group_name_H-M "P 21/C"
_symmetry_group_IT_number 14
_symmetry_cell_setting 'monoclinic'
loop_
_space_group_symop_operation_xyz
x,y,z
-x,1/2+y,1/2-z
-x,-y,-z
x,1/2-y,1/2+z
loop_
_atom_site_type_symbol
_atom_site_label
_atom_site_fract_x
_atom_site_fract_y
_atom_site_fract_z
Si Si1 0.177534 0.338405 0.848408
Si Si2 0.382189 0.700953 0.101413
Si Si3 0.391710 0.892953 0.024243
Si Si4 0.323589 0.539198 0.192040
Si Si5 0.932503 0.845666 0.191512
Si Si6 0.378239 0.548348 0.834420
O O1 0.924294 0.405956 0.689355
O O2 0.032005 0.254207 0.822258
O O3 0.336993 0.316327 0.823693
O O4 0.410907 0.368803 0.053035
O O5 0.356919 0.807787 0.083896
O O6 0.350657 0.645070 0.190632
O O7 0.127718 0.655856 0.898439
O O8 0.547837 0.979141 0.149108
O O9 0.607495 0.859297 0.050714
O O10 0.545739 0.510358 0.219960
O O11 0.000000 0.500000 0.000000
O O12 0.063091 0.914561 0.182068
O O13 0.500000 0.500000 0.000000
#
# Coordination Sequence:
#
# PCOD9243133 Si02
#       6
#     4   4   4   4   4   4
#     4   9  19  36  63  85 114 156 200 243 290 353
#     4   9  18  37  61  83 120 162 200 226 308 367
#     4  10  20  36  65  89 116 155 202 248 291 354
#     4  12  22  39  64  87 120 164 200 241 300 359
#     4   9  17  37  61  84 114 160 196 232 298 363
#     4  11  20  39  62  85 118 157 197 242 298 356
#
# _framework density 26.110783999999999
#
# number of rings (size 3 to 8) (size 9 to 14) (size 15 to 20)
#    0.000    2.000    5.000    1.000    0.000    0.667 
#    3.000    3.333    0.000    0.000    0.000    0.000 
#    0.000    0.000    0.000    0.000    0.000    0.000 
#
# Total GULP energy -134016.605872 kJ/mol
# GULP energy per Si atom -5584.025245 kJ/mol
# Density = 2.605136 g / cm^3
# Si number density = 26.110784 Si / 1000 Ang^3
#
#
#
# Elastic Constant Matrix: (Units=GPa)
#
#
# Indices 1 2 3 4 5 6 
#
# 1 56.0120 30.4263 14.5920 0.0000 7.2872 0.0000
# 2 30.4263 138.7401 21.5979 0.0000 9.9899 0.0000
# 3 14.5920 21.5979 110.4456 0.0000 27.8479 0.0000
# 4 0.0000 0.0000 0.0000 39.1893 0.0000 9.8115
# 5 7.2872 9.9899 27.8479 0.0000 30.4802 0.0000
# 6 0.0000 0.0000 0.0000 9.8115 0.0000 43.7831
#
#
#
# Elastic Compliance Matrix: (Units=1/GPa)
#
#
# Indices 1 2 3 4 5 6 
#
# 1 0.020779 -0.004179 -0.001326 0.000000 -0.002386 0.000000
# 2 -0.004179 0.008323 -0.000831 0.000000 -0.000970 0.000000
# 3 -0.001326 -0.000831 0.012010 0.000000 -0.010383 0.000000
# 4 0.000000 0.000000 0.000000 0.027034 0.000000 -0.006058
# 5 -0.002386 -0.000970 -0.010383 0.000000 0.043183 0.000000
# 6 0.000000 0.000000 0.000000 -0.006058 0.000000 0.024197
#
#
# Mechanical properties :
#
#
# Convention : Reuss Voigt Hill
#
# Bulk Modulus (GPa) = 35.16147 48.71446 41.93796
# Shear Modulus (GPa) = 31.70986 38.59595 35.15290
#
# Velocity S-wave (km/s) = 3.48866 3.84886 3.67317
# Velocity P-wave (km/s) = 5.45189 6.20072 5.83832
#
# Compressibility (1/GPa) = 0.02844023
#
# Stress axis : x y z
#
# Youngs Moduli (GPa) = 48.12495 120.14448 83.26333
#
# Poissons Ratio (x) = 0.50204 0.11045
# Poissons Ratio (y) = 0.20110 0.06920
# Poissons Ratio (z) = 0.06384 0.09985
#
# Static dielectric constant tensor:
#      x y z
#    x 2.084760 0.000000 -0.086240 
#    y 0.000000 2.287810 0.000000 
#    z -0.086240 0.000000 2.107030 
# 
# From -- ./inp_files/16131.got.cif
#   From: 2010.05.17/outbox.cif.g08.bks.cpg/sg14_9_cif.got.tgz:16131.got - 2010.06.03 17:49:19.
