data_PCOD9243987
_publ_section_title
;
Structure prediction by ZEFSAII (Michael W. Deem and Ramdas Pophale) SiO2 
 PCOD9243987
Probable space group: P 21/C
;
_chemical_formula_sum "Si O2"
_cell_formula_units_Z 20
_cell_length_a 5.552869
_cell_length_b 11.618560
_cell_length_c 13.120550
_cell_angle_alpha 90.000000
_cell_angle_beta 72.749751
_cell_angle_gamma 90.000000
_cell_volume 808.413633
_symmetry_space_group_name_H-M "P 21/C"
_symmetry_group_IT_number 14
_symmetry_cell_setting 'monoclinic'
loop_
_space_group_symop_operation_xyz
x,y,z
-x,1/2+y,1/2-z
-x,-y,-z
x,1/2-y,1/2+z
loop_
_atom_site_type_symbol
_atom_site_label
_atom_site_fract_x
_atom_site_fract_y
_atom_site_fract_z
Si Si1 0.674494 0.098943 0.082497
Si Si2 0.467528 0.303306 0.190933
Si Si3 0.909909 0.476415 0.755229
Si Si4 0.632537 0.116170 0.867855
Si Si5 0.237619 0.569229 0.012960
O O1 0.433938 0.177257 0.147001
O O2 0.854909 0.092345 0.157806
O O3 0.604565 0.964936 0.076340
O O4 0.757564 0.142572 0.960666
O O5 0.268527 0.407925 0.215104
O O6 0.541047 0.289464 0.299924
O O7 0.690653 0.344817 0.087134
O O8 0.854265 0.399794 0.861486
O O9 0.181303 0.535083 0.719095
O O10 0.500000 0.500000 0.000000
O O11 0.000000 0.500000 0.000000
#
# Coordination Sequence:
#
# PCOD9243987 Si02
#       5
#     4   4   4   4   4
#     4  10  23  39  61  90 124 168 213 266 328 392
#     4  10  22  39  60  93 122 164 218 263 326 390
#     4  10  21  40  63  87 126 164 210 272 325 387
#     4  10  21  42  61  85 128 162 210 268 326 389
#     4  10  20  39  63  92 129 164 209 273 324 376
#
# _framework density 24.739809000000001
#
# number of rings (size 3 to 8) (size 9 to 14) (size 15 to 20)
#    0.000    2.000    2.000    0.600    2.800    1.600 
#    0.000    0.000    0.000    0.000    0.000    0.000 
#    0.000    0.000    0.000    0.000    0.000    0.000 
#
# Total GULP energy -111397.935054 kJ/mol
# GULP energy per Si atom -5569.896753 kJ/mol
# Density = 2.468350 g / cm^3
# Si number density = 24.739809 Si / 1000 Ang^3
#
#
#
# Elastic Constant Matrix: (Units=GPa)
#
#
# Indices 1 2 3 4 5 6 
#
# 1 54.5877 1.3177 6.0938 0.0000 8.1281 0.0000
# 2 1.3177 65.8838 14.9540 0.0000 2.8784 0.0000
# 3 6.0938 14.9540 163.0816 0.0000 24.3983 0.0000
# 4 0.0000 0.0000 0.0000 27.2008 0.0000 4.1291
# 5 8.1281 2.8784 24.3983 0.0000 34.3940 0.0000
# 6 0.0000 0.0000 0.0000 4.1291 0.0000 17.7739
#
#
#
# Elastic Compliance Matrix: (Units=1/GPa)
#
#
# Indices 1 2 3 4 5 6 
#
# 1 0.018990 -0.000179 -0.000027 0.000000 -0.004454 0.000000
# 2 -0.000179 0.015506 -0.001373 0.000000 -0.000281 0.000000
# 3 -0.000027 -0.001373 0.006982 0.000000 -0.004831 0.000000
# 4 0.000000 0.000000 0.000000 0.038107 0.000000 -0.008853
# 5 -0.004454 -0.000281 -0.004831 0.000000 0.033578 0.000000
# 6 0.000000 0.000000 0.000000 -0.008853 0.000000 0.058319
#
#
# Mechanical properties :
#
#
# Convention : Reuss Voigt Hill
#
# Bulk Modulus (GPa) = 26.09675 36.47600 31.28637
# Shear Modulus (GPa) = 26.67910 33.28624 29.98267
#
# Velocity S-wave (km/s) = 3.28744 3.67202 3.48504
# Velocity P-wave (km/s) = 4.99811 5.72313 5.37286
#
# Compressibility (1/GPa) = 0.03831895
#
# Stress axis : x y z
#
# Youngs Moduli (GPa) = 52.66037 64.49214 143.23334
#
# Poissons Ratio (x) = 0.01155 0.00385
# Poissons Ratio (y) = 0.00943 0.19666
# Poissons Ratio (z) = 0.00141 0.08855
#
# Static dielectric constant tensor:
#      x y z
#    x 1.928590 0.000000 -0.002830 
#    y 0.000000 2.032620 0.000000 
#    z -0.002830 0.000000 1.985720 
# 
# From -- ./inp_files/20628.got.cif
#   From: 2010.05.17/outbox.cif.g08.bks.cpg/sg14_11_cif.got.tgz:20628.got - 2010.06.03 17:49:19.
