data_PCOD9243240
_publ_section_title
;
Structure prediction by ZEFSAII (Michael W. Deem and Ramdas Pophale) SiO2 
 PCOD9243240
Probable space group: P 21/C
;
_chemical_formula_sum "Si O2"
_cell_formula_units_Z 32
_cell_length_a 18.681943
_cell_length_b 7.519388
_cell_length_c 30.351352
_cell_angle_alpha 90.000000
_cell_angle_beta 159.788649
_cell_angle_gamma 90.000000
_cell_volume 1473.026867
_symmetry_space_group_name_H-M "P 21/C"
_symmetry_group_IT_number 14
_symmetry_cell_setting 'monoclinic'
loop_
_space_group_symop_operation_xyz
x,y,z
-x,1/2+y,1/2-z
-x,-y,-z
x,1/2-y,1/2+z
loop_
_atom_site_type_symbol
_atom_site_label
_atom_site_fract_x
_atom_site_fract_y
_atom_site_fract_z
Si Si1 0.644821 0.530861 0.274398
Si Si2 0.682767 0.869986 0.652733
Si Si3 0.142868 0.226001 0.335548
Si Si4 0.340149 0.792478 0.137031
Si Si5 0.702036 0.377540 0.559823
Si Si6 0.894039 0.733483 0.859954
Si Si7 0.561976 0.619147 0.925890
Si Si8 0.520391 0.012761 0.865665
O O1 0.543973 0.675536 0.248106
O O2 0.677277 0.361374 0.323431
O O3 0.845739 0.601145 0.364956
O O4 0.478152 0.507003 0.138706
O O5 0.781159 0.890189 0.662012
O O6 0.503704 0.721911 0.543390
O O7 0.846535 0.794158 0.782745
O O8 0.583247 0.042713 0.618749
O O9 0.250304 0.420664 0.397108
O O10 0.214353 0.136588 0.422551
O O11 0.898728 0.235013 0.188454
O O12 0.373907 0.948757 0.120206
O O13 0.131423 0.685566 0.004458
O O14 0.662593 0.390283 0.484593
O O15 0.711363 0.595090 0.766446
O O16 0.505611 0.811797 0.874180
#
# Coordination Sequence:
#
# PCOD9243240 Si02
#       8
#     4   4   4   4   4   4   4   4
#     4  10  22  38  58  85 113 147 190 244 287 342
#     4  10  20  37  59  84 115 155 193 237 290 343
#     4  11  21  35  57  82 114 159 197 237 292 346
#     4  11  20  39  64  84 113 152 189 232 297 353
#     4  10  21  36  56  85 119 152 197 246 285 338
#     4   9  20  37  60  85 114 149 187 235 289 345
#     4  10  21  38  55  81 121 151 191 246 285 336
#     4   9  20  38  58  86 119 149 189 241 288 341
#
# _framework density 21.723977000000001
#
# number of rings (size 3 to 8) (size 9 to 14) (size 15 to 20)
#    0.000    2.000    0.000    4.125    0.000    1.000 
#    0.000   14.375    0.000    0.000    0.000    0.000 
#    0.000    0.000    0.000    0.000    0.000    0.000 
#
# Total GULP energy -178587.070420 kJ/mol
# GULP energy per Si atom -5580.845951 kJ/mol
# Density = 2.167453 g / cm^3
# Si number density = 21.723977 Si / 1000 Ang^3
#
#
#
# Elastic Constant Matrix: (Units=GPa)
#
#
# Indices 1 2 3 4 5 6 
#
# 1 88.9744 4.2683 25.6334 0.0000 -15.8045 0.0000
# 2 4.2683 33.8241 1.9880 0.0000 -8.8152 0.0000
# 3 25.6334 1.9880 63.9316 0.0000 -9.0264 0.0000
# 4 0.0000 0.0000 0.0000 21.3307 0.0000 -14.2730
# 5 -15.8045 -8.8152 -9.0264 0.0000 19.3943 0.0000
# 6 0.0000 0.0000 0.0000 -14.2730 0.0000 26.7394
#
#
#
# Elastic Compliance Matrix: (Units=1/GPa)
#
#
# Indices 1 2 3 4 5 6 
#
# 1 0.014219 0.001084 -0.004313 0.000000 0.010073 0.000000
# 2 0.001084 0.033705 0.000862 0.000000 0.016604 0.000000
# 3 -0.004313 0.000862 0.018092 0.000000 0.005298 0.000000
# 4 0.000000 0.000000 0.000000 0.072929 0.000000 0.038928
# 5 0.010073 0.016604 0.005298 0.000000 0.069782 0.000000
# 6 0.000000 0.000000 0.000000 0.038928 0.000000 0.058177
#
#
# Mechanical properties :
#
#
# Convention : Reuss Voigt Hill
#
# Bulk Modulus (GPa) = 16.31805 27.83438 22.07621
# Shear Modulus (GPa) = 17.11951 23.81558 20.46755
#
# Velocity S-wave (km/s) = 2.81026 3.31461 3.07280
# Velocity P-wave (km/s) = 4.24946 5.24303 4.77218
#
# Compressibility (1/GPa) = 0.06128185
#
# Stress axis : x y z
#
# Youngs Moduli (GPa) = 70.32923 29.66955 55.27299
#
# Poissons Ratio (x) = -0.03217 0.23837
# Poissons Ratio (y) = -0.07626 -0.04762
# Poissons Ratio (z) = 0.30330 -0.02556
#
# Static dielectric constant tensor:
#      x y z
#    x 1.772980 0.000000 -0.021030 
#    y 0.000000 1.855540 0.000000 
#    z -0.021030 0.000000 1.771280 
# 
# From -- ./inp_files/80418.got.cif
#   From: 2010.05.17/outbox.cif.g08.bks.cpg/sg14_41_cif.got.tgz:80418.got - 2010.06.03 17:49:19.
