data_PCOD9243019
_publ_section_title
;
Structure prediction by ZEFSAII (Michael W. Deem and Ramdas Pophale) SiO2 
 PCOD9243019
Probable space group: P 21/C
;
_chemical_formula_sum "Si O2"
_cell_formula_units_Z 28
_cell_length_a 14.366424
_cell_length_b 11.673693
_cell_length_c 9.024479
_cell_angle_alpha 90.000000
_cell_angle_beta 117.984774
_cell_angle_gamma 90.000000
_cell_volume 1336.519682
_symmetry_space_group_name_H-M "P 21/C"
_symmetry_group_IT_number 14
_symmetry_cell_setting 'monoclinic'
loop_
_space_group_symop_operation_xyz
x,y,z
-x,1/2+y,1/2-z
-x,-y,-z
x,1/2-y,1/2+z
loop_
_atom_site_type_symbol
_atom_site_label
_atom_site_fract_x
_atom_site_fract_y
_atom_site_fract_z
Si Si1 0.496895 0.867726 0.455599
Si Si2 0.013001 0.244008 0.202844
Si Si3 0.178595 0.615488 0.305701
Si Si4 0.056767 0.606596 0.616539
Si Si5 0.265552 0.695913 0.674519
Si Si6 0.372705 0.242379 0.703105
Si Si7 0.232426 0.350372 0.362353
O O1 0.381923 0.827411 0.317622
O O2 0.536797 0.797642 0.628079
O O3 0.576781 0.841333 0.380503
O O4 0.500000 0.000000 0.500000
O O5 0.137365 0.259708 0.315560
O O6 0.940352 0.151097 0.235232
O O7 0.967999 0.363599 0.233147
O O8 0.990781 0.211363 0.017106
O O9 0.249733 0.672559 0.489311
O O10 0.221225 0.679929 0.191660
O O11 0.191842 0.479904 0.317881
O O12 0.181387 0.607846 0.685408
O O13 0.000000 0.500000 0.500000
O O14 0.309903 0.336975 0.560368
O O15 0.294024 0.182194 0.759141
#
# Coordination Sequence:
#
# PCOD9243019 Si02
#       7
#     4   4   4   4   4   4   4
#     4  11  23  42  65  93 124 162 211 264 310 363
#     4  10  20  36  60  88 117 154 203 241 296 378
#     4  10  22  39  62  90 122 162 199 250 316 370
#     4  10  21  38  59  87 121 158 193 244 308 365
#     4  10  21  39  61  88 121 156 205 253 300 371
#     4  10  25  41  63  93 122 166 217 253 311 380
#     4  11  22  43  62  87 130 166 201 261 315 367
#
# _framework density 20.949932
#
# number of rings (size 3 to 8) (size 9 to 14) (size 15 to 20)
#    0.000    1.714    0.000    4.286    0.000    4.571 
#    0.000   25.714    0.000    0.000    0.000    0.000 
#    0.000    0.000    0.000    0.000    0.000    0.000 
#
# Total GULP energy -156261.447895 kJ/mol
# GULP energy per Si atom -5580.765996 kJ/mol
# Density = 2.090225 g / cm^3
# Si number density = 20.949932 Si / 1000 Ang^3
#
#
#
# Elastic Constant Matrix: (Units=GPa)
#
#
# Indices 1 2 3 4 5 6 
#
# 1 88.2589 40.9485 30.3573 0.0000 15.8707 0.0000
# 2 40.9485 123.4951 44.4774 0.0000 -2.0448 0.0000
# 3 30.3573 44.4774 92.7941 0.0000 0.8150 0.0000
# 4 0.0000 0.0000 0.0000 27.0546 0.0000 4.9763
# 5 15.8707 -2.0448 0.8150 0.0000 35.5275 0.0000
# 6 0.0000 0.0000 0.0000 4.9763 0.0000 23.6108
#
#
#
# Elastic Compliance Matrix: (Units=1/GPa)
#
#
# Indices 1 2 3 4 5 6 
#
# 1 0.015606 -0.004202 -0.003029 0.000000 -0.007144 0.000000
# 2 -0.004202 0.010935 -0.003889 0.000000 0.002596 0.000000
# 3 -0.003029 -0.003889 0.013624 0.000000 0.000817 0.000000
# 4 0.000000 0.000000 0.000000 0.038453 0.000000 -0.008104
# 5 -0.007144 0.002596 0.000817 0.000000 0.031469 0.000000
# 6 0.000000 0.000000 0.000000 -0.008104 0.000000 0.044062
#
#
# Mechanical properties :
#
#
# Convention : Reuss Voigt Hill
#
# Bulk Modulus (GPa) = 55.78748 59.56829 57.67788
# Shear Modulus (GPa) = 27.41770 29.82291 28.62031
#
# Velocity S-wave (km/s) = 3.62155 3.77707 3.70013
# Velocity P-wave (km/s) = 6.64638 6.89326 6.77094
#
# Compressibility (1/GPa) = 0.01792517
#
# Stress axis : x y z
#
# Youngs Moduli (GPa) = 64.07654 91.45330 73.39843
#
# Poissons Ratio (x) = 0.38431 0.22229
# Poissons Ratio (y) = 0.26927 0.28545
# Poissons Ratio (z) = 0.19406 0.35567
#
# Static dielectric constant tensor:
#      x y z
#    x 1.775450 0.000000 -0.011750 
#    y 0.000000 1.756220 0.000000 
#    z -0.011750 0.000000 1.768680 
# 
# From -- ./inp_files/15896.got.cif
#   From: 2010.05.17/outbox.cif.g08.bks.cpg/sg14_8_cif.got.tgz:15896.got - 2010.06.03 17:49:19.
