data_PCOD9243284
_publ_section_title
;
Structure prediction by ZEFSAII (Michael W. Deem and Ramdas Pophale) SiO2 
 PCOD9243284
Probable space group: P 21/C
;
_chemical_formula_sum "Si O2"
_cell_formula_units_Z 28
_cell_length_a 13.998394
_cell_length_b 16.987699
_cell_length_c 13.051833
_cell_angle_alpha 90.000000
_cell_angle_beta 149.299943
_cell_angle_gamma 90.000000
_cell_volume 1584.591283
_symmetry_space_group_name_H-M "P 21/C"
_symmetry_group_IT_number 14
_symmetry_cell_setting 'monoclinic'
loop_
_space_group_symop_operation_xyz
x,y,z
-x,1/2+y,1/2-z
-x,-y,-z
x,1/2-y,1/2+z
loop_
_atom_site_type_symbol
_atom_site_label
_atom_site_fract_x
_atom_site_fract_y
_atom_site_fract_z
Si Si1 0.155063 0.292534 0.270940
Si Si2 0.755713 0.661639 0.975654
Si Si3 0.386471 0.101894 0.311377
Si Si4 0.968892 0.883459 0.156556
Si Si5 0.728020 0.986299 0.589550
Si Si6 0.512513 0.783174 0.066945
Si Si7 0.916360 0.273452 0.852414
O O1 0.212491 0.223713 0.402936
O O2 0.458453 0.188549 0.407582
O O3 0.342486 0.316564 0.383143
O O4 0.007392 0.264432 0.048745
O O5 0.586057 0.687674 0.745268
O O6 0.722255 0.577020 0.993676
O O7 0.943411 0.669186 0.080196
O O8 0.290221 0.061240 0.320834
O O9 0.555048 0.046802 0.430090
O O10 0.232784 0.111130 0.082045
O O11 0.070864 0.810254 0.194221
O O12 0.937930 0.860014 0.245837
O O13 0.085798 0.961932 0.246744
O O14 0.297223 0.800875 0.845693
#
# Coordination Sequence:
#
# PCOD9243284 Si02
#       7
#     4   4   4   4   4   4   4
#     4  10  20  37  60  86 116 155 204 239 284 355
#     4  10  21  39  58  87 123 152 203 244 287 361
#     4  11  21  37  59  91 123 150 189 250 304 351
#     4  11  21  38  60  87 123 157 193 244 302 352
#     4  11  23  37  60  93 122 153 189 252 307 348
#     4  11  20  38  60  86 122 155 201 246 290 350
#     4  10  21  36  60  86 114 160 199 241 290 352
#
# _framework density 17.670172000000001
#
# number of rings (size 3 to 8) (size 9 to 14) (size 15 to 20)
#    0.000    1.429    7.143    0.429    0.000    4.571 
#    0.000    2.857    0.000    5.143    0.000    0.000 
#    0.000    0.000    0.000    0.000    0.000    0.000 
#
# Total GULP energy -156259.993685 kJ/mol
# GULP energy per Si atom -5580.714060 kJ/mol
# Density = 1.762995 g / cm^3
# Si number density = 17.670172 Si / 1000 Ang^3
#
#
#
# Elastic Constant Matrix: (Units=GPa)
#
#
# Indices 1 2 3 4 5 6 
#
# 1 76.4805 9.6136 41.8222 0.0000 -15.5177 0.0000
# 2 9.6136 36.3459 -12.9673 0.0000 -0.9484 0.0000
# 3 41.8222 -12.9673 95.2069 0.0000 0.5004 0.0000
# 4 0.0000 0.0000 0.0000 26.4203 0.0000 -1.1446
# 5 -15.5177 -0.9484 0.5004 0.0000 13.8140 0.0000
# 6 0.0000 0.0000 0.0000 -1.1446 0.0000 23.3966
#
#
#
# Elastic Compliance Matrix: (Units=1/GPa)
#
#
# Indices 1 2 3 4 5 6 
#
# 1 0.029199 -0.012100 -0.014645 0.000000 0.032500 0.000000
# 2 -0.012100 0.033980 0.010005 0.000000 -0.011622 0.000000
# 3 -0.014645 0.010005 0.018386 0.000000 -0.016430 0.000000
# 4 0.000000 0.000000 0.000000 0.037930 0.000000 0.001856
# 5 0.032500 -0.011622 -0.016430 0.000000 0.108695 0.000000
# 6 0.000000 0.000000 0.000000 0.001856 0.000000 0.042832
#
#
# Mechanical properties :
#
#
# Convention : Reuss Voigt Hill
#
# Bulk Modulus (GPa) = 20.79743 31.66337 26.23040
# Shear Modulus (GPa) = 15.59911 24.03050 19.81481
#
# Velocity S-wave (km/s) = 2.97441 3.69175 3.35232
# Velocity P-wave (km/s) = 4.85711 6.01082 5.46450
#
# Compressibility (1/GPa) = 0.04808286
#
# Stress axis : x y z
#
# Youngs Moduli (GPa) = 34.24796 29.42905 54.38998
#
# Poissons Ratio (x) = 0.35610 0.79655
# Poissons Ratio (y) = 0.41441 -0.54415
# Poissons Ratio (z) = 0.50157 -0.29442
#
# Static dielectric constant tensor:
#      x y z
#    x 1.614140 0.000000 0.005180 
#    y 0.000000 1.590480 0.000000 
#    z 0.005180 0.000000 1.586220 
# 
# From -- ./inp_files/47486.got.cif
#   From: 2010.05.17/outbox.cif.g08.bks.cpg/sg14_24_cif.got.tgz:47486.got - 2010.06.03 17:49:19.
