data_PCOD9243922
_publ_section_title
;
Structure prediction by ZEFSAII (Michael W. Deem and Ramdas Pophale) SiO2 
 PCOD9243922
Probable space group: P 21/C
;
_chemical_formula_sum "Si O2"
_cell_formula_units_Z 30
_cell_length_a 16.120877
_cell_length_b 15.029235
_cell_length_c 5.282795
_cell_angle_alpha 90.000000
_cell_angle_beta 66.967806
_cell_angle_gamma 90.000000
_cell_volume 1177.908936
_symmetry_space_group_name_H-M "P 21/C"
_symmetry_group_IT_number 14
_symmetry_cell_setting 'monoclinic'
loop_
_space_group_symop_operation_xyz
x,y,z
-x,1/2+y,1/2-z
-x,-y,-z
x,1/2-y,1/2+z
loop_
_atom_site_type_symbol
_atom_site_label
_atom_site_fract_x
_atom_site_fract_y
_atom_site_fract_z
Si Si1 0.218406 0.725730 0.203795
Si Si2 0.604684 0.003202 0.553761
Si Si3 0.810262 0.026585 0.381155
Si Si4 0.918457 0.812592 0.810216
Si Si5 0.000000 0.000000 0.000000
Si Si6 0.919715 0.385509 0.142037
Si Si7 0.447104 0.092059 0.884809
Si Si8 0.271195 0.299494 0.602043
O O1 0.270013 0.758314 0.384499
O O2 0.193330 0.623627 0.248419
O O3 0.129791 0.789833 0.278886
O O4 0.587608 0.980067 0.282494
O O5 0.709653 0.994471 0.484104
O O6 0.552555 0.095227 0.683352
O O7 0.561070 0.936781 0.813496
O O8 0.842068 0.051101 0.626428
O O9 0.892310 0.972529 0.172161
O O10 0.927371 0.743924 0.558037
O O11 0.003199 0.880594 0.675541
O O12 0.818678 0.852217 0.877196
O O13 0.969452 0.073256 0.816987
O O14 0.371914 0.166585 0.934996
O O15 0.262154 0.281257 0.911396
#
# Coordination Sequence:
#
# PCOD9243922 Si02
#       8
#     4   4   4   4   2   4   4   4
#     4  10  20  39  62  82 124 173 212 258 323 383
#     4  10  24  42  70  94 132 173 225 267 351 405
#     4  11  25  42  63  98 130 173 226 282 323 403
#     4  10  22  38  62  91 123 174 222 259 327 407
#     4  12  26  40  62  98 134 172 232 284 322 382
#     4  11  24  41  61  91 134 181 217 278 323 395
#     4  10  22  45  68  98 129 174 211 286 343 414
#     4  10  21  39  65  98 129 163 219 278 334 403
#
# _framework density 25.468861
#
# number of rings (size 3 to 8) (size 9 to 14) (size 15 to 20)
#    0.000    1.600    1.333    2.800    5.600    1.067 
#    0.000    2.667    0.000    0.000    0.000    0.000 
#    0.000    0.000    0.000    0.000    0.000    0.000 
#
# Total GULP energy -167141.982750 kJ/mol
# GULP energy per Si atom -5571.399425 kJ/mol
# Density = 2.541089 g / cm^3
# Si number density = 25.468861 Si / 1000 Ang^3
#
#
#
# Elastic Constant Matrix: (Units=GPa)
#
#
# Indices 1 2 3 4 5 6 
#
# 1 143.6148 10.4415 39.2820 0.0000 3.1461 0.0000
# 2 10.4415 36.2338 5.1575 0.0000 1.5836 0.0000
# 3 39.2820 5.1575 99.2938 0.0000 18.7534 0.0000
# 4 0.0000 0.0000 0.0000 29.0340 0.0000 -4.0973
# 5 3.1461 1.5836 18.7534 0.0000 47.6872 0.0000
# 6 0.0000 0.0000 0.0000 -4.0973 0.0000 34.8523
#
#
#
# Elastic Compliance Matrix: (Units=1/GPa)
#
#
# Indices 1 2 3 4 5 6 
#
# 1 0.007957 -0.001872 -0.003201 0.000000 0.000796 0.000000
# 2 -0.001872 0.028251 -0.000619 0.000000 -0.000571 0.000000
# 3 -0.003201 -0.000619 0.012235 0.000000 -0.004580 0.000000
# 4 0.000000 0.000000 0.000000 0.035023 0.000000 0.004117
# 5 0.000796 -0.000571 -0.004580 0.000000 0.022737 0.000000
# 6 0.000000 0.000000 0.000000 0.004117 0.000000 0.029177
#
#
# Mechanical properties :
#
#
# Convention : Reuss Voigt Hill
#
# Bulk Modulus (GPa) = 26.98423 43.21158 35.09791
# Shear Modulus (GPa) = 31.42327 37.26545 34.34436
#
# Velocity S-wave (km/s) = 3.51635 3.82930 3.67616
# Velocity P-wave (km/s) = 5.20618 6.04604 5.64176
#
# Compressibility (1/GPa) = 0.03705868
#
# Stress axis : x y z
#
# Youngs Moduli (GPa) = 125.67017 35.39687 81.73525
#
# Poissons Ratio (x) = 0.06627 0.26165
# Poissons Ratio (y) = 0.23528 0.05058
# Poissons Ratio (z) = 0.40229 0.02190
#
# Static dielectric constant tensor:
#      x y z
#    x 1.942800 0.000000 -0.127230 
#    y 0.000000 2.022660 0.000000 
#    z -0.127230 0.000000 1.887980 
# 
# From -- ./inp_files/3775.got.cif
#   From: 2010.05.17/outbox.cif.g08.bks.cpg/sg14_2_cif.got.tgz:3775.got - 2010.06.03 17:49:19.
