data_PCOD9243002
_publ_section_title
;
Structure prediction by ZEFSAII (Michael W. Deem and Ramdas Pophale) SiO2 
 PCOD9243002
Probable space group: P 21/C
;
_chemical_formula_sum "Si O2"
_cell_formula_units_Z 20
_cell_length_a 7.820847
_cell_length_b 8.547794
_cell_length_c 13.527088
_cell_angle_alpha 90.000000
_cell_angle_beta 54.064996
_cell_angle_gamma 90.000000
_cell_volume 732.195928
_symmetry_space_group_name_H-M "P 21/C"
_symmetry_group_IT_number 14
_symmetry_cell_setting 'monoclinic'
loop_
_space_group_symop_operation_xyz
x,y,z
-x,1/2+y,1/2-z
-x,-y,-z
x,1/2-y,1/2+z
loop_
_atom_site_type_symbol
_atom_site_label
_atom_site_fract_x
_atom_site_fract_y
_atom_site_fract_z
Si Si1 0.074650 0.815441 0.783105
Si Si2 0.224900 0.566314 0.034869
Si Si3 0.890191 0.760094 0.034834
Si Si4 0.397140 0.223476 0.110832
Si Si5 0.474601 0.895382 0.154068
O O1 0.994442 0.873594 0.916848
O O2 0.854255 0.763558 0.807765
O O3 0.181524 0.926714 0.666646
O O4 0.246763 0.681578 0.749741
O O5 0.176468 0.401535 0.000136
O O6 0.456546 0.626033 0.928042
O O7 0.069131 0.700463 0.046524
O O8 0.674294 0.833835 0.147959
O O9 0.455129 0.081069 0.163699
O O10 0.466656 0.158902 0.977730
#
# Coordination Sequence:
#
# PCOD9243002 Si02
#       5
#     4   4   4   4   4
#     4  10  20  36  60  82 114 154 192 234 288 342
#     4  10  22  39  59  86 118 152 194 241 289 345
#     4  10  22  39  59  86 118 152 194 241 289 345
#     4   9  19  35  56  84 116 151 193 238 287 345
#     4   9  19  35  56  84 116 151 193 238 287 345
#
# _framework density 27.315093000000001
#
# number of rings (size 3 to 8) (size 9 to 14) (size 15 to 20)
#    0.000    2.400    0.000    1.200    0.000   12.800 
#    0.000    0.000    0.000    0.000    0.000    0.000 
#    0.000    0.000    0.000    0.000    0.000    0.000 
#
# Total GULP energy -112043.417009 kJ/mol
# GULP energy per Si atom -5602.170850 kJ/mol
# Density = 2.725292 g / cm^3
# Si number density = 27.315093 Si / 1000 Ang^3
#
#
#
# Elastic Constant Matrix: (Units=GPa)
#
#
# Indices 1 2 3 4 5 6 
#
# 1 130.6481 60.1963 61.1627 0.0000 -50.7930 0.0000
# 2 60.1963 66.3875 39.3346 0.0000 -23.9272 0.0000
# 3 61.1627 39.3346 163.0963 0.0000 -36.3395 0.0000
# 4 0.0000 0.0000 0.0000 11.5747 0.0000 -2.1279
# 5 -50.7930 -23.9272 -36.3395 0.0000 62.3655 0.0000
# 6 0.0000 0.0000 0.0000 -2.1279 0.0000 50.5201
#
#
#
# Elastic Compliance Matrix: (Units=1/GPa)
#
#
# Indices 1 2 3 4 5 6 
#
# 1 0.016973 -0.011300 -0.001753 0.000000 0.008467 0.000000
# 2 -0.011300 0.026511 -0.002230 0.000000 -0.000331 0.000000
# 3 -0.001753 -0.002230 0.007835 0.000000 0.002282 0.000000
# 4 0.000000 0.000000 0.000000 0.087070 0.000000 0.003667
# 5 0.008467 -0.000331 0.002282 0.000000 0.024133 0.000000
# 6 0.000000 0.000000 0.000000 0.003667 0.000000 0.019949
#
#
# Mechanical properties :
#
#
# Convention : Reuss Voigt Hill
#
# Bulk Modulus (GPa) = 48.18640 75.72436 61.95538
# Shear Modulus (GPa) = 22.73207 38.18793 30.46000
#
# Velocity S-wave (km/s) = 2.88795 3.74311 3.34299
# Velocity P-wave (km/s) = 5.36652 6.81644 6.13447
#
# Compressibility (1/GPa) = 0.02075275
#
# Stress axis : x y z
#
# Youngs Moduli (GPa) = 58.91723 37.72024 127.63040
#
# Poissons Ratio (x) = 0.42623 0.22379
# Poissons Ratio (y) = 0.66575 0.28462
# Poissons Ratio (z) = 0.10331 0.08412
#
# Static dielectric constant tensor:
#      x y z
#    x 2.158400 0.000000 0.083020 
#    y 0.000000 2.111230 0.000000 
#    z 0.083020 0.000000 2.165010 
# 
# From -- ./inp_files/54751.got.cif
#   From: 2010.05.17/outbox.cif.g08.bks.cpg/sg14_28_cif.got.tgz:54751.got - 2010.06.03 17:49:19.
