data_PCOD9243421
_publ_section_title
;
Structure prediction by ZEFSAII (Michael W. Deem and Ramdas Pophale) SiO2 
 PCOD9243421
Probable space group: P 21/C
;
_chemical_formula_sum "Si O2"
_cell_formula_units_Z 20
_cell_length_a 14.742951
_cell_length_b 8.931248
_cell_length_c 18.885386
_cell_angle_alpha 90.000000
_cell_angle_beta 21.012608
_cell_angle_gamma 90.000000
_cell_volume 891.662449
_symmetry_space_group_name_H-M "P 21/C"
_symmetry_group_IT_number 14
_symmetry_cell_setting 'monoclinic'
loop_
_space_group_symop_operation_xyz
x,y,z
-x,1/2+y,1/2-z
-x,-y,-z
x,1/2-y,1/2+z
loop_
_atom_site_type_symbol
_atom_site_label
_atom_site_fract_x
_atom_site_fract_y
_atom_site_fract_z
Si Si1 0.272507 0.092409 0.201261
Si Si2 0.912941 0.856642 0.813636
Si Si3 0.594236 0.460000 0.256818
Si Si4 0.515205 0.405585 0.060412
Si Si5 0.451166 0.364084 0.850806
O O1 0.085221 0.116825 0.271955
O O2 0.360637 0.254655 0.162870
O O3 0.237299 0.998668 0.298213
O O4 0.500000 0.000000 0.000000
O O5 0.191844 0.866173 0.639935
O O6 0.703792 0.968223 0.001337
O O7 0.783888 0.698702 0.930648
O O8 0.629192 0.569682 0.165713
O O9 0.620326 0.284700 0.218252
O O10 0.425801 0.505923 0.191833
O O11 0.500000 0.500000 0.000000
#
# Coordination Sequence:
#
# PCOD9243421 Si02
#       5
#     4   4   4   4   4
#     4  10  20  37  64  89 128 164 217 264 313 383
#     4   9  23  37  65  92 125 166 221 257 328 376
#     4   9  20  38  62  91 133 166 214 268 323 376
#     4  12  22  40  67  94 130 167 220 265 318 390
#     4  10  21  40  62  97 130 171 212 272 321 384
#
# _framework density 22.430012999999999
#
# number of rings (size 3 to 8) (size 9 to 14) (size 15 to 20)
#    1.200    0.800    2.000    1.200    5.600    0.000 
#    0.000    2.000    4.400    0.000    0.000    0.000 
#    0.000    0.000    0.000    0.000    0.000    0.000 
#
# Total GULP energy -111632.822020 kJ/mol
# GULP energy per Si atom -5581.641101 kJ/mol
# Density = 2.237896 g / cm^3
# Si number density = 22.430013 Si / 1000 Ang^3
#
#
#
# Elastic Constant Matrix: (Units=GPa)
#
#
# Indices 1 2 3 4 5 6 
#
# 1 162.6033 37.2122 22.2365 0.0000 5.4938 0.0000
# 2 37.2122 112.6016 12.3333 0.0000 12.9355 0.0000
# 3 22.2365 12.3333 60.2101 0.0000 -4.9349 0.0000
# 4 0.0000 0.0000 0.0000 11.6475 0.0000 7.2085
# 5 5.4938 12.9355 -4.9349 0.0000 30.7667 0.0000
# 6 0.0000 0.0000 0.0000 7.2085 0.0000 57.9196
#
#
#
# Elastic Compliance Matrix: (Units=1/GPa)
#
#
# Indices 1 2 3 4 5 6 
#
# 1 0.006928 -0.001958 -0.002221 0.000000 -0.000770 0.000000
# 2 -0.001958 0.010199 -0.001711 0.000000 -0.004213 0.000000
# 3 -0.002221 -0.001711 0.018109 0.000000 0.004021 0.000000
# 4 0.000000 0.000000 0.000000 0.093020 0.000000 -0.011577
# 5 -0.000770 -0.004213 0.004021 0.000000 0.035056 0.000000
# 6 0.000000 0.000000 0.000000 -0.011577 0.000000 0.018706
#
#
# Mechanical properties :
#
#
# Convention : Reuss Voigt Hill
#
# Bulk Modulus (GPa) = 42.63291 53.21988 47.92639
# Shear Modulus (GPa) = 24.79952 37.64230 31.22091
#
# Velocity S-wave (km/s) = 3.32872 4.10104 3.73490
# Velocity P-wave (km/s) = 5.81569 6.79730 6.32556
#
# Compressibility (1/GPa) = 0.02345606
#
# Stress axis : x y z
#
# Youngs Moduli (GPa) = 144.34884 98.04583 55.22199
#
# Poissons Ratio (x) = 0.19195 0.12263
# Poissons Ratio (y) = 0.28260 0.09451
# Poissons Ratio (z) = 0.32054 0.16781
#
# Static dielectric constant tensor:
#      x y z
#    x 1.806910 0.000000 0.011520 
#    y 0.000000 1.845800 0.000000 
#    z 0.011520 0.000000 1.894020 
# 
# From -- ./inp_files/56927.got.cif
#   From: 2010.05.17/outbox.cif.g08.bks.cpg/sg14_29_cif.got.tgz:56927.got - 2010.06.03 17:49:19.
