data_PCOD9243408
_publ_section_title
;
Structure prediction by ZEFSAII (Michael W. Deem and Ramdas Pophale) SiO2 
 PCOD9243408
Probable space group: P 21/C
;
_chemical_formula_sum "Si O2"
_cell_formula_units_Z 24
_cell_length_a 24.566843
_cell_length_b 4.874925
_cell_length_c 25.272314
_cell_angle_alpha 90.000000
_cell_angle_beta 17.484828
_cell_angle_gamma 90.000000
_cell_volume 909.367009
_symmetry_space_group_name_H-M "P 21/C"
_symmetry_group_IT_number 14
_symmetry_cell_setting 'monoclinic'
loop_
_space_group_symop_operation_xyz
x,y,z
-x,1/2+y,1/2-z
-x,-y,-z
x,1/2-y,1/2+z
loop_
_atom_site_type_symbol
_atom_site_label
_atom_site_fract_x
_atom_site_fract_y
_atom_site_fract_z
Si Si1 0.107970 0.586699 0.521166
Si Si2 0.365378 0.252013 0.616262
Si Si3 0.953409 0.536514 0.258643
Si Si4 0.793851 0.893492 0.630862
Si Si5 0.474700 0.554375 0.236810
Si Si6 0.385587 0.070982 0.982951
O O1 0.063247 0.302803 0.532677
O O2 0.284620 0.477017 0.388174
O O3 0.026149 0.781876 0.642256
O O4 0.154231 0.796001 0.430667
O O5 0.500000 0.500000 0.500000
O O6 0.214787 0.288953 0.800806
O O7 0.310897 0.290365 0.605973
O O8 0.500000 0.000000 0.500000
O O9 0.770347 0.409041 0.403347
O O10 0.059902 0.274582 0.183685
O O11 0.575153 0.908734 0.817149
O O12 0.554525 0.304029 0.195149
O O13 0.578422 0.684698 0.091574
#
# Coordination Sequence:
#
# PCOD9243408 Si02
#       6
#     4   4   4   4   4   4
#     4  11  22  39  59  87 125 162 202 261 316 369
#     4  10  20  37  63  94 121 154 209 272 322 373
#     4  12  26  43  62  93 135 176 213 260 321 391
#     4  10  21  40  64  90 119 158 210 264 314 374
#     4  11  20  33  54  81 110 152 205 250 293 354
#     4  10  23  40  64  91 122 166 212 259 316 381
#
# _framework density 26.391987
#
# number of rings (size 3 to 8) (size 9 to 14) (size 15 to 20)
#    0.000    1.333    0.000    8.000    0.000    6.667 
#    0.000    1.667    0.000    0.000    0.000    0.000 
#    0.000    0.000    0.000    0.000    0.000    0.000 
#
# Total GULP energy -134014.020616 kJ/mol
# GULP energy per Si atom -5583.917526 kJ/mol
# Density = 2.633192 g / cm^3
# Si number density = 26.391987 Si / 1000 Ang^3
#
#
#
# Elastic Constant Matrix: (Units=GPa)
#
#
# Indices 1 2 3 4 5 6 
#
# 1 154.1979 40.0243 45.7840 0.0000 25.6939 0.0000
# 2 40.0243 117.2960 11.7860 0.0000 42.1210 0.0000
# 3 45.7840 11.7860 49.5589 0.0000 26.3932 0.0000
# 4 0.0000 0.0000 0.0000 39.4969 0.0000 12.5726
# 5 25.6939 42.1210 26.3932 0.0000 50.2823 0.0000
# 6 0.0000 0.0000 0.0000 12.5726 0.0000 24.4881
#
#
#
# Elastic Compliance Matrix: (Units=1/GPa)
#
#
# Indices 1 2 3 4 5 6 
#
# 1 0.009799 -0.003452 -0.009862 0.000000 0.003061 0.000000
# 2 -0.003452 0.013870 0.007133 0.000000 -0.013599 0.000000
# 3 -0.009862 0.007133 0.038990 0.000000 -0.021402 0.000000
# 4 0.000000 0.000000 0.000000 0.030265 0.000000 -0.015538
# 5 0.003061 -0.013599 -0.021402 0.000000 0.040949 0.000000
# 6 0.000000 0.000000 0.000000 -0.015538 0.000000 0.048814
#
#
# Mechanical properties :
#
#
# Convention : Reuss Voigt Hill
#
# Bulk Modulus (GPa) = 19.88199 57.36016 38.62107
# Shear Modulus (GPa) = 23.60545 37.75070 30.67808
#
# Velocity S-wave (km/s) = 2.99393 3.78615 3.41310
# Velocity P-wave (km/s) = 4.41601 6.39487 5.49525
#
# Compressibility (1/GPa) = 0.05029678
#
# Stress axis : x y z
#
# Youngs Moduli (GPa) = 102.04706 72.09831 25.64735
#
# Poissons Ratio (x) = 0.24889 0.25294
# Poissons Ratio (y) = 0.35227 -0.18294
# Poissons Ratio (z) = 1.00641 -0.51426
#
# Static dielectric constant tensor:
#      x y z
#    x 2.177030 0.000000 0.054350 
#    y 0.000000 1.932860 0.000000 
#    z 0.054350 0.000000 2.212760 
# 
# From -- ./inp_files/71636.got.cif
#   From: 2010.05.17/outbox.cif.g08.bks.cpg/sg14_36_cif.got.tgz:71636.got - 2010.06.03 17:49:19.
