data_PCOD9243933
_publ_section_title
;
Structure prediction by ZEFSAII (Michael W. Deem and Ramdas Pophale) SiO2 
 PCOD9243933
Probable space group: P 21/C
;
_chemical_formula_sum "Si O2"
_cell_formula_units_Z 28
_cell_length_a 14.981395
_cell_length_b 9.923706
_cell_length_c 14.650301
_cell_angle_alpha 90.000000
_cell_angle_beta 38.701819
_cell_angle_gamma 90.000000
_cell_volume 1361.878930
_symmetry_space_group_name_H-M "P 21/C"
_symmetry_group_IT_number 14
_symmetry_cell_setting 'monoclinic'
loop_
_space_group_symop_operation_xyz
x,y,z
-x,1/2+y,1/2-z
-x,-y,-z
x,1/2-y,1/2+z
loop_
_atom_site_type_symbol
_atom_site_label
_atom_site_fract_x
_atom_site_fract_y
_atom_site_fract_z
Si Si1 0.731206 0.451848 0.782609
Si Si2 0.038050 0.782394 0.403631
Si Si3 0.617866 0.583675 0.245301
Si Si4 0.135733 0.432400 0.817179
Si Si5 0.361758 0.093830 0.981859
Si Si6 0.239108 0.142202 0.894490
Si Si7 0.573769 0.593202 0.070539
O O1 0.827102 0.317334 0.709780
O O2 0.808939 0.556713 0.653866
O O3 0.581168 0.436006 0.848408
O O4 0.688435 0.521537 0.912307
O O5 0.976455 0.824172 0.553868
O O6 0.902409 0.719572 0.461075
O O7 0.068548 0.928608 0.338527
O O8 0.760589 0.530691 0.179917
O O9 0.481387 0.519415 0.404257
O O10 0.643015 0.745769 0.229796
O O11 0.601537 0.546302 0.152072
O O12 0.242046 0.389549 0.653716
O O13 0.295951 0.061220 0.935344
O O14 0.422602 0.244691 0.927604
#
# Coordination Sequence:
#
# PCOD9243933 Si02
#       7
#     4   4   4   4   4   4   4
#     4  11  21  41  62  90 124 162 200 260 311 365
#     4  10  22  42  60  87 124 165 209 246 308 368
#     4  10  20  39  62  88 122 155 206 264 306 366
#     4  10  22  41  63  87 124 166 204 254 304 378
#     4  11  21  40  61  91 120 164 201 256 319 360
#     4  10  22  39  60  90 125 156 210 257 300 383
#     4  10  22  36  62  95 120 154 211 259 311 365
#
# _framework density 20.559829000000001
#
# number of rings (size 3 to 8) (size 9 to 14) (size 15 to 20)
#    0.000    1.714    1.429    3.429    0.000    2.286 
#   12.857    0.000    0.000    0.000    0.000    0.000 
#    0.000    0.000    0.000    0.000    0.000    0.000 
#
# Total GULP energy -156048.101244 kJ/mol
# GULP energy per Si atom -5573.146473 kJ/mol
# Density = 2.051303 g / cm^3
# Si number density = 20.559829 Si / 1000 Ang^3
#
#
#
# Elastic Constant Matrix: (Units=GPa)
#
#
# Indices 1 2 3 4 5 6 
#
# 1 33.1163 12.4776 17.2080 0.0000 9.9924 0.0000
# 2 12.4776 46.8206 7.8108 0.0000 -9.3680 0.0000
# 3 17.2080 7.8108 52.8553 0.0000 -1.2022 0.0000
# 4 0.0000 0.0000 0.0000 41.3248 0.0000 -11.8689
# 5 9.9924 -9.3680 -1.2022 0.0000 29.1528 0.0000
# 6 0.0000 0.0000 0.0000 -11.8689 0.0000 24.6211
#
#
#
# Elastic Compliance Matrix: (Units=1/GPa)
#
#
# Indices 1 2 3 4 5 6 
#
# 1 0.050682 -0.015657 -0.014710 0.000000 -0.023009 0.000000
# 2 -0.015657 0.028219 0.001257 0.000000 0.014486 0.000000
# 3 -0.014710 0.001257 0.023669 0.000000 0.006422 0.000000
# 4 0.000000 0.000000 0.000000 0.028087 0.000000 0.013540
# 5 -0.023009 0.014486 0.006422 0.000000 0.047109 0.000000
# 6 0.000000 0.000000 0.000000 0.013540 0.000000 0.047143
#
#
# Mechanical properties :
#
#
# Convention : Reuss Voigt Hill
#
# Bulk Modulus (GPa) = 22.54768 23.08723 22.81746
# Shear Modulus (GPa) = 16.78341 25.37278 21.07810
#
# Velocity S-wave (km/s) = 2.86023 3.51678 3.20536
# Velocity P-wave (km/s) = 4.67959 5.26726 4.98210
#
# Compressibility (1/GPa) = 0.04435045
#
# Stress axis : x y z
#
# Youngs Moduli (GPa) = 19.73076 35.43662 42.24910
#
# Poissons Ratio (x) = 0.55482 0.62149
# Poissons Ratio (y) = 0.30892 -0.05309
# Poissons Ratio (z) = 0.29024 -0.04453
#
# Static dielectric constant tensor:
#      x y z
#    x 1.730460 0.000000 -0.008960 
#    y 0.000000 1.753280 0.000000 
#    z -0.008960 0.000000 1.763180 
# 
# From -- ./inp_files/46703.got.cif
#   From: 2010.05.17/outbox.cif.g08.bks.cpg/sg14_24_cif.got.tgz:46703.got - 2010.06.03 17:49:19.
