data_PCOD9243677
_publ_section_title
;
Structure prediction by ZEFSAII (Michael W. Deem and Ramdas Pophale) SiO2 
 PCOD9243677
Probable space group: P 21/C
;
_chemical_formula_sum "Si O2"
_cell_formula_units_Z 28
_cell_length_a 10.542311
_cell_length_b 11.446538
_cell_length_c 12.819556
_cell_angle_alpha 90.000000
_cell_angle_beta 130.934963
_cell_angle_gamma 90.000000
_cell_volume 1168.667234
_symmetry_space_group_name_H-M "P 21/C"
_symmetry_group_IT_number 14
_symmetry_cell_setting 'monoclinic'
loop_
_space_group_symop_operation_xyz
x,y,z
-x,1/2+y,1/2-z
-x,-y,-z
x,1/2-y,1/2+z
loop_
_atom_site_type_symbol
_atom_site_label
_atom_site_fract_x
_atom_site_fract_y
_atom_site_fract_z
Si Si1 0.119572 0.510103 0.900379
Si Si2 0.331784 0.227764 0.195831
Si Si3 0.196459 0.869456 0.250533
Si Si4 0.570001 0.193577 0.998179
Si Si5 0.466473 0.440592 0.154848
Si Si6 0.604632 0.542743 0.417783
Si Si7 0.021744 0.680008 0.023937
O O1 0.074971 0.558898 0.762682
O O2 0.011640 0.406704 0.895081
O O3 0.312795 0.469016 0.997952
O O4 0.118332 0.612498 0.985622
O O5 0.449043 0.226184 0.360813
O O6 0.441733 0.307496 0.177009
O O7 0.280549 0.118375 0.096702
O O8 0.160431 0.295377 0.124197
O O9 0.293818 0.773303 0.373206
O O10 0.107449 0.796684 0.111937
O O11 0.347648 0.949352 0.289439
O O12 0.655789 0.086684 0.980742
O O13 0.454814 0.121025 0.017806
O O14 0.452518 0.515281 0.254178
#
# Coordination Sequence:
#
# PCOD9243677 Si02
#       7
#     4   4   4   4   4   4   4
#     4  10  23  44  66  91 137 179 213 263 335 406
#     4  10  21  41  63  92 135 169 216 267 330 392
#     4  12  23  40  70 100 126 168 229 274 320 390
#     4  10  22  36  68  97 125 176 221 269 327 387
#     4  10  21  39  67  96 127 171 218 277 326 382
#     4  10  20  38  62  97 131 160 220 277 319 382
#     4  10  25  44  65  94 133 181 208 263 341 399
#
# _framework density 23.958915000000001
#
# number of rings (size 3 to 8) (size 9 to 14) (size 15 to 20)
#    0.000    1.714    1.429    2.143    4.000    5.714 
#    2.571    0.714    0.000    0.000    0.000    0.000 
#    0.000    0.000    0.000    0.000    0.000    0.000 
#
# Total GULP energy -156359.421191 kJ/mol
# GULP energy per Si atom -5584.265043 kJ/mol
# Density = 2.390438 g / cm^3
# Si number density = 23.958915 Si / 1000 Ang^3
#
#
#
# Elastic Constant Matrix: (Units=GPa)
#
#
# Indices 1 2 3 4 5 6 
#
# 1 85.2926 24.7806 10.2942 0.0000 -9.8507 0.0000
# 2 24.7806 44.7045 3.2128 0.0000 -9.7228 0.0000
# 3 10.2942 3.2128 52.4293 0.0000 -5.2224 0.0000
# 4 0.0000 0.0000 0.0000 47.3902 0.0000 -15.4472
# 5 -9.8507 -9.7228 -5.2224 0.0000 16.4990 0.0000
# 6 0.0000 0.0000 0.0000 -15.4472 0.0000 30.9719
#
#
#
# Elastic Compliance Matrix: (Units=1/GPa)
#
#
# Indices 1 2 3 4 5 6 
#
# 1 0.014456 -0.007031 -0.002024 0.000000 0.003847 0.000000
# 2 -0.007031 0.029078 0.000916 0.000000 0.013227 0.000000
# 3 -0.002024 0.000916 0.019978 0.000000 0.005655 0.000000
# 4 0.000000 0.000000 0.000000 0.025198 0.000000 0.012567
# 5 0.003847 0.013227 0.005655 0.000000 0.072491 0.000000
# 6 0.000000 0.000000 0.000000 0.012567 0.000000 0.038555
#
#
# Mechanical properties :
#
#
# Convention : Reuss Voigt Hill
#
# Bulk Modulus (GPa) = 21.17161 28.77794 24.97478
# Shear Modulus (GPa) = 21.57237 28.58147 25.07692
#
# Velocity S-wave (km/s) = 3.00391 3.45764 3.23873
# Velocity P-wave (km/s) = 4.57024 5.28940 4.94292
#
# Compressibility (1/GPa) = 0.04723306
#
# Stress axis : x y z
#
# Youngs Moduli (GPa) = 69.17686 34.39082 50.05533
#
# Poissons Ratio (x) = 0.24180 0.10133
# Poissons Ratio (y) = 0.48638 -0.04586
# Poissons Ratio (z) = 0.14003 -0.03151
#
# Static dielectric constant tensor:
#      x y z
#    x 1.912890 0.000000 -0.037560 
#    y 0.000000 2.062930 0.000000 
#    z -0.037560 0.000000 1.909640 
# 
# From -- ./inp_files/46970.got.cif
#   From: 2010.05.17/outbox.cif.g08.bks.cpg/sg14_24_cif.got.tgz:46970.got - 2010.06.03 17:49:19.
