data_PCOD9243785
_publ_section_title
;
Structure prediction by ZEFSAII (Michael W. Deem and Ramdas Pophale) SiO2 
 PCOD9243785
Probable space group: P 21/C
;
_chemical_formula_sum "Si O2"
_cell_formula_units_Z 32
_cell_length_a 8.802972
_cell_length_b 18.929890
_cell_length_c 15.067115
_cell_angle_alpha 90.000000
_cell_angle_beta 148.961776
_cell_angle_gamma 90.000000
_cell_volume 1294.579371
_symmetry_space_group_name_H-M "P 21/C"
_symmetry_group_IT_number 14
_symmetry_cell_setting 'monoclinic'
loop_
_space_group_symop_operation_xyz
x,y,z
-x,1/2+y,1/2-z
-x,-y,-z
x,1/2-y,1/2+z
loop_
_atom_site_type_symbol
_atom_site_label
_atom_site_fract_x
_atom_site_fract_y
_atom_site_fract_z
Si Si1 0.241444 0.190202 0.447104
Si Si2 0.337074 0.841736 0.645694
Si Si3 0.577583 0.402761 0.257752
Si Si4 0.875827 0.498119 0.278576
Si Si5 0.321129 0.601682 0.333579
Si Si6 0.392738 0.890330 0.487048
Si Si7 0.080263 0.213854 0.015192
Si Si8 0.551651 0.551072 0.621412
O O1 0.359334 0.133519 0.578774
O O2 0.487343 0.183012 0.494365
O O3 0.925226 0.158804 0.263572
O O4 0.205479 0.263860 0.480550
O O5 0.393786 0.881924 0.767146
O O6 0.263799 0.883797 0.520427
O O7 0.098498 0.782026 0.543990
O O8 0.649398 0.803501 0.786349
O O9 0.707813 0.475624 0.284816
O O10 0.856419 0.350776 0.403237
O O11 0.412243 0.410697 0.267657
O O12 0.685974 0.561532 0.142381
O O13 0.212913 0.520051 0.460752
O O14 0.819091 0.430363 0.187311
O O15 0.541478 0.598717 0.528062
O O16 0.243081 0.517662 0.288008
#
# Coordination Sequence:
#
# PCOD9243785 Si02
#       8
#     4   4   4   4   4   4   4   4
#     4  10  22  44  62  93 133 176 217 275 325 398
#     4  11  23  45  66  95 130 182 219 278 318 399
#     4  11  22  39  68  93 134 173 221 276 329 391
#     4  10  20  38  66 100 128 166 216 271 336 406
#     4  10  23  41  64  92 137 168 214 275 334 387
#     4  10  21  41  68  95 132 169 218 267 340 396
#     4  11  23  44  64  92 131 172 232 266 325 388
#     4  11  21  40  63 103 129 169 218 276 331 399
#
# _framework density 24.718453
#
# number of rings (size 3 to 8) (size 9 to 14) (size 15 to 20)
#    0.000    1.500    2.500    2.625    0.000    0.500 
#   15.750    0.000    0.000    0.000    0.000    0.000 
#    0.000    0.000    0.000    0.000    0.000    0.000 
#
# Total GULP energy -178938.072674 kJ/mol
# GULP energy per Si atom -5591.814771 kJ/mol
# Density = 2.466219 g / cm^3
# Si number density = 24.718453 Si / 1000 Ang^3
#
#
#
# Elastic Constant Matrix: (Units=GPa)
#
#
# Indices 1 2 3 4 5 6 
#
# 1 93.7613 11.8956 19.3799 0.0000 -32.4698 0.0000
# 2 11.8956 32.7248 2.3973 0.0000 -6.2449 0.0000
# 3 19.3799 2.3973 53.1081 0.0000 -7.7297 0.0000
# 4 0.0000 0.0000 0.0000 22.7249 0.0000 2.6386
# 5 -32.4698 -6.2449 -7.7297 0.0000 53.5765 0.0000
# 6 0.0000 0.0000 0.0000 2.6386 0.0000 27.4060
#
#
#
# Elastic Compliance Matrix: (Units=1/GPa)
#
#
# Indices 1 2 3 4 5 6 
#
# 1 0.014689 -0.003534 -0.004050 0.000000 0.007906 0.000000
# 2 -0.003534 0.032145 0.000074 0.000000 0.001616 0.000000
# 3 -0.004050 0.000074 0.020376 0.000000 0.000494 0.000000
# 4 0.000000 0.000000 0.000000 0.044502 0.000000 -0.004285
# 5 0.007906 0.001616 0.000494 0.000000 0.023716 0.000000
# 6 0.000000 0.000000 0.000000 -0.004285 0.000000 0.036901
#
#
# Mechanical properties :
#
#
# Convention : Reuss Voigt Hill
#
# Bulk Modulus (GPa) = 19.16091 27.43777 23.29934
# Shear Modulus (GPa) = 24.42054 30.46957 27.44505
#
# Velocity S-wave (km/s) = 3.14657 3.51474 3.33574
# Velocity P-wave (km/s) = 4.57927 5.25313 4.92774
#
# Compressibility (1/GPa) = 0.05218958
#
# Stress axis : x y z
#
# Youngs Moduli (GPa) = 68.07992 31.10861 49.07753
#
# Poissons Ratio (x) = 0.10994 0.19876
# Poissons Ratio (y) = 0.24060 -0.00362
# Poissons Ratio (z) = 0.27572 -0.00229
#
# Static dielectric constant tensor:
#      x y z
#    x 2.068230 0.000000 0.012910 
#    y 0.000000 1.965770 0.000000 
#    z 0.012910 0.000000 1.931700 
# 
# From -- ./inp_files/42072.got.cif
#   From: 2010.05.17/outbox.cif.g08.bks.cpg/sg14_22_cif.got.tgz:42072.got - 2010.06.03 17:49:19.
