data_PCOD9243064
_publ_section_title
;
Structure prediction by ZEFSAII (Michael W. Deem and Ramdas Pophale) SiO2 
 PCOD9243064
Probable space group: P 21/C
;
_chemical_formula_sum "Si O2"
_cell_formula_units_Z 24
_cell_length_a 13.086356
_cell_length_b 8.933180
_cell_length_c 13.431264
_cell_angle_alpha 90.000000
_cell_angle_beta 41.861175
_cell_angle_gamma 90.000000
_cell_volume 1047.806465
_symmetry_space_group_name_H-M "P 21/C"
_symmetry_group_IT_number 14
_symmetry_cell_setting 'monoclinic'
loop_
_space_group_symop_operation_xyz
x,y,z
-x,1/2+y,1/2-z
-x,-y,-z
x,1/2-y,1/2+z
loop_
_atom_site_type_symbol
_atom_site_label
_atom_site_fract_x
_atom_site_fract_y
_atom_site_fract_z
Si Si1 0.516726 0.871388 0.192690
Si Si2 0.265352 0.130740 0.552122
Si Si3 0.696237 0.378337 0.439548
Si Si4 0.149103 0.363728 0.780965
Si Si5 0.817007 0.346947 0.012413
Si Si6 0.576622 0.668206 0.872006
O O1 0.335896 0.851464 0.311000
O O2 0.541318 0.904982 0.292114
O O3 0.608924 0.720190 0.102372
O O4 0.590640 0.998022 0.071218
O O5 0.153986 0.259108 0.677309
O O6 0.352652 0.073691 0.588755
O O7 0.186685 0.999001 0.550139
O O8 0.802481 0.471317 0.288144
O O9 0.791078 0.289972 0.454777
O O10 0.572215 0.261940 0.486329
O O11 0.285916 0.289975 0.744652
O O12 0.980569 0.344489 0.946585
#
# Coordination Sequence:
#
# PCOD9243064 Si02
#       6
#     4   4   4   4   4   4
#     4  10  21  37  60  84 114 152 197 233 282 343
#     4   9  21  38  61  81 118 151 191 234 288 340
#     4  10  20  36  62  81 115 153 194 228 288 344
#     4   9  20  36  60  83 115 149 193 232 289 334
#     4  11  19  35  59  88 115 150 186 244 288 330
#     4   9  20  39  64  81 115 153 198 230 283 347
#
# _framework density 22.904993999999999
#
# number of rings (size 3 to 8) (size 9 to 14) (size 15 to 20)
#    1.000    1.333    0.000    3.500    0.000    2.667 
#    0.000    4.167   14.667    0.000    0.000    0.000 
#    0.000    0.000    0.000    0.000    0.000    0.000 
#
# Total GULP energy -134065.370503 kJ/mol
# GULP energy per Si atom -5586.057104 kJ/mol
# Density = 2.285286 g / cm^3
# Si number density = 22.904994 Si / 1000 Ang^3
#
#
#
# Elastic Constant Matrix: (Units=GPa)
#
#
# Indices 1 2 3 4 5 6 
#
# 1 49.6135 3.7053 30.3921 0.0000 -14.4969 0.0000
# 2 3.7053 88.1073 10.7186 0.0000 -4.0397 0.0000
# 3 30.3921 10.7186 106.4753 0.0000 -23.2988 0.0000
# 4 0.0000 0.0000 0.0000 8.8353 0.0000 6.2977
# 5 -14.4969 -4.0397 -23.2988 0.0000 42.6895 0.0000
# 6 0.0000 0.0000 0.0000 6.2977 0.0000 33.9664
#
#
#
# Elastic Compliance Matrix: (Units=1/GPa)
#
#
# Indices 1 2 3 4 5 6 
#
# 1 0.025446 -0.000086 -0.006093 0.000000 0.005307 0.000000
# 2 -0.000086 0.011501 -0.001024 0.000000 0.000500 0.000000
# 3 -0.006093 -0.001024 0.012219 0.000000 0.004503 0.000000
# 4 0.000000 0.000000 0.000000 0.130418 0.000000 -0.024181
# 5 0.005307 0.000500 0.004503 0.000000 0.027732 0.000000
# 6 0.000000 0.000000 0.000000 -0.024181 0.000000 0.033924
#
#
# Mechanical properties :
#
#
# Convention : Reuss Voigt Hill
#
# Bulk Modulus (GPa) = 28.76793 37.09204 32.92998
# Shear Modulus (GPa) = 18.71034 30.39025 24.55029
#
# Velocity S-wave (km/s) = 2.86119 3.64647 3.27744
# Velocity P-wave (km/s) = 4.84790 5.82735 5.36005
#
# Compressibility (1/GPa) = 0.03476093
#
# Stress axis : x y z
#
# Youngs Moduli (GPa) = 39.29957 86.94972 81.83656
#
# Poissons Ratio (x) = 0.00743 0.49864
# Poissons Ratio (y) = 0.00336 0.08379
# Poissons Ratio (z) = 0.23946 0.08902
#
# Static dielectric constant tensor:
#      x y z
#    x 1.863480 0.000000 0.007330 
#    y 0.000000 1.886200 0.000000 
#    z 0.007330 0.000000 1.867730 
# 
# From -- ./inp_files/58736.got.cif
#   From: 2010.05.17/outbox.cif.g08.bks.cpg/sg14_30_cif.got.tgz:58736.got - 2010.06.03 17:49:19.
