data_PCOD9243691
_publ_section_title
;
Structure prediction by ZEFSAII (Michael W. Deem and Ramdas Pophale) SiO2 
 PCOD9243691
Probable space group: P 21/C
;
_chemical_formula_sum "Si O2"
_cell_formula_units_Z 24
_cell_length_a 28.917832
_cell_length_b 10.192190
_cell_length_c 9.103277
_cell_angle_alpha 90.000000
_cell_angle_beta 150.760760
_cell_angle_gamma 90.000000
_cell_volume 1310.562314
_symmetry_space_group_name_H-M "P 21/C"
_symmetry_group_IT_number 14
_symmetry_cell_setting 'monoclinic'
loop_
_space_group_symop_operation_xyz
x,y,z
-x,1/2+y,1/2-z
-x,-y,-z
x,1/2-y,1/2+z
loop_
_atom_site_type_symbol
_atom_site_label
_atom_site_fract_x
_atom_site_fract_y
_atom_site_fract_z
Si Si1 0.015967 0.128434 0.638680
Si Si2 0.773958 0.569630 0.827793
Si Si3 0.940863 0.116068 0.760124
Si Si4 0.216938 0.322655 0.825200
Si Si5 0.555776 0.893524 0.745674
Si Si6 0.563524 0.616450 0.607690
O O1 0.965899 0.125223 0.658451
O O2 0.973575 0.252216 0.432781
O O3 0.127932 0.130417 0.984024
O O4 0.000000 0.000000 0.500000
O O5 0.783489 0.667548 0.714964
O O6 0.662846 0.554040 0.536705
O O7 0.833578 0.436872 0.979253
O O8 0.802530 0.645448 0.057953
O O9 0.000000 0.000000 0.000000
O O10 0.319564 0.386433 0.068381
O O11 0.544961 0.752202 0.640241
O O12 0.500000 0.000000 0.500000
O O13 0.532727 0.877538 0.852705
O O14 0.500000 0.500000 0.500000
#
# Coordination Sequence:
#
# PCOD9243691 Si02
#       6
#     4   4   4   4   4   4
#     4  12  25  40  61  91 125 163 203 253 302 356
#     4  10  22  39  64  90 122 163 203 252 303 370
#     4  12  23  41  63  88 126 161 209 247 301 363
#     4  10  20  38  63  88 120 157 206 244 306 358
#     4  10  21  41  63  92 123 157 205 255 310 362
#     4  10  21  39  64  90 120 159 203 253 305 368
#
# _framework density 18.312750000000001
#
# number of rings (size 3 to 8) (size 9 to 14) (size 15 to 20)
#    0.000    1.333    3.333    2.000    2.333    1.333 
#    3.000    0.000    0.000    0.000    0.000    0.000 
#    0.000    0.000    0.000    0.000    0.000    0.000 
#
# Total GULP energy -133810.766440 kJ/mol
# GULP energy per Si atom -5575.448602 kJ/mol
# Density = 1.827107 g / cm^3
# Si number density = 18.312750 Si / 1000 Ang^3
#
#
#
# Elastic Constant Matrix: (Units=GPa)
#
#
# Indices 1 2 3 4 5 6 
#
# 1 144.9734 89.8281 66.4888 0.0000 -28.2834 0.0000
# 2 89.8281 150.0331 83.5831 0.0000 -8.3597 0.0000
# 3 66.4888 83.5831 125.6344 0.0000 -14.7843 0.0000
# 4 0.0000 0.0000 0.0000 41.1787 0.0000 -2.7527
# 5 -28.2834 -8.3597 -14.7843 0.0000 28.2246 0.0000
# 6 0.0000 0.0000 0.0000 -2.7527 0.0000 31.9625
#
#
#
# Elastic Compliance Matrix: (Units=1/GPa)
#
#
# Indices 1 2 3 4 5 6 
#
# 1 0.014118 -0.006994 -0.001490 0.000000 0.011296 0.000000
# 2 -0.006994 0.014064 -0.006383 0.000000 -0.006186 0.000000
# 3 -0.001490 -0.006383 0.013424 0.000000 0.003648 0.000000
# 4 0.000000 0.000000 0.000000 0.024425 0.000000 0.002104
# 5 0.011296 -0.006186 0.003648 0.000000 0.046828 0.000000
# 6 0.000000 0.000000 0.000000 0.002104 0.000000 0.031468
#
#
# Mechanical properties :
#
#
# Convention : Reuss Voigt Hill
#
# Bulk Modulus (GPa) = 84.22545 100.04901 92.13723
# Shear Modulus (GPa) = 28.08711 32.32255 30.20483
#
# Velocity S-wave (km/s) = 3.92056 4.20578 4.06567
# Velocity P-wave (km/s) = 8.16008 8.85082 8.51246
#
# Compressibility (1/GPa) = 0.01187290
#
# Stress axis : x y z
#
# Youngs Moduli (GPa) = 70.83120 71.10445 74.49321
#
# Poissons Ratio (x) = 0.49727 0.11097
# Poissons Ratio (y) = 0.49536 0.47552
# Poissons Ratio (z) = 0.10552 0.45388
#
# Static dielectric constant tensor:
#      x y z
#    x 1.651510 0.000000 0.021060 
#    y 0.000000 1.607620 0.000000 
#    z 0.021060 0.000000 1.670640 
# 
# From -- ./inp_files/15090.got.cif
#   From: 2010.05.17/outbox.cif.g08.bks.cpg/sg14_8_cif.got.tgz:15090.got - 2010.06.03 17:49:19.
