data_PCOD9243519
_publ_section_title
;
Structure prediction by ZEFSAII (Michael W. Deem and Ramdas Pophale) SiO2 
 PCOD9243519
Probable space group: P 21/C
;
_chemical_formula_sum "Si O2"
_cell_formula_units_Z 32
_cell_length_a 13.925312
_cell_length_b 13.131802
_cell_length_c 14.243379
_cell_angle_alpha 90.000000
_cell_angle_beta 151.161704
_cell_angle_gamma 90.000000
_cell_volume 1256.304524
_symmetry_space_group_name_H-M "P 21/C"
_symmetry_group_IT_number 14
_symmetry_cell_setting 'monoclinic'
loop_
_space_group_symop_operation_xyz
x,y,z
-x,1/2+y,1/2-z
-x,-y,-z
x,1/2-y,1/2+z
loop_
_atom_site_type_symbol
_atom_site_label
_atom_site_fract_x
_atom_site_fract_y
_atom_site_fract_z
Si Si1 0.950889 0.154296 0.054625
Si Si2 0.169045 0.186371 0.953066
Si Si3 0.740943 0.949439 0.548325
Si Si4 0.199750 0.336870 0.260357
Si Si5 0.200171 0.889955 0.262399
Si Si6 0.546390 0.214810 0.779623
Si Si7 0.627794 0.335774 0.559784
Si Si8 0.950952 0.909024 0.559355
O O1 0.846220 0.087023 0.885300
O O2 0.771026 0.225309 0.937389
O O3 0.061848 0.096288 0.232180
O O4 0.126608 0.224516 0.163359
O O5 0.137512 0.165862 0.815530
O O6 0.109884 0.298836 0.943868
O O7 0.017578 0.114768 0.876233
O O8 0.407334 0.186140 0.169664
O O9 0.573090 0.863048 0.390700
O O10 0.819233 0.982674 0.512324
O O11 0.674645 0.034996 0.564990
O O12 0.434864 0.354580 0.456730
O O13 0.103249 0.404869 0.096288
O O14 0.292495 0.777089 0.346960
O O15 0.559295 0.165593 0.893390
O O16 0.811949 0.411955 0.726584
#
# Coordination Sequence:
#
# PCOD9243519 Si02
#       8
#     4   4   4   4   4   4   4   4
#     4  12  21  38  64  94 123 161 199 252 314 368
#     4  10  20  38  59  88 119 156 205 254 290 355
#     4  11  23  42  60  88 135 162 194 250 318 372
#     4  12  20  37  66  89 117 156 214 258 287 354
#     4  11  24  40  59  94 131 162 196 255 316 365
#     4  11  21  39  64  89 121 164 209 244 303 363
#     4  11  20  38  61  90 118 159 210 247 298 357
#     4  10  20  38  61  83 118 160 202 247 301 357
#
# _framework density 25.471532
#
# number of rings (size 3 to 8) (size 9 to 14) (size 15 to 20)
#    0.000    1.000    8.750    1.875    0.000    0.500 
#    4.500    0.625    0.000    0.750    0.000    0.000 
#    0.000    0.000    0.000    0.000    0.000    0.000 
#
# Total GULP energy -178848.307238 kJ/mol
# GULP energy per Si atom -5589.009601 kJ/mol
# Density = 2.541356 g / cm^3
# Si number density = 25.471532 Si / 1000 Ang^3
#
#
#
# Elastic Constant Matrix: (Units=GPa)
#
#
# Indices 1 2 3 4 5 6 
#
# 1 108.0248 -1.7040 55.4750 0.0000 2.0935 0.0000
# 2 -1.7040 35.9552 9.3455 0.0000 -8.0967 0.0000
# 3 55.4750 9.3455 136.0047 0.0000 -10.5868 0.0000
# 4 0.0000 0.0000 0.0000 31.6479 0.0000 -4.0020
# 5 2.0935 -8.0967 -10.5868 0.0000 47.4473 0.0000
# 6 0.0000 0.0000 0.0000 -4.0020 0.0000 9.6143
#
#
#
# Elastic Compliance Matrix: (Units=1/GPa)
#
#
# Indices 1 2 3 4 5 6 
#
# 1 0.011916 0.001571 -0.005077 0.000000 -0.001390 0.000000
# 2 0.001571 0.029491 -0.002321 0.000000 0.004445 0.000000
# 3 -0.005077 -0.002321 0.009739 0.000000 0.002001 0.000000
# 4 0.000000 0.000000 0.000000 0.033353 0.000000 0.013884
# 5 -0.001390 0.004445 0.002001 0.000000 0.022342 0.000000
# 6 0.000000 0.000000 0.000000 0.013884 0.000000 0.109791
#
#
# Mechanical properties :
#
#
# Convention : Reuss Voigt Hill
#
# Bulk Modulus (GPa) = 25.32139 45.13530 35.22835
# Shear Modulus (GPa) = 20.70823 32.19977 26.45400
#
# Velocity S-wave (km/s) = 2.85440 3.55934 3.22618
# Velocity P-wave (km/s) = 4.56356 5.88645 5.26671
#
# Compressibility (1/GPa) = 0.03949230
#
# Stress axis : x y z
#
# Youngs Moduli (GPa) = 83.92167 33.90836 102.68398
#
# Poissons Ratio (x) = -0.05327 0.52128
# Poissons Ratio (y) = -0.13185 0.23836
# Poissons Ratio (z) = 0.42603 0.07871
#
# Static dielectric constant tensor:
#      x y z
#    x 2.037890 0.000000 0.000300 
#    y 0.000000 2.127880 0.000000 
#    z 0.000300 0.000000 1.987270 
# 
# From -- ./inp_files/47554.got.cif
#   From: 2010.05.17/outbox.cif.g08.bks.cpg/sg14_24_cif.got.tgz:47554.got - 2010.06.03 17:49:19.
