data_PCOD9243845
_publ_section_title
;
Structure prediction by ZEFSAII (Michael W. Deem and Ramdas Pophale) SiO2 
 PCOD9243845
Probable space group: P 21/C
;
_chemical_formula_sum "Si O2"
_cell_formula_units_Z 24
_cell_length_a 16.944457
_cell_length_b 9.640223
_cell_length_c 11.813945
_cell_angle_alpha 90.000000
_cell_angle_beta 152.990623
_cell_angle_gamma 90.000000
_cell_volume 876.386972
_symmetry_space_group_name_H-M "P 21/C"
_symmetry_group_IT_number 14
_symmetry_cell_setting 'monoclinic'
loop_
_space_group_symop_operation_xyz
x,y,z
-x,1/2+y,1/2-z
-x,-y,-z
x,1/2-y,1/2+z
loop_
_atom_site_type_symbol
_atom_site_label
_atom_site_fract_x
_atom_site_fract_y
_atom_site_fract_z
Si Si1 0.327907 0.962863 0.852170
Si Si2 0.022258 0.070823 0.323964
Si Si3 0.580476 0.297227 0.119326
Si Si4 0.304190 0.734767 0.505884
Si Si5 0.819642 0.539275 0.211861
Si Si6 0.742270 0.599952 0.351456
O O1 0.276710 0.805552 0.748332
O O2 0.361752 0.914442 0.022925
O O3 0.161728 0.049205 0.602232
O O4 0.500000 0.000000 0.000000
O O5 0.886487 0.188137 0.189653
O O6 0.134755 0.099112 0.353566
O O7 0.907887 0.934141 0.140613
O O8 0.559697 0.241202 0.219133
O O9 0.658116 0.447444 0.236056
O O10 0.418081 0.299281 0.825522
O O11 0.279896 0.891951 0.428174
O O12 0.755684 0.634173 0.233866
O O13 0.000000 0.500000 0.500000
#
# Coordination Sequence:
#
# PCOD9243845 Si02
#       6
#     4   4   4   4   4   4
#     4  12  26  43  64 102 143 174 215 277 348 401
#     4  10  23  42  66  99 134 178 225 273 337 407
#     4  10  21  41  67  96 132 174 221 280 331 390
#     4  11  23  43  69  96 139 176 219 287 337 401
#     4  10  20  38  70  96 126 173 234 273 325 401
#     4   9  20  41  71  97 123 176 235 271 325 400
#
# _framework density 27.385162000000001
#
# number of rings (size 3 to 8) (size 9 to 14) (size 15 to 20)
#    0.000    1.667    3.333    0.500    2.333    2.667 
#    3.000    1.667    0.000    0.000    0.000    0.000 
#    0.000    0.000    0.000    0.000    0.000    0.000 
#
# Total GULP energy -133606.091592 kJ/mol
# GULP energy per Si atom -5566.920483 kJ/mol
# Density = 2.732283 g / cm^3
# Si number density = 27.385162 Si / 1000 Ang^3
#
#
#
# Elastic Constant Matrix: (Units=GPa)
#
#
# Indices 1 2 3 4 5 6 
#
# 1 63.8040 11.9049 -29.0527 0.0000 9.0035 0.0000
# 2 11.9049 83.3729 23.4373 0.0000 17.7481 0.0000
# 3 -29.0527 23.4373 91.4842 0.0000 27.7145 0.0000
# 4 0.0000 0.0000 0.0000 27.8842 0.0000 16.3388
# 5 9.0035 17.7481 27.7145 0.0000 22.0704 0.0000
# 6 0.0000 0.0000 0.0000 16.3388 0.0000 32.7021
#
#
#
# Elastic Compliance Matrix: (Units=1/GPa)
#
#
# Indices 1 2 3 4 5 6 
#
# 1 0.032300 -0.002564 0.023050 0.000000 -0.040060 0.000000
# 2 -0.002564 0.014680 -0.002124 0.000000 -0.008092 0.000000
# 3 0.023050 -0.002124 0.034097 0.000000 -0.050513 0.000000
# 4 0.000000 0.000000 0.000000 0.050707 0.000000 -0.025335
# 5 -0.040060 -0.008092 -0.050513 0.000000 0.131590 0.000000
# 6 0.000000 0.000000 0.000000 -0.025335 0.000000 0.043237
#
#
# Mechanical properties :
#
#
# Convention : Reuss Voigt Hill
#
# Bulk Modulus (GPa) = 8.48878 27.91558 18.20218
# Shear Modulus (GPa) = 16.17313 32.02277 24.09795
#
# Velocity S-wave (km/s) = 2.43282 3.42328 2.96964
# Velocity P-wave (km/s) = 3.31632 5.08340 4.29179
#
# Compressibility (1/GPa) = 0.11780253
#
# Stress axis : x y z
#
# Youngs Moduli (GPa) = 30.95965 68.11942 29.32768
#
# Poissons Ratio (x) = 0.17467 -0.67601
# Poissons Ratio (y) = 0.07939 0.06228
# Poissons Ratio (z) = -0.71363 0.14466
#
# Static dielectric constant tensor:
#      x y z
#    x 4.003980 0.000000 -0.117690 
#    y 0.000000 2.300170 0.000000 
#    z -0.117690 0.000000 2.273790 
# 
# From -- ./inp_files/33971.got.cif
#   From: 2010.05.17/outbox.cif.g08.bks.cpg/sg14_17_cif.got.tgz:33971.got - 2010.06.03 17:49:19.
