data_PCOD9243577
_publ_section_title
;
Structure prediction by ZEFSAII (Michael W. Deem and Ramdas Pophale) SiO2 
 PCOD9243577
Probable space group: P 21/C
;
_chemical_formula_sum "Si O2"
_cell_formula_units_Z 26
_cell_length_a 10.773695
_cell_length_b 12.716753
_cell_length_c 8.893198
_cell_angle_alpha 90.000000
_cell_angle_beta 128.534244
_cell_angle_gamma 90.000000
_cell_volume 953.096008
_symmetry_space_group_name_H-M "P 21/C"
_symmetry_group_IT_number 14
_symmetry_cell_setting 'monoclinic'
loop_
_space_group_symop_operation_xyz
x,y,z
-x,1/2+y,1/2-z
-x,-y,-z
x,1/2-y,1/2+z
loop_
_atom_site_type_symbol
_atom_site_label
_atom_site_fract_x
_atom_site_fract_y
_atom_site_fract_z
Si Si1 0.961635 0.715221 0.866156
Si Si2 0.279927 0.466621 0.967564
Si Si3 0.374265 0.841722 0.955046
Si Si4 0.326679 0.236032 0.656038
Si Si5 0.862590 0.153756 0.800316
Si Si6 0.588694 0.545749 0.362194
Si Si7 0.000000 0.000000 0.500000
O O1 0.045451 0.823380 0.975783
O O2 0.782366 0.704524 0.785666
O O3 0.032461 0.626599 0.031987
O O4 0.011911 0.678203 0.739597
O O5 0.285976 0.340184 0.985002
O O6 0.456761 0.504502 0.145477
O O7 0.213586 0.539115 0.782914
O O8 0.157130 0.490691 0.009124
O O9 0.493877 0.789959 0.165259
O O10 0.312944 0.948980 0.991140
O O11 0.271395 0.743435 0.822672
O O12 0.480918 0.894390 0.905652
O O13 0.308072 0.359782 0.622451
#
# Coordination Sequence:
#
# PCOD9243577 Si02
#       7
#     4   4   4   4   4   4   2
#     4  10  23  38  65  89 128 163 209 254 318 364
#     4   9  18  36  61  88 120 159 204 253 308 362
#     4  10  21  36  65  83 119 161 215 252 303 374
#     4  10  21  39  59  89 122 164 202 257 309 379
#     4  11  21  41  62  96 121 165 209 262 307 376
#     4  10  20  38  60  91 117 164 212 253 300 375
#     4   8  16  36  60  84 112 164 210 238 290 380
#
# _framework density 27.279516999999998
#
# number of rings (size 3 to 8) (size 9 to 14) (size 15 to 20)
#    0.000    2.154    1.538    1.846    2.154    1.231 
#    8.308    3.077    0.000    0.000    0.000    0.000 
#    0.000    0.000    0.000    0.000    0.000    0.000 
#
# Total GULP energy -144892.066174 kJ/mol
# GULP energy per Si atom -5572.771776 kJ/mol
# Density = 2.721743 g / cm^3
# Si number density = 27.279517 Si / 1000 Ang^3
#
#
#
# Elastic Constant Matrix: (Units=GPa)
#
#
# Indices 1 2 3 4 5 6 
#
# 1 57.0028 27.2351 5.6366 0.0000 -2.4439 0.0000
# 2 27.2351 155.2635 18.8869 0.0000 3.8648 0.0000
# 3 5.6366 18.8869 33.0339 0.0000 -13.2307 0.0000
# 4 0.0000 0.0000 0.0000 35.9773 0.0000 -1.9648
# 5 -2.4439 3.8648 -13.2307 0.0000 18.3102 0.0000
# 6 0.0000 0.0000 0.0000 -1.9648 0.0000 37.4099
#
#
#
# Elastic Compliance Matrix: (Units=1/GPa)
#
#
# Indices 1 2 3 4 5 6 
#
# 1 0.019346 -0.003479 0.000023 0.000000 0.003334 0.000000
# 2 -0.003479 0.008065 -0.006875 0.000000 -0.007134 0.000000
# 3 0.000023 -0.006875 0.048946 0.000000 0.036822 0.000000
# 4 0.000000 0.000000 0.000000 0.027875 0.000000 0.001464
# 5 0.003334 -0.007134 0.036822 0.000000 0.083172 0.000000
# 6 0.000000 0.000000 0.000000 0.001464 0.000000 0.026808
#
#
# Mechanical properties :
#
#
# Convention : Reuss Voigt Hill
#
# Bulk Modulus (GPa) = 17.95460 38.75745 28.35603
# Shear Modulus (GPa) = 19.72858 31.24226 25.48542
#
# Velocity S-wave (km/s) = 2.69216 3.38785 3.05984
# Velocity P-wave (km/s) = 4.03232 5.43523 4.78546
#
# Compressibility (1/GPa) = 0.05569602
#
# Stress axis : x y z
#
# Youngs Moduli (GPa) = 51.69032 123.99511 20.43047
#
# Poissons Ratio (x) = 0.43142 -0.00048
# Poissons Ratio (y) = 0.17985 0.14045
# Poissons Ratio (z) = -0.00121 0.85243
#
# Static dielectric constant tensor:
#      x y z
#    x 2.102380 0.000000 -0.050660 
#    y 0.000000 2.101670 0.000000 
#    z -0.050660 0.000000 2.164090 
# 
# From -- ./inp_files/29229.got.cif
#   From: 2010.05.17/outbox.cif.g08.bks.cpg/sg14_15_cif.got.tgz:29229.got - 2010.06.03 17:49:19.
