data_PCOD9243022
_publ_section_title
;
Structure prediction by ZEFSAII (Michael W. Deem and Ramdas Pophale) SiO2 
 PCOD9243022
Probable space group: P 21/C
;
_chemical_formula_sum "Si O2"
_cell_formula_units_Z 22
_cell_length_a 11.467404
_cell_length_b 15.717631
_cell_length_c 4.940770
_cell_angle_alpha 90.000000
_cell_angle_beta 94.300498
_cell_angle_gamma 90.000000
_cell_volume 888.019189
_symmetry_space_group_name_H-M "P 21/C"
_symmetry_group_IT_number 14
_symmetry_cell_setting 'monoclinic'
loop_
_space_group_symop_operation_xyz
x,y,z
-x,1/2+y,1/2-z
-x,-y,-z
x,1/2-y,1/2+z
loop_
_atom_site_type_symbol
_atom_site_label
_atom_site_fract_x
_atom_site_fract_y
_atom_site_fract_z
Si Si1 0.747772 0.090774 0.943498
Si Si2 0.182033 0.007599 0.561491
Si Si3 0.000000 0.000000 0.000000
Si Si4 0.028214 0.693962 0.536933
Si Si5 0.723101 0.693036 0.858204
Si Si6 0.553748 0.305539 0.138203
O O1 0.833671 0.171157 0.983760
O O2 0.632960 0.119034 0.765996
O O3 0.823554 0.030232 0.746098
O O4 0.726988 0.043697 0.223934
O O5 0.215972 0.105330 0.557619
O O6 0.070596 0.988753 0.723999
O O7 0.032213 0.104040 0.010812
O O8 0.003337 0.768908 0.325713
O O9 0.748383 0.730041 0.567721
O O10 0.583412 0.675884 0.855619
O O11 0.578321 0.224298 0.337936
#
# Coordination Sequence:
#
# PCOD9243022 Si02
#       6
#     4   4   2   4   4   4
#     4  11  22  38  61  91 122 156 201 254 312 372
#     4  11  24  40  61  86 123 161 201 263 310 359
#     4  10  26  44  62  94 128 162 218 268 310 370
#     4  11  23  40  64  90 121 163 206 255 316 371
#     4  10  22  40  61  88 120 160 205 245 304 379
#     4  10  20  36  60  88 122 158 196 247 301 369
#
# _framework density 24.774241
#
# number of rings (size 3 to 8) (size 9 to 14) (size 15 to 20)
#    0.000    1.455    0.000    5.455    0.000    9.455 
#    0.000    0.000    0.000    0.000    0.000    0.000 
#    0.000    0.000    0.000    0.000    0.000    0.000 
#
# Total GULP energy -122847.464181 kJ/mol
# GULP energy per Si atom -5583.975645 kJ/mol
# Density = 2.471785 g / cm^3
# Si number density = 24.774241 Si / 1000 Ang^3
#
#
#
# Elastic Constant Matrix: (Units=GPa)
#
#
# Indices 1 2 3 4 5 6 
#
# 1 57.8974 21.7425 14.2361 0.0000 9.4971 0.0000
# 2 21.7425 124.8645 25.3304 0.0000 1.1300 0.0000
# 3 14.2361 25.3304 114.1671 0.0000 6.6628 0.0000
# 4 0.0000 0.0000 0.0000 37.8138 0.0000 13.3247
# 5 9.4971 1.1300 6.6628 0.0000 25.8367 0.0000
# 6 0.0000 0.0000 0.0000 13.3247 0.0000 36.2485
#
#
#
# Elastic Compliance Matrix: (Units=1/GPa)
#
#
# Indices 1 2 3 4 5 6 
#
# 1 0.019905 -0.003122 -0.001391 0.000000 -0.006822 0.000000
# 2 -0.003122 0.008876 -0.001649 0.000000 0.001185 0.000000
# 3 -0.001391 -0.001649 0.009406 0.000000 -0.001842 0.000000
# 4 0.000000 0.000000 0.000000 0.030381 0.000000 -0.011168
# 5 -0.006822 0.001185 -0.001842 0.000000 0.041635 0.000000
# 6 0.000000 0.000000 0.000000 -0.011168 0.000000 0.031693
#
#
# Mechanical properties :
#
#
# Convention : Reuss Voigt Hill
#
# Bulk Modulus (GPa) = 38.66620 46.61632 42.64126
# Shear Modulus (GPa) = 30.70459 35.68780 33.19619
#
# Velocity S-wave (km/s) = 3.52430 3.79954 3.66450
# Velocity P-wave (km/s) = 5.67470 6.17300 5.92909
#
# Compressibility (1/GPa) = 0.02586238
#
# Stress axis : x y z
#
# Youngs Moduli (GPa) = 50.23745 112.66121 106.31516
#
# Poissons Ratio (x) = 0.35174 0.14792
# Poissons Ratio (y) = 0.15685 0.17533
# Poissons Ratio (z) = 0.06990 0.18580
#
# Static dielectric constant tensor:
#      x y z
#    x 1.915510 0.000000 0.151110 
#    y 0.000000 1.898970 0.000000 
#    z 0.151110 0.000000 2.038280 
# 
# From -- ./inp_files/2473.got.cif
#   From: 2010.05.17/outbox.cif.g08.bks.cpg/sg14_2_cif.got.tgz:2473.got - 2010.06.03 17:49:19.
