data_PCOD9243669
_publ_section_title
;
Structure prediction by ZEFSAII (Michael W. Deem and Ramdas Pophale) SiO2 
 PCOD9243669
Probable space group: P 21/C
;
_chemical_formula_sum "Si O2"
_cell_formula_units_Z 22
_cell_length_a 16.207415
_cell_length_b 8.179838
_cell_length_c 9.461253
_cell_angle_alpha 90.000000
_cell_angle_beta 137.154833
_cell_angle_gamma 90.000000
_cell_volume 852.959634
_symmetry_space_group_name_H-M "P 21/C"
_symmetry_group_IT_number 14
_symmetry_cell_setting 'monoclinic'
loop_
_space_group_symop_operation_xyz
x,y,z
-x,1/2+y,1/2-z
-x,-y,-z
x,1/2-y,1/2+z
loop_
_atom_site_type_symbol
_atom_site_label
_atom_site_fract_x
_atom_site_fract_y
_atom_site_fract_z
Si Si1 0.595817 0.093139 0.309856
Si Si2 0.985805 0.552766 0.773526
Si Si3 0.907642 0.736655 0.937460
Si Si4 0.500000 0.500000 0.000000
Si Si5 0.278956 0.591096 0.529322
Si Si6 0.352062 0.134429 0.872009
O O1 0.556239 0.059993 0.417642
O O2 0.707254 0.215675 0.445089
O O3 0.625053 0.931112 0.256777
O O4 0.484848 0.194784 0.090611
O O5 0.971197 0.698139 0.869567
O O6 0.981009 0.626489 0.612822
O O7 0.858501 0.459603 0.629519
O O8 0.084488 0.428300 0.955750
O O9 0.761960 0.751635 0.742221
O O10 0.363772 0.509327 0.752858
O O11 0.327526 0.523444 0.439946
#
# Coordination Sequence:
#
# PCOD9243669 Si02
#       6
#     4   4   4   2   4   4
#     4  10  20  38  62  92 129 170 210 267 324 399
#     4  10  24  43  68  95 132 171 225 272 335 382
#     4  10  23  45  64  95 130 173 219 281 321 399
#     4  10  22  36  58  96 120 162 212 252 320 390
#     4  10  21  38  61  94 126 169 212 265 320 392
#     4   9  21  39  60  90 132 169 209 270 330 376
#
# _framework density 25.792543999999999
#
# number of rings (size 3 to 8) (size 9 to 14) (size 15 to 20)
#    0.000    2.182    0.000    1.091    5.091    2.182 
#   16.364    0.000    0.000    0.000    0.000    0.000 
#    0.000    0.000    0.000    0.000    0.000    0.000 
#
# Total GULP energy -122781.250722 kJ/mol
# GULP energy per Si atom -5580.965942 kJ/mol
# Density = 2.573384 g / cm^3
# Si number density = 25.792544 Si / 1000 Ang^3
#
#
#
# Elastic Constant Matrix: (Units=GPa)
#
#
# Indices 1 2 3 4 5 6 
#
# 1 45.3462 -0.8797 30.5611 0.0000 -14.3562 0.0000
# 2 -0.8797 23.9482 -1.7375 0.0000 -10.1739 0.0000
# 3 30.5611 -1.7375 110.7832 0.0000 -25.1118 0.0000
# 4 0.0000 0.0000 0.0000 36.5575 0.0000 8.4976
# 5 -14.3562 -10.1739 -25.1118 0.0000 45.9235 0.0000
# 6 0.0000 0.0000 0.0000 8.4976 0.0000 25.1522
#
#
#
# Elastic Compliance Matrix: (Units=1/GPa)
#
#
# Indices 1 2 3 4 5 6 
#
# 1 0.028343 0.003152 -0.006395 0.000000 0.006062 0.000000
# 2 0.003152 0.047643 0.002846 0.000000 0.013097 0.000000
# 3 -0.006395 0.002846 0.012014 0.000000 0.005201 0.000000
# 4 0.000000 0.000000 0.000000 0.029685 0.000000 -0.010029
# 5 0.006062 0.013097 0.005201 0.000000 0.029416 0.000000
# 6 0.000000 0.000000 0.000000 -0.010029 0.000000 0.043146
#
#
# Mechanical properties :
#
#
# Convention : Reuss Voigt Hill
#
# Bulk Modulus (GPa) = 11.46700 26.21836 18.84268
# Shear Modulus (GPa) = 22.71592 31.66891 27.19242
#
# Velocity S-wave (km/s) = 2.97091 3.50784 3.25048
# Velocity P-wave (km/s) = 4.02789 5.15692 4.62697
#
# Compressibility (1/GPa) = 0.08720677
#
# Stress axis : x y z
#
# Youngs Moduli (GPa) = 35.28225 20.98947 83.23299
#
# Poissons Ratio (x) = -0.06616 0.53230
# Poissons Ratio (y) = -0.11122 -0.23691
# Poissons Ratio (z) = 0.22564 -0.05974
#
# Static dielectric constant tensor:
#      x y z
#    x 3.520620 0.000000 -0.604030 
#    y 0.000000 2.607140 0.000000 
#    z -0.604030 0.000000 2.238520 
# 
# From -- ./inp_files/17631.got.cif
#   From: 2010.05.17/outbox.cif.g08.bks.cpg/sg14_9_cif.got.tgz:17631.got - 2010.06.03 17:49:19.
