data_PCOD9243793
_publ_section_title
;
Structure prediction by ZEFSAII (Michael W. Deem and Ramdas Pophale) SiO2 
 PCOD9243793
Probable space group: P 21/C
;
_chemical_formula_sum "Si O2"
_cell_formula_units_Z 30
_cell_length_a 17.253730
_cell_length_b 12.795770
_cell_length_c 10.190050
_cell_angle_alpha 90.000000
_cell_angle_beta 140.903989
_cell_angle_gamma 90.000000
_cell_volume 1418.713500
_symmetry_space_group_name_H-M "P 21/C"
_symmetry_group_IT_number 14
_symmetry_cell_setting 'monoclinic'
loop_
_space_group_symop_operation_xyz
x,y,z
-x,1/2+y,1/2-z
-x,-y,-z
x,1/2-y,1/2+z
loop_
_atom_site_type_symbol
_atom_site_label
_atom_site_fract_x
_atom_site_fract_y
_atom_site_fract_z
Si Si1 0.323170 0.866194 0.592918
Si Si2 0.668612 0.723034 0.342358
Si Si3 0.454545 0.009688 0.225021
Si Si4 0.532166 0.801388 0.405948
Si Si5 0.000000 0.500000 0.000000
Si Si6 0.766649 0.054272 0.247839
Si Si7 0.044058 0.305734 0.248188
Si Si8 0.895953 0.256831 0.316151
O O1 0.415843 0.953695 0.663870
O O2 0.412218 0.769637 0.740204
O O3 0.258546 0.897906 0.643596
O O4 0.224771 0.827759 0.356451
O O5 0.613767 0.609199 0.305459
O O6 0.602468 0.798085 0.359721
O O7 0.813425 0.720362 0.549253
O O8 0.621704 0.743563 0.134155
O O9 0.483131 0.917430 0.362978
O O10 0.361056 0.967745 0.990602
O O11 0.864745 0.538574 0.881791
O O12 0.975614 0.576649 0.834390
O O13 0.850142 0.134213 0.265814
O O14 0.976613 0.282875 0.296274
O O15 0.976365 0.232647 0.051693
#
# Coordination Sequence:
#
# PCOD9243793 Si02
#       8
#     4   4   4   4   2   4   4   4
#     4  11  23  40  68  98 134 170 220 263 336 392
#     4  11  24  43  67  93 135 169 220 271 329 393
#     4  11  23  39  65 101 132 171 218 274 330 391
#     4  11  24  43  64  99 132 173 210 274 328 393
#     4  10  20  38  66  86 126 170 220 266 316 382
#     4  11  21  42  64  96 130 177 218 270 321 397
#     4  11  23  43  66  95 123 178 220 271 327 384
#     4  11  22  40  68  93 128 167 221 265 321 390
#
# _framework density 21.145917000000001
#
# number of rings (size 3 to 8) (size 9 to 14) (size 15 to 20)
#    0.000    1.067    5.333    2.400    1.867    1.067 
#    7.200    0.000    0.000    4.800    0.000    0.000 
#    0.000    0.000    0.000    0.000    0.000    0.000 
#
# Total GULP energy -167065.852739 kJ/mol
# GULP energy per Si atom -5568.861758 kJ/mol
# Density = 2.109779 g / cm^3
# Si number density = 21.145917 Si / 1000 Ang^3
#
#
#
# Elastic Constant Matrix: (Units=GPa)
#
#
# Indices 1 2 3 4 5 6 
#
# 1 79.3165 11.7896 32.6147 0.0000 12.8123 0.0000
# 2 11.7896 24.1194 2.6989 0.0000 7.7302 0.0000
# 3 32.6147 2.6989 137.6865 0.0000 27.0081 0.0000
# 4 0.0000 0.0000 0.0000 -105.8614 0.0000 -103.8073
# 5 12.8123 7.7302 27.0081 0.0000 25.5005 0.0000
# 6 0.0000 0.0000 0.0000 -103.8073 0.0000 -96.7003
#
#
#
# Elastic Compliance Matrix: (Units=1/GPa)
#
#
# Indices 1 2 3 4 5 6 
#
# 1 0.015175 -0.006256 -0.002964 0.000000 -0.002588 0.000000
# 2 -0.006256 0.049091 0.003562 0.000000 -0.015511 0.000000
# 3 -0.002964 0.003562 0.009864 0.000000 -0.010038 0.000000
# 4 0.000000 0.000000 0.000000 0.179363 0.000000 -0.192546
# 5 -0.002588 -0.015511 -0.010038 0.000000 0.055849 0.000000
# 6 0.000000 0.000000 0.000000 -0.192546 0.000000 0.196356
#
#
# Mechanical properties :
#
#
# Convention : Reuss Voigt Hill
#
# Bulk Modulus (GPa) = 15.92006 37.25874 26.58940
# Shear Modulus (GPa) = 9.29451 -22.47763 -6.59156
#
# Velocity S-wave (km/s) = 2.09880 -3.26387 -1.76747
# Velocity P-wave (km/s) = 3.66310 1.85857 2.90453
#
# Compressibility (1/GPa) = 0.06281383
#
# Stress axis : x y z
#
# Youngs Moduli (GPa) = 65.89966 20.37033 101.37666
#
# Poissons Ratio (x) = 0.12744 0.30050
# Poissons Ratio (y) = 0.41227 -0.36113
# Poissons Ratio (z) = 0.19534 -0.07256
#
# Static dielectric constant tensor:
#      x y z
#    x 1.706670 0.000000 -0.072120 
#    y 0.000000 1.718010 0.000000 
#    z -0.072120 0.000000 1.649220 
# 
# From -- ./inp_files/18021.got.cif
#   From: 2010.05.17/outbox.cif.g08.bks.cpg/sg14_10_cif.got.tgz:18021.got - 2010.06.03 17:49:19.
