data_PCOD9243475
_publ_section_title
;
Structure prediction by ZEFSAII (Michael W. Deem and Ramdas Pophale) SiO2 
 PCOD9243475
Probable space group: P 21/C
;
_chemical_formula_sum "Si O2"
_cell_formula_units_Z 20
_cell_length_a 6.516532
_cell_length_b 5.720883
_cell_length_c 24.033076
_cell_angle_alpha 90.000000
_cell_angle_beta 67.238310
_cell_angle_gamma 90.000000
_cell_volume 826.185115
_symmetry_space_group_name_H-M "P 21/C"
_symmetry_group_IT_number 14
_symmetry_cell_setting 'monoclinic'
loop_
_space_group_symop_operation_xyz
x,y,z
-x,1/2+y,1/2-z
-x,-y,-z
x,1/2-y,1/2+z
loop_
_atom_site_type_symbol
_atom_site_label
_atom_site_fract_x
_atom_site_fract_y
_atom_site_fract_z
Si Si1 0.050905 0.231109 0.390241
Si Si2 0.321648 0.247463 0.462650
Si Si3 0.340657 0.358043 0.081865
Si Si4 0.506386 0.285641 0.780053
Si Si5 0.726914 0.037854 0.851099
O O1 0.100509 0.277437 0.449715
O O2 0.287424 0.162189 0.339931
O O3 0.952700 0.434167 0.361796
O O4 0.858963 0.041002 0.403608
O O5 0.310105 0.295955 0.529053
O O6 0.513361 0.391280 0.411220
O O7 0.420848 0.983567 0.447994
O O8 0.313736 0.238455 0.144903
O O9 0.545523 0.533728 0.745131
O O10 0.707079 0.198213 0.799350
#
# Coordination Sequence:
#
# PCOD9243475 Si02
#       5
#     4   4   4   4   4
#     4  10  23  39  64  96 128 172 221 275 326 403
#     4   9  20  38  59 100 138 177 207 260 333 398
#     4  10  20  37  67  95 141 170 216 262 329 405
#     4  11  28  47  71  93 129 174 228 289 347 389
#     4  10  23  39  65  95 128 172 220 275 327 404
#
# _framework density 24.207650000000001
#
# number of rings (size 3 to 8) (size 9 to 14) (size 15 to 20)
#    0.000    2.000    0.000    1.200   11.200    4.000 
#    0.000    0.000    0.000    0.000    0.000    0.000 
#    0.000    0.000    0.000    0.000    0.000    0.000 
#
# Total GULP energy -111436.370334 kJ/mol
# GULP energy per Si atom -5571.818517 kJ/mol
# Density = 2.415255 g / cm^3
# Si number density = 24.207650 Si / 1000 Ang^3
#
#
#
# Elastic Constant Matrix: (Units=GPa)
#
#
# Indices 1 2 3 4 5 6 
#
# 1 99.8501 18.6555 17.7557 0.0000 24.8330 0.0000
# 2 18.6555 61.2556 34.1445 0.0000 25.7473 0.0000
# 3 17.7557 34.1445 60.0455 0.0000 19.8685 0.0000
# 4 0.0000 0.0000 0.0000 49.6846 0.0000 4.0117
# 5 24.8330 25.7473 19.8685 0.0000 40.9508 0.0000
# 6 0.0000 0.0000 0.0000 4.0117 0.0000 20.8271
#
#
#
# Elastic Compliance Matrix: (Units=1/GPa)
#
#
# Indices 1 2 3 4 5 6 
#
# 1 0.011886 -0.000196 -0.001261 0.000000 -0.006472 0.000000
# 2 -0.000196 0.027963 -0.011989 0.000000 -0.011645 0.000000
# 3 -0.001261 -0.011989 0.025132 0.000000 -0.003890 0.000000
# 4 0.000000 0.000000 0.000000 0.020445 0.000000 -0.003938
# 5 -0.006472 -0.011645 -0.003890 0.000000 0.037553 0.000000
# 6 0.000000 0.000000 0.000000 -0.003938 0.000000 0.048773
#
#
# Mechanical properties :
#
#
# Convention : Reuss Voigt Hill
#
# Bulk Modulus (GPa) = 26.25643 40.25140 33.25391
# Shear Modulus (GPa) = 23.65843 32.33221 27.99532
#
# Velocity S-wave (km/s) = 3.12959 3.65858 3.40437
# Velocity P-wave (km/s) = 4.89173 5.87457 5.40553
#
# Compressibility (1/GPa) = 0.03808591
#
# Stress axis : x y z
#
# Youngs Moduli (GPa) = 84.13519 35.76212 39.78986
#
# Poissons Ratio (x) = 0.00702 0.05019
# Poissons Ratio (y) = 0.01651 0.47706
# Poissons Ratio (z) = 0.10613 0.42877
#
# Static dielectric constant tensor:
#      x y z
#    x 1.902790 0.000000 0.067990 
#    y 0.000000 2.113920 0.000000 
#    z 0.067990 0.000000 1.973590 
# 
# From -- ./inp_files/75432.got.cif
#   From: 2010.05.17/outbox.cif.g08.bks.cpg/sg14_38_cif.got.tgz:75432.got - 2010.06.03 17:49:19.
