data_PCOD9243181
_publ_section_title
;
Structure prediction by ZEFSAII (Michael W. Deem and Ramdas Pophale) SiO2 
 PCOD9243181
Probable space group: P 21/C
;
_chemical_formula_sum "Si O2"
_cell_formula_units_Z 20
_cell_length_a 19.523683
_cell_length_b 10.262534
_cell_length_c 15.265998
_cell_angle_alpha 90.000000
_cell_angle_beta 14.998518
_cell_angle_gamma 90.000000
_cell_volume 791.581913
_symmetry_space_group_name_H-M "P 21/C"
_symmetry_group_IT_number 14
_symmetry_cell_setting 'monoclinic'
loop_
_space_group_symop_operation_xyz
x,y,z
-x,1/2+y,1/2-z
-x,-y,-z
x,1/2-y,1/2+z
loop_
_atom_site_type_symbol
_atom_site_label
_atom_site_fract_x
_atom_site_fract_y
_atom_site_fract_z
Si Si1 0.976894 0.871400 0.819901
Si Si2 0.816008 0.339854 0.301059
Si Si3 0.187423 0.131977 0.174894
Si Si4 0.376745 0.616354 0.071069
Si Si5 0.200832 0.408610 0.144795
O O1 0.679658 0.900973 0.224999
O O2 0.964675 0.857655 0.730700
O O3 0.072542 0.745599 0.756224
O O4 0.166181 0.993513 0.606601
O O5 0.711277 0.482475 0.456067
O O6 0.617496 0.251782 0.489671
O O7 0.049316 0.362591 0.940803
O O8 0.344834 0.269340 0.977137
O O9 0.300565 0.499760 0.099870
O O10 0.110736 0.629892 0.455852
#
# Coordination Sequence:
#
# PCOD9243181 Si02
#       5
#     4   4   4   4   4
#     4  11  20  35  60  82 104 146 189 220 265 325
#     4   9  21  40  54  78 117 144 173 227 277 319
#     4  10  20  37  57  79 113 146 177 224 276 320
#     4   9  19  36  57  80 107 141 183 224 267 321
#     4   9  19  36  54  77 111 143 176 225 271 316
#
# _framework density 25.265863
#
# number of rings (size 3 to 8) (size 9 to 14) (size 15 to 20)
#    0.000    2.400    0.000    3.000    0.000    1.600 
#    0.000   19.000    0.000    0.000    0.000    0.000 
#    0.000    0.000    0.000    0.000    0.000    0.000 
#
# Total GULP energy -111489.921417 kJ/mol
# GULP energy per Si atom -5574.496071 kJ/mol
# Density = 2.520836 g / cm^3
# Si number density = 25.265863 Si / 1000 Ang^3
#
#
#
# Elastic Constant Matrix: (Units=GPa)
#
#
# Indices 1 2 3 4 5 6 
#
# 1 107.6568 38.2261 14.1706 0.0000 2.1703 0.0000
# 2 38.2261 235.2994 -1.0829 0.0000 -18.1857 0.0000
# 3 14.1706 -1.0829 119.2606 0.0000 -10.4517 0.0000
# 4 0.0000 0.0000 0.0000 10.1843 0.0000 -2.8064
# 5 2.1703 -18.1857 -10.4517 0.0000 41.0256 0.0000
# 6 0.0000 0.0000 0.0000 -2.8064 0.0000 27.3585
#
#
#
# Elastic Compliance Matrix: (Units=1/GPa)
#
#
# Indices 1 2 3 4 5 6 
#
# 1 0.010135 -0.001782 -0.001367 0.000000 -0.001675 0.000000
# 2 -0.001782 0.004720 0.000456 0.000000 0.002303 0.000000
# 3 -0.001367 0.000456 0.008772 0.000000 0.002509 0.000000
# 4 0.000000 0.000000 0.000000 0.101047 0.000000 0.010365
# 5 -0.001675 0.002303 0.002509 0.000000 0.026124 0.000000
# 6 0.000000 0.000000 0.000000 0.010365 0.000000 0.037615
#
#
# Mechanical properties :
#
#
# Convention : Reuss Voigt Hill
#
# Bulk Modulus (GPa) = 54.82392 62.76048 58.79220
# Shear Modulus (GPa) = 25.01526 43.10720 34.06123
#
# Velocity S-wave (km/s) = 3.14997 4.13503 3.67565
# Velocity P-wave (km/s) = 5.91402 6.90593 6.42914
#
# Compressibility (1/GPa) = 0.01824021
#
# Stress axis : x y z
#
# Youngs Moduli (GPa) = 98.66465 211.88636 114.00549
#
# Poissons Ratio (x) = 0.37764 0.15587
# Poissons Ratio (y) = 0.17585 -0.05203
# Poissons Ratio (z) = 0.13490 -0.09671
#
# Static dielectric constant tensor:
#      x y z
#    x 1.933870 0.000000 0.071810 
#    y 0.000000 2.058690 0.000000 
#    z 0.071810 0.000000 2.092130 
# 
# From -- ./inp_files/48711.got.cif
#   From: 2010.05.17/outbox.cif.g08.bks.cpg/sg14_25_cif.got.tgz:48711.got - 2010.06.03 17:49:19.
