data_PCOD9243052
_publ_section_title
;
Structure prediction by ZEFSAII (Michael W. Deem and Ramdas Pophale) SiO2 
 PCOD9243052
Probable space group: P 21/C
;
_chemical_formula_sum "Si O2"
_cell_formula_units_Z 32
_cell_length_a 10.835397
_cell_length_b 10.491511
_cell_length_c 13.081048
_cell_angle_alpha 90.000000
_cell_angle_beta 99.042752
_cell_angle_gamma 90.000000
_cell_volume 1468.567408
_symmetry_space_group_name_H-M "P 21/C"
_symmetry_group_IT_number 14
_symmetry_cell_setting 'monoclinic'
loop_
_space_group_symop_operation_xyz
x,y,z
-x,1/2+y,1/2-z
-x,-y,-z
x,1/2-y,1/2+z
loop_
_atom_site_type_symbol
_atom_site_label
_atom_site_fract_x
_atom_site_fract_y
_atom_site_fract_z
Si Si1 0.972475 0.212333 0.811811
Si Si2 0.137275 0.969211 0.059242
Si Si3 0.172475 0.742835 0.392314
Si Si4 0.753910 0.650445 0.568792
Si Si5 0.127237 0.932099 0.550307
Si Si6 0.611696 0.090340 0.144340
Si Si7 0.472952 0.203529 0.507048
Si Si8 0.401133 0.522732 0.136056
O O1 0.885103 0.090748 0.832405
O O2 0.951677 0.252954 0.692379
O O3 0.922603 0.324302 0.878405
O O4 0.114417 0.178716 0.859354
O O5 0.179483 0.859054 0.985389
O O6 0.217278 0.093158 0.041125
O O7 0.000000 0.000000 0.000000
O O8 0.181028 0.874812 0.451554
O O9 0.281222 0.699082 0.330652
O O10 0.679279 0.538201 0.616318
O O11 0.666280 0.772651 0.552306
O O12 0.249825 0.995383 0.616667
O O13 0.000000 0.000000 0.500000
O O14 0.521515 0.159244 0.051884
O O15 0.553510 0.057899 0.245295
O O16 0.559322 0.139497 0.432640
O O17 0.463719 0.103500 0.598373
#
# Coordination Sequence:
#
# PCOD9243052 Si02
#       8
#     4   4   4   4   4   4   4   4
#     4  10  20  38  60  93 131 157 208 262 313 386
#     4   8  18  36  56  87 120 159 200 252 308 364
#     4  10  20  36  61  90 124 166 202 254 321 376
#     4  10  22  41  66  95 125 170 215 264 315 384
#     4  11  22  37  63  92 128 171 203 258 327 380
#     4  11  23  43  68  92 129 173 219 266 323 386
#     4  11  25  47  64  92 132 168 219 272 316 385
#     4  11  25  44  66  94 132 168 215 268 323 382
#
# _framework density 21.789942
#
# number of rings (size 3 to 8) (size 9 to 14) (size 15 to 20)
#    0.000    1.750    2.500    1.125    3.500    1.000 
#    2.250    0.000    0.000    0.000    0.000    0.000 
#    0.000    0.000    0.000    0.000    0.000    0.000 
#
# Total GULP energy -178409.336307 kJ/mol
# GULP energy per Si atom -5575.291760 kJ/mol
# Density = 2.174035 g / cm^3
# Si number density = 21.789942 Si / 1000 Ang^3
#
#
#
# Elastic Constant Matrix: (Units=GPa)
#
#
# Indices 1 2 3 4 5 6 
#
# 1 78.6994 11.4105 11.0056 0.0000 1.7447 0.0000
# 2 11.4105 26.4692 2.6970 0.0000 -4.2738 0.0000
# 3 11.0056 2.6970 49.5499 0.0000 -2.3191 0.0000
# 4 0.0000 0.0000 0.0000 13.9021 0.0000 5.6562
# 5 1.7447 -4.2738 -2.3191 0.0000 28.9108 0.0000
# 6 0.0000 0.0000 0.0000 5.6562 0.0000 38.9488
#
#
#
# Elastic Compliance Matrix: (Units=1/GPa)
#
#
# Indices 1 2 3 4 5 6 
#
# 1 0.014034 -0.006076 -0.002879 0.000000 -0.001976 0.000000
# 2 -0.006076 0.041503 -0.000608 0.000000 0.006453 0.000000
# 3 -0.002879 -0.000608 0.020937 0.000000 0.001763 0.000000
# 4 0.000000 0.000000 0.000000 0.076448 0.000000 -0.011102
# 5 -0.001976 0.006453 0.001763 0.000000 0.035804 0.000000
# 6 0.000000 0.000000 0.000000 -0.011102 0.000000 0.027287
#
#
# Mechanical properties :
#
#
# Convention : Reuss Voigt Hill
#
# Bulk Modulus (GPa) = 17.43694 22.77162 20.10428
# Shear Modulus (GPa) = 19.66548 24.99271 22.32909
#
# Velocity S-wave (km/s) = 3.00743 3.39039 3.20463
# Velocity P-wave (km/s) = 4.48098 5.07932 4.78950
#
# Compressibility (1/GPa) = 0.05734950
#
# Stress axis : x y z
#
# Youngs Moduli (GPa) = 71.25626 24.09481 47.76298
#
# Poissons Ratio (x) = 0.14639 0.13750
# Poissons Ratio (y) = 0.43292 0.02902
# Poissons Ratio (z) = 0.20514 0.01464
#
# Static dielectric constant tensor:
#      x y z
#    x 1.860740 0.000000 -0.004490 
#    y 0.000000 1.819310 0.000000 
#    z -0.004490 0.000000 1.812640 
# 
# From -- ./inp_files/29133.got.cif
#   From: 2010.05.17/outbox.cif.g08.bks.cpg/sg14_15_cif.got.tgz:29133.got - 2010.06.03 17:49:19.
