data_PCOD9243631
_publ_section_title
;
Structure prediction by ZEFSAII (Michael W. Deem and Ramdas Pophale) SiO2 
 PCOD9243631
Probable space group: P 21/C
;
_chemical_formula_sum "Si O2"
_cell_formula_units_Z 24
_cell_length_a 13.306237
_cell_length_b 5.670832
_cell_length_c 23.636933
_cell_angle_alpha 90.000000
_cell_angle_beta 145.845663
_cell_angle_gamma 90.000000
_cell_volume 1001.345997
_symmetry_space_group_name_H-M "P 21/C"
_symmetry_group_IT_number 14
_symmetry_cell_setting 'monoclinic'
loop_
_space_group_symop_operation_xyz
x,y,z
-x,1/2+y,1/2-z
-x,-y,-z
x,1/2-y,1/2+z
loop_
_atom_site_type_symbol
_atom_site_label
_atom_site_fract_x
_atom_site_fract_y
_atom_site_fract_z
Si Si1 0.510100 0.492410 0.289806
Si Si2 0.231106 0.922911 0.842542
Si Si3 0.409811 0.313486 0.999217
Si Si4 0.133950 0.455434 0.137049
Si Si5 0.097460 0.590920 0.881498
Si Si6 0.883682 0.824227 0.982650
O O1 0.528123 0.238991 0.264251
O O2 0.339099 0.460430 0.250653
O O3 0.695955 0.550972 0.408346
O O4 0.165081 0.758590 0.863173
O O5 0.283863 0.161125 0.899492
O O6 0.416679 0.832524 0.901303
O O7 0.068488 0.951236 0.723918
O O8 0.275258 0.441003 0.979794
O O9 0.500000 0.500000 0.000000
O O10 0.159278 0.381445 0.083556
O O11 0.001833 0.287977 0.111576
O O12 0.022403 0.697900 0.088977
O O13 0.000000 0.000000 0.000000
#
# Coordination Sequence:
#
# PCOD9243631 Si02
#       6
#     4   4   4   4   4   4
#     4  10  20  39  65  91 126 169 212 266 326 384
#     4  10  20  38  62  84 126 166 201 257 308 367
#     4   9  20  38  61  84 119 165 205 253 312 366
#     4  10  23  37  61  96 121 161 214 257 316 386
#     4  11  21  38  61  94 122 165 210 252 315 374
#     4  10  20  41  63  83 124 164 202 266 322 376
#
# _framework density 23.967739999999999
#
# number of rings (size 3 to 8) (size 9 to 14) (size 15 to 20)
#    0.000    2.000    3.333    0.000    0.000    2.667 
#    0.000    3.333    0.000    0.000    0.000    0.000 
#    0.000    0.000    0.000    0.000    0.000    0.000 
#
# Total GULP energy -133694.425661 kJ/mol
# GULP energy per Si atom -5570.601069 kJ/mol
# Density = 2.391319 g / cm^3
# Si number density = 23.967740 Si / 1000 Ang^3
#
#
#
# Elastic Constant Matrix: (Units=GPa)
#
#
# Indices 1 2 3 4 5 6 
#
# 1 112.0751 10.8909 37.5857 0.0000 44.8397 0.0000
# 2 10.8909 71.9924 25.5348 0.0000 7.4453 0.0000
# 3 37.5857 25.5348 100.2843 0.0000 39.0208 0.0000
# 4 0.0000 0.0000 0.0000 -56.2271 0.0000 36.2203
# 5 44.8397 7.4453 39.0208 0.0000 56.9156 0.0000
# 6 0.0000 0.0000 0.0000 36.2203 0.0000 15.8923
#
#
#
# Elastic Compliance Matrix: (Units=1/GPa)
#
#
# Indices 1 2 3 4 5 6 
#
# 1 0.013164 -0.000629 -0.001050 0.000000 -0.009569 0.000000
# 2 -0.000629 0.015334 -0.004202 0.000000 0.001371 0.000000
# 3 -0.001050 -0.004202 0.014865 0.000000 -0.008814 0.000000
# 4 0.000000 0.000000 0.000000 -0.007206 0.000000 0.016423
# 5 -0.009569 0.001371 -0.008814 0.000000 0.030972 0.000000
# 6 0.000000 0.000000 0.000000 0.016423 0.000000 0.025494
#
#
# Mechanical properties :
#
#
# Convention : Reuss Voigt Hill
#
# Bulk Modulus (GPa) = 31.64560 48.04163 39.84362
# Shear Modulus (GPa) = 43.50845 17.33885 30.42365
#
# Velocity S-wave (km/s) = 4.26525 2.69257 3.56667
# Velocity P-wave (km/s) = 6.12279 5.45476 5.79840
#
# Compressibility (1/GPa) = 0.03159997
#
# Stress axis : x y z
#
# Youngs Moduli (GPa) = 75.96276 65.21383 67.27312
#
# Poissons Ratio (x) = 0.04104 0.07066
# Poissons Ratio (y) = 0.04780 0.28268
# Poissons Ratio (z) = 0.07979 0.27402
#
# Static dielectric constant tensor:
#      x y z
#    x 2.009710 0.000000 -0.026650 
#    y 0.000000 2.000640 0.000000 
#    z -0.026650 0.000000 1.962890 
# 
# From -- ./inp_files/45838.got.cif
#   From: 2010.05.17/outbox.cif.g08.bks.cpg/sg14_23_cif.got.tgz:45838.got - 2010.06.03 17:49:19.
