data_PCOD9243152
_publ_section_title
;
Structure prediction by ZEFSAII (Michael W. Deem and Ramdas Pophale) SiO2 
 PCOD9243152
Probable space group: P 21/C
;
_chemical_formula_sum "Si O2"
_cell_formula_units_Z 22
_cell_length_a 4.822545
_cell_length_b 20.646053
_cell_length_c 7.199928
_cell_angle_alpha 90.000000
_cell_angle_beta 110.744643
_cell_angle_gamma 90.000000
_cell_volume 670.395779
_symmetry_space_group_name_H-M "P 21/C"
_symmetry_group_IT_number 14
_symmetry_cell_setting 'monoclinic'
loop_
_space_group_symop_operation_xyz
x,y,z
-x,1/2+y,1/2-z
-x,-y,-z
x,1/2-y,1/2+z
loop_
_atom_site_type_symbol
_atom_site_label
_atom_site_fract_x
_atom_site_fract_y
_atom_site_fract_z
Si Si1 0.000000 0.000000 0.000000
Si Si2 0.629919 0.438899 0.755415
Si Si3 0.794974 0.884217 0.071066
Si Si4 0.544637 0.424300 0.155889
Si Si5 0.520533 0.815878 0.661368
Si Si6 0.924087 0.741771 0.999512
O O1 0.316214 0.042769 0.061872
O O2 0.100930 0.951433 0.825296
O O3 0.629410 0.507907 0.871846
O O4 0.587177 0.397584 0.955703
O O5 0.640296 0.885962 0.234683
O O6 0.501296 0.862292 0.848637
O O7 0.120490 0.932713 0.177819
O O8 0.963144 0.816154 0.077183
O O9 0.232692 0.783539 0.500091
O O10 0.644423 0.750751 0.801930
O O11 0.828931 0.816428 0.615322
#
# Coordination Sequence:
#
# PCOD9243152 Si02
#       6
#     2   4   4   4   4   4
#     4  10  20  36  66  98 132 180 230 294 348 442
#     4   9  21  44  68 100 143 179 243 299 368 440
#     4  10  23  43  68  97 140 186 242 299 370 441
#     4  10  21  43  67 102 139 187 237 299 378 435
#     4  11  25  48  71 109 144 193 247 306 370 448
#     4  11  26  45  74 103 145 193 246 304 374 442
#
# _framework density 32.816437000000001
#
# number of rings (size 3 to 8) (size 9 to 14) (size 15 to 20)
#    0.000    1.818    0.000    3.273    5.091    1.455 
#   19.636    7.273    0.000    0.000    0.000    0.000 
#    0.000    0.000    0.000    0.000    0.000    0.000 
#
# Total GULP energy -122912.505162 kJ/mol
# GULP energy per Si atom -5586.932053 kJ/mol
# Density = 3.274175 g / cm^3
# Si number density = 32.816437 Si / 1000 Ang^3
#
#
#
# Elastic Constant Matrix: (Units=GPa)
#
#
# Indices 1 2 3 4 5 6 
#
# 1 217.4875 66.6886 91.0588 0.0000 -15.8018 0.0000
# 2 66.6886 309.1881 80.6872 0.0000 1.1496 0.0000
# 3 91.0588 80.6872 225.3038 0.0000 -32.0151 0.0000
# 4 0.0000 0.0000 0.0000 65.6611 0.0000 -7.4065
# 5 -15.8018 1.1496 -32.0151 0.0000 63.8298 0.0000
# 6 0.0000 0.0000 0.0000 -7.4065 0.0000 71.0546
#
#
#
# Elastic Compliance Matrix: (Units=1/GPa)
#
#
# Indices 1 2 3 4 5 6 
#
# 1 0.005675 -0.000709 -0.001979 0.000000 0.000425 0.000000
# 2 -0.000709 0.003691 -0.001152 0.000000 -0.000820 0.000000
# 3 -0.001979 -0.001152 0.006013 0.000000 0.002547 0.000000
# 4 0.000000 0.000000 0.000000 0.015411 0.000000 0.001606
# 5 0.000425 -0.000820 0.002547 0.000000 0.017064 0.000000
# 6 0.000000 0.000000 0.000000 0.001606 0.000000 0.014241
#
#
# Mechanical properties :
#
#
# Convention : Reuss Voigt Hill
#
# Bulk Modulus (GPa) = 129.89674 136.53874 133.21774
# Shear Modulus (GPa) = 69.11752 74.34542 71.73147
#
# Velocity S-wave (km/s) = 4.59430 4.76488 4.68037
# Velocity P-wave (km/s) = 8.23482 8.48347 8.36007
#
# Compressibility (1/GPa) = 0.00769842
#
# Stress axis : x y z
#
# Youngs Moduli (GPa) = 176.21274 270.94320 166.31502
#
# Poissons Ratio (x) = 0.19212 0.32918
# Poissons Ratio (y) = 0.12495 0.19154
# Poissons Ratio (z) = 0.34877 0.31203
#
# Static dielectric constant tensor:
#      x y z
#    x 2.326350 0.000000 -0.058970 
#    y 0.000000 2.717500 0.000000 
#    z -0.058970 0.000000 2.842340 
# 
# From -- ./inp_files/6376.got.cif
#   From: 2010.05.17/outbox.cif.g08.bks.cpg/sg14_4_cif.got.tgz:6376.got - 2010.06.03 17:49:19.
