data_PCOD9243176
_publ_section_title
;
Structure prediction by ZEFSAII (Michael W. Deem and Ramdas Pophale) SiO2 
 PCOD9243176
Probable space group: P 21/C
;
_chemical_formula_sum "Si O2"
_cell_formula_units_Z 32
_cell_length_a 8.100000
_cell_length_b 18.170474
_cell_length_c 8.893873
_cell_angle_alpha 90.000000
_cell_angle_beta 91.710550
_cell_angle_gamma 90.000000
_cell_volume 1308.424375
_symmetry_space_group_name_H-M "P 21/C"
_symmetry_group_IT_number 14
_symmetry_cell_setting 'monoclinic'
loop_
_space_group_symop_operation_xyz
x,y,z
-x,1/2+y,1/2-z
-x,-y,-z
x,1/2-y,1/2+z
loop_
_atom_site_type_symbol
_atom_site_label
_atom_site_fract_x
_atom_site_fract_y
_atom_site_fract_z
Si Si1 0.179648 0.468718 0.839209
Si Si2 0.496814 0.780232 0.680299
Si Si3 0.479284 0.430830 0.646969
Si Si4 0.863744 0.289406 0.780476
Si Si5 0.659621 0.621731 0.639421
Si Si6 0.926889 0.700633 0.494617
Si Si7 0.712131 0.657672 0.956205
Si Si8 0.192677 0.549007 0.150803
O O1 0.195963 0.386119 0.908302
O O2 0.224111 0.518364 0.984752
O O3 0.322710 0.471933 0.718480
O O4 0.986357 0.481167 0.796224
O O5 0.538463 0.843957 0.801994
O O6 0.315697 0.754394 0.719119
O O7 0.599178 0.705630 0.666633
O O8 0.534860 0.820855 0.522206
O O9 0.465663 0.424935 0.465479
O O10 0.653186 0.453972 0.728560
O O11 0.989932 0.233343 0.855671
O O12 0.837296 0.363726 0.872442
O O13 0.931206 0.313563 0.621413
O O14 0.820369 0.630714 0.539180
O O15 0.702604 0.604166 0.812624
O O16 0.811892 0.767247 0.431068
#
# Coordination Sequence:
#
# PCOD9243176 Si02
#       8
#     4   4   4   4   4   4   4   4
#     4  10  20  40  64  80 113 150 207 253 277 336
#     4   9  21  34  55  82 118 153 194 237 287 354
#     4  10  21  37  58  84 117 153 199 239 292 347
#     4  11  22  35  56  89 118 144 191 245 291 348
#     4  11  21  35  55  84 120 159 184 234 300 364
#     4  11  21  35  56  84 119 153 189 233 299 354
#     4  10  20  37  56  84 114 160 192 234 298 350
#     4  10  21  37  62  88 106 153 205 247 283 333
#
# _framework density 24.456897999999999
#
# number of rings (size 3 to 8) (size 9 to 14) (size 15 to 20)
#    0.000    1.750    2.500    2.625    7.000    0.000 
#    0.000    0.625    0.000    8.250    0.000    0.000 
#    0.000    0.000    0.000    0.000    0.000    0.000 
#
# Total GULP energy -178735.239838 kJ/mol
# GULP energy per Si atom -5585.476245 kJ/mol
# Density = 2.440123 g / cm^3
# Si number density = 24.456898 Si / 1000 Ang^3
#
#
#
# Elastic Constant Matrix: (Units=GPa)
#
#
# Indices 1 2 3 4 5 6 
#
# 1 145.6111 1.0519 68.6469 0.0000 -10.1028 0.0000
# 2 1.0519 31.9879 -3.1059 0.0000 -3.5993 0.0000
# 3 68.6469 -3.1059 105.5310 0.0000 -4.4317 0.0000
# 4 0.0000 0.0000 0.0000 26.1337 0.0000 1.4510
# 5 -10.1028 -3.5993 -4.4317 0.0000 34.4929 0.0000
# 6 0.0000 0.0000 0.0000 1.4510 0.0000 29.0720
#
#
#
# Elastic Compliance Matrix: (Units=1/GPa)
#
#
# Indices 1 2 3 4 5 6 
#
# 1 0.010073 -0.000732 -0.006488 0.000000 0.002040 0.000000
# 2 -0.000732 0.031808 0.001551 0.000000 0.003304 0.000000
# 3 -0.006488 0.001551 0.013743 0.000000 0.000027 0.000000
# 4 0.000000 0.000000 0.000000 0.038371 0.000000 -0.001915
# 5 0.002040 0.003304 0.000027 0.000000 0.029937 0.000000
# 6 0.000000 0.000000 0.000000 -0.001915 0.000000 0.034493
#
#
# Mechanical properties :
#
#
# Convention : Reuss Voigt Hill
#
# Bulk Modulus (GPa) = 22.58031 46.25729 34.41880
# Shear Modulus (GPa) = 27.09628 32.37553 29.73591
#
# Velocity S-wave (km/s) = 3.33215 3.64232 3.49069
# Velocity P-wave (km/s) = 4.90480 6.05339 5.50911
#
# Compressibility (1/GPa) = 0.04428637
#
# Stress axis : x y z
#
# Youngs Moduli (GPa) = 99.27131 31.43843 72.76233
#
# Poissons Ratio (x) = 0.02300 0.47212
# Poissons Ratio (y) = 0.07263 -0.11284
# Poissons Ratio (z) = 0.64412 -0.04876
#
# Static dielectric constant tensor:
#      x y z
#    x 1.992440 0.000000 0.030010 
#    y 0.000000 1.991010 0.000000 
#    z 0.030010 0.000000 1.968360 
# 
# From -- ./inp_files/10234.got.cif
#   From: 2010.05.17/outbox.cif.g08.bks.cpg/sg14_6_cif.got.tgz:10234.got - 2010.06.03 17:49:19.
