data_PCOD9243821
_publ_section_title
;
Structure prediction by ZEFSAII (Michael W. Deem and Ramdas Pophale) SiO2 
 PCOD9243821
Probable space group: P 21/C
;
_chemical_formula_sum "Si O2"
_cell_formula_units_Z 20
_cell_length_a 5.513009
_cell_length_b 7.083705
_cell_length_c 23.306040
_cell_angle_alpha 90.000000
_cell_angle_beta 122.675561
_cell_angle_gamma 90.000000
_cell_volume 766.118958
_symmetry_space_group_name_H-M "P 21/C"
_symmetry_group_IT_number 14
_symmetry_cell_setting 'monoclinic'
loop_
_space_group_symop_operation_xyz
x,y,z
-x,1/2+y,1/2-z
-x,-y,-z
x,1/2-y,1/2+z
loop_
_atom_site_type_symbol
_atom_site_label
_atom_site_fract_x
_atom_site_fract_y
_atom_site_fract_z
Si Si1 0.334725 0.825397 0.948307
Si Si2 0.607709 0.205975 0.720217
Si Si3 0.948039 0.726793 0.498039
Si Si4 0.367991 0.840537 0.646821
Si Si5 0.200887 0.047938 0.825131
O O1 0.142042 0.927272 0.875027
O O2 0.146941 0.710255 0.969868
O O3 0.610157 0.723028 0.954710
O O4 0.500000 0.000000 0.000000
O O5 0.589941 0.246456 0.785319
O O6 0.610928 0.402197 0.687658
O O7 0.389006 0.058865 0.665484
O O8 0.917612 0.102883 0.754256
O O9 0.084747 0.791444 0.575361
O O10 0.000000 0.500000 0.500000
O O11 0.621803 0.740199 0.642066
#
# Coordination Sequence:
#
# PCOD9243821 Si02
#       5
#     4   4   4   4   4
#     4  10  20  38  67  94 127 184 224 275 348 404
#     4  12  26  42  66 106 130 188 222 288 346 414
#     4  10  20  38  67  94 127 184 224 275 348 404
#     4  12  24  42  68  97 139 173 232 282 342 413
#     4  12  24  42  68  97 139 173 232 282 342 413
#
# _framework density 26.105606000000002
#
# number of rings (size 3 to 8) (size 9 to 14) (size 15 to 20)
#    0.000    0.800    8.000    2.400    0.000    0.000 
#    0.000    2.000    0.000    0.000    0.000    0.000 
#    0.000    0.000    0.000    0.000    0.000    0.000 
#
# Total GULP energy -111945.887067 kJ/mol
# GULP energy per Si atom -5597.294353 kJ/mol
# Density = 2.604619 g / cm^3
# Si number density = 26.105606 Si / 1000 Ang^3
#
#
#
# Elastic Constant Matrix: (Units=GPa)
#
#
# Indices 1 2 3 4 5 6 
#
# 1 107.0574 -4.3688 12.8840 0.0000 -13.0818 0.0000
# 2 -4.3688 84.4592 22.9943 0.0000 -2.4263 0.0000
# 3 12.8840 22.9943 102.6546 0.0000 -9.7891 0.0000
# 4 0.0000 0.0000 0.0000 31.3292 0.0000 9.7277
# 5 -13.0818 -2.4263 -9.7891 0.0000 43.2173 0.0000
# 6 0.0000 0.0000 0.0000 9.7277 0.0000 21.7097
#
#
#
# Elastic Compliance Matrix: (Units=1/GPa)
#
#
# Indices 1 2 3 4 5 6 
#
# 1 0.009858 0.000910 -0.001177 0.000000 0.002768 0.000000
# 2 0.000910 0.012693 -0.002926 0.000000 0.000325 0.000000
# 3 -0.001177 -0.002926 0.010727 0.000000 0.001909 0.000000
# 4 0.000000 0.000000 0.000000 0.037078 0.000000 -0.016614
# 5 0.002768 0.000325 0.001909 0.000000 0.024428 0.000000
# 6 0.000000 0.000000 0.000000 -0.016614 0.000000 0.053507
#
#
# Mechanical properties :
#
#
# Convention : Reuss Voigt Hill
#
# Bulk Modulus (GPa) = 37.18776 39.68780 38.43778
# Shear Modulus (GPa) = 30.55484 36.76202 33.65843
#
# Velocity S-wave (km/s) = 3.42487 3.75668 3.59460
# Velocity P-wave (km/s) = 5.46952 5.83546 5.65545
#
# Compressibility (1/GPa) = 0.02689057
#
# Stress axis : x y z
#
# Youngs Moduli (GPa) = 101.44197 78.78246 93.22539
#
# Poissons Ratio (x) = -0.07168 0.10973
# Poissons Ratio (y) = -0.09230 0.27282
# Poissons Ratio (z) = 0.11940 0.23055
#
# Static dielectric constant tensor:
#      x y z
#    x 2.231240 0.000000 -0.049320 
#    y 0.000000 2.072590 0.000000 
#    z -0.049320 0.000000 2.025360 
# 
# From -- ./inp_files/62930.got.cif
#   From: 2010.05.17/outbox.cif.g08.bks.cpg/sg14_32_cif.got.tgz:62930.got - 2010.06.03 17:49:19.
