data_PCOD9243350
_publ_section_title
;
Structure prediction by ZEFSAII (Michael W. Deem and Ramdas Pophale) SiO2 
 PCOD9243350
Probable space group: P 21/C
;
_chemical_formula_sum "Si O2"
_cell_formula_units_Z 32
_cell_length_a 16.112629
_cell_length_b 19.449356
_cell_length_c 7.665654
_cell_angle_alpha 90.000000
_cell_angle_beta 142.842930
_cell_angle_gamma 90.000000
_cell_volume 1450.972949
_symmetry_space_group_name_H-M "P 21/C"
_symmetry_group_IT_number 14
_symmetry_cell_setting 'monoclinic'
loop_
_space_group_symop_operation_xyz
x,y,z
-x,1/2+y,1/2-z
-x,-y,-z
x,1/2-y,1/2+z
loop_
_atom_site_type_symbol
_atom_site_label
_atom_site_fract_x
_atom_site_fract_y
_atom_site_fract_z
Si Si1 0.078615 0.141648 0.493202
Si Si2 0.218442 0.591878 0.469900
Si Si3 0.497541 0.249894 0.852844
Si Si4 0.246042 0.829443 0.657587
Si Si5 0.595649 0.389453 0.876880
Si Si6 0.327006 0.445989 0.530729
Si Si7 0.661521 0.838471 0.647813
Si Si8 0.056623 0.288894 0.337076
O O1 0.075289 0.207190 0.362276
O O2 0.068201 0.177595 0.665935
O O3 0.217215 0.097667 0.734308
O O4 0.941484 0.096417 0.243908
O O5 0.239770 0.645137 0.346550
O O6 0.261862 0.518816 0.464168
O O7 0.312477 0.605235 0.795440
O O8 0.517667 0.315681 0.760218
O O9 0.383689 0.278204 0.793539
O O10 0.444110 0.178238 0.682752
O O11 0.649981 0.234572 0.176138
O O12 0.309232 0.886107 0.633369
O O13 0.094198 0.806982 0.345740
O O14 0.474849 0.445363 0.685485
O O15 0.349317 0.406896 0.755348
O O16 0.816240 0.823610 0.849571
#
# Coordination Sequence:
#
# PCOD9243350 Si02
#       8
#     4   4   4   4   4   4   4   4
#     4  10  22  38  66  88 123 162 201 266 310 365
#     4  11  24  42  63  89 125 173 208 250 305 368
#     4  11  20  37  58  92 123 153 202 256 323 364
#     4  11  24  37  62  95 127 156 203 261 310 368
#     4  11  23  39  63  92 125 163 202 260 313 369
#     4  10  22  42  63  86 124 170 214 240 307 377
#     4  10  20  37  62  85 119 162 197 259 308 370
#     4  10  21  36  58  95 120 149 203 252 322 363
#
# _framework density 22.054169000000002
#
# number of rings (size 3 to 8) (size 9 to 14) (size 15 to 20)
#    0.000    1.500    1.250    5.250    5.250    0.500 
#    0.000    0.000    2.750    4.500    0.000    0.000 
#    0.000    0.000    0.000    0.000    0.000    0.000 
#
# Total GULP energy -178747.991612 kJ/mol
# GULP energy per Si atom -5585.874738 kJ/mol
# Density = 2.200397 g / cm^3
# Si number density = 22.054169 Si / 1000 Ang^3
#
#
#
# Elastic Constant Matrix: (Units=GPa)
#
#
# Indices 1 2 3 4 5 6 
#
# 1 52.5919 -18.9655 24.8416 0.0000 14.7752 0.0000
# 2 -18.9655 31.1632 0.8245 0.0000 -1.8459 0.0000
# 3 24.8416 0.8245 107.7759 0.0000 26.6247 0.0000
# 4 0.0000 0.0000 0.0000 20.5655 0.0000 0.2166
# 5 14.7752 -1.8459 26.6247 0.0000 23.3816 0.0000
# 6 0.0000 0.0000 0.0000 0.2166 0.0000 5.6483
#
#
#
# Elastic Compliance Matrix: (Units=1/GPa)
#
#
# Indices 1 2 3 4 5 6 
#
# 1 0.031424 0.018405 -0.003948 0.000000 -0.013909 0.000000
# 2 0.018405 0.043135 -0.003535 0.000000 -0.004200 0.000000
# 3 -0.003948 -0.003535 0.013452 0.000000 -0.013103 0.000000
# 4 0.000000 0.000000 0.000000 0.048645 0.000000 -0.001865
# 5 -0.013909 -0.004200 -0.013103 0.000000 0.066147 0.000000
# 6 0.000000 0.000000 0.000000 -0.001865 0.000000 0.177117
#
#
# Mechanical properties :
#
#
# Convention : Reuss Voigt Hill
#
# Bulk Modulus (GPa) = 9.10288 22.77024 15.93656
# Shear Modulus (GPa) = 12.66810 22.24111 17.45460
#
# Velocity S-wave (km/s) = 2.39928 3.17910 2.81631
# Velocity P-wave (km/s) = 3.43684 4.88084 4.22105
#
# Compressibility (1/GPa) = 0.10985533
#
# Stress axis : x y z
#
# Youngs Moduli (GPa) = 31.82324 23.18321 74.33668
#
# Poissons Ratio (x) = -0.42668 0.29346
# Poissons Ratio (y) = -0.58569 0.26274
# Poissons Ratio (z) = 0.12563 0.08194
#
# Static dielectric constant tensor:
#      x y z
#    x 1.844580 0.000000 -0.036930 
#    y 0.000000 1.793330 0.000000 
#    z -0.036930 0.000000 1.861400 
# 
# From -- ./inp_files/16871.got.cif
#   From: 2010.05.17/outbox.cif.g08.bks.cpg/sg14_9_cif.got.tgz:16871.got - 2010.06.03 17:49:19.
