data_PCOD9243504
_publ_section_title
;
Structure prediction by ZEFSAII (Michael W. Deem and Ramdas Pophale) SiO2 
 PCOD9243504
Probable space group: P 21/C
;
_chemical_formula_sum "Si O2"
_cell_formula_units_Z 18
_cell_length_a 7.217059
_cell_length_b 8.239428
_cell_length_c 11.225866
_cell_angle_alpha 90.000000
_cell_angle_beta 92.545080
_cell_angle_gamma 90.000000
_cell_volume 666.881347
_symmetry_space_group_name_H-M "P 21/C"
_symmetry_group_IT_number 14
_symmetry_cell_setting 'monoclinic'
loop_
_space_group_symop_operation_xyz
x,y,z
-x,1/2+y,1/2-z
-x,-y,-z
x,1/2-y,1/2+z
loop_
_atom_site_type_symbol
_atom_site_label
_atom_site_fract_x
_atom_site_fract_y
_atom_site_fract_z
Si Si1 0.881117 0.811995 0.378691
Si Si2 0.000000 0.000000 0.000000
Si Si3 0.421764 0.999231 0.764727
Si Si4 0.739915 0.488956 0.082272
Si Si5 0.677053 0.281475 0.389208
O O1 0.943522 0.629038 0.391857
O O2 0.732189 0.869582 0.277833
O O3 0.059958 0.925568 0.371909
O O4 0.781770 0.855913 0.501542
O O5 0.870352 0.139086 0.931166
O O6 0.600033 0.986999 0.684419
O O7 0.518453 0.080137 0.881734
O O8 0.330203 0.822984 0.735465
O O9 0.653812 0.354652 0.990380
#
# Coordination Sequence:
#
# PCOD9243504 Si02
#       5
#     4   2   4   4   4
#     4   9  18  37  61  86 121 157 203 256 305 371
#     4  10  20  38  58  86 126 160 194 256 312 358
#     4  11  21  41  66  93 125 168 214 262 315 370
#     4   9  20  40  64  90 124 166 205 261 320 364
#     4  10  21  38  62  91 127 161 208 261 306 374
#
# _framework density 26.991306999999999
#
# number of rings (size 3 to 8) (size 9 to 14) (size 15 to 20)
#    0.000    2.222    0.000    5.333    0.000    0.000 
#    0.000   51.111    0.000    0.000    0.000    0.000 
#    0.000    0.000    0.000    0.000    0.000    0.000 
#
# Total GULP energy -100265.280528 kJ/mol
# GULP energy per Si atom -5570.293363 kJ/mol
# Density = 2.692987 g / cm^3
# Si number density = 26.991307 Si / 1000 Ang^3
#
#
#
# Elastic Constant Matrix: (Units=GPa)
#
#
# Indices 1 2 3 4 5 6 
#
# 1 124.4390 13.6405 40.7782 0.0000 26.1998 0.0000
# 2 13.6405 112.0960 33.9543 0.0000 28.0131 0.0000
# 3 40.7782 33.9543 65.7453 0.0000 19.4542 0.0000
# 4 0.0000 0.0000 0.0000 43.6907 0.0000 27.1217
# 5 26.1998 28.0131 19.4542 0.0000 48.6068 0.0000
# 6 0.0000 0.0000 0.0000 27.1217 0.0000 31.8548
#
#
#
# Elastic Compliance Matrix: (Units=1/GPa)
#
#
# Indices 1 2 3 4 5 6 
#
# 1 0.010818 0.001659 -0.006305 0.000000 -0.004264 0.000000
# 2 0.001659 0.011745 -0.005476 0.000000 -0.005472 0.000000
# 3 -0.006305 -0.005476 0.022697 0.000000 -0.002530 0.000000
# 4 0.000000 0.000000 0.000000 0.048546 0.000000 -0.041333
# 5 -0.004264 -0.005472 -0.002530 0.000000 0.027037 0.000000
# 6 0.000000 0.000000 0.000000 -0.041333 0.000000 0.066584
#
#
# Mechanical properties :
#
#
# Convention : Reuss Voigt Hill
#
# Bulk Modulus (GPa) = 39.97266 53.22515 46.59890
# Shear Modulus (GPa) = 23.14702 39.09095 31.11899
#
# Velocity S-wave (km/s) = 2.93161 3.80975 3.39916
# Velocity P-wave (km/s) = 5.12842 6.25416 5.71906
#
# Compressibility (1/GPa) = 0.02501710
#
# Stress axis : x y z
#
# Youngs Moduli (GPa) = 92.43838 85.14264 44.05790
#
# Poissons Ratio (x) = -0.14124 0.27778
# Poissons Ratio (y) = -0.15335 0.24124
# Poissons Ratio (z) = 0.58282 0.46621
#
# Static dielectric constant tensor:
#      x y z
#    x 2.091180 0.000000 -0.043850 
#    y 0.000000 2.151620 0.000000 
#    z -0.043850 0.000000 2.147990 
# 
# From -- ./inp_files/22648.got.cif
#   From: 2010.05.17/outbox.cif.g08.bks.cpg/sg14_12_cif.got.tgz:22648.got - 2010.06.03 17:49:19.
