data_PCOD9243030
_publ_section_title
;
Structure prediction by ZEFSAII (Michael W. Deem and Ramdas Pophale) SiO2 
 PCOD9243030
Probable space group: P 21/C
;
_chemical_formula_sum "Si O2"
_cell_formula_units_Z 24
_cell_length_a 13.905234
_cell_length_b 17.190574
_cell_length_c 8.455140
_cell_angle_alpha 90.000000
_cell_angle_beta 25.782956
_cell_angle_gamma 90.000000
_cell_volume 879.107645
_symmetry_space_group_name_H-M "P 21/C"
_symmetry_group_IT_number 14
_symmetry_cell_setting 'monoclinic'
loop_
_space_group_symop_operation_xyz
x,y,z
-x,1/2+y,1/2-z
-x,-y,-z
x,1/2-y,1/2+z
loop_
_atom_site_type_symbol
_atom_site_label
_atom_site_fract_x
_atom_site_fract_y
_atom_site_fract_z
Si Si1 0.915648 0.053883 0.434440
Si Si2 0.573847 0.646288 0.018683
Si Si3 0.697697 0.358234 0.003015
Si Si4 0.101065 0.805011 0.300552
Si Si5 0.682631 0.793438 0.705809
Si Si6 0.384610 0.486020 0.366752
O O1 0.862764 0.078903 0.335608
O O2 0.917413 0.134870 0.529068
O O3 0.152744 0.015655 0.114900
O O4 0.715837 0.004152 0.808608
O O5 0.317899 0.669227 0.387202
O O6 0.664575 0.680108 0.052271
O O7 0.551234 0.554434 0.070863
O O8 0.688935 0.699872 0.717433
O O9 0.533434 0.326090 0.384206
O O10 0.528341 0.407909 0.148595
O O11 0.837733 0.283466 0.738946
O O12 0.894172 0.817623 0.493422
#
# Coordination Sequence:
#
# PCOD9243030 Si02
#       6
#     4   4   4   4   4   4
#     4  10  20  36  60  91 119 160 215 257 310 366
#     4  10  24  39  64  93 125 164 214 262 320 368
#     4  11  21  35  61  89 125 160 208 264 317 362
#     4  10  22  36  58  93 119 161 207 261 309 375
#     4  11  22  39  62  92 124 165 210 261 314 380
#     4  10  20  37  59  92 121 160 212 267 305 372
#
# _framework density 27.300412000000001
#
# number of rings (size 3 to 8) (size 9 to 14) (size 15 to 20)
#    0.000    1.667    5.000    0.500    2.333    0.000 
#    0.000    0.833    0.000    7.000    0.000    0.000 
#    0.000    0.000    0.000    0.000    0.000    0.000 
#
# Total GULP energy -134498.113344 kJ/mol
# GULP energy per Si atom -5604.088056 kJ/mol
# Density = 2.723827 g / cm^3
# Si number density = 27.300412 Si / 1000 Ang^3
#
#
#
# Elastic Constant Matrix: (Units=GPa)
#
#
# Indices 1 2 3 4 5 6 
#
# 1 93.0482 45.7864 32.5824 0.0000 -40.6058 0.0000
# 2 45.7864 137.4579 29.6459 0.0000 -7.6455 0.0000
# 3 32.5824 29.6459 104.9099 0.0000 -13.2069 0.0000
# 4 0.0000 0.0000 0.0000 31.8589 0.0000 -10.6387
# 5 -40.6058 -7.6455 -13.2069 0.0000 50.2138 0.0000
# 6 0.0000 0.0000 0.0000 -10.6387 0.0000 40.7937
#
#
#
# Elastic Compliance Matrix: (Units=1/GPa)
#
#
# Indices 1 2 3 4 5 6 
#
# 1 0.021415 -0.005594 -0.003100 0.000000 0.015650 0.000000
# 2 -0.005594 0.009227 -0.001306 0.000000 -0.003462 0.000000
# 3 -0.003100 -0.001306 0.010884 0.000000 0.000157 0.000000
# 4 0.000000 0.000000 0.000000 0.034383 0.000000 0.008967
# 5 0.015650 -0.003462 0.000157 0.000000 0.032085 0.000000
# 6 0.000000 0.000000 0.000000 0.008967 0.000000 0.026852
#
#
# Mechanical properties :
#
#
# Convention : Reuss Voigt Hill
#
# Bulk Modulus (GPa) = 46.45576 61.27170 53.86373
# Shear Modulus (GPa) = 30.86013 39.73337 35.29675
#
# Velocity S-wave (km/s) = 3.36578 3.81913 3.59960
# Velocity P-wave (km/s) = 5.67081 6.47610 6.08679
#
# Compressibility (1/GPa) = 0.02152586
#
# Stress axis : x y z
#
# Youngs Moduli (GPa) = 46.69582 108.37249 91.88167
#
# Poissons Ratio (x) = 0.60626 0.28483
# Poissons Ratio (y) = 0.26123 0.11999
# Poissons Ratio (z) = 0.14476 0.14153
#
# Static dielectric constant tensor:
#      x y z
#    x 2.233160 0.000000 0.043460 
#    y 0.000000 2.187590 0.000000 
#    z 0.043460 0.000000 2.074420 
# 
# From -- ./inp_files/34377.got.cif
#   From: 2010.05.17/outbox.cif.g08.bks.cpg/sg14_18_cif.got.tgz:34377.got - 2010.06.03 17:49:19.
