data_PCOD9243804
_publ_section_title
;
Structure prediction by ZEFSAII (Michael W. Deem and Ramdas Pophale) SiO2 
 PCOD9243804
Probable space group: P 21/C
;
_chemical_formula_sum "Si O2"
_cell_formula_units_Z 24
_cell_length_a 8.580287
_cell_length_b 13.548296
_cell_length_c 16.923842
_cell_angle_alpha 90.000000
_cell_angle_beta 35.391120
_cell_angle_gamma 90.000000
_cell_volume 1139.410292
_symmetry_space_group_name_H-M "P 21/C"
_symmetry_group_IT_number 14
_symmetry_cell_setting 'monoclinic'
loop_
_space_group_symop_operation_xyz
x,y,z
-x,1/2+y,1/2-z
-x,-y,-z
x,1/2-y,1/2+z
loop_
_atom_site_type_symbol
_atom_site_label
_atom_site_fract_x
_atom_site_fract_y
_atom_site_fract_z
Si Si1 0.144466 0.891620 0.640399
Si Si2 0.482580 0.011780 0.377696
Si Si3 0.343536 0.513399 0.645658
Si Si4 0.893981 0.283860 0.242528
Si Si5 0.754378 0.574301 0.612554
Si Si6 0.691481 0.725875 0.067316
O O1 0.294639 0.942202 0.654235
O O2 0.141748 0.776764 0.662317
O O3 0.299371 0.936075 0.502335
O O4 0.833261 0.919092 0.763207
O O5 0.312818 0.107628 0.416774
O O6 0.621120 0.952232 0.250597
O O7 0.500000 0.500000 0.500000
O O8 0.124757 0.601182 0.731724
O O9 0.548183 0.543187 0.628904
O O10 0.623747 0.254748 0.306293
O O11 0.152869 0.260728 0.081267
O O12 0.816209 0.690851 0.573433
O O13 0.000000 0.500000 0.500000
#
# Coordination Sequence:
#
# PCOD9243804 Si02
#       6
#     4   4   4   4   4   4
#     4  10  20  39  65  95 125 166 219 267 321 396
#     4  10  21  40  66  91 129 171 215 270 330 389
#     4  11  22  40  64  94 131 169 216 274 326 397
#     4  10  20  38  66  92 127 174 214 261 340 389
#     4  11  23  41  64  94 132 174 223 267 330 395
#     4  10  20  40  65  91 130 177 210 264 347 388
#
# _framework density 21.063527000000001
#
# number of rings (size 3 to 8) (size 9 to 14) (size 15 to 20)
#    0.000    1.667    1.667    5.000    0.000    0.667 
#    3.000    1.667    0.000    0.000    0.000    0.000 
#    0.000    0.000    0.000    0.000    0.000    0.000 
#
# Total GULP energy -133900.811736 kJ/mol
# GULP energy per Si atom -5579.200489 kJ/mol
# Density = 2.101559 g / cm^3
# Si number density = 21.063527 Si / 1000 Ang^3
#
#
#
# Elastic Constant Matrix: (Units=GPa)
#
#
# Indices 1 2 3 4 5 6 
#
# 1 34.2404 18.0840 25.5354 0.0000 2.4862 0.0000
# 2 18.0840 105.7343 25.1462 0.0000 14.3705 0.0000
# 3 25.5354 25.1462 134.0574 0.0000 22.5593 0.0000
# 4 0.0000 0.0000 0.0000 33.4686 0.0000 4.6878
# 5 2.4862 14.3705 22.5593 0.0000 30.4448 0.0000
# 6 0.0000 0.0000 0.0000 4.6878 0.0000 26.6914
#
#
#
# Elastic Compliance Matrix: (Units=1/GPa)
#
#
# Indices 1 2 3 4 5 6 
#
# 1 0.036709 -0.005283 -0.006759 0.000000 0.004505 0.000000
# 2 -0.005283 0.011053 -0.000299 0.000000 -0.004564 0.000000
# 3 -0.006759 -0.000299 0.009924 0.000000 -0.006660 0.000000
# 4 0.000000 0.000000 0.000000 0.030632 0.000000 -0.005380
# 5 0.004505 -0.004564 -0.006660 0.000000 0.039568 0.000000
# 6 0.000000 0.000000 0.000000 -0.005380 0.000000 0.038410
#
#
# Mechanical properties :
#
#
# Convention : Reuss Voigt Hill
#
# Bulk Modulus (GPa) = 30.30022 45.72925 38.01474
# Shear Modulus (GPa) = 24.75482 31.80538 28.28010
#
# Velocity S-wave (km/s) = 3.43191 3.89005 3.66814
# Velocity P-wave (km/s) = 5.48820 6.47565 6.00226
#
# Compressibility (1/GPa) = 0.03300306
#
# Stress axis : x y z
#
# Youngs Moduli (GPa) = 27.24094 90.47590 100.76652
#
# Poissons Ratio (x) = 0.47800 0.68113
# Poissons Ratio (y) = 0.14392 0.03011
# Poissons Ratio (z) = 0.18413 0.02704
#
# Static dielectric constant tensor:
#      x y z
#    x 1.805530 0.000000 -0.044560 
#    y 0.000000 1.523940 0.000000 
#    z -0.044560 0.000000 1.757740 
# 
# From -- ./inp_files/41066.got.cif
#   From: 2010.05.17/outbox.cif.g08.bks.cpg/sg14_21_cif.got.tgz:41066.got - 2010.06.03 17:49:19.
