data_PCOD9243679
_publ_section_title
;
Structure prediction by ZEFSAII (Michael W. Deem and Ramdas Pophale) SiO2 
 PCOD9243679
Probable space group: P 21/C
;
_chemical_formula_sum "Si O2"
_cell_formula_units_Z 24
_cell_length_a 12.507539
_cell_length_b 11.523925
_cell_length_c 14.154230
_cell_angle_alpha 90.000000
_cell_angle_beta 150.696850
_cell_angle_gamma 90.000000
_cell_volume 998.503231
_symmetry_space_group_name_H-M "P 21/C"
_symmetry_group_IT_number 14
_symmetry_cell_setting 'monoclinic'
loop_
_space_group_symop_operation_xyz
x,y,z
-x,1/2+y,1/2-z
-x,-y,-z
x,1/2-y,1/2+z
loop_
_atom_site_type_symbol
_atom_site_label
_atom_site_fract_x
_atom_site_fract_y
_atom_site_fract_z
Si Si1 0.376078 0.692577 0.274992
Si Si2 0.803701 0.554961 0.411493
Si Si3 0.294833 0.217696 0.324570
Si Si4 0.003836 0.719071 0.137809
Si Si5 0.195499 0.672551 0.479713
Si Si6 0.763375 0.554292 0.842203
O O1 0.549539 0.767056 0.466237
O O2 0.150256 0.721675 0.155870
O O3 0.397827 0.553914 0.292330
O O4 0.344271 0.730923 0.143091
O O5 0.658845 0.620149 0.219865
O O6 0.724420 0.448280 0.413974
O O7 0.000000 0.500000 0.500000
O O8 0.892163 0.654987 0.550729
O O9 0.297666 0.342090 0.274826
O O10 0.053831 0.192741 0.178551
O O11 0.170308 0.686813 0.348892
O O12 0.818917 0.620279 0.982923
O O13 0.000000 0.500000 0.000000
#
# Coordination Sequence:
#
# PCOD9243679 Si02
#       6
#     4   4   4   4   4   4
#     4  11  21  38  61  88 116 153 198 239 294 344
#     4   9  18  40  60  81 116 163 193 234 301 347
#     4  10  20  38  63  82 119 154 194 243 290 347
#     4  10  21  37  64  82 120 156 197 242 292 352
#     4  11  22  38  60  87 117 158 195 239 295 351
#     4   9  17  37  61  81 113 161 185 236 297 340
#
# _framework density 24.035976000000002
#
# number of rings (size 3 to 8) (size 9 to 14) (size 15 to 20)
#    0.000    2.000    6.667    0.500    2.333    0.667 
#    6.000    0.000    0.000    0.000    0.000    0.000 
#    0.000    0.000    0.000    0.000    0.000    0.000 
#
# Total GULP energy -134058.821105 kJ/mol
# GULP energy per Si atom -5585.784213 kJ/mol
# Density = 2.398127 g / cm^3
# Si number density = 24.035976 Si / 1000 Ang^3
#
#
#
# Elastic Constant Matrix: (Units=GPa)
#
#
# Indices 1 2 3 4 5 6 
#
# 1 51.1061 6.3084 15.1490 0.0000 -4.8152 0.0000
# 2 6.3084 124.4904 11.6569 0.0000 -3.1281 0.0000
# 3 15.1490 11.6569 110.5280 0.0000 -16.2025 0.0000
# 4 0.0000 0.0000 0.0000 30.3019 0.0000 -3.2389
# 5 -4.8152 -3.1281 -16.2025 0.0000 34.9195 0.0000
# 6 0.0000 0.0000 0.0000 -3.2389 0.0000 16.3696
#
#
#
# Elastic Compliance Matrix: (Units=1/GPa)
#
#
# Indices 1 2 3 4 5 6 
#
# 1 0.020554 -0.000767 -0.002501 0.000000 0.001605 0.000000
# 2 -0.000767 0.008146 -0.000711 0.000000 0.000294 0.000000
# 3 -0.002501 -0.000711 0.010092 0.000000 0.004274 0.000000
# 4 0.000000 0.000000 0.000000 0.033714 0.000000 0.006671
# 5 0.001605 0.000294 0.004274 0.000000 0.030868 0.000000
# 6 0.000000 0.000000 0.000000 0.006671 0.000000 0.062409
#
#
# Mechanical properties :
#
#
# Convention : Reuss Voigt Hill
#
# Bulk Modulus (GPa) = 32.43173 39.15034 35.79104
# Shear Modulus (GPa) = 27.17116 33.18555 30.17836
#
# Velocity S-wave (km/s) = 3.36585 3.71976 3.54722
# Velocity P-wave (km/s) = 5.35047 5.89681 5.63027
#
# Compressibility (1/GPa) = 0.03083400
#
# Stress axis : x y z
#
# Youngs Moduli (GPa) = 48.65136 122.76621 99.09066
#
# Poissons Ratio (x) = 0.09417 0.24782
# Poissons Ratio (y) = 0.03732 0.07044
# Poissons Ratio (z) = 0.12168 0.08727
#
# Static dielectric constant tensor:
#      x y z
#    x 1.990710 0.000000 0.052550 
#    y 0.000000 1.937990 0.000000 
#    z 0.052550 0.000000 1.965320 
# 
# From -- ./inp_files/47017.got.cif
#   From: 2010.05.17/outbox.cif.g08.bks.cpg/sg14_24_cif.got.tgz:47017.got - 2010.06.03 17:49:19.
