data_PCOD9243721
_publ_section_title
;
Structure prediction by ZEFSAII (Michael W. Deem and Ramdas Pophale) SiO2 
 PCOD9243721
Probable space group: P 21/C
;
_chemical_formula_sum "Si O2"
_cell_formula_units_Z 20
_cell_length_a 5.056785
_cell_length_b 14.415675
_cell_length_c 16.277062
_cell_angle_alpha 90.000000
_cell_angle_beta 61.614459
_cell_angle_gamma 90.000000
_cell_volume 1043.888067
_symmetry_space_group_name_H-M "P 21/C"
_symmetry_group_IT_number 14
_symmetry_cell_setting 'monoclinic'
loop_
_space_group_symop_operation_xyz
x,y,z
-x,1/2+y,1/2-z
-x,-y,-z
x,1/2-y,1/2+z
loop_
_atom_site_type_symbol
_atom_site_label
_atom_site_fract_x
_atom_site_fract_y
_atom_site_fract_z
Si Si1 0.178618 0.952763 0.546724
Si Si2 0.000031 0.099219 0.254096
Si Si3 0.317591 0.933896 0.865772
Si Si4 0.215074 0.137691 0.946865
Si Si5 0.798532 0.252558 0.901495
O O1 0.212339 0.841067 0.535363
O O2 0.023783 0.962506 0.659296
O O3 0.500000 0.000000 0.500000
O O4 0.000000 0.000000 0.500000
O O5 0.347756 0.106136 0.178749
O O6 0.798741 0.060528 0.210465
O O7 0.866310 0.197432 0.304647
O O8 0.322418 0.035051 0.906732
O O9 0.064939 0.874377 0.950008
O O10 0.491196 0.195751 0.942253
O O11 0.072467 0.188783 0.889424
#
# Coordination Sequence:
#
# PCOD9243721 Si02
#       5
#     4   4   4   4   4
#     4  10  20  38  64  86 120 166 194 242 328 352
#     4  10  22  39  63  86 126 160 200 269 294 363
#     4  11  22  40  63  90 124 168 207 245 314 367
#     4  11  22  40  63  90 124 168 205 248 311 367
#     4  10  22  39  63  86 126 160 201 268 296 359
#
# _framework density 19.159144999999999
#
# number of rings (size 3 to 8) (size 9 to 14) (size 15 to 20)
#    1.200    0.400    0.000    6.000    0.000    3.200 
#    0.000   20.000    0.000    0.000    0.000    0.000 
#    0.000    0.000    0.000    0.000    0.000    0.000 
#
# Total GULP energy -111540.551449 kJ/mol
# GULP energy per Si atom -5577.027572 kJ/mol
# Density = 1.911554 g / cm^3
# Si number density = 19.159145 Si / 1000 Ang^3
#
#
#
# Elastic Constant Matrix: (Units=GPa)
#
#
# Indices 1 2 3 4 5 6 
#
# 1 103.9237 27.6813 14.4062 0.0000 -20.5622 0.0000
# 2 27.6813 75.7386 28.4611 0.0000 -17.3997 0.0000
# 3 14.4062 28.4611 62.9157 0.0000 -8.7270 0.0000
# 4 0.0000 0.0000 0.0000 16.4219 0.0000 -7.4390
# 5 -20.5622 -17.3997 -8.7270 0.0000 32.8849 0.0000
# 6 0.0000 0.0000 0.0000 -7.4390 0.0000 41.6064
#
#
#
# Elastic Compliance Matrix: (Units=1/GPa)
#
#
# Indices 1 2 3 4 5 6 
#
# 1 0.011540 -0.002682 -0.000649 0.000000 0.005624 0.000000
# 2 -0.002682 0.018121 -0.006734 0.000000 0.006124 0.000000
# 3 -0.000649 -0.006734 0.019247 0.000000 0.001139 0.000000
# 4 0.000000 0.000000 0.000000 0.066261 0.000000 0.011847
# 5 0.005624 0.006124 0.001139 0.000000 0.037468 0.000000
# 6 0.000000 0.000000 0.000000 0.011847 0.000000 0.026153
#
#
# Mechanical properties :
#
#
# Convention : Reuss Voigt Hill
#
# Bulk Modulus (GPa) = 34.74809 42.63056 38.68932
# Shear Modulus (GPa) = 23.97954 29.65127 26.81541
#
# Velocity S-wave (km/s) = 3.54163 3.93826 3.74520
# Velocity P-wave (km/s) = 5.90763 6.55583 6.24015
#
# Compressibility (1/GPa) = 0.02877856
#
# Stress axis : x y z
#
# Youngs Moduli (GPa) = 86.65883 55.18555 51.95598
#
# Poissons Ratio (x) = 0.14798 0.03372
# Poissons Ratio (y) = 0.23238 0.34986
# Poissons Ratio (z) = 0.05625 0.37161
#
# Static dielectric constant tensor:
#      x y z
#    x 1.637310 0.000000 0.031820 
#    y 0.000000 1.683010 0.000000 
#    z 0.031820 0.000000 1.677140 
# 
# From -- ./inp_files/63653.got.cif
#   From: 2010.05.17/outbox.cif.g08.bks.cpg/sg14_32_cif.got.tgz:63653.got - 2010.06.03 17:49:19.
