data_PCOD9243423
_publ_section_title
;
Structure prediction by ZEFSAII (Michael W. Deem and Ramdas Pophale) SiO2 
 PCOD9243423
Probable space group: P 21/C
;
_chemical_formula_sum "Si O2"
_cell_formula_units_Z 24
_cell_length_a 13.375984
_cell_length_b 10.342914
_cell_length_c 15.094230
_cell_angle_alpha 90.000000
_cell_angle_beta 152.518079
_cell_angle_gamma 90.000000
_cell_volume 963.655648
_symmetry_space_group_name_H-M "P 21/C"
_symmetry_group_IT_number 14
_symmetry_cell_setting 'monoclinic'
loop_
_space_group_symop_operation_xyz
x,y,z
-x,1/2+y,1/2-z
-x,-y,-z
x,1/2-y,1/2+z
loop_
_atom_site_type_symbol
_atom_site_label
_atom_site_fract_x
_atom_site_fract_y
_atom_site_fract_z
Si Si1 0.959780 0.146928 0.715405
Si Si2 0.452051 0.645765 0.431538
Si Si3 0.195631 0.224616 0.660698
Si Si4 0.142857 0.473739 0.526479
Si Si5 0.280705 0.750411 0.122936
Si Si6 0.991944 0.611029 0.143969
O O1 0.744239 0.188810 0.493540
O O2 0.070658 0.285356 0.828414
O O3 0.046611 0.032613 0.719094
O O4 0.976498 0.064454 0.818269
O O5 0.500000 0.500000 0.500000
O O6 0.630236 0.722874 0.625616
O O7 0.438798 0.681848 0.317347
O O8 0.213608 0.673566 0.282134
O O9 0.255409 0.341435 0.642332
O O10 0.962900 0.237641 0.526210
O O11 0.167186 0.108426 0.566498
O O12 0.298964 0.594033 0.629005
O O13 0.000000 0.500000 0.500000
#
# Coordination Sequence:
#
# PCOD9243423 Si02
#       6
#     4   4   4   4   4   4
#     4  11  19  38  64  89 124 161 205 260 312 365
#     4  11  22  39  62  92 128 162 213 257 309 380
#     4   9  20  39  62  89 123 166 207 253 315 373
#     4   9  19  37  62  90 119 164 210 250 315 374
#     4  10  20  37  64  90 121 166 209 259 310 374
#     4  10  22  38  64  91 125 165 206 260 309 373
#
# _framework density 24.905162000000001
#
# number of rings (size 3 to 8) (size 9 to 14) (size 15 to 20)
#    0.000    2.000    1.667    3.000    0.000    3.333 
#    0.000   10.000    3.667    0.000    0.000    0.000 
#    0.000    0.000    0.000    0.000    0.000    0.000 
#
# Total GULP energy -133796.713755 kJ/mol
# GULP energy per Si atom -5574.863073 kJ/mol
# Density = 2.484848 g / cm^3
# Si number density = 24.905162 Si / 1000 Ang^3
#
#
#
# Elastic Constant Matrix: (Units=GPa)
#
#
# Indices 1 2 3 4 5 6 
#
# 1 48.7762 20.4708 41.9493 0.0000 -23.1198 0.0000
# 2 20.4708 100.2524 30.0512 0.0000 -26.3944 0.0000
# 3 41.9493 30.0512 167.9173 0.0000 -55.7144 0.0000
# 4 0.0000 0.0000 0.0000 29.4701 0.0000 -18.6102
# 5 -23.1198 -26.3944 -55.7144 0.0000 57.8554 0.0000
# 6 0.0000 0.0000 0.0000 -18.6102 0.0000 30.4145
#
#
#
# Elastic Compliance Matrix: (Units=1/GPa)
#
#
# Indices 1 2 3 4 5 6 
#
# 1 0.028409 -0.002945 -0.004775 0.000000 0.005411 0.000000
# 2 -0.002945 0.011666 0.000034 0.000000 0.004178 0.000000
# 3 -0.004775 0.000034 0.009573 0.000000 0.007326 0.000000
# 4 0.000000 0.000000 0.000000 0.055301 0.000000 0.033838
# 5 0.005411 0.004178 0.007326 0.000000 0.028408 0.000000
# 6 0.000000 0.000000 0.000000 0.033838 0.000000 0.053584
#
#
# Mechanical properties :
#
#
# Convention : Reuss Voigt Hill
#
# Bulk Modulus (GPa) = 29.17427 55.76538 42.46982
# Shear Modulus (GPa) = 23.39311 38.51296 30.95304
#
# Velocity S-wave (km/s) = 3.06810 3.93668 3.52921
# Velocity P-wave (km/s) = 4.92855 6.56528 5.80489
#
# Compressibility (1/GPa) = 0.03427678
#
# Stress axis : x y z
#
# Youngs Moduli (GPa) = 35.20004 85.71944 104.46258
#
# Poissons Ratio (x) = 0.25245 0.49879
# Poissons Ratio (y) = 0.10367 -0.00358
# Poissons Ratio (z) = 0.16807 -0.00294
#
# Static dielectric constant tensor:
#      x y z
#    x 2.096620 0.000000 -0.012080 
#    y 0.000000 2.076400 0.000000 
#    z -0.012080 0.000000 1.998820 
# 
# From -- ./inp_files/60574.got.cif
#   From: 2010.05.17/outbox.cif.g08.bks.cpg/sg14_31_cif.got.tgz:60574.got - 2010.06.03 17:49:19.
