data_PCOD9243212
_publ_section_title
;
Structure prediction by ZEFSAII (Michael W. Deem and Ramdas Pophale) SiO2 
 PCOD9243212
Probable space group: P 21/C
;
_chemical_formula_sum "Si O2"
_cell_formula_units_Z 28
_cell_length_a 7.499153
_cell_length_b 20.620511
_cell_length_c 7.542119
_cell_angle_alpha 90.000000
_cell_angle_beta 95.532994
_cell_angle_gamma 90.000000
_cell_volume 1160.851969
_symmetry_space_group_name_H-M "P 21/C"
_symmetry_group_IT_number 14
_symmetry_cell_setting 'monoclinic'
loop_
_space_group_symop_operation_xyz
x,y,z
-x,1/2+y,1/2-z
-x,-y,-z
x,1/2-y,1/2+z
loop_
_atom_site_type_symbol
_atom_site_label
_atom_site_fract_x
_atom_site_fract_y
_atom_site_fract_z
Si Si1 0.935776 0.576790 0.587031
Si Si2 0.774225 0.460641 0.664377
Si Si3 0.680379 0.188811 0.595351
Si Si4 0.224112 0.203139 0.871012
Si Si5 0.047911 0.912606 0.489177
Si Si6 0.717504 0.660005 0.026261
Si Si7 0.388936 0.831732 0.996662
O O1 0.750855 0.535396 0.597885
O O2 0.920233 0.654070 0.568127
O O3 0.046204 0.555591 0.428867
O O4 0.032441 0.564332 0.784974
O O5 0.648652 0.401145 0.595170
O O6 0.823698 0.455074 0.875038
O O7 0.850116 0.156003 0.520115
O O8 0.498582 0.163587 0.475936
O O9 0.699302 0.266687 0.592695
O O10 0.659774 0.166970 0.798401
O O11 0.256908 0.178119 0.677031
O O12 0.402900 0.187290 0.996951
O O13 0.199352 0.279303 0.861898
O O14 0.850680 0.900966 0.555746
#
# Coordination Sequence:
#
# PCOD9243212 Si02
#       7
#     4   4   4   4   4   4   4
#     4  10  23  41  57  84 119 153 202 244 279 347
#     4  11  23  38  61  84 113 161 199 236 292 343
#     4  10  20  37  59  90 123 147 188 248 291 351
#     4   9  20  37  59  82 121 150 184 248 288 346
#     4  11  22  39  65  85 118 156 192 245 296 345
#     4   9  21  35  58  92 116 148 190 236 301 348
#     4  10  20  37  58  87 120 150 194 236 296 351
#
# _framework density 24.120215000000002
#
# number of rings (size 3 to 8) (size 9 to 14) (size 15 to 20)
#    0.000    2.000    1.429    1.286    4.000    2.857 
#    0.000    0.000    0.000    3.429    0.000    0.000 
#    0.000    0.000    0.000    0.000    0.000    0.000 
#
# Total GULP energy -156188.809858 kJ/mol
# GULP energy per Si atom -5578.171781 kJ/mol
# Density = 2.406532 g / cm^3
# Si number density = 24.120215 Si / 1000 Ang^3
#
#
#
# Elastic Constant Matrix: (Units=GPa)
#
#
# Indices 1 2 3 4 5 6 
#
# 1 61.1663 16.5142 8.3432 0.0000 -1.5327 0.0000
# 2 16.5142 47.2799 22.0545 0.0000 8.9674 0.0000
# 3 8.3432 22.0545 56.5651 0.0000 10.3626 0.0000
# 4 0.0000 0.0000 0.0000 27.3890 0.0000 -0.6374
# 5 -1.5327 8.9674 10.3626 0.0000 18.5676 0.0000
# 6 0.0000 0.0000 0.0000 -0.6374 0.0000 24.5773
#
#
#
# Elastic Compliance Matrix: (Units=1/GPa)
#
#
# Indices 1 2 3 4 5 6 
#
# 1 0.018524 -0.007050 -0.000989 0.000000 0.005486 0.000000
# 2 -0.007050 0.029547 -0.008643 0.000000 -0.010028 0.000000
# 3 -0.000989 -0.008643 0.022773 0.000000 -0.008617 0.000000
# 4 0.000000 0.000000 0.000000 0.036533 0.000000 0.000947
# 5 0.005486 -0.010028 -0.008617 0.000000 0.063962 0.000000
# 6 0.000000 0.000000 0.000000 0.000947 0.000000 0.040713
#
#
# Mechanical properties :
#
#
# Convention : Reuss Voigt Hill
#
# Bulk Modulus (GPa) = 26.67992 28.75946 27.71969
# Shear Modulus (GPa) = 19.38670 21.98009 20.68339
#
# Velocity S-wave (km/s) = 2.83813 3.02200 2.93151
# Velocity P-wave (km/s) = 4.67175 4.91182 4.79328
#
# Compressibility (1/GPa) = 0.03748137
#
# Stress axis : x y z
#
# Youngs Moduli (GPa) = 53.98263 33.84467 43.91145
#
# Poissons Ratio (x) = 0.23859 0.04341
# Poissons Ratio (y) = 0.38056 0.37954
# Poissons Ratio (z) = 0.05337 0.29253
#
# Static dielectric constant tensor:
#      x y z
#    x 1.998700 0.000000 0.044350 
#    y 0.000000 2.154960 0.000000 
#    z 0.044350 0.000000 1.909530 
# 
# From -- ./inp_files/9922.got.cif
#   From: 2010.05.17/outbox.cif.g08.bks.cpg/sg14_5_cif.got.tgz:9922.got - 2010.06.03 17:49:19.
