data_PCOD9243951
_publ_section_title
;
Structure prediction by ZEFSAII (Michael W. Deem and Ramdas Pophale) SiO2 
 PCOD9243951
Probable space group: P 21/C
;
_chemical_formula_sum "Si O2"
_cell_formula_units_Z 20
_cell_length_a 5.204356
_cell_length_b 10.979007
_cell_length_c 16.975476
_cell_angle_alpha 90.000000
_cell_angle_beta 112.095648
_cell_angle_gamma 90.000000
_cell_volume 898.719690
_symmetry_space_group_name_H-M "P 21/C"
_symmetry_group_IT_number 14
_symmetry_cell_setting 'monoclinic'
loop_
_space_group_symop_operation_xyz
x,y,z
-x,1/2+y,1/2-z
-x,-y,-z
x,1/2-y,1/2+z
loop_
_atom_site_type_symbol
_atom_site_label
_atom_site_fract_x
_atom_site_fract_y
_atom_site_fract_z
Si Si1 0.687604 0.613391 0.492972
Si Si2 0.455562 0.246839 0.381607
Si Si3 0.787677 0.017447 0.404998
Si Si4 0.750614 0.469745 0.360587
Si Si5 0.176713 0.486799 0.812465
O O1 0.500000 0.500000 0.500000
O O2 0.573710 0.727634 0.528389
O O3 0.689113 0.597143 0.398909
O O4 0.994262 0.588853 0.561759
O O5 0.717709 0.161274 0.393720
O O6 0.499457 0.375067 0.343964
O O7 0.207264 0.160591 0.324302
O O8 0.476632 0.965206 0.378587
O O9 0.931263 0.974656 0.341248
O O10 0.000000 0.000000 0.500000
O O11 0.834592 0.483465 0.280390
#
# Coordination Sequence:
#
# PCOD9243951 Si02
#       5
#     4   4   4   4   4
#     4   9  19  36  63  87 126 167 204 260 309 382
#     4   9  21  38  64  89 130 165 208 263 318 373
#     4  10  22  43  63  89 125 171 205 261 320 377
#     4  10  20  39  62  96 126 167 214 260 322 372
#     4  10  23  39  67  90 130 162 213 262 309 380
#
# _framework density 22.253882000000001
#
# number of rings (size 3 to 8) (size 9 to 14) (size 15 to 20)
#    1.200    1.200    0.000    1.800    5.600    0.000 
#    3.600    4.000    0.000    0.000    0.000    0.000 
#    0.000    0.000    0.000    0.000    0.000    0.000 
#
# Total GULP energy -111411.601284 kJ/mol
# GULP energy per Si atom -5570.580064 kJ/mol
# Density = 2.220323 g / cm^3
# Si number density = 22.253882 Si / 1000 Ang^3
#
#
#
# Elastic Constant Matrix: (Units=GPa)
#
#
# Indices 1 2 3 4 5 6 
#
# 1 84.6037 0.6867 6.3416 0.0000 -15.8375 0.0000
# 2 0.6867 17.3424 8.1242 0.0000 -1.3658 0.0000
# 3 6.3416 8.1242 95.5797 0.0000 -18.7855 0.0000
# 4 0.0000 0.0000 0.0000 22.0765 0.0000 -3.6070
# 5 -15.8375 -1.3658 -18.7855 0.0000 35.2954 0.0000
# 6 0.0000 0.0000 0.0000 -3.6070 0.0000 22.4573
#
#
#
# Elastic Compliance Matrix: (Units=1/GPa)
#
#
# Indices 1 2 3 4 5 6 
#
# 1 0.012913 -0.000197 0.000332 0.000000 0.005963 0.000000
# 2 -0.000197 0.060063 -0.005196 0.000000 -0.000530 0.000000
# 3 0.000332 -0.005196 0.012142 0.000000 0.006410 0.000000
# 4 0.000000 0.000000 0.000000 0.046518 0.000000 0.007472
# 5 0.005963 -0.000530 0.006410 0.000000 0.034399 0.000000
# 6 0.000000 0.000000 0.000000 0.007472 0.000000 0.045729
#
#
# Mechanical properties :
#
#
# Convention : Reuss Voigt Hill
#
# Bulk Modulus (GPa) = 13.33433 25.31452 19.32442
# Shear Modulus (GPa) = 20.25236 28.12406 24.18821
#
# Velocity S-wave (km/s) = 3.01999 3.55883 3.30042
# Velocity P-wave (km/s) = 4.26209 5.31856 4.81936
#
# Compressibility (1/GPa) = 0.07499438
#
# Stress axis : x y z
#
# Youngs Moduli (GPa) = 77.44240 16.64931 82.35846
#
# Poissons Ratio (x) = 0.00328 -0.02735
# Poissons Ratio (y) = 0.01527 0.42796
# Poissons Ratio (z) = -0.02571 0.08652
#
# Static dielectric constant tensor:
#      x y z
#    x 1.904060 0.000000 -0.008200 
#    y 0.000000 1.878720 0.000000 
#    z -0.008200 0.000000 1.823430 
# 
# From -- ./inp_files/36869.got.cif
#   From: 2010.05.17/outbox.cif.g08.bks.cpg/sg14_19_cif.got.tgz:36869.got - 2010.06.03 17:49:19.
