data_PCOD9243190
_publ_section_title
;
Structure prediction by ZEFSAII (Michael W. Deem and Ramdas Pophale) SiO2 
 PCOD9243190
Probable space group: P 21/C
;
_chemical_formula_sum "Si O2"
_cell_formula_units_Z 28
_cell_length_a 12.276328
_cell_length_b 7.721110
_cell_length_c 13.665653
_cell_angle_alpha 90.000000
_cell_angle_beta 119.887430
_cell_angle_gamma 90.000000
_cell_volume 1123.054313
_symmetry_space_group_name_H-M "P 21/C"
_symmetry_group_IT_number 14
_symmetry_cell_setting 'monoclinic'
loop_
_space_group_symop_operation_xyz
x,y,z
-x,1/2+y,1/2-z
-x,-y,-z
x,1/2-y,1/2+z
loop_
_atom_site_type_symbol
_atom_site_label
_atom_site_fract_x
_atom_site_fract_y
_atom_site_fract_z
Si Si1 0.397808 0.020306 0.168479
Si Si2 0.968871 0.813904 0.905707
Si Si3 0.775647 0.395569 0.243844
Si Si4 0.181699 0.363585 0.304092
Si Si5 0.692359 0.044962 0.299775
Si Si6 0.236941 0.801438 0.960241
Si Si7 0.787154 0.810881 0.490244
O O1 0.341198 0.984637 0.250805
O O2 0.543923 0.061733 0.235791
O O3 0.326870 0.183856 0.089870
O O4 0.358053 0.858973 0.079114
O O5 0.944543 0.664782 0.813203
O O6 0.904346 0.757990 0.978163
O O7 0.116799 0.819564 0.977823
O O8 0.895191 0.983349 0.828944
O O9 0.756014 0.346388 0.120567
O O10 0.768661 0.204479 0.289597
O O11 0.280859 0.382442 0.260801
O O12 0.202013 0.530984 0.377380
O O13 0.192141 0.209780 0.386151
O O14 0.748900 0.995724 0.429953
#
# Coordination Sequence:
#
# PCOD9243190 Si02
#       7
#     4   4   4   4   4   4   4
#     4  10  21  36  58  84 115 153 189 230 284 341
#     4  10  20  37  57  84 115 147 193 238 281 338
#     4  10  22  36  58  88 114 146 192 238 282 332
#     4   9  20  36  57  81 112 153 188 232 290 334
#     4  10  20  37  57  84 115 147 193 238 281 338
#     4  10  21  36  58  84 115 153 189 230 284 341
#     4   9  20  36  57  81 112 153 188 232 290 334
#
# _framework density 24.932009999999998
#
# number of rings (size 3 to 8) (size 9 to 14) (size 15 to 20)
#    0.000    2.286    0.000    1.714    0.000   13.714 
#    0.000    0.000    0.000   27.429    0.000    0.000 
#    0.000    0.000    0.000    0.000    0.000    0.000 
#
# Total GULP energy -156394.565941 kJ/mol
# GULP energy per Si atom -5585.520212 kJ/mol
# Density = 2.487526 g / cm^3
# Si number density = 24.932010 Si / 1000 Ang^3
#
#
#
# Elastic Constant Matrix: (Units=GPa)
#
#
# Indices 1 2 3 4 5 6 
#
# 1 70.5340 5.2339 70.9212 0.0000 -11.1525 0.0000
# 2 5.2339 73.0052 24.0812 0.0000 -8.2504 0.0000
# 3 70.9212 24.0812 126.0549 0.0000 -21.1549 0.0000
# 4 0.0000 0.0000 0.0000 47.7930 0.0000 -9.2937
# 5 -11.1525 -8.2504 -21.1549 0.0000 27.5215 0.0000
# 6 0.0000 0.0000 0.0000 -9.2937 0.0000 23.3818
#
#
#
# Elastic Compliance Matrix: (Units=1/GPa)
#
#
# Indices 1 2 3 4 5 6 
#
# 1 0.033762 0.004083 -0.019832 0.000000 -0.000339 0.000000
# 2 0.004083 0.015272 -0.004786 0.000000 0.002554 0.000000
# 3 -0.019832 -0.004786 0.021143 0.000000 0.006781 0.000000
# 4 0.000000 0.000000 0.000000 0.022676 0.000000 0.009013
# 5 -0.000339 0.002554 0.006781 0.000000 0.042176 0.000000
# 6 0.000000 0.000000 0.000000 0.009013 0.000000 0.046351
#
#
# Mechanical properties :
#
#
# Convention : Reuss Voigt Hill
#
# Bulk Modulus (GPa) = 34.35592 52.22965 43.29278
# Shear Modulus (GPa) = 21.53751 31.02979 26.28365
#
# Velocity S-wave (km/s) = 2.94232 3.53168 3.25039
# Velocity P-wave (km/s) = 5.03515 6.13390 5.61148
#
# Compressibility (1/GPa) = 0.02910707
#
# Stress axis : x y z
#
# Youngs Moduli (GPa) = 29.61912 65.47797 47.29625
#
# Poissons Ratio (x) = -0.26734 0.93798
# Poissons Ratio (y) = -0.12093 0.22637
# Poissons Ratio (z) = 0.58741 0.31339
#
# Static dielectric constant tensor:
#      x y z
#    x 1.922870 0.000000 -0.055850 
#    y 0.000000 2.202440 0.000000 
#    z -0.055850 0.000000 1.991540 
# 
# From -- ./inp_files/35647.got.cif
#   From: 2010.05.17/outbox.cif.g08.bks.cpg/sg14_18_cif.got.tgz:35647.got - 2010.06.03 17:49:19.
