data_PCOD9243520
_publ_section_title
;
Structure prediction by ZEFSAII (Michael W. Deem and Ramdas Pophale) SiO2 
 PCOD9243520
Probable space group: P 21/C
;
_chemical_formula_sum "Si O2"
_cell_formula_units_Z 28
_cell_length_a 5.439518
_cell_length_b 17.648732
_cell_length_c 14.710180
_cell_angle_alpha 90.000000
_cell_angle_beta 63.708091
_cell_angle_gamma 90.000000
_cell_volume 1266.093966
_symmetry_space_group_name_H-M "P 21/C"
_symmetry_group_IT_number 14
_symmetry_cell_setting 'monoclinic'
loop_
_space_group_symop_operation_xyz
x,y,z
-x,1/2+y,1/2-z
-x,-y,-z
x,1/2-y,1/2+z
loop_
_atom_site_type_symbol
_atom_site_label
_atom_site_fract_x
_atom_site_fract_y
_atom_site_fract_z
Si Si1 0.811188 0.742188 0.227015
Si Si2 0.097262 0.326914 0.473902
Si Si3 0.982443 0.894081 0.587122
Si Si4 0.236929 0.449549 0.060304
Si Si5 0.306047 0.801758 0.408082
Si Si6 0.112105 0.632844 0.762711
Si Si7 0.391120 0.582647 0.541714
O O1 0.774753 0.791434 0.140065
O O2 0.855438 0.657125 0.186251
O O3 0.570540 0.753259 0.338689
O O4 0.074528 0.783110 0.227999
O O5 0.340883 0.363839 0.491614
O O6 0.944770 0.258017 0.548557
O O7 0.851219 0.384124 0.483176
O O8 0.811779 0.899394 0.521396
O O9 0.259848 0.849340 0.508487
O O10 0.016998 0.981648 0.606014
O O11 0.184680 0.399848 0.158220
O O12 0.500000 0.500000 0.000000
O O13 0.268668 0.859855 0.331347
O O14 0.254522 0.582840 0.664034
O O15 0.500000 0.500000 0.500000
#
# Coordination Sequence:
#
# PCOD9243520 Si02
#       7
#     4   4   4   4   4   4   4
#     4  10  20  38  59  88 119 162 205 260 306 381
#     4  10  23  40  64  91 122 165 211 259 316 372
#     4   9  21  37  57  88 119 154 204 253 310 372
#     4  10  20  39  59  87 120 159 200 258 315 369
#     4  10  20  38  62  86 121 162 204 260 312 366
#     4  10  22  38  63  86 124 168 206 257 320 373
#     4  11  23  44  63  92 128 169 209 260 316 384
#
# _framework density 22.115261
#
# number of rings (size 3 to 8) (size 9 to 14) (size 15 to 20)
#    0.000    2.000    1.429    1.286    2.000    2.286 
#   10.286    0.000    0.000    0.000    0.000    0.000 
#    0.000    0.000    0.000    0.000    0.000    0.000 
#
# Total GULP energy -156183.731427 kJ/mol
# GULP energy per Si atom -5577.990408 kJ/mol
# Density = 2.206493 g / cm^3
# Si number density = 22.115261 Si / 1000 Ang^3
#
#
#
# Elastic Constant Matrix: (Units=GPa)
#
#
# Indices 1 2 3 4 5 6 
#
# 1 72.7443 21.1373 20.3804 0.0000 -8.8101 0.0000
# 2 21.1373 99.3877 40.1055 0.0000 0.0605 0.0000
# 3 20.3804 40.1055 90.1184 0.0000 -12.0030 0.0000
# 4 0.0000 0.0000 0.0000 39.3405 0.0000 -0.7158
# 5 -8.8101 0.0605 -12.0030 0.0000 24.6621 0.0000
# 6 0.0000 0.0000 0.0000 -0.7158 0.0000 33.5865
#
#
#
# Elastic Compliance Matrix: (Units=1/GPa)
#
#
# Indices 1 2 3 4 5 6 
#
# 1 0.015563 -0.002616 -0.001726 0.000000 0.004726 0.000000
# 2 -0.002616 0.012897 -0.005642 0.000000 -0.003712 0.000000
# 3 -0.001726 -0.005642 0.014882 0.000000 0.006641 0.000000
# 4 0.000000 0.000000 0.000000 0.025429 0.000000 0.000542
# 5 0.004726 -0.003712 0.006641 0.000000 0.045477 0.000000
# 6 0.000000 0.000000 0.000000 0.000542 0.000000 0.029785
#
#
# Mechanical properties :
#
#
# Convention : Reuss Voigt Hill
#
# Bulk Modulus (GPa) = 42.78377 47.27745 45.03061
# Shear Modulus (GPa) = 29.10456 31.55962 30.33209
#
# Velocity S-wave (km/s) = 3.63166 3.78173 3.70746
# Velocity P-wave (km/s) = 6.08055 6.36340 6.22358
#
# Compressibility (1/GPa) = 0.02337335
#
# Stress axis : x y z
#
# Youngs Moduli (GPa) = 64.25545 77.53636 67.19382
#
# Poissons Ratio (x) = 0.20286 0.11596
# Poissons Ratio (y) = 0.16811 0.37914
# Poissons Ratio (z) = 0.11089 0.43749
#
# Static dielectric constant tensor:
#      x y z
#    x 1.943500 0.000000 -0.056640 
#    y 0.000000 1.826690 0.000000 
#    z -0.056640 0.000000 1.817130 
# 
# From -- ./inp_files/37641.got.cif
#   From: 2010.05.17/outbox.cif.g08.bks.cpg/sg14_19_cif.got.tgz:37641.got - 2010.06.03 17:49:19.
