data_PCOD9243136
_publ_section_title
;
Structure prediction by ZEFSAII (Michael W. Deem and Ramdas Pophale) SiO2 
 PCOD9243136
Probable space group: P 21/C
;
_chemical_formula_sum "Si O2"
_cell_formula_units_Z 30
_cell_length_a 12.361417
_cell_length_b 13.811138
_cell_length_c 10.075132
_cell_angle_alpha 90.000000
_cell_angle_beta 38.312292
_cell_angle_gamma 90.000000
_cell_volume 1066.358649
_symmetry_space_group_name_H-M "P 21/C"
_symmetry_group_IT_number 14
_symmetry_cell_setting 'monoclinic'
loop_
_space_group_symop_operation_xyz
x,y,z
-x,1/2+y,1/2-z
-x,-y,-z
x,1/2-y,1/2+z
loop_
_atom_site_type_symbol
_atom_site_label
_atom_site_fract_x
_atom_site_fract_y
_atom_site_fract_z
Si Si1 0.253264 0.076664 0.235415
Si Si2 0.815287 0.624767 0.617427
Si Si3 0.640151 0.763942 0.057735
Si Si4 0.500000 0.000000 0.500000
Si Si5 0.632321 0.957860 0.594304
Si Si6 0.751361 0.262116 0.960858
Si Si7 0.057435 0.711347 0.979127
Si Si8 0.775719 0.045512 0.002739
O O1 0.341029 0.024209 0.276935
O O2 0.064436 0.121934 0.452253
O O3 0.241342 0.003042 0.124405
O O4 0.357736 0.171492 0.078977
O O5 0.778058 0.682283 0.517923
O O6 0.928646 0.695494 0.596964
O O7 0.885845 0.522489 0.492455
O O8 0.622205 0.599052 0.857211
O O9 0.691431 0.652054 0.026699
O O10 0.448665 0.770976 0.305564
O O11 0.328586 0.964128 0.555422
O O12 0.424702 0.956365 0.742613
O O13 0.814992 0.155841 0.952728
O O14 0.793689 0.247294 0.765893
O O15 0.865769 0.323609 0.954279
#
# Coordination Sequence:
#
# PCOD9243136 Si02
#       8
#     4   4   4   2   4   4   4   4
#     4  11  22  41  74  97 134 187 250 292 348 430
#     4  10  21  43  71  99 135 179 243 289 344 421
#     4  10  22  41  71  98 130 185 244 299 339 418
#     4  10  22  36  62 110 132 166 234 302 360 386
#     4  10  20  36  65  99 134 170 231 308 341 413
#     4  11  27  44  67 103 149 185 231 298 368 436
#     4  12  26  44  71 104 142 193 232 286 367 439
#     4   9  22  42  64  98 136 176 232 296 351 410
#
# _framework density 28.133123000000001
#
# number of rings (size 3 to 8) (size 9 to 14) (size 15 to 20)
#    0.000    1.600    1.333    2.800    5.600    3.200 
#    0.000    1.333    0.000    0.000    0.000    0.000 
#    0.000    0.000    0.000    0.000    0.000    0.000 
#
# Total GULP energy -167280.337843 kJ/mol
# GULP energy per Si atom -5576.011261 kJ/mol
# Density = 2.806909 g / cm^3
# Si number density = 28.133123 Si / 1000 Ang^3
#
#
#
# Elastic Constant Matrix: (Units=GPa)
#
#
# Indices 1 2 3 4 5 6 
#
# 1 151.3099 -12.0721 25.1266 0.0000 36.2361 0.0000
# 2 -12.0721 50.7073 -8.6873 0.0000 3.8682 0.0000
# 3 25.1266 -8.6873 135.3867 0.0000 12.2400 0.0000
# 4 0.0000 0.0000 0.0000 44.8484 0.0000 3.1681
# 5 36.2361 3.8682 12.2400 0.0000 40.4414 0.0000
# 6 0.0000 0.0000 0.0000 3.1681 0.0000 32.7933
#
#
#
# Elastic Compliance Matrix: (Units=1/GPa)
#
#
# Indices 1 2 3 4 5 6 
#
# 1 0.008842 0.002581 -0.000758 0.000000 -0.007940 0.000000
# 2 0.002581 0.020915 0.001288 0.000000 -0.004703 0.000000
# 3 -0.000758 0.001288 0.007772 0.000000 -0.001797 0.000000
# 4 0.000000 0.000000 0.000000 0.022451 0.000000 -0.002169
# 5 -0.007940 -0.004703 -0.001797 0.000000 0.032835 0.000000
# 6 0.000000 0.000000 0.000000 -0.002169 0.000000 0.030704
#
#
# Mechanical properties :
#
#
# Convention : Reuss Voigt Hill
#
# Bulk Modulus (GPa) = 22.85580 38.45983 30.65781
# Shear Modulus (GPa) = 37.91339 45.81907 41.86623
#
# Velocity S-wave (km/s) = 3.67501 4.04003 3.86184
# Velocity P-wave (km/s) = 5.11365 5.95507 5.55032
#
# Compressibility (1/GPa) = 0.04375258
#
# Stress axis : x y z
#
# Youngs Moduli (GPa) = 113.09331 47.81263 128.66805
#
# Poissons Ratio (x) = -0.12341 0.09747
# Poissons Ratio (y) = -0.29190 -0.16575
# Poissons Ratio (z) = 0.08567 -0.06159
#
# Static dielectric constant tensor:
#      x y z
#    x 2.287390 0.000000 0.158490 
#    y 0.000000 2.377060 0.000000 
#    z 0.158490 0.000000 2.543160 
# 
# From -- ./inp_files/32600.got.cif
#   From: 2010.05.17/outbox.cif.g08.bks.cpg/sg14_17_cif.got.tgz:32600.got - 2010.06.03 17:49:19.
