data_PCOD9243147
_publ_section_title
;
Structure prediction by ZEFSAII (Michael W. Deem and Ramdas Pophale) SiO2 
 PCOD9243147
Probable space group: P 21/C
;
_chemical_formula_sum "Si O2"
_cell_formula_units_Z 28
_cell_length_a 7.849695
_cell_length_b 13.879300
_cell_length_c 12.057206
_cell_angle_alpha 90.000000
_cell_angle_beta 107.688358
_cell_angle_gamma 90.000000
_cell_volume 1251.508447
_symmetry_space_group_name_H-M "P 21/C"
_symmetry_group_IT_number 14
_symmetry_cell_setting 'monoclinic'
loop_
_space_group_symop_operation_xyz
x,y,z
-x,1/2+y,1/2-z
-x,-y,-z
x,1/2-y,1/2+z
loop_
_atom_site_type_symbol
_atom_site_label
_atom_site_fract_x
_atom_site_fract_y
_atom_site_fract_z
Si Si1 0.342579 0.622806 0.511739
Si Si2 0.091397 0.490827 0.317501
Si Si3 0.600052 0.292283 0.122218
Si Si4 0.089290 0.804148 0.139239
Si Si5 0.288013 0.946727 0.540047
Si Si6 0.068208 0.113970 0.397617
Si Si7 0.404701 0.071789 0.739944
O O1 0.230717 0.544235 0.423419
O O2 0.445276 0.692834 0.447314
O O3 0.205605 0.692544 0.550649
O O4 0.465879 0.574948 0.629120
O O5 0.975919 0.570431 0.231255
O O6 0.203591 0.433454 0.245587
O O7 0.973848 0.412852 0.355838
O O8 0.778053 0.277448 0.232931
O O9 0.454590 0.335089 0.177693
O O10 0.640267 0.374460 0.038128
O O11 0.926274 0.729007 0.104062
O O12 0.108261 0.905646 0.561536
O O13 0.422453 0.977468 0.665089
O O14 0.227111 0.048876 0.475266
#
# Coordination Sequence:
#
# PCOD9243147 Si02
#       7
#     4   4   4   4   4   4   4
#     4  11  23  41  65  93 128 171 207 263 316 383
#     4  11  22  42  63  94 134 158 212 268 319 369
#     4  11  21  40  66  91 125 169 220 248 317 394
#     4  11  22  39  65  96 121 170 219 254 325 378
#     4  10  20  40  62  91 127 163 212 266 311 373
#     4  10  20  36  66  94 119 163 212 271 309 366
#     4  10  25  38  61  91 125 171 208 252 322 374
#
# _framework density 22.373000999999999
#
# number of rings (size 3 to 8) (size 9 to 14) (size 15 to 20)
#    0.000    1.429    4.286    1.286    0.000    1.143 
#    0.000    2.857    0.000    0.000    0.000    0.000 
#    0.000    0.000    0.000    0.000    0.000    0.000 
#
# Total GULP energy -156523.535589 kJ/mol
# GULP energy per Si atom -5590.126271 kJ/mol
# Density = 2.232208 g / cm^3
# Si number density = 22.373001 Si / 1000 Ang^3
#
#
#
# Elastic Constant Matrix: (Units=GPa)
#
#
# Indices 1 2 3 4 5 6 
#
# 1 19.3706 7.7747 13.0521 0.0000 -3.5674 0.0000
# 2 7.7747 65.8007 32.5525 0.0000 4.7629 0.0000
# 3 13.0521 32.5525 105.5641 0.0000 -4.3397 0.0000
# 4 0.0000 0.0000 0.0000 18.2048 0.0000 -1.4057
# 5 -3.5674 4.7629 -4.3397 0.0000 19.7148 0.0000
# 6 0.0000 0.0000 0.0000 -1.4057 0.0000 28.7285
#
#
#
# Elastic Compliance Matrix: (Units=1/GPa)
#
#
# Indices 1 2 3 4 5 6 
#
# 1 0.059252 -0.005167 -0.005289 0.000000 0.010806 0.000000
# 2 -0.005167 0.019018 -0.005503 0.000000 -0.006741 0.000000
# 3 -0.005289 -0.005503 0.011947 0.000000 0.003002 0.000000
# 4 0.000000 0.000000 0.000000 0.055139 0.000000 0.002698
# 5 0.010806 -0.006741 0.003002 0.000000 0.054968 0.000000
# 6 0.000000 0.000000 0.000000 0.002698 0.000000 0.034941
#
#
# Mechanical properties :
#
#
# Convention : Reuss Voigt Hill
#
# Bulk Modulus (GPa) = 17.15240 33.05488 25.10364
# Shear Modulus (GPa) = 17.44502 22.48670 19.96586
#
# Velocity S-wave (km/s) = 2.79540 3.17374 2.99056
# Velocity P-wave (km/s) = 4.25467 5.31382 4.81347
#
# Compressibility (1/GPa) = 0.05830086
#
# Stress axis : x y z
#
# Youngs Moduli (GPa) = 16.87709 52.58130 83.70212
#
# Poissons Ratio (x) = 0.27168 0.44266
# Poissons Ratio (y) = 0.08720 0.46060
# Poissons Ratio (z) = 0.08925 0.28935
#
# Static dielectric constant tensor:
#      x y z
#    x 1.830810 0.000000 -0.012550 
#    y 0.000000 1.816850 0.000000 
#    z -0.012550 0.000000 1.854160 
# 
# From -- ./inp_files/24873.got.cif
#   From: 2010.05.17/outbox.cif.g08.bks.cpg/sg14_13_cif.got.tgz:24873.got - 2010.06.03 17:49:19.
