data_PCOD9243818
_publ_section_title
;
Structure prediction by ZEFSAII (Michael W. Deem and Ramdas Pophale) SiO2 
 PCOD9243818
Probable space group: P 21/C
;
_chemical_formula_sum "Si O2"
_cell_formula_units_Z 22
_cell_length_a 7.654603
_cell_length_b 8.320112
_cell_length_c 16.381976
_cell_angle_alpha 90.000000
_cell_angle_beta 131.575407
_cell_angle_gamma 90.000000
_cell_volume 780.491025
_symmetry_space_group_name_H-M "P 21/C"
_symmetry_group_IT_number 14
_symmetry_cell_setting 'monoclinic'
loop_
_space_group_symop_operation_xyz
x,y,z
-x,1/2+y,1/2-z
-x,-y,-z
x,1/2-y,1/2+z
loop_
_atom_site_type_symbol
_atom_site_label
_atom_site_fract_x
_atom_site_fract_y
_atom_site_fract_z
Si Si1 0.894886 0.926297 0.270184
Si Si2 0.110600 0.853753 0.586174
Si Si3 0.500000 0.500000 0.500000
Si Si4 0.611827 0.101430 0.894887
Si Si5 0.731451 0.778825 0.872139
Si Si6 0.423974 0.866646 0.407186
O O1 0.652105 0.927824 0.143529
O O2 0.826665 0.794531 0.317598
O O3 0.145618 0.892559 0.311092
O O4 0.903034 0.091146 0.325361
O O5 0.350907 0.776375 0.629215
O O6 0.944864 0.713967 0.502555
O O7 0.000000 0.000000 0.500000
O O8 0.262760 0.555237 0.483743
O O9 0.497355 0.693457 0.463238
O O10 0.633148 0.958039 0.838397
O O11 0.554057 0.649307 0.859662
O O12 0.500000 0.000000 0.500000
#
# Coordination Sequence:
#
# PCOD9243818 Si02
#       6
#     4   4   2   4   4   4
#     4  11  23  43  68 102 137 174 229 292 347 405
#     4  10  20  38  67  92 129 181 220 270 346 408
#     4  10  24  44  64  96 138 180 226 278 342 410
#     4  11  23  42  66 102 137 176 235 286 343 416
#     4  10  22  42  67  96 133 183 228 277 349 413
#     4  11  23  45  70  99 136 180 232 279 345 425
#
# _framework density 28.187384000000002
#
# number of rings (size 3 to 8) (size 9 to 14) (size 15 to 20)
#    0.000    1.455    1.818    3.818    2.545    1.455 
#    6.545    3.636    0.000    0.000    0.000    0.000 
#    0.000    0.000    0.000    0.000    0.000    0.000 
#
# Total GULP energy -122576.506707 kJ/mol
# GULP energy per Si atom -5571.659396 kJ/mol
# Density = 2.812323 g / cm^3
# Si number density = 28.187384 Si / 1000 Ang^3
#
#
#
# Elastic Constant Matrix: (Units=GPa)
#
#
# Indices 1 2 3 4 5 6 
#
# 1 82.0276 36.2549 7.8727 0.0000 6.7458 0.0000
# 2 36.2549 168.7827 26.4513 0.0000 -15.1550 0.0000
# 3 7.8727 26.4513 117.8858 0.0000 3.2557 0.0000
# 4 0.0000 0.0000 0.0000 43.6075 0.0000 -12.0209
# 5 6.7458 -15.1550 3.2557 0.0000 50.7911 0.0000
# 6 0.0000 0.0000 0.0000 -12.0209 0.0000 69.7692
#
#
#
# Elastic Compliance Matrix: (Units=1/GPa)
#
#
# Indices 1 2 3 4 5 6 
#
# 1 0.013849 -0.003205 -0.000129 0.000000 -0.002787 0.000000
# 2 -0.003205 0.007076 -0.001446 0.000000 0.002630 0.000000
# 3 -0.000129 -0.001446 0.008843 0.000000 -0.000981 0.000000
# 4 0.000000 0.000000 0.000000 0.024075 0.000000 0.004148
# 5 -0.002787 0.002630 -0.000981 0.000000 0.020906 0.000000
# 6 0.000000 0.000000 0.000000 0.004148 0.000000 0.015048
#
#
# Mechanical properties :
#
#
# Convention : Reuss Voigt Hill
#
# Bulk Modulus (GPa) = 49.48508 56.65044 53.06776
# Shear Modulus (GPa) = 47.12828 52.70802 49.91815
#
# Velocity S-wave (km/s) = 4.09340 4.32894 4.21282
# Velocity P-wave (km/s) = 6.31942 6.71772 6.52161
#
# Compressibility (1/GPa) = 0.02020811
#
# Stress axis : x y z
#
# Youngs Moduli (GPa) = 72.20670 141.32302 113.08367
#
# Poissons Ratio (x) = 0.45293 0.01456
# Poissons Ratio (y) = 0.23142 0.16355
# Poissons Ratio (z) = 0.00930 0.20440
#
# Static dielectric constant tensor:
#      x y z
#    x 2.447670 0.000000 0.028960 
#    y 0.000000 2.154950 0.000000 
#    z 0.028960 0.000000 2.588980 
# 
# From -- ./inp_files/72037.got.cif
#   From: 2010.05.17/outbox.cif.g08.bks.cpg/sg14_37_cif.got.tgz:72037.got - 2010.06.03 17:49:19.
