data_PCOD9243335
_publ_section_title
;
Structure prediction by ZEFSAII (Michael W. Deem and Ramdas Pophale) SiO2 
 PCOD9243335
Probable space group: P 21/C
;
_chemical_formula_sum "Si O2"
_cell_formula_units_Z 24
_cell_length_a 14.140010
_cell_length_b 8.490508
_cell_length_c 15.739720
_cell_angle_alpha 90.000000
_cell_angle_beta 27.695260
_cell_angle_gamma 90.000000
_cell_volume 878.248380
_symmetry_space_group_name_H-M "P 21/C"
_symmetry_group_IT_number 14
_symmetry_cell_setting 'monoclinic'
loop_
_space_group_symop_operation_xyz
x,y,z
-x,1/2+y,1/2-z
-x,-y,-z
x,1/2-y,1/2+z
loop_
_atom_site_type_symbol
_atom_site_label
_atom_site_fract_x
_atom_site_fract_y
_atom_site_fract_z
Si Si1 0.297304 0.222021 0.948382
Si Si2 0.425322 0.347415 0.668108
Si Si3 0.720616 0.576453 0.810591
Si Si4 0.175702 0.871191 0.359002
Si Si5 0.146395 0.801764 0.702137
Si Si6 0.308873 0.909004 0.839112
O O1 0.305980 0.303927 0.848754
O O2 0.471296 0.327220 0.854238
O O3 0.331236 0.036386 0.896859
O O4 0.071100 0.234219 0.165186
O O5 0.386969 0.531130 0.686377
O O6 0.647854 0.266506 0.503219
O O7 0.318351 0.259348 0.673552
O O8 0.850950 0.488024 0.777699
O O9 0.770974 0.512184 0.676119
O O10 0.500000 0.500000 0.000000
O O11 0.156423 0.776738 0.287261
O O12 0.172377 0.749612 0.441073
O O13 0.000000 0.000000 0.500000
#
# Coordination Sequence:
#
# PCOD9243335 Si02
#       6
#     4   4   4   4   4   4
#     4  11  22  40  61  85 127 161 207 257 326 385
#     4  10  20  37  61  88 125 156 209 260 309 378
#     4   8  18  37  61  89 120 158 212 260 310 367
#     4  11  21  36  63  92 121 167 213 256 316 374
#     4  10  21  37  62  88 120 164 208 257 312 374
#     4  10  23  38  62  90 127 170 208 269 324 383
#
# _framework density 27.327121999999999
#
# number of rings (size 3 to 8) (size 9 to 14) (size 15 to 20)
#    0.000    2.000    1.667    1.500    2.333    2.000 
#    0.000   10.000    3.667    0.000    0.000    0.000 
#    0.000    0.000    0.000    0.000    0.000    0.000 
#
# Total GULP energy -134061.159609 kJ/mol
# GULP energy per Si atom -5585.881650 kJ/mol
# Density = 2.726492 g / cm^3
# Si number density = 27.327122 Si / 1000 Ang^3
#
#
#
# Elastic Constant Matrix: (Units=GPa)
#
#
# Indices 1 2 3 4 5 6 
#
# 1 49.8351 40.8712 17.3470 0.0000 -5.5607 0.0000
# 2 40.8712 182.9099 29.7704 0.0000 -6.2987 0.0000
# 3 17.3470 29.7704 139.2102 0.0000 -22.8290 0.0000
# 4 0.0000 0.0000 0.0000 42.1353 0.0000 -4.2569
# 5 -5.5607 -6.2987 -22.8290 0.0000 29.5384 0.0000
# 6 0.0000 0.0000 0.0000 -4.2569 0.0000 56.1877
#
#
#
# Elastic Compliance Matrix: (Units=1/GPa)
#
#
# Indices 1 2 3 4 5 6 
#
# 1 0.025237 -0.005293 -0.001625 0.000000 0.002367 0.000000
# 2 -0.005293 0.006777 -0.000820 0.000000 -0.000185 0.000000
# 3 -0.001625 -0.000820 0.008568 0.000000 0.006141 0.000000
# 4 0.000000 0.000000 0.000000 0.023916 0.000000 0.001812
# 5 0.002367 -0.000185 0.006141 0.000000 0.039007 0.000000
# 6 0.000000 0.000000 0.000000 0.001812 0.000000 0.017935
#
#
# Mechanical properties :
#
#
# Convention : Reuss Voigt Hill
#
# Bulk Modulus (GPa) = 39.83065 60.88137 50.35601
# Shear Modulus (GPa) = 34.41516 44.50338 39.45927
#
# Velocity S-wave (km/s) = 3.55262 4.03990 3.80407
# Velocity P-wave (km/s) = 5.60672 6.63989 6.14506
#
# Compressibility (1/GPa) = 0.02510629
#
# Stress axis : x y z
#
# Youngs Moduli (GPa) = 39.62441 147.55686 116.70890
#
# Poissons Ratio (x) = 0.78106 0.18962
# Poissons Ratio (y) = 0.20974 0.09571
# Poissons Ratio (z) = 0.06438 0.12100
#
# Static dielectric constant tensor:
#      x y z
#    x 2.184210 0.000000 -0.064440 
#    y 0.000000 2.159970 0.000000 
#    z -0.064440 0.000000 2.244910 
# 
# From -- ./inp_files/74220.got.cif
#   From: 2010.05.17/outbox.cif.g08.bks.cpg/sg14_38_cif.got.tgz:74220.got - 2010.06.03 17:49:19.
