data_PCOD9243171
_publ_section_title
;
Structure prediction by ZEFSAII (Michael W. Deem and Ramdas Pophale) SiO2 
 PCOD9243171
Probable space group: P 21/C
;
_chemical_formula_sum "Si O2"
_cell_formula_units_Z 32
_cell_length_a 16.256114
_cell_length_b 7.898244
_cell_length_c 15.191367
_cell_angle_alpha 90.000000
_cell_angle_beta 145.381012
_cell_angle_gamma 90.000000
_cell_volume 1108.106606
_symmetry_space_group_name_H-M "P 21/C"
_symmetry_group_IT_number 14
_symmetry_cell_setting 'monoclinic'
loop_
_space_group_symop_operation_xyz
x,y,z
-x,1/2+y,1/2-z
-x,-y,-z
x,1/2-y,1/2+z
loop_
_atom_site_type_symbol
_atom_site_label
_atom_site_fract_x
_atom_site_fract_y
_atom_site_fract_z
Si Si1 0.951825 0.304601 0.551421
Si Si2 0.212971 0.033618 0.589931
Si Si3 0.311829 0.468095 0.656239
Si Si4 0.314721 0.891094 0.433570
Si Si5 0.201690 0.423660 0.285715
Si Si6 0.546790 0.328996 0.756383
Si Si7 0.034767 0.757138 0.149194
Si Si8 0.434435 0.211678 0.440461
O O1 0.855435 0.468414 0.491564
O O2 0.956940 0.299973 0.448632
O O3 0.107580 0.243822 0.723888
O O4 0.858960 0.143037 0.501067
O O5 0.173248 0.047554 0.656773
O O6 0.125104 0.188238 0.469520
O O7 0.380986 0.994015 0.725857
O O8 0.380031 0.369679 0.632983
O O9 0.400519 0.649144 0.736136
O O10 0.350477 0.353103 0.776647
O O11 0.377983 0.836428 0.581454
O O12 0.142266 0.896649 0.282755
O O13 0.396094 0.772481 0.432356
O O14 0.385800 0.063835 0.463183
O O15 0.133642 0.591900 0.265370
O O16 0.369028 0.375217 0.429703
#
# Coordination Sequence:
#
# PCOD9243171 Si02
#       8
#     4   4   4   4   4   4   4   4
#     4   8  15  33  57  85 107 137 182 241 276 312
#     4   8  17  33  57  80 110 144 184 230 276 330
#     4  10  20  37  56  79 113 151 189 234 279 337
#     4  10  21  37  53  78 117 151 177 228 299 329
#     4   9  18  32  61  88 105 137 197 236 270 333
#     4  10  22  37  56  80 115 154 191 233 290 341
#     4   9  16  35  59  81 108 147 182 225 284 341
#     4  10  21  36  55  82 115 145 183 240 283 324
#
# _framework density 28.87809
#
# number of rings (size 3 to 8) (size 9 to 14) (size 15 to 20)
#    0.000    2.750    1.250    1.500    3.500    1.000 
#    0.000    7.500    0.000    0.000    0.000    0.000 
#    0.000    0.000    0.000    0.000    0.000    0.000 
#
# Total GULP energy -178764.440139 kJ/mol
# GULP energy per Si atom -5586.388754 kJ/mol
# Density = 2.881236 g / cm^3
# Si number density = 28.878090 Si / 1000 Ang^3
#
#
#
# Elastic Constant Matrix: (Units=GPa)
#
#
# Indices 1 2 3 4 5 6 
#
# 1 113.4722 21.0864 49.4977 0.0000 14.7602 0.0000
# 2 21.0864 123.7275 -7.8090 0.0000 7.4962 0.0000
# 3 49.4977 -7.8090 95.7493 0.0000 39.7071 0.0000
# 4 0.0000 0.0000 0.0000 38.0397 0.0000 20.6053
# 5 14.7602 7.4962 39.7071 0.0000 57.2354 0.0000
# 6 0.0000 0.0000 0.0000 20.6053 0.0000 44.2695
#
#
#
# Elastic Compliance Matrix: (Units=1/GPa)
#
#
# Indices 1 2 3 4 5 6 
#
# 1 0.012320 -0.002729 -0.007612 0.000000 0.002461 0.000000
# 2 -0.002729 0.008920 0.003272 0.000000 -0.002735 0.000000
# 3 -0.007612 0.003272 0.019668 0.000000 -0.012110 0.000000
# 4 0.000000 0.000000 0.000000 0.035151 0.000000 -0.016361
# 5 0.002461 -0.002735 -0.012110 0.000000 0.025597 0.000000
# 6 0.000000 0.000000 0.000000 -0.016361 0.000000 0.030204
#
#
# Mechanical properties :
#
#
# Convention : Reuss Voigt Hill
#
# Bulk Modulus (GPa) = 37.35561 50.94436 44.14998
# Shear Modulus (GPa) = 32.27451 45.92051 39.09751
#
# Velocity S-wave (km/s) = 3.34670 3.99200 3.68350
# Velocity P-wave (km/s) = 5.28181 6.23919 5.78036
#
# Compressibility (1/GPa) = 0.02676974
#
# Stress axis : x y z
#
# Youngs Moduli (GPa) = 81.16693 112.11229 50.84386
#
# Poissons Ratio (x) = 0.30598 0.38704
# Poissons Ratio (y) = 0.22153 -0.16638
# Poissons Ratio (z) = 0.61786 -0.36687
#
# Static dielectric constant tensor:
#      x y z
#    x 2.233720 0.000000 0.060130 
#    y 0.000000 2.388320 0.000000 
#    z 0.060130 0.000000 2.327790 
# 
# From -- ./inp_files/69800.got.cif
#   From: 2010.05.17/outbox.cif.g08.bks.cpg/sg14_35_cif.got.tgz:69800.got - 2010.06.03 17:49:19.
