data_PCOD9243528
_publ_section_title
;
Structure prediction by ZEFSAII (Michael W. Deem and Ramdas Pophale) SiO2 
 PCOD9243528
Probable space group: P 21/C
;
_chemical_formula_sum "Si O2"
_cell_formula_units_Z 32
_cell_length_a 13.482998
_cell_length_b 7.558570
_cell_length_c 14.578302
_cell_angle_alpha 90.000000
_cell_angle_beta 65.913207
_cell_angle_gamma 90.000000
_cell_volume 1356.343563
_symmetry_space_group_name_H-M "P 21/C"
_symmetry_group_IT_number 14
_symmetry_cell_setting 'monoclinic'
loop_
_space_group_symop_operation_xyz
x,y,z
-x,1/2+y,1/2-z
-x,-y,-z
x,1/2-y,1/2+z
loop_
_atom_site_type_symbol
_atom_site_label
_atom_site_fract_x
_atom_site_fract_y
_atom_site_fract_z
Si Si1 0.958194 0.438163 0.915976
Si Si2 0.882368 0.072432 0.017190
Si Si3 0.349567 0.977548 0.346200
Si Si4 0.699994 0.900905 0.962897
Si Si5 0.441836 0.373901 0.326431
Si Si6 0.268939 0.000031 0.562715
Si Si7 0.258844 0.992974 0.765642
Si Si8 0.188197 0.099162 0.264093
O O1 0.855791 0.543240 0.916228
O O2 0.060690 0.439409 0.809644
O O3 0.908128 0.242929 0.947029
O O4 0.000000 0.500000 0.000000
O O5 0.818601 0.111252 0.135780
O O6 0.801339 0.940229 0.993675
O O7 0.000000 0.000000 0.000000
O O8 0.399982 0.173032 0.340282
O O9 0.325013 0.901644 0.456165
O O10 0.238067 0.010915 0.335619
O O11 0.434111 0.879329 0.249835
O O12 0.678500 0.693814 0.950534
O O13 0.742146 0.966785 0.848947
O O14 0.595062 0.957598 0.062296
O O15 0.371862 0.470854 0.273937
O O16 0.273454 0.911744 0.659855
O O17 0.204909 0.188509 0.770515
#
# Coordination Sequence:
#
# PCOD9243528 Si02
#       8
#     4   4   4   4   4   4   4   4
#     4  12  23  37  57  86 123 160 189 237 286 343
#     4  11  21  37  58  84 119 158 196 232 279 345
#     4  10  20  38  60  81 115 153 194 243 293 347
#     4   9  21  39  60  86 117 152 198 240 288 352
#     4   9  20  38  61  82 113 153 193 245 296 337
#     4  10  21  39  60  88 119 152 194 239 296 346
#     4   9  20  40  61  85 115 154 196 235 290 353
#     4  10  20  38  60  87 118 154 193 236 293 345
#
# _framework density 23.592843999999999
#
# number of rings (size 3 to 8) (size 9 to 14) (size 15 to 20)
#    0.000    2.000    2.500    1.500    1.750    3.000 
#    2.250    0.000    0.000    0.000    0.000    0.000 
#    0.000    0.000    0.000    0.000    0.000    0.000 
#
# Total GULP energy -178776.227868 kJ/mol
# GULP energy per Si atom -5586.757121 kJ/mol
# Density = 2.353915 g / cm^3
# Si number density = 23.592844 Si / 1000 Ang^3
#
#
#
# Elastic Constant Matrix: (Units=GPa)
#
#
# Indices 1 2 3 4 5 6 
#
# 1 29.1106 -4.6041 20.5449 0.0000 -16.8884 0.0000
# 2 -4.6041 48.7763 12.8722 0.0000 -2.6450 0.0000
# 3 20.5449 12.8722 165.4022 0.0000 0.4801 0.0000
# 4 0.0000 0.0000 0.0000 18.5336 0.0000 -8.5208
# 5 -16.8884 -2.6450 0.4801 0.0000 38.2047 0.0000
# 6 0.0000 0.0000 0.0000 -8.5208 0.0000 18.6153
#
#
#
# Elastic Compliance Matrix: (Units=1/GPa)
#
#
# Indices 1 2 3 4 5 6 
#
# 1 0.055892 0.008683 -0.007692 0.000000 0.025405 0.000000
# 2 0.008683 0.022364 -0.002835 0.000000 0.005422 0.000000
# 3 -0.007692 -0.002835 0.007233 0.000000 -0.003687 0.000000
# 4 0.000000 0.000000 0.000000 0.068337 0.000000 0.031280
# 5 0.025405 0.005422 -0.003687 0.000000 0.037827 0.000000
# 6 0.000000 0.000000 0.000000 0.031280 0.000000 0.068037
#
#
# Mechanical properties :
#
#
# Convention : Reuss Voigt Hill
#
# Bulk Modulus (GPa) = 12.22467 33.43502 22.82984
# Shear Modulus (GPa) = 17.20321 29.36913 23.28617
#
# Velocity S-wave (km/s) = 2.70325 3.53205 3.14507
# Velocity P-wave (km/s) = 3.86473 5.55304 4.78395
#
# Compressibility (1/GPa) = 0.08180183
#
# Stress axis : x y z
#
# Youngs Moduli (GPa) = 17.89152 44.71568 138.26245
#
# Poissons Ratio (x) = -0.38828 1.06352
# Poissons Ratio (y) = -0.15536 0.39194
# Poissons Ratio (z) = 0.13762 0.12676
#
# Static dielectric constant tensor:
#      x y z
#    x 1.873960 0.000000 -0.003730 
#    y 0.000000 1.989690 0.000000 
#    z -0.003730 0.000000 1.955960 
# 
# From -- ./inp_files/46485.got.cif
#   From: 2010.05.17/outbox.cif.g08.bks.cpg/sg14_24_cif.got.tgz:46485.got - 2010.06.03 17:49:19.
