data_PCOD9243663
_publ_section_title
;
Structure prediction by ZEFSAII (Michael W. Deem and Ramdas Pophale) SiO2 
 PCOD9243663
Probable space group: P 21/C
;
_chemical_formula_sum "Si O2"
_cell_formula_units_Z 28
_cell_length_a 20.463327
_cell_length_b 8.223096
_cell_length_c 15.373867
_cell_angle_alpha 90.000000
_cell_angle_beta 30.770446
_cell_angle_gamma 90.000000
_cell_volume 1323.503314
_symmetry_space_group_name_H-M "P 21/C"
_symmetry_group_IT_number 14
_symmetry_cell_setting 'monoclinic'
loop_
_space_group_symop_operation_xyz
x,y,z
-x,1/2+y,1/2-z
-x,-y,-z
x,1/2-y,1/2+z
loop_
_atom_site_type_symbol
_atom_site_label
_atom_site_fract_x
_atom_site_fract_y
_atom_site_fract_z
Si Si1 0.723961 0.339760 0.827242
Si Si2 0.624732 0.983582 0.918055
Si Si3 0.801685 0.942192 0.400398
Si Si4 0.456511 0.250187 0.344494
Si Si5 0.059766 0.515483 0.526907
Si Si6 0.463424 0.434277 0.165803
Si Si7 0.777257 0.781431 0.609863
O O1 0.777415 0.406371 0.859953
O O2 0.815679 0.381382 0.641231
O O3 0.693564 0.150740 0.860772
O O4 0.588296 0.427652 0.963031
O O5 0.728121 0.868085 0.753174
O O6 0.565254 0.904272 0.070964
O O7 0.500000 0.000000 0.000000
O O8 0.684824 0.826956 0.504359
O O9 0.790545 0.917308 0.518112
O O10 0.949782 0.902434 0.210554
O O11 0.506437 0.317397 0.196966
O O12 0.546036 0.115764 0.286317
O O13 0.102261 0.338256 0.514143
O O14 0.000000 0.500000 0.500000
O O15 0.336335 0.345131 0.282460
#
# Coordination Sequence:
#
# PCOD9243663 Si02
#       7
#     4   4   4   4   4   4   4
#     4  10  21  39  64  88 131 171 206 260 332 378
#     4  12  24  36  57 101 132 162 208 260 323 394
#     4   9  22  45  64  88 124 173 221 266 313 381
#     4  10  22  39  63  89 132 167 214 260 330 382
#     4  10  22  44  66  90 128 176 214 266 328 375
#     4  10  20  38  62  92 123 170 209 269 319 383
#     4  11  23  40  66  96 128 164 225 268 314 388
#
# _framework density 21.155971000000001
#
# number of rings (size 3 to 8) (size 9 to 14) (size 15 to 20)
#    0.000    1.714    1.429    3.429    6.000    2.286 
#    0.000   16.429    0.000    0.000    0.000    0.000 
#    0.000    0.000    0.000    0.000    0.000    0.000 
#
# Total GULP energy -156027.076105 kJ/mol
# GULP energy per Si atom -5572.395575 kJ/mol
# Density = 2.110782 g / cm^3
# Si number density = 21.155971 Si / 1000 Ang^3
#
#
#
# Elastic Constant Matrix: (Units=GPa)
#
#
# Indices 1 2 3 4 5 6 
#
# 1 54.5039 17.7153 16.3609 0.0000 -2.6900 0.0000
# 2 17.7153 95.8625 13.2147 0.0000 0.9413 0.0000
# 3 16.3609 13.2147 117.4299 0.0000 -7.6469 0.0000
# 4 0.0000 0.0000 0.0000 32.6774 0.0000 5.2154
# 5 -2.6900 0.9413 -7.6469 0.0000 17.0793 0.0000
# 6 0.0000 0.0000 0.0000 5.2154 0.0000 20.1831
#
#
#
# Elastic Compliance Matrix: (Units=1/GPa)
#
#
# Indices 1 2 3 4 5 6 
#
# 1 0.020272 -0.003455 -0.002282 0.000000 0.002362 0.000000
# 2 -0.003455 0.011207 -0.000881 0.000000 -0.001556 0.000000
# 3 -0.002282 -0.000881 0.009180 0.000000 0.003799 0.000000
# 4 0.000000 0.000000 0.000000 0.031919 0.000000 -0.008248
# 5 0.002362 -0.001556 0.003799 0.000000 0.060709 0.000000
# 6 0.000000 0.000000 0.000000 -0.008248 0.000000 0.051678
#
#
# Mechanical properties :
#
#
# Convention : Reuss Voigt Hill
#
# Bulk Modulus (GPa) = 36.46545 40.26424 38.36485
# Shear Modulus (GPa) = 24.11489 28.68833 26.40161
#
# Velocity S-wave (km/s) = 3.37985 3.68644 3.53647
# Velocity P-wave (km/s) = 5.70132 6.09862 5.90331
#
# Compressibility (1/GPa) = 0.02742322
#
# Stress axis : x y z
#
# Youngs Moduli (GPa) = 49.32974 89.23148 108.93014
#
# Poissons Ratio (x) = 0.30828 0.24856
# Poissons Ratio (y) = 0.17043 0.09598
# Poissons Ratio (z) = 0.11256 0.07862
#
# Static dielectric constant tensor:
#      x y z
#    x 1.818930 0.000000 0.001130 
#    y 0.000000 1.872100 0.000000 
#    z 0.001130 0.000000 1.839390 
# 
# From -- ./inp_files/50044.got.cif
#   From: 2010.05.17/outbox.cif.g08.bks.cpg/sg14_26_cif.got.tgz:50044.got - 2010.06.03 17:49:19.
