data_PCOD9243728
_publ_section_title
;
Structure prediction by ZEFSAII (Michael W. Deem and Ramdas Pophale) SiO2 
 PCOD9243728
Probable space group: P 21/C
;
_chemical_formula_sum "Si O2"
_cell_formula_units_Z 32
_cell_length_a 13.424964
_cell_length_b 8.687928
_cell_length_c 12.881449
_cell_angle_alpha 90.000000
_cell_angle_beta 118.517560
_cell_angle_gamma 90.000000
_cell_volume 1320.140854
_symmetry_space_group_name_H-M "P 21/C"
_symmetry_group_IT_number 14
_symmetry_cell_setting 'monoclinic'
loop_
_space_group_symop_operation_xyz
x,y,z
-x,1/2+y,1/2-z
-x,-y,-z
x,1/2-y,1/2+z
loop_
_atom_site_type_symbol
_atom_site_label
_atom_site_fract_x
_atom_site_fract_y
_atom_site_fract_z
Si Si1 0.577351 0.775670 0.053221
Si Si2 0.361502 0.681489 0.068334
Si Si3 0.023648 0.604273 0.680921
Si Si4 0.217000 0.450349 0.875969
Si Si5 0.663987 0.997741 0.929175
Si Si6 0.150338 0.262191 0.534430
Si Si7 0.704791 0.520765 0.783085
Si Si8 0.158718 0.887641 0.814647
O O1 0.459758 0.705188 0.032090
O O2 0.668916 0.639633 0.094919
O O3 0.582084 0.879240 0.950225
O O4 0.623622 0.891523 0.163860
O O5 0.367192 0.545878 0.157533
O O6 0.254689 0.608333 0.951777
O O7 0.374645 0.842638 0.140999
O O8 0.129481 0.486427 0.740000
O O9 0.072187 0.749194 0.766324
O O10 0.971408 0.657565 0.544089
O O11 0.921638 0.531345 0.696254
O O12 0.160756 0.338042 0.933030
O O13 0.751415 0.890552 0.912968
O O14 0.740734 0.085317 0.053832
O O15 0.192426 0.137775 0.637503
O O16 0.774217 0.386979 0.760459
#
# Coordination Sequence:
#
# PCOD9243728 Si02
#       8
#     4   4   4   4   4   4   4   4
#     4  10  22  41  62  87 123 166 201 252 304 355
#     4  11  21  40  65  91 119 160 207 254 303 352
#     4  11  19  37  64  87 113 161 201 249 296 359
#     4  10  20  38  64  89 117 156 215 251 284 362
#     4   9  19  38  63  90 117 153 213 253 283 362
#     4   9  20  38  59  88 125 159 187 248 313 356
#     4  10  24  42  56  90 132 158 195 253 312 368
#     4  10  21  38  63  88 117 156 204 245 306 361
#
# _framework density 24.239837999999999
#
# number of rings (size 3 to 8) (size 9 to 14) (size 15 to 20)
#    0.000    2.000    2.500    1.500    0.000    1.500 
#    4.500    3.125    0.000    0.000    0.000    0.000 
#    0.000    0.000    0.000    0.000    0.000    0.000 
#
# Total GULP energy -178312.436155 kJ/mol
# GULP energy per Si atom -5572.263630 kJ/mol
# Density = 2.418467 g / cm^3
# Si number density = 24.239838 Si / 1000 Ang^3
#
#
#
# Elastic Constant Matrix: (Units=GPa)
#
#
# Indices 1 2 3 4 5 6 
#
# 1 63.8948 51.8251 19.7963 0.0000 1.3600 0.0000
# 2 51.8251 130.4472 11.6063 0.0000 -7.5831 0.0000
# 3 19.7963 11.6063 39.0613 0.0000 0.1510 0.0000
# 4 0.0000 0.0000 0.0000 9.2550 0.0000 2.1426
# 5 1.3600 -7.5831 0.1510 0.0000 21.3415 0.0000
# 6 0.0000 0.0000 0.0000 2.1426 0.0000 35.8249
#
#
#
# Elastic Compliance Matrix: (Units=1/GPa)
#
#
# Indices 1 2 3 4 5 6 
#
# 1 0.027428 -0.010241 -0.010837 0.000000 -0.005310 0.000000
# 2 -0.010241 0.011871 0.001644 0.000000 0.004859 0.000000
# 3 -0.010837 0.001644 0.030600 0.000000 0.001058 0.000000
# 4 0.000000 0.000000 0.000000 0.109567 0.000000 -0.006553
# 5 -0.005310 0.004859 0.001058 0.000000 0.048914 0.000000
# 6 0.000000 0.000000 0.000000 -0.006553 0.000000 0.028305
#
#
# Mechanical properties :
#
#
# Convention : Reuss Voigt Hill
#
# Bulk Modulus (GPa) = 32.22563 44.42876 38.32719
# Shear Modulus (GPa) = 16.34532 23.29598 19.82065
#
# Velocity S-wave (km/s) = 2.59958 3.10346 2.86263
# Velocity P-wave (km/s) = 4.72586 5.58664 5.17418
#
# Compressibility (1/GPa) = 0.03103120
#
# Stress axis : x y z
#
# Youngs Moduli (GPa) = 36.45896 84.24005 32.67933
#
# Poissons Ratio (x) = 0.86273 0.35415
# Poissons Ratio (y) = 0.37339 -0.05374
# Poissons Ratio (z) = 0.39511 -0.13852
#
# Static dielectric constant tensor:
#      x y z
#    x 1.908520 0.000000 0.028780 
#    y 0.000000 2.231250 0.000000 
#    z 0.028780 0.000000 2.007560 
# 
# From -- ./inp_files/43784.got.cif
#   From: 2010.05.17/outbox.cif.g08.bks.cpg/sg14_22_cif.got.tgz:43784.got - 2010.06.03 17:49:19.
