data_PCOD9243012
_publ_section_title
;
Structure prediction by ZEFSAII (Michael W. Deem and Ramdas Pophale) SiO2 
 PCOD9243012
Probable space group: P 21/C
;
_chemical_formula_sum "Si O2"
_cell_formula_units_Z 28
_cell_length_a 12.976612
_cell_length_b 9.472984
_cell_length_c 11.553643
_cell_angle_alpha 90.000000
_cell_angle_beta 107.008013
_cell_angle_gamma 90.000000
_cell_volume 1358.140840
_symmetry_space_group_name_H-M "P 21/C"
_symmetry_group_IT_number 14
_symmetry_cell_setting 'monoclinic'
loop_
_space_group_symop_operation_xyz
x,y,z
-x,1/2+y,1/2-z
-x,-y,-z
x,1/2-y,1/2+z
loop_
_atom_site_type_symbol
_atom_site_label
_atom_site_fract_x
_atom_site_fract_y
_atom_site_fract_z
Si Si1 0.815804 0.389955 0.196351
Si Si2 0.055691 0.091971 0.113554
Si Si3 0.520901 0.749797 0.504122
Si Si4 0.596381 0.484950 0.168028
Si Si5 0.351350 0.981614 0.041332
Si Si6 0.967997 0.896995 0.388508
Si Si7 0.155293 0.581915 0.314272
O O1 0.848512 0.501775 0.304478
O O2 0.699557 0.445330 0.120692
O O3 0.917994 0.387298 0.143862
O O4 0.803969 0.226769 0.230741
O O5 0.072685 0.248455 0.075429
O O6 0.966665 0.109450 0.184179
O O7 0.000000 0.000000 0.000000
O O8 0.486437 0.858675 0.390718
O O9 0.609327 0.634838 0.492494
O O10 0.424181 0.646152 0.513152
O O11 0.555807 0.860208 0.616268
O O12 0.629147 0.479061 0.313910
O O13 0.232898 0.954532 0.947229
O O14 0.000000 0.000000 0.500000
O O15 0.867873 0.955407 0.280814
#
# Coordination Sequence:
#
# PCOD9243012 Si02
#       7
#     4   4   4   4   4   4   4
#     4  10  21  39  59  88 122 161 208 248 299 381
#     4  10  20  36  60  86 119 160 200 249 310 367
#     4  10  24  42  64  95 124 157 219 258 304 383
#     4  11  22  43  66  91 126 167 204 260 316 363
#     4  11  22  42  66  91 126 166 203 261 317 362
#     4  10  22  39  60  91 127 163 202 259 307 364
#     4  10  21  39  59  88 124 158 209 251 297 379
#
# _framework density 20.616416999999998
#
# number of rings (size 3 to 8) (size 9 to 14) (size 15 to 20)
#    0.000    1.714    1.429    2.571    2.000    2.286 
#    2.571    1.429    0.000    0.000    0.000    0.000 
#    0.000    0.000    0.000    0.000    0.000    0.000 
#
# Total GULP energy -155922.471091 kJ/mol
# GULP energy per Si atom -5568.659682 kJ/mol
# Density = 2.056949 g / cm^3
# Si number density = 20.616417 Si / 1000 Ang^3
#
#
#
# Elastic Constant Matrix: (Units=GPa)
#
#
# Indices 1 2 3 4 5 6 
#
# 1 35.5832 8.1934 -10.2333 0.0000 12.6097 0.0000
# 2 8.1934 160.9229 34.4092 0.0000 4.1208 0.0000
# 3 -10.2333 34.4092 67.1992 0.0000 7.0645 0.0000
# 4 0.0000 0.0000 0.0000 34.1841 0.0000 3.7523
# 5 12.6097 4.1208 7.0645 0.0000 24.6244 0.0000
# 6 0.0000 0.0000 0.0000 3.7523 0.0000 22.6795
#
#
#
# Elastic Compliance Matrix: (Units=1/GPa)
#
#
# Indices 1 2 3 4 5 6 
#
# 1 0.040038 -0.003673 0.010382 0.000000 -0.022866 0.000000
# 2 -0.003673 0.007316 -0.004510 0.000000 0.001950 0.000000
# 3 0.010382 -0.004510 0.019850 0.000000 -0.010256 0.000000
# 4 0.000000 0.000000 0.000000 0.029795 0.000000 -0.004929
# 5 -0.022866 0.001950 -0.010256 0.000000 0.054935 0.000000
# 6 0.000000 0.000000 0.000000 -0.004929 0.000000 0.044908
#
#
# Mechanical properties :
#
#
# Convention : Reuss Voigt Hill
#
# Bulk Modulus (GPa) = 13.96652 36.49377 25.23014
# Shear Modulus (GPa) = 23.11490 31.72001 27.41745
#
# Velocity S-wave (km/s) = 3.35205 3.92673 3.65071
# Velocity P-wave (km/s) = 4.66592 6.18859 5.48040
#
# Compressibility (1/GPa) = 0.07159981
#
# Stress axis : x y z
#
# Youngs Moduli (GPa) = 24.97655 136.69381 50.37850
#
# Poissons Ratio (x) = 0.50205 -0.52301
# Poissons Ratio (y) = 0.09173 0.22722
# Poissons Ratio (z) = -0.25930 0.61653
#
# Static dielectric constant tensor:
#      x y z
#    x 1.557690 0.000000 -0.066520 
#    y 0.000000 1.781990 0.000000 
#    z -0.066520 0.000000 1.676120 
# 
# From -- ./inp_files/31469.got.cif
#   From: 2010.05.17/outbox.cif.g08.bks.cpg/sg14_16_cif.got.tgz:31469.got - 2010.06.03 17:49:19.
