data_PCOD9243249
_publ_section_title
;
Structure prediction by ZEFSAII (Michael W. Deem and Ramdas Pophale) SiO2 
 PCOD9243249
Probable space group: P 21/C
;
_chemical_formula_sum "Si O2"
_cell_formula_units_Z 32
_cell_length_a 15.317988
_cell_length_b 9.861080
_cell_length_c 8.486829
_cell_angle_alpha 90.000000
_cell_angle_beta 97.419465
_cell_angle_gamma 90.000000
_cell_volume 1271.218356
_symmetry_space_group_name_H-M "P 21/C"
_symmetry_group_IT_number 14
_symmetry_cell_setting 'monoclinic'
loop_
_space_group_symop_operation_xyz
x,y,z
-x,1/2+y,1/2-z
-x,-y,-z
x,1/2-y,1/2+z
loop_
_atom_site_type_symbol
_atom_site_label
_atom_site_fract_x
_atom_site_fract_y
_atom_site_fract_z
Si Si1 0.900305 0.986069 0.773691
Si Si2 0.366343 0.669102 0.975341
Si Si3 0.464274 0.906377 0.196169
Si Si4 0.971764 0.797949 0.218204
Si Si5 0.203809 0.296690 0.540668
Si Si6 0.368868 0.404507 0.450260
Si Si7 0.130016 0.026433 0.592158
Si Si8 0.735402 0.370070 0.740032
O O1 0.968565 0.856959 0.776637
O O2 0.869982 0.011739 0.588732
O O3 0.817733 0.923658 0.850313
O O4 0.948177 0.122184 0.846453
O O5 0.434180 0.599865 0.869940
O O6 0.292265 0.727176 0.837952
O O7 0.419165 0.787068 0.081672
O O8 0.314600 0.601686 0.106915
O O9 0.566847 0.886458 0.182374
O O10 0.431470 0.046771 0.108613
O O11 0.882524 0.803620 0.092506
O O12 0.956336 0.898286 0.364133
O O13 0.298802 0.293629 0.483257
O O14 0.196921 0.152986 0.626102
O O15 0.303279 0.527227 0.395539
O O16 0.163649 0.903405 0.705190
#
# Coordination Sequence:
#
# PCOD9243249 Si02
#       8
#     4   4   4   4   4   4   4   4
#     4  10  22  38  63  90 123 162 207 253 316 372
#     4   9  20  39  58  83 124 159 196 260 303 368
#     4   9  20  37  57  85 122 156 203 250 304 365
#     4  10  20  42  60  88 125 161 204 259 311 372
#     4  10  21  38  62  87 123 160 201 258 306 362
#     4  10  20  37  59  86 117 160 203 254 303 361
#     4  10  21  38  60  90 121 159 200 259 301 368
#     4  10  20  39  61  84 121 157 204 255 309 359
#
# _framework density 25.172701
#
# number of rings (size 3 to 8) (size 9 to 14) (size 15 to 20)
#    0.000    2.250    1.250    0.750    1.750    1.500 
#    2.250    1.250    0.000    0.000    0.000    0.000 
#    0.000    0.000    0.000    0.000    0.000    0.000 
#
# Total GULP energy -178573.229250 kJ/mol
# GULP energy per Si atom -5580.413414 kJ/mol
# Density = 2.511541 g / cm^3
# Si number density = 25.172701 Si / 1000 Ang^3
#
#
#
# Elastic Constant Matrix: (Units=GPa)
#
#
# Indices 1 2 3 4 5 6 
#
# 1 83.2838 29.0355 10.6750 0.0000 -12.5627 0.0000
# 2 29.0355 58.3804 0.2447 0.0000 2.0136 0.0000
# 3 10.6750 0.2447 83.1533 0.0000 0.2833 0.0000
# 4 0.0000 0.0000 0.0000 26.5446 0.0000 -8.2561
# 5 -12.5627 2.0136 0.2833 0.0000 29.4284 0.0000
# 6 0.0000 0.0000 0.0000 -8.2561 0.0000 34.8008
#
#
#
# Elastic Compliance Matrix: (Units=1/GPa)
#
#
# Indices 1 2 3 4 5 6 
#
# 1 0.016339 -0.008378 -0.002099 0.000000 0.007568 0.000000
# 2 -0.008378 0.021466 0.001030 0.000000 -0.005055 0.000000
# 3 -0.002099 0.001030 0.012296 0.000000 -0.001085 0.000000
# 4 0.000000 0.000000 0.000000 0.040674 0.000000 0.009649
# 5 0.007568 -0.005055 -0.001085 0.000000 0.037568 0.000000
# 6 0.000000 0.000000 0.000000 0.009649 0.000000 0.031024
#
#
# Mechanical properties :
#
#
# Convention : Reuss Voigt Hill
#
# Bulk Modulus (GPa) = 32.04494 33.85866 32.95180
# Shear Modulus (GPa) = 26.50226 30.47891 28.49058
#
# Velocity S-wave (km/s) = 3.24823 3.48342 3.36788
# Velocity P-wave (km/s) = 5.17935 5.44598 5.31434
#
# Compressibility (1/GPa) = 0.03120617
#
# Stress axis : x y z
#
# Youngs Moduli (GPa) = 61.20442 46.58527 81.32685
#
# Poissons Ratio (x) = 0.39030 0.17068
# Poissons Ratio (y) = 0.51279 -0.08374
# Poissons Ratio (z) = 0.12845 -0.04797
#
# Static dielectric constant tensor:
#      x y z
#    x 2.083940 0.000000 -0.013400 
#    y 0.000000 2.026010 0.000000 
#    z -0.013400 0.000000 2.011380 
# 
# From -- ./inp_files/15556.got.cif
#   From: 2010.05.17/outbox.cif.g08.bks.cpg/sg14_8_cif.got.tgz:15556.got - 2010.06.03 17:49:19.
