data_PCOD9243434
_publ_section_title
;
Structure prediction by ZEFSAII (Michael W. Deem and Ramdas Pophale) SiO2 
 PCOD9243434
Probable space group: P 21/C
;
_chemical_formula_sum "Si O2"
_cell_formula_units_Z 20
_cell_length_a 11.673937
_cell_length_b 4.722283
_cell_length_c 16.250335
_cell_angle_alpha 90.000000
_cell_angle_beta 68.706366
_cell_angle_gamma 90.000000
_cell_volume 834.684772
_symmetry_space_group_name_H-M "P 21/C"
_symmetry_group_IT_number 14
_symmetry_cell_setting 'monoclinic'
loop_
_space_group_symop_operation_xyz
x,y,z
-x,1/2+y,1/2-z
-x,-y,-z
x,1/2-y,1/2+z
loop_
_atom_site_type_symbol
_atom_site_label
_atom_site_fract_x
_atom_site_fract_y
_atom_site_fract_z
Si Si1 0.880883 0.347818 0.070375
Si Si2 0.287458 0.283009 0.627773
Si Si3 0.270664 0.314831 0.447632
Si Si4 0.541616 0.311244 0.911002
Si Si5 0.066228 0.623583 0.763720
O O1 0.807089 0.102819 0.041696
O O2 0.919198 0.245054 0.150235
O O3 0.783991 0.600278 0.103988
O O4 0.000000 0.500000 0.000000
O O5 0.244636 0.197623 0.546914
O O6 0.383505 0.535302 0.584207
O O7 0.180972 0.437304 0.705043
O O8 0.359271 0.028557 0.654742
O O9 0.418223 0.299139 0.399167
O O10 0.500000 0.500000 0.000000
O O11 0.958832 0.387473 0.789404
#
# Coordination Sequence:
#
# PCOD9243434 Si02
#       5
#     4   4   4   4   4
#     4  12  24  40  62  92 124 162 206 257 314 369
#     4  11  21  39  65  93 123 163 208 253 304 373
#     4  11  21  39  63  91 123 160 205 256 303 366
#     4  10  20  37  64  94 122 161 207 251 305 372
#     4  12  25  43  63  90 125 166 210 261 317 376
#
# _framework density 23.961143
#
# number of rings (size 3 to 8) (size 9 to 14) (size 15 to 20)
#    0.000    0.800    0.000   11.400    0.000    0.000 
#    0.000    4.000    0.000    2.400    0.000    0.000 
#    0.000    0.000    0.000    0.000    0.000    0.000 
#
# Total GULP energy -111758.693759 kJ/mol
# GULP energy per Si atom -5587.934688 kJ/mol
# Density = 2.390661 g / cm^3
# Si number density = 23.961143 Si / 1000 Ang^3
#
#
#
# Elastic Constant Matrix: (Units=GPa)
#
#
# Indices 1 2 3 4 5 6 
#
# 1 135.5527 53.4961 29.2668 0.0000 0.7531 0.0000
# 2 53.4961 139.8295 0.0444 0.0000 1.9689 0.0000
# 3 29.2668 0.0444 45.2687 0.0000 2.4510 0.0000
# 4 0.0000 0.0000 0.0000 29.4825 0.0000 -2.8065
# 5 0.7531 1.9689 2.4510 0.0000 23.7149 0.0000
# 6 0.0000 0.0000 0.0000 -2.8065 0.0000 69.5546
#
#
#
# Elastic Compliance Matrix: (Units=1/GPa)
#
#
# Indices 1 2 3 4 5 6 
#
# 1 0.010408 -0.003990 -0.006763 0.000000 0.000700 0.000000
# 2 -0.003990 0.008689 0.002618 0.000000 -0.000865 0.000000
# 3 -0.006763 0.002618 0.026609 0.000000 -0.002753 0.000000
# 4 0.000000 0.000000 0.000000 0.034049 0.000000 0.001374
# 5 0.000700 -0.000865 -0.002753 0.000000 0.042502 0.000000
# 6 0.000000 0.000000 0.000000 0.001374 0.000000 0.014433
#
#
# Mechanical properties :
#
#
# Convention : Reuss Voigt Hill
#
# Bulk Modulus (GPa) = 33.97119 54.02948 44.00034
# Shear Modulus (GPa) = 30.71787 40.40663 35.56225
#
# Velocity S-wave (km/s) = 3.58437 4.11096 3.85666
# Velocity P-wave (km/s) = 5.59809 6.71797 6.18344
#
# Compressibility (1/GPa) = 0.02943671
#
# Stress axis : x y z
#
# Youngs Moduli (GPa) = 96.08031 115.08458 37.58117
#
# Poissons Ratio (x) = 0.45914 0.25416
# Poissons Ratio (y) = 0.38332 -0.09837
# Poissons Ratio (z) = 0.64978 -0.30125
#
# Static dielectric constant tensor:
#      x y z
#    x 2.054040 0.000000 -0.035100 
#    y 0.000000 1.921710 0.000000 
#    z -0.035100 0.000000 1.968060 
# 
# From -- ./inp_files/53981.got.cif
#   From: 2010.05.17/outbox.cif.g08.bks.cpg/sg14_27_cif.got.tgz:53981.got - 2010.06.03 17:49:19.
