data_PCOD9243093
_publ_section_title
;
Structure prediction by ZEFSAII (Michael W. Deem and Ramdas Pophale) SiO2 
 PCOD9243093
Probable space group: P 21/C
;
_chemical_formula_sum "Si O2"
_cell_formula_units_Z 32
_cell_length_a 17.047494
_cell_length_b 14.625816
_cell_length_c 13.028476
_cell_angle_alpha 90.000000
_cell_angle_beta 21.999359
_cell_angle_gamma 90.000000
_cell_volume 1216.851720
_symmetry_space_group_name_H-M "P 21/C"
_symmetry_group_IT_number 14
_symmetry_cell_setting 'monoclinic'
loop_
_space_group_symop_operation_xyz
x,y,z
-x,1/2+y,1/2-z
-x,-y,-z
x,1/2-y,1/2+z
loop_
_atom_site_type_symbol
_atom_site_label
_atom_site_fract_x
_atom_site_fract_y
_atom_site_fract_z
Si Si1 0.835767 0.297675 0.979538
Si Si2 0.736554 0.670032 0.879793
Si Si3 0.436476 0.089859 0.015964
Si Si4 0.710891 0.642079 0.517770
Si Si5 0.929787 0.417991 0.403824
Si Si6 0.842161 0.239159 0.241098
Si Si7 0.011710 0.571408 0.892917
Si Si8 0.458620 0.878965 0.523188
O O1 0.876621 0.189078 0.942222
O O2 0.827022 0.311590 0.867969
O O3 0.039825 0.345745 0.777975
O O4 0.629507 0.341515 0.277490
O O5 0.845097 0.588653 0.813470
O O6 0.935156 0.711737 0.577716
O O7 0.649378 0.752448 0.057448
O O8 0.571839 0.640534 0.993588
O O9 0.218722 0.119354 0.332856
O O10 0.000000 0.000000 0.500000
O O11 0.373067 0.079720 0.973023
O O12 0.500000 0.000000 0.000000
O O13 0.621686 0.606836 0.733331
O O14 0.737141 0.446303 0.711709
O O15 0.942718 0.463235 0.276864
O O16 0.666451 0.204004 0.378576
O O17 0.831198 0.347399 0.269994
#
# Coordination Sequence:
#
# PCOD9243093 Si02
#       8
#     4   4   4   4   4   4   4   4
#     4  10  21  40  66 103 143 189 243 316 381 439
#     4  10  20  36  63 107 141 185 233 317 377 427
#     4  12  27  43  69 104 145 205 248 300 385 462
#     4  11  22  38  67 106 149 185 243 310 385 448
#     4   9  23  41  67 103 146 188 250 316 378 445
#     4  10  20  40  66 105 146 183 242 308 377 441
#     4  11  26  48  67 103 158 203 249 309 378 467
#     4  11  21  37  70 108 145 184 236 316 388 439
#
# _framework density 26.297370000000001
#
# number of rings (size 3 to 8) (size 9 to 14) (size 15 to 20)
#    0.000    1.500    3.750    0.750    3.500    1.000 
#    2.250    0.000    0.000    1.500    0.000    0.000 
#    0.000    0.000    0.000    0.000    0.000    0.000 
#
# Total GULP energy -179124.207111 kJ/mol
# GULP energy per Si atom -5597.631472 kJ/mol
# Density = 2.623752 g / cm^3
# Si number density = 26.297370 Si / 1000 Ang^3
#
#
#
# Elastic Constant Matrix: (Units=GPa)
#
#
# Indices 1 2 3 4 5 6 
#
# 1 179.0125 26.4115 58.5855 0.0000 -17.9648 0.0000
# 2 26.4115 80.8336 21.1828 0.0000 -13.3826 0.0000
# 3 58.5855 21.1828 119.8241 0.0000 -6.5435 0.0000
# 4 0.0000 0.0000 0.0000 15.9128 0.0000 7.2026
# 5 -17.9648 -13.3826 -6.5435 0.0000 54.6624 0.0000
# 6 0.0000 0.0000 0.0000 7.2026 0.0000 44.2511
#
#
#
# Elastic Compliance Matrix: (Units=1/GPa)
#
#
# Indices 1 2 3 4 5 6 
#
# 1 0.006936 -0.001188 -0.003093 0.000000 0.001618 0.000000
# 2 -0.001188 0.013656 -0.001683 0.000000 0.002751 0.000000
# 3 -0.003093 -0.001683 0.010144 0.000000 -0.000214 0.000000
# 4 0.000000 0.000000 0.000000 0.067840 0.000000 -0.011042
# 5 0.001618 0.002751 -0.000214 0.000000 0.019474 0.000000
# 6 0.000000 0.000000 0.000000 -0.011042 0.000000 0.024396
#
#
# Mechanical properties :
#
#
# Convention : Reuss Voigt Hill
#
# Bulk Modulus (GPa) = 53.16925 65.78110 59.47517
# Shear Modulus (GPa) = 31.12502 41.19794 36.16148
#
# Velocity S-wave (km/s) = 3.44405 3.96235 3.71226
# Velocity P-wave (km/s) = 6.00647 6.78249 6.40624
#
# Compressibility (1/GPa) = 0.01880786
#
# Stress axis : x y z
#
# Youngs Moduli (GPa) = 144.17341 73.22908 98.58420
#
# Poissons Ratio (x) = 0.08698 0.30491
# Poissons Ratio (y) = 0.17125 0.16593
# Poissons Ratio (z) = 0.44591 0.12325
#
# Static dielectric constant tensor:
#      x y z
#    x 2.083650 0.000000 0.011380 
#    y 0.000000 2.144690 0.000000 
#    z 0.011380 0.000000 2.122020 
# 
# From -- ./inp_files/49333.got.cif
#   From: 2010.05.17/outbox.cif.g08.bks.cpg/sg14_25_cif.got.tgz:49333.got - 2010.06.03 17:49:19.
