data_PCOD9243784
_publ_section_title
;
Structure prediction by ZEFSAII (Michael W. Deem and Ramdas Pophale) SiO2 
 PCOD9243784
Probable space group: P 21/C
;
_chemical_formula_sum "Si O2"
_cell_formula_units_Z 30
_cell_length_a 26.108043
_cell_length_b 4.774272
_cell_length_c 17.841733
_cell_angle_alpha 90.000000
_cell_angle_beta 34.204957
_cell_angle_gamma 90.000000
_cell_volume 1250.185732
_symmetry_space_group_name_H-M "P 21/C"
_symmetry_group_IT_number 14
_symmetry_cell_setting 'monoclinic'
loop_
_space_group_symop_operation_xyz
x,y,z
-x,1/2+y,1/2-z
-x,-y,-z
x,1/2-y,1/2+z
loop_
_atom_site_type_symbol
_atom_site_label
_atom_site_fract_x
_atom_site_fract_y
_atom_site_fract_z
Si Si1 0.204312 0.028630 0.371705
Si Si2 0.349806 0.302174 0.813045
Si Si3 0.000000 0.000000 0.500000
Si Si4 0.701977 0.304934 0.524382
Si Si5 0.836425 0.051341 0.177196
Si Si6 0.855028 0.776881 0.793086
Si Si7 0.474938 0.941010 0.829020
Si Si8 0.062913 0.580705 0.172555
O O1 0.292176 0.143155 0.308394
O O2 0.226372 0.778197 0.288205
O O3 0.133541 0.909482 0.518739
O O4 0.152132 0.279487 0.390771
O O5 0.304827 0.496508 0.932939
O O6 0.456698 0.379599 0.685756
O O7 0.335864 0.988674 0.859009
O O8 0.802421 0.582742 0.795587
O O9 0.072138 0.728175 0.420850
O O10 0.794361 0.462898 0.392515
O O11 0.629680 0.350561 0.544867
O O12 0.940973 0.614288 0.142353
O O13 0.889481 0.579678 0.817346
O O14 0.516917 0.758083 0.709058
O O15 0.976671 0.381512 0.259095
#
# Coordination Sequence:
#
# PCOD9243784 Si02
#       8
#     4   4   2   4   4   4   4   4
#     4  12  24  45  63  95 128 171 218 272 335 389
#     4  10  20  38  65  99 133 166 211 278 342 390
#     4  12  26  46  64  84 124 174 228 262 324 382
#     4  10  21  37  65  99 131 166 220 274 330 394
#     4  12  28  45  65  89 129 180 219 263 327 403
#     4  12  27  44  68  93 132 175 224 269 330 399
#     4   8  16  33  59  95 132 164 203 268 339 394
#     4  12  28  41  64  93 125 161 222 284 328 376
#
# _framework density 23.996435999999999
#
# number of rings (size 3 to 8) (size 9 to 14) (size 15 to 20)
#    0.000    1.067    2.667    3.600    7.467    0.000 
#    0.000    0.000    0.000    1.600    0.000    0.000 
#    0.000    0.000    0.000    0.000    0.000    0.000 
#
# Total GULP energy -167458.672260 kJ/mol
# GULP energy per Si atom -5581.955742 kJ/mol
# Density = 2.394182 g / cm^3
# Si number density = 23.996436 Si / 1000 Ang^3
#
#
#
# Elastic Constant Matrix: (Units=GPa)
#
#
# Indices 1 2 3 4 5 6 
#
# 1 87.6911 11.1617 28.2979 0.0000 6.2384 0.0000
# 2 11.1617 107.0727 3.0702 0.0000 8.3986 0.0000
# 3 28.2979 3.0702 36.1691 0.0000 -4.7752 0.0000
# 4 0.0000 0.0000 0.0000 22.3815 0.0000 -8.8907
# 5 6.2384 8.3986 -4.7752 0.0000 27.2274 0.0000
# 6 0.0000 0.0000 0.0000 -8.8907 0.0000 35.5946
#
#
#
# Elastic Compliance Matrix: (Units=1/GPa)
#
#
# Indices 1 2 3 4 5 6 
#
# 1 0.016254 -0.000854 -0.013412 0.000000 -0.005813 0.000000
# 2 -0.000854 0.009670 -0.000533 0.000000 -0.002881 0.000000
# 3 -0.013412 -0.000533 0.039529 0.000000 0.010170 0.000000
# 4 0.000000 0.000000 0.000000 0.049601 0.000000 0.012389
# 5 -0.005813 -0.002881 0.010170 0.000000 0.040732 0.000000
# 6 0.000000 0.000000 0.000000 0.012389 0.000000 0.031189
#
#
# Mechanical properties :
#
#
# Convention : Reuss Voigt Hill
#
# Bulk Modulus (GPa) = 27.88991 35.11028 31.50010
# Shear Modulus (GPa) = 21.87965 29.60090 25.74028
#
# Velocity S-wave (km/s) = 3.02286 3.51601 3.27872
# Velocity P-wave (km/s) = 4.88173 5.58089 5.24298
#
# Compressibility (1/GPa) = 0.03585525
#
# Stress axis : x y z
#
# Youngs Moduli (GPa) = 61.52405 103.41586 25.29800
#
# Poissons Ratio (x) = 0.08830 0.33929
# Poissons Ratio (y) = 0.05253 0.01349
# Poissons Ratio (z) = 0.82514 0.05513
#
# Static dielectric constant tensor:
#      x y z
#    x 2.051030 0.000000 -0.111400 
#    y 0.000000 1.928260 0.000000 
#    z -0.111400 0.000000 1.925350 
# 
# From -- ./inp_files/61584.got.cif
#   From: 2010.05.17/outbox.cif.g08.bks.cpg/sg14_31_cif.got.tgz:61584.got - 2010.06.03 17:49:19.
