data_PCOD9243701
_publ_section_title
;
Structure prediction by ZEFSAII (Michael W. Deem and Ramdas Pophale) SiO2 
 PCOD9243701
Probable space group: P 21/C
;
_chemical_formula_sum "Si O2"
_cell_formula_units_Z 24
_cell_length_a 13.341824
_cell_length_b 13.273794
_cell_length_c 9.232410
_cell_angle_alpha 90.000000
_cell_angle_beta 139.174182
_cell_angle_gamma 90.000000
_cell_volume 1068.919013
_symmetry_space_group_name_H-M "P 21/C"
_symmetry_group_IT_number 14
_symmetry_cell_setting 'monoclinic'
loop_
_space_group_symop_operation_xyz
x,y,z
-x,1/2+y,1/2-z
-x,-y,-z
x,1/2-y,1/2+z
loop_
_atom_site_type_symbol
_atom_site_label
_atom_site_fract_x
_atom_site_fract_y
_atom_site_fract_z
Si Si1 0.544358 0.142052 0.462928
Si Si2 0.822325 0.622974 0.104269
Si Si3 0.234801 0.013777 0.172790
Si Si4 0.085077 0.562022 0.222507
Si Si5 0.320688 0.489458 0.303734
Si Si6 0.406502 0.291308 0.540578
O O1 0.698731 0.090720 0.689387
O O2 0.489132 0.233570 0.501686
O O3 0.395348 0.068233 0.308412
O O4 0.541531 0.173105 0.293744
O O5 0.847621 0.578847 0.292593
O O6 0.705648 0.714792 0.996692
O O7 0.971991 0.644179 0.169310
O O8 0.741808 0.533401 0.924101
O O9 0.133426 0.999099 0.919540
O O10 0.243261 0.579510 0.309983
O O11 0.000000 0.500000 0.000000
O O12 0.500000 0.500000 0.500000
O O13 0.302976 0.383002 0.369791
#
# Coordination Sequence:
#
# PCOD9243701 Si02
#       6
#     4   4   4   4   4   4
#     4  10  21  34  63  93 123 161 214 269 312 369
#     4  10  22  38  62  93 127 169 207 259 319 390
#     4  10  20  38  63  92 123 167 215 260 316 376
#     4  10  22  39  64  93 126 165 212 260 318 390
#     4  11  22  38  66  90 124 169 216 260 312 377
#     4  11  20  37  61  91 127 161 211 258 326 370
#
# _framework density 22.452591000000002
#
# number of rings (size 3 to 8) (size 9 to 14) (size 15 to 20)
#    0.000    1.667    3.333    1.500    4.667    0.000 
#    0.000    0.000   25.667    0.000    0.000    0.000 
#    0.000    0.000    0.000    0.000    0.000    0.000 
#
# Total GULP energy -133809.988823 kJ/mol
# GULP energy per Si atom -5575.416201 kJ/mol
# Density = 2.240149 g / cm^3
# Si number density = 22.452591 Si / 1000 Ang^3
#
#
#
# Elastic Constant Matrix: (Units=GPa)
#
#
# Indices 1 2 3 4 5 6 
#
# 1 69.4928 5.9650 21.3609 0.0000 8.3199 0.0000
# 2 5.9650 39.0926 17.8353 0.0000 -8.8022 0.0000
# 3 21.3609 17.8353 125.6698 0.0000 -35.5606 0.0000
# 4 0.0000 0.0000 0.0000 21.3838 0.0000 -1.8318
# 5 8.3199 -8.8022 -35.5606 0.0000 38.6794 0.0000
# 6 0.0000 0.0000 0.0000 -1.8318 0.0000 27.3550
#
#
#
# Elastic Compliance Matrix: (Units=1/GPa)
#
#
# Indices 1 2 3 4 5 6 
#
# 1 0.017239 -0.002303 -0.005137 0.000000 -0.008955 0.000000
# 2 -0.002303 0.028033 -0.002219 0.000000 0.004835 0.000000
# 3 -0.005137 -0.002219 0.012591 0.000000 0.012176 0.000000
# 4 0.000000 0.000000 0.000000 0.047034 0.000000 0.003150
# 5 -0.008955 0.004835 0.012176 0.000000 0.040074 0.000000
# 6 0.000000 0.000000 0.000000 0.003150 0.000000 0.036767
#
#
# Mechanical properties :
#
#
# Convention : Reuss Voigt Hill
#
# Bulk Modulus (GPa) = 25.94455 36.06416 31.00436
# Shear Modulus (GPa) = 23.37487 30.08989 26.73238
#
# Velocity S-wave (km/s) = 3.23007 3.66478 3.45427
# Velocity P-wave (km/s) = 5.04891 5.83136 5.45418
#
# Compressibility (1/GPa) = 0.03854374
#
# Stress axis : x y z
#
# Youngs Moduli (GPa) = 58.00793 35.67275 79.42254
#
# Poissons Ratio (x) = 0.08215 0.40803
# Poissons Ratio (y) = 0.13359 0.17623
# Poissons Ratio (z) = 0.29802 0.07916
#
# Static dielectric constant tensor:
#      x y z
#    x 1.909300 0.000000 0.041990 
#    y 0.000000 1.889080 0.000000 
#    z 0.041990 0.000000 1.851800 
# 
# From -- ./inp_files/16344.got.cif
#   From: 2010.05.17/outbox.cif.g08.bks.cpg/sg14_9_cif.got.tgz:16344.got - 2010.06.03 17:49:19.
