data_PCOD9243356
_publ_section_title
;
Structure prediction by ZEFSAII (Michael W. Deem and Ramdas Pophale) SiO2 
 PCOD9243356
Probable space group: P 21/C
;
_chemical_formula_sum "Si O2"
_cell_formula_units_Z 30
_cell_length_a 13.477414
_cell_length_b 11.547400
_cell_length_c 7.539442
_cell_angle_alpha 90.000000
_cell_angle_beta 101.432074
_cell_angle_gamma 90.000000
_cell_volume 1150.077546
_symmetry_space_group_name_H-M "P 21/C"
_symmetry_group_IT_number 14
_symmetry_cell_setting 'monoclinic'
loop_
_space_group_symop_operation_xyz
x,y,z
-x,1/2+y,1/2-z
-x,-y,-z
x,1/2-y,1/2+z
loop_
_atom_site_type_symbol
_atom_site_label
_atom_site_fract_x
_atom_site_fract_y
_atom_site_fract_z
Si Si1 0.849032 0.528639 0.039636
Si Si2 0.798482 0.174745 0.292297
Si Si3 0.419097 0.884027 0.779613
Si Si4 0.960134 0.604818 0.765391
Si Si5 0.310258 0.378765 0.757105
Si Si6 0.500000 0.500000 0.000000
Si Si7 0.942171 0.336071 0.537424
Si Si8 0.380990 0.133153 0.916381
O O1 0.958923 0.495498 0.153544
O O2 0.788145 0.599685 0.160964
O O3 0.799076 0.407964 0.964717
O O4 0.862810 0.592963 0.856608
O O5 0.681846 0.182257 0.201079
O O6 0.854677 0.291107 0.370795
O O7 0.870490 0.115692 0.168866
O O8 0.449330 0.885453 0.585251
O O9 0.513428 0.853096 0.938228
O O10 0.398741 0.023444 0.796448
O O11 0.970927 0.609872 0.557211
O O12 0.004692 0.725891 0.854348
O O13 0.301563 0.395950 0.543864
O O14 0.393426 0.468466 0.861016
O O15 0.348588 0.247649 0.803302
#
# Coordination Sequence:
#
# PCOD9243356 Si02
#       8
#     4   4   4   4   4   2   4   4
#     4  10  21  37  61  85 120 159 194 245 306 351
#     4  10  20  37  62  87 117 154 201 244 295 362
#     4  10  21  41  59  88 115 159 195 251 293 361
#     4   9  20  39  57  86 120 154 196 247 298 351
#     4  11  22  39  59  87 118 161 197 251 290 365
#     4  10  20  38  62  80 122 148 194 244 300 340
#     4   9  20  38  59  87 117 151 201 245 290 361
#     4  10  24  39  58  85 124 153 203 244 301 354
#
# _framework density 26.085198999999999
#
# number of rings (size 3 to 8) (size 9 to 14) (size 15 to 20)
#    0.000    2.133    1.333    0.800    1.867    3.733 
#    2.400    0.000    0.000    0.000    0.000    0.000 
#    0.000    0.000    0.000    0.000    0.000    0.000 
#
# Total GULP energy -167234.181618 kJ/mol
# GULP energy per Si atom -5574.472721 kJ/mol
# Density = 2.602583 g / cm^3
# Si number density = 26.085199 Si / 1000 Ang^3
#
#
#
# Elastic Constant Matrix: (Units=GPa)
#
#
# Indices 1 2 3 4 5 6 
#
# 1 77.5505 -9.8797 -3.7810 0.0000 -16.2094 0.0000
# 2 -9.8797 40.5632 5.9784 0.0000 -5.2973 0.0000
# 3 -3.7810 5.9784 44.2187 0.0000 4.5860 0.0000
# 4 0.0000 0.0000 0.0000 35.7088 0.0000 -8.3284
# 5 -16.2094 -5.2973 4.5860 0.0000 27.7725 0.0000
# 6 0.0000 0.0000 0.0000 -8.3284 0.0000 25.0005
#
#
#
# Elastic Compliance Matrix: (Units=1/GPa)
#
#
# Indices 1 2 3 4 5 6 
#
# 1 0.015673 0.005213 -0.000424 0.000000 0.010212 0.000000
# 2 0.005213 0.027727 -0.004240 0.000000 0.009032 0.000000
# 3 -0.000424 -0.004240 0.023667 0.000000 -0.004964 0.000000
# 4 0.000000 0.000000 0.000000 0.030363 0.000000 0.010115
# 5 0.010212 0.009032 -0.004964 0.000000 0.044509 0.000000
# 6 0.000000 0.000000 0.000000 0.010115 0.000000 0.043369
#
#
# Mechanical properties :
#
#
# Convention : Reuss Voigt Hill
#
# Bulk Modulus (GPa) = 14.66999 16.32975 15.49987
# Shear Modulus (GPa) = 24.16278 29.03069 26.59673
#
# Velocity S-wave (km/s) = 3.04682 3.33966 3.19660
# Velocity P-wave (km/s) = 4.24424 4.59836 4.42484
#
# Compressibility (1/GPa) = 0.06816637
#
# Stress axis : x y z
#
# Youngs Moduli (GPa) = 63.80494 36.06596 42.25359
#
# Poissons Ratio (x) = -0.18803 0.01791
# Poissons Ratio (y) = -0.33264 0.17914
# Poissons Ratio (z) = 0.02704 0.15290
#
# Static dielectric constant tensor:
#      x y z
#    x 2.117440 0.000000 -0.033190 
#    y 0.000000 2.016180 0.000000 
#    z -0.033190 0.000000 2.112630 
# 
# From -- ./inp_files/15571.got.cif
#   From: 2010.05.17/outbox.cif.g08.bks.cpg/sg14_8_cif.got.tgz:15571.got - 2010.06.03 17:49:19.
