data_PCOD9243765
_publ_section_title
;
Structure prediction by ZEFSAII (Michael W. Deem and Ramdas Pophale) SiO2 
 PCOD9243765
Probable space group: P 21/C
;
_chemical_formula_sum "Si O2"
_cell_formula_units_Z 32
_cell_length_a 11.150515
_cell_length_b 28.252367
_cell_length_c 9.328559
_cell_angle_alpha 90.000000
_cell_angle_beta 33.017102
_cell_angle_gamma 90.000000
_cell_volume 1601.299771
_symmetry_space_group_name_H-M "P 21/C"
_symmetry_group_IT_number 14
_symmetry_cell_setting 'monoclinic'
loop_
_space_group_symop_operation_xyz
x,y,z
-x,1/2+y,1/2-z
-x,-y,-z
x,1/2-y,1/2+z
loop_
_atom_site_type_symbol
_atom_site_label
_atom_site_fract_x
_atom_site_fract_y
_atom_site_fract_z
Si Si1 0.335977 0.021211 0.280424
Si Si2 0.409414 0.019022 0.738875
Si Si3 0.882661 0.709365 0.536987
Si Si4 0.478998 0.783848 0.926651
Si Si5 0.454425 0.882118 0.825952
Si Si6 0.057534 0.559440 0.691341
Si Si7 0.736393 0.894279 0.275664
Si Si8 0.173636 0.759661 0.487331
O O1 0.435923 0.072447 0.213665
O O2 0.080261 0.035070 0.542172
O O3 0.384365 0.985416 0.362212
O O4 0.500000 0.000000 0.000000
O O5 0.320609 0.071059 0.797852
O O6 0.500000 0.000000 0.500000
O O7 0.223943 0.981703 0.974011
O O8 0.673471 0.745202 0.742219
O O9 0.821252 0.655773 0.635292
O O10 0.036188 0.727744 0.513518
O O11 0.007616 0.712242 0.258500
O O12 0.548393 0.836019 0.808568
O O13 0.343217 0.786337 0.211406
O O14 0.318073 0.768978 0.957704
O O15 0.525355 0.883257 0.588218
O O16 0.196061 0.894006 0.097017
O O17 0.902234 0.577166 0.716199
#
# Coordination Sequence:
#
# PCOD9243765 Si02
#       8
#     4   4   4   4   4   4   4   4
#     4  10  23  41  56  90 122 162 202 248 307 371
#     4  11  20  39  60  93 120 154 209 253 298 369
#     4  11  23  42  64  91 130 164 205 269 310 370
#     4  11  22  43  64  90 127 165 205 268 308 370
#     4  10  21  37  63  88 116 165 208 240 311 371
#     4  10  20  38  65  84 126 161 203 255 305 362
#     4  11  21  36  62  95 116 161 207 251 310 366
#     4  10  23  41  62  92 125 160 217 245 320 375
#
# _framework density 19.983764999999998
#
# number of rings (size 3 to 8) (size 9 to 14) (size 15 to 20)
#    0.000    1.500    3.750    3.375    0.000    6.000 
#    9.000    0.000    0.000    0.000    0.000    0.000 
#    0.000    0.000    0.000    0.000    0.000    0.000 
#
# Total GULP energy -178320.806303 kJ/mol
# GULP energy per Si atom -5572.525197 kJ/mol
# Density = 1.993828 g / cm^3
# Si number density = 19.983765 Si / 1000 Ang^3
#
#
#
# Elastic Constant Matrix: (Units=GPa)
#
#
# Indices 1 2 3 4 5 6 
#
# 1 40.2796 10.2512 14.3667 0.0000 6.0198 0.0000
# 2 10.2512 105.5924 25.1122 0.0000 6.6443 0.0000
# 3 14.3667 25.1122 112.1089 0.0000 9.9862 0.0000
# 4 0.0000 0.0000 0.0000 27.8811 0.0000 2.1994
# 5 6.0198 6.6443 9.9862 0.0000 32.8237 0.0000
# 6 0.0000 0.0000 0.0000 2.1994 0.0000 21.0163
#
#
#
# Elastic Compliance Matrix: (Units=1/GPa)
#
#
# Indices 1 2 3 4 5 6 
#
# 1 0.026791 -0.001720 -0.002715 0.000000 -0.003739 0.000000
# 2 -0.001720 0.010175 -0.001956 0.000000 -0.001149 0.000000
# 3 -0.002715 -0.001956 0.009895 0.000000 -0.002116 0.000000
# 4 0.000000 0.000000 0.000000 0.036165 0.000000 -0.003785
# 5 -0.003739 -0.001149 -0.002116 0.000000 0.032028 0.000000
# 6 0.000000 0.000000 0.000000 -0.003785 0.000000 0.047978
#
#
# Mechanical properties :
#
#
# Convention : Reuss Voigt Hill
#
# Bulk Modulus (GPa) = 29.34425 39.71566 34.52996
# Shear Modulus (GPa) = 26.71306 30.22761 28.47033
#
# Velocity S-wave (km/s) = 3.66011 3.89345 3.77858
# Velocity P-wave (km/s) = 5.70770 6.33475 6.02938
#
# Compressibility (1/GPa) = 0.03407822
#
# Stress axis : x y z
#
# Youngs Moduli (GPa) = 37.32536 98.28073 101.06556
#
# Poissons Ratio (x) = 0.16904 0.27439
# Poissons Ratio (y) = 0.06420 0.19772
# Poissons Ratio (z) = 0.10134 0.19228
#
# Static dielectric constant tensor:
#      x y z
#    x 1.767310 0.000000 -0.033420 
#    y 0.000000 1.708340 0.000000 
#    z -0.033420 0.000000 1.801500 
# 
# From -- ./inp_files/14677.got.cif
#   From: 2010.05.17/outbox.cif.g08.bks.cpg/sg14_8_cif.got.tgz:14677.got - 2010.06.03 17:49:19.
