data_PCOD9243264
_publ_section_title
;
Structure prediction by ZEFSAII (Michael W. Deem and Ramdas Pophale) SiO2 
 PCOD9243264
Probable space group: P 21/C
;
_chemical_formula_sum "Si O2"
_cell_formula_units_Z 28
_cell_length_a 7.855170
_cell_length_b 17.795690
_cell_length_c 8.460534
_cell_angle_alpha 90.000000
_cell_angle_beta 87.876676
_cell_angle_gamma 90.000000
_cell_volume 1181.870530
_symmetry_space_group_name_H-M "P 21/C"
_symmetry_group_IT_number 14
_symmetry_cell_setting 'monoclinic'
loop_
_space_group_symop_operation_xyz
x,y,z
-x,1/2+y,1/2-z
-x,-y,-z
x,1/2-y,1/2+z
loop_
_atom_site_type_symbol
_atom_site_label
_atom_site_fract_x
_atom_site_fract_y
_atom_site_fract_z
Si Si1 0.865358 0.641216 0.647551
Si Si2 0.370283 0.714286 0.170656
Si Si3 0.255867 0.019364 0.090149
Si Si4 0.574342 0.821193 0.367845
Si Si5 0.194281 0.846150 0.969492
Si Si6 0.047733 0.495259 0.179393
Si Si7 0.450334 0.489570 0.183551
O O1 0.975973 0.590040 0.761914
O O2 0.753559 0.582787 0.544816
O O3 0.998097 0.673620 0.518786
O O4 0.758487 0.688203 0.778060
O O5 0.478876 0.750949 0.303801
O O6 0.507509 0.674133 0.050489
O O7 0.288274 0.783833 0.076659
O O8 0.237160 0.666872 0.281834
O O9 0.236444 0.933530 0.020169
O O10 0.424702 0.026196 0.191844
O O11 0.089012 0.035734 0.204388
O O12 0.519849 0.900514 0.297094
O O13 0.249368 0.508821 0.192186
O O14 0.000000 0.500000 0.000000
O O15 0.500000 0.500000 0.000000
#
# Coordination Sequence:
#
# PCOD9243264 Si02
#       7
#     4   4   4   4   4   4   4
#     4  10  24  42  67 100 141 178 219 288 356 410
#     4  10  22  43  70  91 134 180 234 287 325 408
#     4  11  22  44  66 100 146 175 227 292 350 423
#     4  10  23  43  61  98 129 176 233 278 335 405
#     4  10  21  43  69  99 131 186 230 280 346 409
#     4  10  20  37  59  94 138 177 219 269 330 419
#     4  11  22  39  67 101 138 180 227 278 361 419
#
# _framework density 23.691255999999999
#
# number of rings (size 3 to 8) (size 9 to 14) (size 15 to 20)
#    0.000    1.714    2.857    1.714    0.000    6.857 
#    7.714    0.000    3.143    0.000    0.000    0.000 
#    0.000    0.000    0.000    0.000    0.000    0.000 
#
# Total GULP energy -155901.281560 kJ/mol
# GULP energy per Si atom -5567.902913 kJ/mol
# Density = 2.363733 g / cm^3
# Si number density = 23.691256 Si / 1000 Ang^3
#
#
#
# Elastic Constant Matrix: (Units=GPa)
#
#
# Indices 1 2 3 4 5 6 
#
# 1 126.4742 17.8673 82.3487 0.0000 -26.3772 0.0000
# 2 17.8673 45.7175 37.4788 0.0000 -11.6924 0.0000
# 3 82.3487 37.4788 232.1996 0.0000 -40.9493 0.0000
# 4 0.0000 0.0000 0.0000 4.4084 0.0000 -26.7906
# 5 -26.3772 -11.6924 -40.9493 0.0000 56.0804 0.0000
# 6 0.0000 0.0000 0.0000 -26.7906 0.0000 11.5503
#
#
#
# Elastic Compliance Matrix: (Units=1/GPa)
#
#
# Indices 1 2 3 4 5 6 
#
# 1 0.010626 -0.000907 -0.003184 0.000000 0.002484 0.000000
# 2 -0.000907 0.025627 -0.003383 0.000000 0.002446 0.000000
# 3 -0.003184 -0.003383 0.006420 0.000000 0.002485 0.000000
# 4 0.000000 0.000000 0.000000 -0.017322 0.000000 -0.040177
# 5 0.002484 0.002446 0.002485 0.000000 0.021324 0.000000
# 6 0.000000 0.000000 0.000000 -0.040177 0.000000 -0.006611
#
#
# Mechanical properties :
#
#
# Convention : Reuss Voigt Hill
#
# Bulk Modulus (GPa) = 36.06972 75.53120 55.80046
# Shear Modulus (GPa) = 77.81387 32.18759 55.00073
#
# Velocity S-wave (km/s) = 5.73727 3.68996 4.82349
# Velocity P-wave (km/s) = 7.69067 7.07849 7.39092
#
# Compressibility (1/GPa) = 0.02772408
#
# Stress axis : x y z
#
# Youngs Moduli (GPa) = 94.10783 39.02098 155.75942
#
# Poissons Ratio (x) = 0.03541 0.49594
# Poissons Ratio (y) = 0.08540 0.52698
# Poissons Ratio (z) = 0.29964 0.13202
#
# Static dielectric constant tensor:
#      x y z
#    x 2.002330 0.000000 -0.123850 
#    y 0.000000 1.931870 0.000000 
#    z -0.123850 0.000000 2.000070 
# 
# From -- ./inp_files/10509.got.cif
#   From: 2010.05.17/outbox.cif.g08.bks.cpg/sg14_6_cif.got.tgz:10509.got - 2010.06.03 17:49:19.
