data_PCOD9243914
_publ_section_title
;
Structure prediction by ZEFSAII (Michael W. Deem and Ramdas Pophale) SiO2 
 PCOD9243914
Probable space group: P 21/C
;
_chemical_formula_sum "Si O2"
_cell_formula_units_Z 28
_cell_length_a 7.690903
_cell_length_b 5.807557
_cell_length_c 27.092001
_cell_angle_alpha 90.000000
_cell_angle_beta 102.120113
_cell_angle_gamma 90.000000
_cell_volume 1183.100871
_symmetry_space_group_name_H-M "P 21/C"
_symmetry_group_IT_number 14
_symmetry_cell_setting 'monoclinic'
loop_
_space_group_symop_operation_xyz
x,y,z
-x,1/2+y,1/2-z
-x,-y,-z
x,1/2-y,1/2+z
loop_
_atom_site_type_symbol
_atom_site_label
_atom_site_fract_x
_atom_site_fract_y
_atom_site_fract_z
Si Si1 0.899290 0.375695 0.591229
Si Si2 0.716369 0.877386 0.749254
Si Si3 0.137466 0.763548 0.613763
Si Si4 0.302301 0.876457 0.716491
Si Si5 0.768038 0.137050 0.489932
Si Si6 0.213137 0.016737 0.358690
Si Si7 0.615800 0.755694 0.544389
O O1 0.893226 0.219224 0.541865
O O2 0.834266 0.250563 0.636882
O O3 0.746597 0.556981 0.568577
O O4 0.090239 0.493093 0.609224
O O5 0.783812 0.130432 0.771832
O O6 0.743970 0.892121 0.692296
O O7 0.504353 0.879072 0.748199
O O8 0.779902 0.625697 0.773008
O O9 0.299090 0.846780 0.657007
O O10 0.148644 0.843959 0.558502
O O11 0.966989 0.867574 0.631607
O O12 0.589667 0.293925 0.476468
O O13 0.694989 0.888533 0.501933
O O14 0.366207 0.068951 0.407992
#
# Coordination Sequence:
#
# PCOD9243914 Si02
#       7
#     4   4   4   4   4   4   4
#     4  10  22  38  59  96 126 176 212 264 327 394
#     4  10  23  46  70  96 128 166 219 281 329 397
#     4  11  24  38  60  93 131 170 215 266 330 399
#     4  10  24  44  70  99 125 168 222 274 337 387
#     4  10  20  39  61  90 130 170 221 270 318 387
#     4  10  23  39  62  89 130 165 212 265 336 391
#     4   9  20  38  62  90 122 170 222 268 322 381
#
# _framework density 23.666620000000002
#
# number of rings (size 3 to 8) (size 9 to 14) (size 15 to 20)
#    0.000    2.000    0.000    1.714    6.000    7.429 
#    2.571    0.000    0.000    0.000    0.000    0.000 
#    0.000    0.000    0.000    0.000    0.000    0.000 
#
# Total GULP energy -156231.059820 kJ/mol
# GULP energy per Si atom -5579.680708 kJ/mol
# Density = 2.361275 g / cm^3
# Si number density = 23.666620 Si / 1000 Ang^3
#
#
#
# Elastic Constant Matrix: (Units=GPa)
#
#
# Indices 1 2 3 4 5 6 
#
# 1 31.5785 19.4177 11.1228 0.0000 -2.0421 0.0000
# 2 19.4177 134.6649 53.1256 0.0000 -1.1719 0.0000
# 3 11.1228 53.1256 101.5828 0.0000 -15.7034 0.0000
# 4 0.0000 0.0000 0.0000 33.2741 0.0000 8.7410
# 5 -2.0421 -1.1719 -15.7034 0.0000 35.2551 0.0000
# 6 0.0000 0.0000 0.0000 8.7410 0.0000 14.0987
#
#
#
# Elastic Compliance Matrix: (Units=1/GPa)
#
#
# Indices 1 2 3 4 5 6 
#
# 1 0.034985 -0.004539 -0.001253 0.000000 0.001317 0.000000
# 2 -0.004539 0.010079 -0.005115 0.000000 -0.002206 0.000000
# 3 -0.001253 -0.005115 0.013552 0.000000 0.005794 0.000000
# 4 0.000000 0.000000 0.000000 0.035900 0.000000 -0.022258
# 5 0.001317 -0.002206 0.005794 0.000000 0.030948 0.000000
# 6 0.000000 0.000000 0.000000 -0.022258 0.000000 0.084728
#
#
# Mechanical properties :
#
#
# Convention : Reuss Voigt Hill
#
# Bulk Modulus (GPa) = 27.17288 48.35094 37.76191
# Shear Modulus (GPa) = 20.46881 28.80292 24.63587
#
# Velocity S-wave (km/s) = 2.94408 3.49238 3.22988
# Velocity P-wave (km/s) = 4.80242 6.06107 5.46808
#
# Compressibility (1/GPa) = 0.03680140
#
# Stress axis : x y z
#
# Youngs Moduli (GPa) = 28.58400 99.21571 73.78850
#
# Poissons Ratio (x) = 0.45030 0.09249
# Poissons Ratio (y) = 0.12973 0.37745
# Poissons Ratio (z) = 0.03583 0.50751
#
# Static dielectric constant tensor:
#      x y z
#    x 1.910650 0.000000 0.042240 
#    y 0.000000 2.067920 0.000000 
#    z 0.042240 0.000000 1.892350 
# 
# From -- ./inp_files/76095.got.cif
#   From: 2010.05.17/outbox.cif.g08.bks.cpg/sg14_39_cif.got.tgz:76095.got - 2010.06.03 17:49:19.
