data_PCOD9243563
_publ_section_title
;
Structure prediction by ZEFSAII (Michael W. Deem and Ramdas Pophale) SiO2 
 PCOD9243563
Probable space group: P 21/C
;
_chemical_formula_sum "Si O2"
_cell_formula_units_Z 32
_cell_length_a 25.185559
_cell_length_b 8.564356
_cell_length_c 14.665132
_cell_angle_alpha 90.000000
_cell_angle_beta 149.826606
_cell_angle_gamma 90.000000
_cell_volume 1589.903628
_symmetry_space_group_name_H-M "P 21/C"
_symmetry_group_IT_number 14
_symmetry_cell_setting 'monoclinic'
loop_
_space_group_symop_operation_xyz
x,y,z
-x,1/2+y,1/2-z
-x,-y,-z
x,1/2-y,1/2+z
loop_
_atom_site_type_symbol
_atom_site_label
_atom_site_fract_x
_atom_site_fract_y
_atom_site_fract_z
Si Si1 0.427175 0.455883 0.186942
Si Si2 0.367109 0.769904 0.001051
Si Si3 0.899013 0.387055 0.046567
Si Si4 0.181441 0.998041 0.759328
Si Si5 0.298300 0.220438 0.349877
Si Si6 0.868371 0.909826 0.124684
Si Si7 0.775947 0.087937 0.839100
Si Si8 0.264377 0.389217 0.108713
O O1 0.411664 0.634104 0.132198
O O2 0.544623 0.400057 0.385766
O O3 0.350502 0.421050 0.158723
O O4 0.394358 0.355245 0.048320
O O5 0.263716 0.854843 0.887592
O O6 0.324389 0.685150 0.845767
O O7 0.884424 0.477267 0.930008
O O8 0.872745 0.208240 0.982659
O O9 0.805407 0.458364 0.969550
O O10 0.018439 0.406987 0.257438
O O11 0.248089 0.154477 0.842426
O O12 0.116154 0.021893 0.752716
O O13 0.312019 0.311035 0.273137
O O14 0.222575 0.070362 0.218551
O O15 0.819801 0.737879 0.051846
O O16 0.780244 0.018164 0.946273
#
# Coordination Sequence:
#
# PCOD9243563 Si02
#       8
#     4   4   4   4   4   4   4   4
#     4  11  21  41  62  89 124 167 213 256 326 371
#     4  10  23  40  63  90 126 166 207 269 310 378
#     4  10  21  38  58  90 125 161 210 260 311 378
#     4  10  20  38  60  87 123 161 206 261 316 370
#     4   9  19  40  60  87 125 160 203 265 303 375
#     4  11  20  37  63  87 122 169 207 256 320 372
#     4   9  21  39  59  88 129 157 206 262 307 368
#     4  10  22  37  62  89 122 167 207 262 315 374
#
# _framework density 20.127006000000002
#
# number of rings (size 3 to 8) (size 9 to 14) (size 15 to 20)
#    0.000    2.000    1.250    1.875    1.750    0.000 
#    2.250    8.750    0.000    0.000    0.000    0.000 
#    0.000    0.000    0.000    0.000    0.000    0.000 
#
# Total GULP energy -178249.378304 kJ/mol
# GULP energy per Si atom -5570.293072 kJ/mol
# Density = 2.008120 g / cm^3
# Si number density = 20.127006 Si / 1000 Ang^3
#
#
#
# Elastic Constant Matrix: (Units=GPa)
#
#
# Indices 1 2 3 4 5 6 
#
# 1 55.0795 -1.5903 25.0959 0.0000 6.8050 0.0000
# 2 -1.5903 66.6985 29.4556 0.0000 1.4839 0.0000
# 3 25.0959 29.4556 72.9340 0.0000 11.6337 0.0000
# 4 0.0000 0.0000 0.0000 24.4403 0.0000 -7.8291
# 5 6.8050 1.4839 11.6337 0.0000 21.9476 0.0000
# 6 0.0000 0.0000 0.0000 -7.8291 0.0000 9.3744
#
#
#
# Elastic Compliance Matrix: (Units=1/GPa)
#
#
# Indices 1 2 3 4 5 6 
#
# 1 0.022878 0.004752 -0.009404 0.000000 -0.002430 0.000000
# 2 0.004752 0.019408 -0.009863 0.000000 0.002442 0.000000
# 3 -0.009404 -0.009863 0.022239 0.000000 -0.008206 0.000000
# 4 0.000000 0.000000 0.000000 0.055861 0.000000 0.046652
# 5 -0.002430 0.002442 -0.008206 0.000000 0.050501 0.000000
# 6 0.000000 0.000000 0.000000 0.046652 0.000000 0.145636
#
#
# Mechanical properties :
#
#
# Convention : Reuss Voigt Hill
#
# Bulk Modulus (GPa) = 28.17240 33.40384 30.78812
# Shear Modulus (GPa) = 13.99064 20.60250 17.29657
#
# Velocity S-wave (km/s) = 2.63937 3.20288 2.93468
# Velocity P-wave (km/s) = 4.82867 5.50550 5.17815
#
# Compressibility (1/GPa) = 0.03549574
#
# Stress axis : x y z
#
# Youngs Moduli (GPa) = 43.71079 51.52645 44.96617
#
# Poissons Ratio (x) = -0.24488 0.42285
# Poissons Ratio (y) = -0.20773 0.44350
# Poissons Ratio (z) = 0.41104 0.50820
#
# Static dielectric constant tensor:
#      x y z
#    x 1.687630 0.000000 -0.033920 
#    y 0.000000 1.757440 0.000000 
#    z -0.033920 0.000000 1.750950 
# 
# From -- ./inp_files/46480.got.cif
#   From: 2010.05.17/outbox.cif.g08.bks.cpg/sg14_24_cif.got.tgz:46480.got - 2010.06.03 17:49:19.
