data_PCOD9243944
_publ_section_title
;
Structure prediction by ZEFSAII (Michael W. Deem and Ramdas Pophale) SiO2 
 PCOD9243944
Probable space group: P 21/C
;
_chemical_formula_sum "Si O2"
_cell_formula_units_Z 32
_cell_length_a 16.502639
_cell_length_b 14.894133
_cell_length_c 15.503476
_cell_angle_alpha 90.000000
_cell_angle_beta 22.138206
_cell_angle_gamma 90.000000
_cell_volume 1436.008522
_symmetry_space_group_name_H-M "P 21/C"
_symmetry_group_IT_number 14
_symmetry_cell_setting 'monoclinic'
loop_
_space_group_symop_operation_xyz
x,y,z
-x,1/2+y,1/2-z
-x,-y,-z
x,1/2-y,1/2+z
loop_
_atom_site_type_symbol
_atom_site_label
_atom_site_fract_x
_atom_site_fract_y
_atom_site_fract_z
Si Si1 0.900584 0.601246 0.701676
Si Si2 0.096889 0.628320 0.150713
Si Si3 0.357368 0.925941 0.551032
Si Si4 0.530274 0.706400 0.022760
Si Si5 0.262878 0.115332 0.228896
Si Si6 0.086116 0.774382 0.501155
Si Si7 0.271089 0.992779 0.934983
Si Si8 0.567581 0.490238 0.292963
O O1 0.001143 0.680390 0.544390
O O2 0.095827 0.577237 0.572330
O O3 0.808123 0.506148 0.761151
O O4 0.684484 0.656746 0.939435
O O5 0.030559 0.711836 0.156740
O O6 0.880318 0.574294 0.384526
O O7 0.229093 0.636731 0.109228
O O8 0.261508 0.569296 0.929245
O O9 0.444930 0.870372 0.544106
O O10 0.561772 0.970930 0.301249
O O11 0.337436 0.760822 0.253689
O O12 0.643932 0.784348 0.855703
O O13 0.017739 0.139415 0.443590
O O14 0.300325 0.057574 0.276693
O O15 0.400975 0.065460 0.017897
O O16 0.416809 0.961534 0.870996
#
# Coordination Sequence:
#
# PCOD9243944 Si02
#       8
#     4   4   4   4   4   4   4   4
#     4  10  23  38  62  89 117 167 213 259 321 384
#     4  10  21  38  63  88 121 169 208 261 329 382
#     4  10  23  40  61  88 125 169 210 268 323 385
#     4  11  23  40  61  93 130 162 214 268 320 385
#     4  10  22  36  62  94 123 165 204 264 325 384
#     4  11  22  39  62  93 128 165 215 265 326 385
#     4  10  21  41  62  87 122 168 214 264 324 381
#     4  10  20  39  62  91 126 158 215 262 319 392
#
# _framework density 22.283989999999999
#
# number of rings (size 3 to 8) (size 9 to 14) (size 15 to 20)
#    0.000    1.750    2.500    1.125    0.000    7.500 
#    0.000    6.250    0.000    0.000    0.000    0.000 
#    0.000    0.000    0.000    0.000    0.000    0.000 
#
# Total GULP energy -178327.741929 kJ/mol
# GULP energy per Si atom -5572.741935 kJ/mol
# Density = 2.223327 g / cm^3
# Si number density = 22.283990 Si / 1000 Ang^3
#
#
#
# Elastic Constant Matrix: (Units=GPa)
#
#
# Indices 1 2 3 4 5 6 
#
# 1 109.6940 48.0389 34.3734 0.0000 -26.4871 0.0000
# 2 48.0389 92.1553 22.8537 0.0000 -18.0742 0.0000
# 3 34.3734 22.8537 87.5837 0.0000 -14.9572 0.0000
# 4 0.0000 0.0000 0.0000 38.2917 0.0000 -12.2782
# 5 -26.4871 -18.0742 -14.9572 0.0000 36.5357 0.0000
# 6 0.0000 0.0000 0.0000 -12.2782 0.0000 35.4633
#
#
#
# Elastic Compliance Matrix: (Units=1/GPa)
#
#
# Indices 1 2 3 4 5 6 
#
# 1 0.013864 -0.005262 -0.003006 0.000000 0.006217 0.000000
# 2 -0.005262 0.014453 -0.001222 0.000000 0.002835 0.000000
# 3 -0.003006 -0.001222 0.013376 0.000000 0.002692 0.000000
# 4 0.000000 0.000000 0.000000 0.029377 0.000000 0.010171
# 5 0.006217 0.002835 0.002692 0.000000 0.034382 0.000000
# 6 0.000000 0.000000 0.000000 0.010171 0.000000 0.031720
#
#
# Mechanical properties :
#
#
# Convention : Reuss Voigt Hill
#
# Bulk Modulus (GPa) = 44.02886 55.55166 49.79026
# Shear Modulus (GPa) = 30.53929 34.33594 32.43762
#
# Velocity S-wave (km/s) = 3.70599 3.92960 3.81943
# Velocity P-wave (km/s) = 6.17361 6.75071 6.46860
#
# Compressibility (1/GPa) = 0.02271237
#
# Stress axis : x y z
#
# Youngs Moduli (GPa) = 72.12933 69.18796 74.76017
#
# Poissons Ratio (x) = 0.36408 0.22475
# Poissons Ratio (y) = 0.37956 0.09136
# Poissons Ratio (z) = 0.21684 0.08455
#
# Static dielectric constant tensor:
#      x y z
#    x 1.820610 0.000000 -0.041690 
#    y 0.000000 1.851240 0.000000 
#    z -0.041690 0.000000 1.923830 
# 
# From -- ./inp_files/60729.got.cif
#   From: 2010.05.17/outbox.cif.g08.bks.cpg/sg14_31_cif.got.tgz:60729.got - 2010.06.03 17:49:19.
