data_PCOD9243662
_publ_section_title
;
Structure prediction by ZEFSAII (Michael W. Deem and Ramdas Pophale) SiO2 
 PCOD9243662
Probable space group: P 21/C
;
_chemical_formula_sum "Si O2"
_cell_formula_units_Z 26
_cell_length_a 13.844374
_cell_length_b 10.840760
_cell_length_c 8.557340
_cell_angle_alpha 90.000000
_cell_angle_beta 117.908948
_cell_angle_gamma 90.000000
_cell_volume 1134.940333
_symmetry_space_group_name_H-M "P 21/C"
_symmetry_group_IT_number 14
_symmetry_cell_setting 'monoclinic'
loop_
_space_group_symop_operation_xyz
x,y,z
-x,1/2+y,1/2-z
-x,-y,-z
x,1/2-y,1/2+z
loop_
_atom_site_type_symbol
_atom_site_label
_atom_site_fract_x
_atom_site_fract_y
_atom_site_fract_z
Si Si1 0.871905 0.460247 0.223952
Si Si2 0.519533 0.255586 0.631011
Si Si3 0.370129 0.607620 0.039351
Si Si4 0.930768 0.816125 0.986337
Si Si5 0.604856 0.876697 0.222373
Si Si6 0.837749 0.891724 0.234861
Si Si7 0.000000 0.500000 0.000000
O O1 0.883591 0.592339 0.319376
O O2 0.951137 0.365428 0.375129
O O3 0.915538 0.472989 0.082701
O O4 0.748058 0.416732 0.120217
O O5 0.550670 0.142324 0.543057
O O6 0.619203 0.284155 0.823020
O O7 0.484535 0.359814 0.481054
O O8 0.418258 0.232772 0.671273
O O9 0.404519 0.493263 0.172645
O O10 0.853473 0.831403 0.078924
O O11 0.928414 0.675721 0.920440
O O12 0.721875 0.875959 0.226444
O O13 0.894669 0.023125 0.286858
#
# Coordination Sequence:
#
# PCOD9243662 Si02
#       7
#     4   4   4   4   4   4   2
#     4  10  22  42  62  95 129 168 212 264 334 380
#     4  10  25  43  66  98 128 168 228 264 329 387
#     4  11  23  45  67  94 132 174 212 275 326 388
#     4  10  23  39  62  97 128 165 218 264 314 404
#     4  11  22  43  67  96 129 171 216 277 321 383
#     4  11  21  38  65  91 128 170 213 265 323 382
#     4  10  20  38  62  92 122 160 212 258 316 388
#
# _framework density 22.908695000000002
#
# number of rings (size 3 to 8) (size 9 to 14) (size 15 to 20)
#    0.000    1.538    1.538    2.769    2.154    2.462 
#    8.308    0.000    0.000    0.000    0.000    0.000 
#    0.000    0.000    0.000    0.000    0.000    0.000 
#
# Total GULP energy -144771.708325 kJ/mol
# GULP energy per Si atom -5568.142628 kJ/mol
# Density = 2.285655 g / cm^3
# Si number density = 22.908695 Si / 1000 Ang^3
#
#
#
# Elastic Constant Matrix: (Units=GPa)
#
#
# Indices 1 2 3 4 5 6 
#
# 1 123.4968 12.4613 36.5804 0.0000 -8.2889 0.0000
# 2 12.4613 37.3634 10.2969 0.0000 0.7573 0.0000
# 3 36.5804 10.2969 78.2445 0.0000 1.7110 0.0000
# 4 0.0000 0.0000 0.0000 37.4930 0.0000 -3.7536
# 5 -8.2889 0.7573 1.7110 0.0000 43.7932 0.0000
# 6 0.0000 0.0000 0.0000 -3.7536 0.0000 16.6436
#
#
#
# Elastic Compliance Matrix: (Units=1/GPa)
#
#
# Indices 1 2 3 4 5 6 
#
# 1 0.009724 -0.002095 -0.004315 0.000000 0.002045 0.000000
# 2 -0.002095 0.028228 -0.002718 0.000000 -0.000779 0.000000
# 3 -0.004315 -0.002718 0.015185 0.000000 -0.001363 0.000000
# 4 0.000000 0.000000 0.000000 0.027288 0.000000 0.006154
# 5 0.002045 -0.000779 -0.001363 0.000000 0.023288 0.000000
# 6 0.000000 0.000000 0.000000 0.006154 0.000000 0.061471
#
#
# Mechanical properties :
#
#
# Convention : Reuss Voigt Hill
#
# Bulk Modulus (GPa) = 28.66965 39.75353 34.21159
# Shear Modulus (GPa) = 25.63195 31.57036 28.60115
#
# Velocity S-wave (km/s) = 3.34859 3.71630 3.53722
# Velocity P-wave (km/s) = 5.24334 5.98374 5.62574
#
# Compressibility (1/GPa) = 0.03488010
#
# Stress axis : x y z
#
# Youngs Moduli (GPa) = 102.83533 35.42593 65.85286
#
# Poissons Ratio (x) = 0.07423 0.28417
# Poissons Ratio (y) = 0.21549 0.17899
# Poissons Ratio (z) = 0.44376 0.09629
#
# Static dielectric constant tensor:
#      x y z
#    x 1.764690 0.000000 -0.054160 
#    y 0.000000 1.171830 0.000000 
#    z -0.054160 0.000000 1.780980 
# 
# From -- ./inp_files/15614.got.cif
#   From: 2010.05.17/outbox.cif.g08.bks.cpg/sg14_8_cif.got.tgz:15614.got - 2010.06.03 17:49:19.
