data_PCOD9243562
_publ_section_title
;
Structure prediction by ZEFSAII (Michael W. Deem and Ramdas Pophale) SiO2 
 PCOD9243562
Probable space group: P 21/C
;
_chemical_formula_sum "Si O2"
_cell_formula_units_Z 32
_cell_length_a 13.563641
_cell_length_b 14.092304
_cell_length_c 13.920446
_cell_angle_alpha 90.000000
_cell_angle_beta 32.109557
_cell_angle_gamma 90.000000
_cell_volume 1414.318714
_symmetry_space_group_name_H-M "P 21/C"
_symmetry_group_IT_number 14
_symmetry_cell_setting 'monoclinic'
loop_
_space_group_symop_operation_xyz
x,y,z
-x,1/2+y,1/2-z
-x,-y,-z
x,1/2-y,1/2+z
loop_
_atom_site_type_symbol
_atom_site_label
_atom_site_fract_x
_atom_site_fract_y
_atom_site_fract_z
Si Si1 0.941207 0.558016 0.369289
Si Si2 0.175374 0.729784 0.267613
Si Si3 0.466748 0.340439 0.016524
Si Si4 0.057176 0.718305 0.059490
Si Si5 0.143115 0.351032 0.950563
Si Si6 0.750796 0.470440 0.030081
Si Si7 0.772324 0.736157 0.440943
Si Si8 0.639445 0.511169 0.757065
O O1 0.792997 0.622295 0.431485
O O2 0.820796 0.498702 0.542958
O O3 0.055932 0.642715 0.326087
O O4 0.094177 0.505076 0.179401
O O5 0.380459 0.724224 0.057780
O O6 0.168288 0.722292 0.389584
O O7 0.069479 0.829340 0.340389
O O8 0.587995 0.425907 0.870444
O O9 0.377540 0.281513 0.004951
O O10 0.333292 0.393971 0.200638
O O11 0.965509 0.764769 0.227846
O O12 0.187900 0.632915 0.985428
O O13 0.881703 0.678314 0.139891
O O14 0.217726 0.454367 0.911013
O O15 0.250924 0.280629 0.934013
O O16 0.546974 0.474697 0.152886
#
# Coordination Sequence:
#
# PCOD9243562 Si02
#       8
#     4   4   4   4   4   4   4   4
#     4  10  22  39  59  87 123 158 202 245 301 352
#     4   9  20  38  57  89 113 160 204 242 295 355
#     4  11  22  39  58  91 123 155 210 248 302 357
#     4   9  21  36  64  87 117 167 195 249 304 354
#     4   9  20  38  61  86 120 160 201 246 303 358
#     4  11  20  41  60  90 125 157 201 245 303 367
#     4  10  20  38  60  87 123 158 201 250 298 357
#     4  11  24  38  60  90 123 163 195 257 300 357
#
# _framework density 22.625734999999999
#
# number of rings (size 3 to 8) (size 9 to 14) (size 15 to 20)
#    0.750    1.250    2.500    1.125    1.750    1.500 
#    0.000    2.500    0.000    3.750    0.000    0.000 
#    0.000    0.000    0.000    0.000    0.000    0.000 
#
# Total GULP energy -178334.356351 kJ/mol
# GULP energy per Si atom -5572.948636 kJ/mol
# Density = 2.257424 g / cm^3
# Si number density = 22.625735 Si / 1000 Ang^3
#
#
#
# Elastic Constant Matrix: (Units=GPa)
#
#
# Indices 1 2 3 4 5 6 
#
# 1 82.3519 14.9327 6.5370 0.0000 -1.7427 0.0000
# 2 14.9327 30.3860 -8.2767 0.0000 -3.3938 0.0000
# 3 6.5370 -8.2767 56.2768 0.0000 13.8931 0.0000
# 4 0.0000 0.0000 0.0000 19.2963 0.0000 5.1865
# 5 -1.7427 -3.3938 13.8931 0.0000 32.2391 0.0000
# 6 0.0000 0.0000 0.0000 5.1865 0.0000 20.5394
#
#
#
# Elastic Compliance Matrix: (Units=1/GPa)
#
#
# Indices 1 2 3 4 5 6 
#
# 1 0.013756 -0.007438 -0.003001 0.000000 0.001254 0.000000
# 2 -0.007438 0.038379 0.006278 0.000000 0.000933 0.000000
# 3 -0.003001 0.006278 0.021170 0.000000 -0.008624 0.000000
# 4 0.000000 0.000000 0.000000 0.055597 0.000000 -0.014039
# 5 0.001254 0.000933 -0.008624 0.000000 0.034901 0.000000
# 6 0.000000 0.000000 0.000000 -0.014039 0.000000 0.052232
#
#
# Mechanical properties :
#
#
# Convention : Reuss Voigt Hill
#
# Bulk Modulus (GPa) = 15.38835 21.71118 18.54977
# Shear Modulus (GPa) = 20.32361 24.80308 22.56334
#
# Velocity S-wave (km/s) = 3.00034 3.31453 3.16134
# Velocity P-wave (km/s) = 4.33805 4.92593 4.64131
#
# Compressibility (1/GPa) = 0.06498421
#
# Stress axis : x y z
#
# Youngs Moduli (GPa) = 72.69293 26.05568 47.23568
#
# Poissons Ratio (x) = 0.19380 0.14177
# Poissons Ratio (y) = 0.54068 -0.29656
# Poissons Ratio (z) = 0.21818 -0.16358
#
# Static dielectric constant tensor:
#      x y z
#    x 1.897350 0.000000 -0.024320 
#    y 0.000000 1.862200 0.000000 
#    z -0.024320 0.000000 1.862820 
# 
# From -- ./inp_files/47399.got.cif
#   From: 2010.05.17/outbox.cif.g08.bks.cpg/sg14_24_cif.got.tgz:47399.got - 2010.06.03 17:49:19.
