data_PCOD9243771
_publ_section_title
;
Structure prediction by ZEFSAII (Michael W. Deem and Ramdas Pophale) SiO2 
 PCOD9243771
Probable space group: P 21/C
;
_chemical_formula_sum "Si O2"
_cell_formula_units_Z 20
_cell_length_a 19.975879
_cell_length_b 10.749725
_cell_length_c 14.643043
_cell_angle_alpha 90.000000
_cell_angle_beta 160.992976
_cell_angle_gamma 90.000000
_cell_volume 1024.073435
_symmetry_space_group_name_H-M "P 21/C"
_symmetry_group_IT_number 14
_symmetry_cell_setting 'monoclinic'
loop_
_space_group_symop_operation_xyz
x,y,z
-x,1/2+y,1/2-z
-x,-y,-z
x,1/2-y,1/2+z
loop_
_atom_site_type_symbol
_atom_site_label
_atom_site_fract_x
_atom_site_fract_y
_atom_site_fract_z
Si Si1 0.696265 0.294724 0.208304
Si Si2 0.105597 0.901541 0.203579
Si Si3 0.742548 0.733187 0.814148
Si Si4 0.044559 0.076905 0.277822
Si Si5 0.130451 0.516656 0.076866
O O1 0.722512 0.339144 0.137420
O O2 0.850726 0.372019 0.472308
O O3 0.765603 0.150415 0.297275
O O4 0.466631 0.307381 0.949101
O O5 0.164800 0.979205 0.369478
O O6 0.930289 0.804199 0.008367
O O7 0.000000 0.000000 0.000000
O O8 0.712572 0.600106 0.725595
O O9 0.816684 0.692454 0.010865
O O10 0.996214 0.010149 0.311957
O O11 0.000000 0.500000 0.000000
#
# Coordination Sequence:
#
# PCOD9243771 Si02
#       5
#     4   4   4   4   4
#     4  11  20  41  65  88 127 163 204 256 308 366
#     4  10  21  40  60  90 124 161 205 256 304 364
#     4  10  22  39  64  89 123 166 205 252 307 362
#     4   9  22  37  62  90 128 158 208 252 304 367
#     4  10  20  38  65  88 124 165 205 255 309 359
#
# _framework density 19.52985
#
# number of rings (size 3 to 8) (size 9 to 14) (size 15 to 20)
#    1.200    0.800    2.000    1.800    0.000    3.200 
#    0.000   18.000    0.000    0.000    0.000    0.000 
#    0.000    0.000    0.000    0.000    0.000    0.000 
#
# Total GULP energy -111350.697493 kJ/mol
# GULP energy per Si atom -5567.534875 kJ/mol
# Density = 1.948540 g / cm^3
# Si number density = 19.529850 Si / 1000 Ang^3
#
#
#
# Elastic Constant Matrix: (Units=GPa)
#
#
# Indices 1 2 3 4 5 6 
#
# 1 113.2284 23.5918 16.6189 0.0000 0.8029 0.0000
# 2 23.5918 59.0980 -12.4189 0.0000 0.8159 0.0000
# 3 16.6189 -12.4189 31.9023 0.0000 6.8672 0.0000
# 4 0.0000 0.0000 0.0000 14.0581 0.0000 -1.6440
# 5 0.8029 0.8159 6.8672 0.0000 25.6086 0.0000
# 6 0.0000 0.0000 0.0000 -1.6440 0.0000 50.7773
#
#
#
# Elastic Compliance Matrix: (Units=1/GPa)
#
#
# Indices 1 2 3 4 5 6 
#
# 1 0.011495 -0.006514 -0.009011 0.000000 0.002264 0.000000
# 2 -0.006514 0.022293 0.012926 0.000000 -0.003972 0.000000
# 3 -0.009011 0.012926 0.043618 0.000000 -0.011826 0.000000
# 4 0.000000 0.000000 0.000000 0.071404 0.000000 0.002312
# 5 0.002264 -0.003972 -0.011826 0.000000 0.042276 0.000000
# 6 0.000000 0.000000 0.000000 0.002312 0.000000 0.019769
#
#
# Mechanical properties :
#
#
# Convention : Reuss Voigt Hill
#
# Bulk Modulus (GPa) = 13.84887 28.86802 21.35845
# Shear Modulus (GPa) = 20.82283 29.85126 25.33705
#
# Velocity S-wave (km/s) = 3.26882 3.91384 3.60578
# Velocity P-wave (km/s) = 4.62098 5.93614 5.31936
#
# Compressibility (1/GPa) = 0.07220806
#
# Stress axis : x y z
#
# Youngs Moduli (GPa) = 86.99072 44.85796 22.92654
#
# Poissons Ratio (x) = 0.29220 0.20660
# Poissons Ratio (y) = 0.56665 -0.29636
# Poissons Ratio (z) = 0.78390 -0.57985
#
# Static dielectric constant tensor:
#      x y z
#    x 1.691950 0.000000 -0.012320 
#    y 0.000000 2.055940 0.000000 
#    z -0.012320 0.000000 1.674740 
# 
# From -- ./inp_files/48958.got.cif
#   From: 2010.05.17/outbox.cif.g08.bks.cpg/sg14_25_cif.got.tgz:48958.got - 2010.06.03 17:49:19.
