data_PCOD9243280
_publ_section_title
;
Structure prediction by ZEFSAII (Michael W. Deem and Ramdas Pophale) SiO2 
 PCOD9243280
Probable space group: P 21/C
;
_chemical_formula_sum "Si O2"
_cell_formula_units_Z 20
_cell_length_a 11.369960
_cell_length_b 18.436200
_cell_length_c 8.227185
_cell_angle_alpha 90.000000
_cell_angle_beta 144.180076
_cell_angle_gamma 90.000000
_cell_volume 1009.288614
_symmetry_space_group_name_H-M "P 21/C"
_symmetry_group_IT_number 14
_symmetry_cell_setting 'monoclinic'
loop_
_space_group_symop_operation_xyz
x,y,z
-x,1/2+y,1/2-z
-x,-y,-z
x,1/2-y,1/2+z
loop_
_atom_site_type_symbol
_atom_site_label
_atom_site_fract_x
_atom_site_fract_y
_atom_site_fract_z
Si Si1 0.105666 0.346520 0.512072
Si Si2 0.589138 0.582700 0.928523
Si Si3 0.167257 0.918055 0.821664
Si Si4 0.832713 0.037632 0.535672
Si Si5 0.878575 0.693456 0.114336
O O1 0.936626 0.395107 0.240682
O O2 0.162198 0.276250 0.471736
O O3 0.033533 0.316704 0.606110
O O4 0.299746 0.394960 0.779991
O O5 0.352035 0.586290 0.651710
O O6 0.669622 0.504954 0.959115
O O7 0.679915 0.643093 0.904053
O O8 0.242818 0.938946 0.726837
O O9 0.037265 0.844463 0.672866
O O10 0.011090 0.979259 0.705326
#
# Coordination Sequence:
#
# PCOD9243280 Si02
#       5
#     4   4   4   4   4
#     4  10  20  40  57  78 120 147 186 236 277 328
#     4   9  21  37  59  85 111 144 196 225 275 336
#     4  10  20  38  61  84 114 147 186 227 286 330
#     4  10  20  37  60  85 116 147 178 236 283 332
#     4   9  21  38  55  79 115 148 186 229 278 326
#
# _framework density 19.815937999999999
#
# number of rings (size 3 to 8) (size 9 to 14) (size 15 to 20)
#    1.200    1.200    0.000    2.400    0.000    0.800 
#    7.200    0.000    0.000    0.000    0.000    0.000 
#    0.000    0.000    0.000    0.000    0.000    0.000 
#
# Total GULP energy -111447.677390 kJ/mol
# GULP energy per Si atom -5572.383870 kJ/mol
# Density = 1.977084 g / cm^3
# Si number density = 19.815938 Si / 1000 Ang^3
#
#
#
# Elastic Constant Matrix: (Units=GPa)
#
#
# Indices 1 2 3 4 5 6 
#
# 1 15.0953 5.3768 3.7356 0.0000 -1.3832 0.0000
# 2 5.3768 44.4757 8.7361 0.0000 -12.9274 0.0000
# 3 3.7356 8.7361 42.7305 0.0000 1.3730 0.0000
# 4 0.0000 0.0000 0.0000 26.9543 0.0000 -18.1080
# 5 -1.3832 -12.9274 1.3730 0.0000 21.9760 0.0000
# 6 0.0000 0.0000 0.0000 -18.1080 0.0000 18.7686
#
#
#
# Elastic Compliance Matrix: (Units=1/GPa)
#
#
# Indices 1 2 3 4 5 6 
#
# 1 0.070078 -0.007480 -0.004607 0.000000 0.000298 0.000000
# 2 -0.007480 0.029588 -0.005951 0.000000 0.017306 0.000000
# 3 -0.004607 -0.005951 0.025194 0.000000 -0.005365 0.000000
# 4 0.000000 0.000000 0.000000 0.105445 0.000000 0.101734
# 5 0.000298 0.017306 -0.005365 0.000000 0.056038 0.000000
# 6 0.000000 0.000000 0.000000 0.101734 0.000000 0.151434
#
#
# Mechanical properties :
#
#
# Convention : Reuss Voigt Hill
#
# Bulk Modulus (GPa) = 11.26337 15.33317 13.29827
# Shear Modulus (GPa) = 9.93152 19.16999 14.55075
#
# Velocity S-wave (km/s) = 2.24115 3.11368 2.71273
# Velocity P-wave (km/s) = 3.52042 4.54767 4.06661
#
# Compressibility (1/GPa) = 0.08878335
#
# Stress axis : x y z
#
# Youngs Moduli (GPa) = 14.26988 33.79789 39.69155
#
# Poissons Ratio (x) = 0.25282 0.18284
# Poissons Ratio (y) = 0.10674 0.23621
# Poissons Ratio (z) = 0.06574 0.20114
#
# Static dielectric constant tensor:
#      x y z
#    x 1.720540 0.000000 -0.036220 
#    y 0.000000 1.705250 0.000000 
#    z -0.036220 0.000000 1.668040 
# 
# From -- ./inp_files/8976.got.cif
#   From: 2010.05.17/outbox.cif.g08.bks.cpg/sg14_5_cif.got.tgz:8976.got - 2010.06.03 17:49:19.
