data_PCOD9243708
_publ_section_title
;
Structure prediction by ZEFSAII (Michael W. Deem and Ramdas Pophale) SiO2 
 PCOD9243708
Probable space group: P 21/C
;
_chemical_formula_sum "Si O2"
_cell_formula_units_Z 28
_cell_length_a 8.273718
_cell_length_b 23.410627
_cell_length_c 7.391907
_cell_angle_alpha 90.000000
_cell_angle_beta 126.877101
_cell_angle_gamma 90.000000
_cell_volume 1145.300065
_symmetry_space_group_name_H-M "P 21/C"
_symmetry_group_IT_number 14
_symmetry_cell_setting 'monoclinic'
loop_
_space_group_symop_operation_xyz
x,y,z
-x,1/2+y,1/2-z
-x,-y,-z
x,1/2-y,1/2+z
loop_
_atom_site_type_symbol
_atom_site_label
_atom_site_fract_x
_atom_site_fract_y
_atom_site_fract_z
Si Si1 0.995808 0.965500 0.786004
Si Si2 0.638541 0.553371 0.826041
Si Si3 0.274322 0.885245 0.222506
Si Si4 0.350533 0.148627 0.966407
Si Si5 0.902266 0.175204 0.571366
Si Si6 0.675856 0.541649 0.368106
Si Si7 0.727429 0.205060 0.086814
O O1 0.875992 0.945573 0.529539
O O2 0.796271 0.979956 0.771068
O O3 0.117793 0.919464 0.987106
O O4 0.157784 0.016270 0.875340
O O5 0.489084 0.583343 0.872049
O O6 0.594008 0.595936 0.629691
O O7 0.533988 0.491215 0.740447
O O8 0.193146 0.874713 0.369196
O O9 0.293119 0.827433 0.117838
O O10 0.137109 0.174120 0.773444
O O11 0.336472 0.110249 0.136979
O O12 0.515336 0.197279 0.049715
O O13 0.870184 0.175398 0.334102
O O14 0.803799 0.232753 0.586055
#
# Coordination Sequence:
#
# PCOD9243708 Si02
#       7
#     4   4   4   4   4   4   4
#     4  10  20  38  63  95 131 173 211 260 324 390
#     4  10  22  39  66  96 130 174 211 265 327 388
#     4  10  22  43  63  96 134 164 223 269 319 393
#     4  11  25  43  65  97 130 171 220 270 329 387
#     4  12  24  45  68  92 130 175 218 275 331 384
#     4  10  21  37  62  98 135 165 217 262 315 405
#     4  11  26  45  66  97 127 170 224 278 323 389
#
# _framework density 24.447741000000001
#
# number of rings (size 3 to 8) (size 9 to 14) (size 15 to 20)
#    0.000    1.429    2.857    1.714    2.000    2.857 
#    2.571    0.000    0.000    0.000    0.000    0.000 
#    0.000    0.000    0.000    0.000    0.000    0.000 
#
# Total GULP energy -156333.603726 kJ/mol
# GULP energy per Si atom -5583.342990 kJ/mol
# Density = 2.439210 g / cm^3
# Si number density = 24.447741 Si / 1000 Ang^3
#
#
#
# Elastic Constant Matrix: (Units=GPa)
#
#
# Indices 1 2 3 4 5 6 
#
# 1 47.2342 19.0433 6.6030 0.0000 13.5103 0.0000
# 2 19.0433 63.4201 20.4079 0.0000 22.7316 0.0000
# 3 6.6030 20.4079 112.3470 0.0000 16.0762 0.0000
# 4 0.0000 0.0000 0.0000 36.1425 0.0000 7.1736
# 5 13.5103 22.7316 16.0762 0.0000 52.5295 0.0000
# 6 0.0000 0.0000 0.0000 7.1736 0.0000 33.8009
#
#
#
# Elastic Compliance Matrix: (Units=1/GPa)
#
#
# Indices 1 2 3 4 5 6 
#
# 1 0.024690 -0.006131 0.000200 0.000000 -0.003758 0.000000
# 2 -0.006131 0.020791 -0.002462 0.000000 -0.006667 0.000000
# 3 0.000200 -0.002462 0.009612 0.000000 -0.001928 0.000000
# 4 0.000000 0.000000 0.000000 0.028885 0.000000 -0.006130
# 5 -0.003758 -0.006667 -0.001928 0.000000 0.023478 0.000000
# 6 0.000000 0.000000 0.000000 -0.006130 0.000000 0.030886
#
#
# Mechanical properties :
#
#
# Convention : Reuss Voigt Hill
#
# Bulk Modulus (GPa) = 26.10502 35.01219 30.55860
# Shear Modulus (GPa) = 29.78007 36.29107 33.03557
#
# Velocity S-wave (km/s) = 3.49393 3.85702 3.67995
# Velocity P-wave (km/s) = 5.19402 5.84703 5.53017
#
# Compressibility (1/GPa) = 0.03830681
#
# Stress axis : x y z
#
# Youngs Moduli (GPa) = 40.50234 48.09837 104.03279
#
# Poissons Ratio (x) = 0.29490 -0.02085
# Poissons Ratio (y) = 0.24833 0.25617
# Poissons Ratio (z) = -0.00812 0.11844
#
# Static dielectric constant tensor:
#      x y z
#    x 2.035870 0.000000 -0.125740 
#    y 0.000000 2.008990 0.000000 
#    z -0.125740 0.000000 2.048230 
# 
# From -- ./inp_files/11182.got.cif
#   From: 2010.05.17/outbox.cif.g08.bks.cpg/sg14_6_cif.got.tgz:11182.got - 2010.06.03 17:49:19.
