data_PCOD9243848
_publ_section_title
;
Structure prediction by ZEFSAII (Michael W. Deem and Ramdas Pophale) SiO2 
 PCOD9243848
Probable space group: P 21/C
;
_chemical_formula_sum "Si O2"
_cell_formula_units_Z 30
_cell_length_a 8.870383
_cell_length_b 8.913174
_cell_length_c 14.540290
_cell_angle_alpha 90.000000
_cell_angle_beta 99.966403
_cell_angle_gamma 90.000000
_cell_volume 1132.254644
_symmetry_space_group_name_H-M "P 21/C"
_symmetry_group_IT_number 14
_symmetry_cell_setting 'monoclinic'
loop_
_space_group_symop_operation_xyz
x,y,z
-x,1/2+y,1/2-z
-x,-y,-z
x,1/2-y,1/2+z
loop_
_atom_site_type_symbol
_atom_site_label
_atom_site_fract_x
_atom_site_fract_y
_atom_site_fract_z
Si Si1 0.967589 0.881793 0.577476
Si Si2 0.278073 0.821167 0.929614
Si Si3 0.039995 0.003916 0.785851
Si Si4 0.334683 0.323875 0.322413
Si Si5 0.791103 0.361877 0.375215
Si Si6 0.321154 0.000125 0.494379
Si Si7 0.500000 0.000000 0.000000
Si Si8 0.411407 0.899351 0.698957
O O1 0.064982 0.733383 0.570359
O O2 0.785131 0.866115 0.549225
O O3 0.000000 0.000000 0.500000
O O4 0.013890 0.947232 0.680770
O O5 0.145378 0.892628 0.856877
O O6 0.449237 0.861501 0.919554
O O7 0.295884 0.901194 0.036602
O O8 0.259097 0.646372 0.935319
O O9 0.149995 0.152769 0.794086
O O10 0.879271 0.021164 0.821542
O O11 0.396006 0.382314 0.426483
O O12 0.419919 0.168118 0.304564
O O13 0.399917 0.456503 0.261753
O O14 0.686883 0.255775 0.299800
O O15 0.317670 0.960618 0.600716
O O16 0.500000 0.000000 0.500000
#
# Coordination Sequence:
#
# PCOD9243848 Si02
#       8
#     4   4   4   4   4   4   2   4
#     4  12  24  46  70  99 144 182 231 299 355 426
#     4  10  22  45  68  99 148 173 239 288 352 424
#     4  11  26  41  73 105 132 192 233 292 361 426
#     4  11  23  46  68 105 143 183 241 292 357 431
#     4  11  23  45  68 100 141 185 233 288 365 422
#     4  11  25  44  72 102 138 185 234 292 362 429
#     4  10  20  38  72  92 138 188 214 292 350 410
#     4  11  24  47  70 103 146 189 237 299 360 429
#
# _framework density 26.495806999999999
#
# number of rings (size 3 to 8) (size 9 to 14) (size 15 to 20)
#    0.000    1.067    6.667    0.400    3.733    3.200 
#    0.000    2.667    0.000    0.000    0.000    0.000 
#    0.000    0.000    0.000    0.000    0.000    0.000 
#
# Total GULP energy -167281.170305 kJ/mol
# GULP energy per Si atom -5576.039010 kJ/mol
# Density = 2.643550 g / cm^3
# Si number density = 26.495807 Si / 1000 Ang^3
#
#
#
# Elastic Constant Matrix: (Units=GPa)
#
#
# Indices 1 2 3 4 5 6 
#
# 1 106.5738 9.5403 21.8934 0.0000 25.4469 0.0000
# 2 9.5403 66.4492 40.7980 0.0000 15.5189 0.0000
# 3 21.8934 40.7980 105.9566 0.0000 20.7143 0.0000
# 4 0.0000 0.0000 0.0000 25.4386 0.0000 5.4065
# 5 25.4469 15.5189 20.7143 0.0000 43.6077 0.0000
# 6 0.0000 0.0000 0.0000 5.4065 0.0000 57.7087
#
#
#
# Elastic Compliance Matrix: (Units=1/GPa)
#
#
# Indices 1 2 3 4 5 6 
#
# 1 0.011044 0.000655 -0.001355 0.000000 -0.006034 0.000000
# 2 0.000655 0.020322 -0.007134 0.000000 -0.004226 0.000000
# 3 -0.001355 -0.007134 0.013023 0.000000 -0.002857 0.000000
# 4 0.000000 0.000000 0.000000 0.040109 0.000000 -0.003758
# 5 -0.006034 -0.004226 -0.002857 0.000000 0.029314 0.000000
# 6 0.000000 0.000000 0.000000 -0.003758 0.000000 0.017680
#
#
# Mechanical properties :
#
#
# Convention : Reuss Voigt Hill
#
# Bulk Modulus (GPa) = 34.81644 47.04921 40.93283
# Shear Modulus (GPa) = 31.90140 39.13419 35.51780
#
# Velocity S-wave (km/s) = 3.47366 3.84734 3.66526
# Velocity P-wave (km/s) = 5.40900 6.12632 5.77880
#
# Compressibility (1/GPa) = 0.02872206
#
# Stress axis : x y z
#
# Youngs Moduli (GPa) = 90.55044 49.20752 76.78588
#
# Poissons Ratio (x) = -0.03225 0.10401
# Poissons Ratio (y) = -0.05934 0.54781
# Poissons Ratio (z) = 0.12266 0.35106
#
# Static dielectric constant tensor:
#      x y z
#    x 1.695250 0.000000 0.033150 
#    y 0.000000 2.232510 0.000000 
#    z 0.033150 0.000000 2.078880 
# 
# From -- ./inp_files/40136.got.cif
#   From: 2010.05.17/outbox.cif.g08.bks.cpg/sg14_21_cif.got.tgz:40136.got - 2010.06.03 17:49:19.
