data_PCOD9243314
_publ_section_title
;
Structure prediction by ZEFSAII (Michael W. Deem and Ramdas Pophale) SiO2 
 PCOD9243314
Probable space group: P 21/C
;
_chemical_formula_sum "Si O2"
_cell_formula_units_Z 24
_cell_length_a 7.589068
_cell_length_b 17.111963
_cell_length_c 14.124453
_cell_angle_alpha 90.000000
_cell_angle_beta 149.860391
_cell_angle_gamma 90.000000
_cell_volume 920.995829
_symmetry_space_group_name_H-M "P 21/C"
_symmetry_group_IT_number 14
_symmetry_cell_setting 'monoclinic'
loop_
_space_group_symop_operation_xyz
x,y,z
-x,1/2+y,1/2-z
-x,-y,-z
x,1/2-y,1/2+z
loop_
_atom_site_type_symbol
_atom_site_label
_atom_site_fract_x
_atom_site_fract_y
_atom_site_fract_z
Si Si1 0.581447 0.402402 0.296426
Si Si2 0.948159 0.689785 0.837090
Si Si3 0.128610 0.474926 0.689663
Si Si4 0.937152 0.245967 0.907285
Si Si5 0.249358 0.127570 0.930709
Si Si6 0.962325 0.658018 0.231480
O O1 0.270441 0.383387 0.222628
O O2 0.932031 0.420829 0.520859
O O3 0.564392 0.475512 0.217735
O O4 0.631691 0.320601 0.264457
O O5 0.113088 0.719940 0.011373
O O6 0.056226 0.655257 0.784725
O O7 0.812809 0.772789 0.728736
O O8 0.839992 0.540020 0.583592
O O9 0.223562 0.421111 0.822282
O O10 0.243363 0.183915 0.019425
O O11 0.005111 0.312001 0.860296
O O12 0.623527 0.141702 0.055931
#
# Coordination Sequence:
#
# PCOD9243314 Si02
#       6
#     4   4   4   4   4   4
#     4  10  20  37  61  85 115 153 200 239 280 338
#     4  11  20  36  56  87 119 151 190 242 292 341
#     4  10  20  38  61  87 111 152 203 242 274 335
#     4  10  21  36  57  88 118 151 190 241 294 340
#     4  10  21  35  62  85 114 152 199 242 279 340
#     4  11  21  36  59  89 116 152 196 238 289 342
#
# _framework density 26.058748999999999
#
# number of rings (size 3 to 8) (size 9 to 14) (size 15 to 20)
#    0.000    1.667    3.333    1.500    0.000    0.000 
#    0.000    1.667    0.000    0.000    0.000    0.000 
#    0.000    0.000    0.000    0.000    0.000    0.000 
#
# Total GULP energy -133607.684648 kJ/mol
# GULP energy per Si atom -5566.986860 kJ/mol
# Density = 2.599944 g / cm^3
# Si number density = 26.058749 Si / 1000 Ang^3
#
#
#
# Elastic Constant Matrix: (Units=GPa)
#
#
# Indices 1 2 3 4 5 6 
#
# 1 116.9752 38.8802 34.6284 0.0000 -38.2774 0.0000
# 2 38.8802 147.6252 51.0656 0.0000 -26.2411 0.0000
# 3 34.6284 51.0656 74.9229 0.0000 -30.6415 0.0000
# 4 0.0000 0.0000 0.0000 33.3209 0.0000 -26.2198
# 5 -38.2774 -26.2411 -30.6415 0.0000 42.6468 0.0000
# 6 0.0000 0.0000 0.0000 -26.2198 0.0000 60.0840
#
#
#
# Elastic Compliance Matrix: (Units=1/GPa)
#
#
# Indices 1 2 3 4 5 6 
#
# 1 0.012410 -0.001219 -0.000929 0.000000 0.009721 0.000000
# 2 -0.001219 0.009059 -0.005351 0.000000 0.000635 0.000000
# 3 -0.000929 -0.005351 0.022284 0.000000 0.011884 0.000000
# 4 0.000000 0.000000 0.000000 0.045706 0.000000 0.019946
# 5 0.009721 0.000635 0.011884 0.000000 0.041103 0.000000
# 6 0.000000 0.000000 0.000000 0.019946 0.000000 0.025347
#
#
# Mechanical properties :
#
#
# Convention : Reuss Voigt Hill
#
# Bulk Modulus (GPa) = 34.77781 65.40797 50.09289
# Shear Modulus (GPa) = 27.70189 41.54026 34.62107
#
# Velocity S-wave (km/s) = 3.26399 3.99695 3.64892
# Velocity P-wave (km/s) = 5.25164 6.81583 6.08421
#
# Compressibility (1/GPa) = 0.02875397
#
# Stress axis : x y z
#
# Youngs Moduli (GPa) = 80.58011 110.38859 44.87496
#
# Poissons Ratio (x) = 0.13457 0.04170
# Poissons Ratio (y) = 0.09823 0.24013
# Poissons Ratio (z) = 0.07489 0.59071
#
# Static dielectric constant tensor:
#      x y z
#    x 2.159660 0.000000 0.153750 
#    y 0.000000 2.027150 0.000000 
#    z 0.153750 0.000000 2.262030 
# 
# From -- ./inp_files/25871.got.cif
#   From: 2010.05.17/outbox.cif.g08.bks.cpg/sg14_13_cif.got.tgz:25871.got - 2010.06.03 17:49:19.
