data_PCOD9243230
_publ_section_title
;
Structure prediction by ZEFSAII (Michael W. Deem and Ramdas Pophale) SiO2 
 PCOD9243230
Probable space group: P 21/C
;
_chemical_formula_sum "Si O2"
_cell_formula_units_Z 32
_cell_length_a 20.474406
_cell_length_b 7.007797
_cell_length_c 25.046058
_cell_angle_alpha 90.000000
_cell_angle_beta 158.216934
_cell_angle_gamma 90.000000
_cell_volume 1333.568836
_symmetry_space_group_name_H-M "P 21/C"
_symmetry_group_IT_number 14
_symmetry_cell_setting 'monoclinic'
loop_
_space_group_symop_operation_xyz
x,y,z
-x,1/2+y,1/2-z
-x,-y,-z
x,1/2-y,1/2+z
loop_
_atom_site_type_symbol
_atom_site_label
_atom_site_fract_x
_atom_site_fract_y
_atom_site_fract_z
Si Si1 0.756275 0.709950 0.442866
Si Si2 0.638638 0.145239 0.347740
Si Si3 0.870244 0.722619 0.415791
Si Si4 0.429851 0.259530 0.997112
Si Si5 0.537681 0.685797 0.096915
Si Si6 0.244437 0.761328 0.454871
Si Si7 0.746738 0.333574 0.814550
Si Si8 0.151367 0.203865 0.371800
O O1 0.563308 0.624062 0.289880
O O2 0.866459 0.656925 0.474504
O O3 0.823980 0.683138 0.554125
O O4 0.730180 0.939504 0.417885
O O5 0.721393 0.273725 0.456798
O O6 0.650303 0.218967 0.296468
O O7 0.717932 0.631093 0.263916
O O8 0.071130 0.717753 0.550007
O O9 0.807407 0.945304 0.363610
O O10 0.439391 0.490490 0.006614
O O11 0.608706 0.191815 0.161882
O O12 0.422860 0.208888 0.929095
O O13 0.260535 0.208046 0.905073
O O14 0.407766 0.791011 0.040372
O O15 0.055419 0.685073 0.294915
O O16 0.228242 0.991954 0.438603
#
# Coordination Sequence:
#
# PCOD9243230 Si02
#       8
#     4   4   4   4   4   4   4   4
#     4  10  20  37  59  82 110 144 185 232 277 325
#     4  10  20  37  59  82 110 144 185 232 277 325
#     4  10  22  38  58  85 113 145 186 230 277 330
#     4  10  22  40  58  81 114 149 186 228 275 330
#     4  10  22  40  58  81 114 149 186 228 275 330
#     4  10  22  38  57  83 113 145 185 230 275 328
#     4  10  22  38  58  85 113 145 186 230 277 330
#     4  10  22  38  57  83 113 145 185 230 275 328
#
# _framework density 23.995761999999999
#
# number of rings (size 3 to 8) (size 9 to 14) (size 15 to 20)
#    0.000    2.000    2.500    0.000    3.500    3.000 
#    0.000    0.000    0.000    0.000    0.000    0.000 
#    0.000    0.000    0.000    0.000    0.000    0.000 
#
# Total GULP energy -178972.366025 kJ/mol
# GULP energy per Si atom -5592.886438 kJ/mol
# Density = 2.394115 g / cm^3
# Si number density = 23.995762 Si / 1000 Ang^3
#
#
#
# Elastic Constant Matrix: (Units=GPa)
#
#
# Indices 1 2 3 4 5 6 
#
# 1 158.7005 13.8800 42.9522 0.0000 -13.3496 0.0000
# 2 13.8800 48.9388 -3.7414 0.0000 0.3633 0.0000
# 3 42.9522 -3.7414 103.5856 0.0000 -3.8706 0.0000
# 4 0.0000 0.0000 0.0000 56.3953 0.0000 3.6616
# 5 -13.3496 0.3633 -3.8706 0.0000 42.2371 0.0000
# 6 0.0000 0.0000 0.0000 3.6616 0.0000 6.2141
#
#
#
# Elastic Compliance Matrix: (Units=1/GPa)
#
#
# Indices 1 2 3 4 5 6 
#
# 1 0.007536 -0.002393 -0.003132 0.000000 0.002115 0.000000
# 2 -0.002393 0.021250 0.001730 0.000000 -0.000780 0.000000
# 3 -0.003132 0.001730 0.011015 0.000000 0.000005 0.000000
# 4 0.000000 0.000000 0.000000 0.018437 0.000000 -0.010864
# 5 0.002115 -0.000780 0.000005 0.000000 0.024352 0.000000
# 6 0.000000 0.000000 0.000000 -0.010864 0.000000 0.167327
#
#
# Mechanical properties :
#
#
# Convention : Reuss Voigt Hill
#
# Bulk Modulus (GPa) = 31.04328 46.37851 38.71090
# Shear Modulus (GPa) = 18.63975 38.17823 28.40899
#
# Velocity S-wave (km/s) = 2.79012 3.99311 3.44454
# Velocity P-wave (km/s) = 4.83165 6.37414 5.65573
#
# Compressibility (1/GPa) = 0.03221309
#
# Stress axis : x y z
#
# Youngs Moduli (GPa) = 132.69417 47.05806 90.78255
#
# Poissons Ratio (x) = 0.11259 0.28435
# Poissons Ratio (y) = 0.31748 -0.15710
# Poissons Ratio (z) = 0.41563 -0.08143
#
# Static dielectric constant tensor:
#      x y z
#    x 1.899190 0.000000 -0.016800 
#    y 0.000000 2.027300 0.000000 
#    z -0.016800 0.000000 1.824910 
# 
# From -- ./inp_files/77998.got.cif
#   From: 2010.05.17/outbox.cif.g08.bks.cpg/sg14_39_cif.got.tgz:77998.got - 2010.06.03 17:49:19.
