data_PCOD9243814
_publ_section_title
;
Structure prediction by ZEFSAII (Michael W. Deem and Ramdas Pophale) SiO2 
 PCOD9243814
Probable space group: P 21/C
;
_chemical_formula_sum "Si O2"
_cell_formula_units_Z 32
_cell_length_a 13.101733
_cell_length_b 11.969421
_cell_length_c 19.242159
_cell_angle_alpha 90.000000
_cell_angle_beta 23.436718
_cell_angle_gamma 90.000000
_cell_volume 1200.191470
_symmetry_space_group_name_H-M "P 21/C"
_symmetry_group_IT_number 14
_symmetry_cell_setting 'monoclinic'
loop_
_space_group_symop_operation_xyz
x,y,z
-x,1/2+y,1/2-z
-x,-y,-z
x,1/2-y,1/2+z
loop_
_atom_site_type_symbol
_atom_site_label
_atom_site_fract_x
_atom_site_fract_y
_atom_site_fract_z
Si Si1 0.000816 0.391618 0.146567
Si Si2 0.980064 0.399227 0.942764
Si Si3 0.867347 0.184522 0.371133
Si Si4 0.375348 0.184370 0.592802
Si Si5 0.535711 0.587438 0.669653
Si Si6 0.453219 0.836733 0.664609
Si Si7 0.927304 0.791268 0.013211
Si Si8 0.039167 0.968873 0.179702
O O1 0.917785 0.387784 0.279224
O O2 0.979850 0.279787 0.114201
O O3 0.882139 0.500587 0.184867
O O4 0.308530 0.406536 0.955359
O O5 0.750955 0.449991 0.132678
O O6 0.121991 0.304688 0.899122
O O7 0.825331 0.334249 0.979145
O O8 0.586444 0.219757 0.516449
O O9 0.919584 0.076001 0.291334
O O10 0.167165 0.227194 0.193247
O O11 0.528816 0.145223 0.428569
O O12 0.172383 0.086739 0.738398
O O13 0.508737 0.705530 0.645541
O O14 0.703564 0.627456 0.630632
O O15 0.705033 0.501094 0.520211
O O16 0.184811 0.859335 0.868876
#
# Coordination Sequence:
#
# PCOD9243814 Si02
#       8
#     4   4   4   4   4   4   4   4
#     4   9  20  39  63  91 125 162 218 270 330 376
#     4  10  23  40  60  92 128 171 217 269 326 389
#     4  11  24  43  66  95 138 171 222 278 333 390
#     4  11  23  41  70  98 133 171 222 278 338 386
#     4  10  20  39  60  92 127 164 217 261 325 395
#     4   9  19  36  63  91 122 168 208 267 328 392
#     4  10  20  38  67  85 129 176 216 257 329 401
#     4  10  21  42  66 100 127 173 222 277 332 403
#
# _framework density 26.662410999999999
#
# number of rings (size 3 to 8) (size 9 to 14) (size 15 to 20)
#    0.000    2.000    1.250    1.500    5.250    2.000 
#    6.750    9.375    0.000    0.000    0.000    0.000 
#    0.000    0.000    0.000    0.000    0.000    0.000 
#
# Total GULP energy -178583.612063 kJ/mol
# GULP energy per Si atom -5580.737877 kJ/mol
# Density = 2.660173 g / cm^3
# Si number density = 26.662411 Si / 1000 Ang^3
#
#
#
# Elastic Constant Matrix: (Units=GPa)
#
#
# Indices 1 2 3 4 5 6 
#
# 1 127.3742 9.8422 2.4405 0.0000 -19.5358 0.0000
# 2 9.8422 36.2157 10.8798 0.0000 -19.6973 0.0000
# 3 2.4405 10.8798 89.1200 0.0000 -11.8913 0.0000
# 4 0.0000 0.0000 0.0000 31.8787 0.0000 -15.2216
# 5 -19.5358 -19.6973 -11.8913 0.0000 29.8771 0.0000
# 6 0.0000 0.0000 0.0000 -15.2216 0.0000 8.9982
#
#
#
# Elastic Compliance Matrix: (Units=1/GPa)
#
#
# Indices 1 2 3 4 5 6 
#
# 1 0.008779 0.001080 0.000516 0.000000 0.006658 0.000000
# 2 0.001080 0.043385 -0.001495 0.000000 0.028714 0.000000
# 3 0.000516 -0.001495 0.011937 0.000000 0.004103 0.000000
# 4 0.000000 0.000000 0.000000 0.163148 0.000000 0.275985
# 5 0.006658 0.028714 0.004103 0.000000 0.058387 0.000000
# 6 0.000000 0.000000 0.000000 0.275985 0.000000 0.577996
#
#
# Mechanical properties :
#
#
# Convention : Reuss Voigt Hill
#
# Bulk Modulus (GPa) = 15.55123 33.22611 24.38867
# Shear Modulus (GPa) = 5.65060 29.45398 17.55229
#
# Velocity S-wave (km/s) = 1.45736 3.32731 2.56855
# Velocity P-wave (km/s) = 2.94571 5.22017 4.23836
#
# Compressibility (1/GPa) = 0.06430361
#
# Stress axis : x y z
#
# Youngs Moduli (GPa) = 113.91300 23.04938 83.77587
#
# Poissons Ratio (x) = -0.02490 -0.04323
# Poissons Ratio (y) = -0.12306 0.12522
# Poissons Ratio (z) = -0.05879 0.03445
#
# Static dielectric constant tensor:
#      x y z
#    x 2.167880 0.000000 0.008920 
#    y 0.000000 2.247960 0.000000 
#    z 0.008920 0.000000 2.061170 
# 
# From -- ./inp_files/57983.got.cif
#   From: 2010.05.17/outbox.cif.g08.bks.cpg/sg14_29_cif.got.tgz:57983.got - 2010.06.03 17:49:19.
