data_PCOD9243082
_publ_section_title
;
Structure prediction by ZEFSAII (Michael W. Deem and Ramdas Pophale) SiO2 
 PCOD9243082
Probable space group: P 21/C
;
_chemical_formula_sum "Si O2"
_cell_formula_units_Z 16
_cell_length_a 16.883712
_cell_length_b 7.171566
_cell_length_c 5.876297
_cell_angle_alpha 90.000000
_cell_angle_beta 121.322582
_cell_angle_gamma 90.000000
_cell_volume 607.816796
_symmetry_space_group_name_H-M "P 21/C"
_symmetry_group_IT_number 14
_symmetry_cell_setting 'monoclinic'
loop_
_space_group_symop_operation_xyz
x,y,z
-x,1/2+y,1/2-z
-x,-y,-z
x,1/2-y,1/2+z
loop_
_atom_site_type_symbol
_atom_site_label
_atom_site_fract_x
_atom_site_fract_y
_atom_site_fract_z
Si Si1 0.826280 0.525664 0.273032
Si Si2 0.552363 0.607916 0.273859
Si Si3 0.370224 0.985588 0.712992
Si Si4 0.891073 0.963312 0.368023
O O1 0.853032 0.748039 0.319634
O O2 0.851353 0.460823 0.566480
O O3 0.720126 0.467083 0.069521
O O4 0.870877 0.464100 0.095885
O O5 0.632131 0.485472 0.517046
O O6 0.601652 0.797291 0.282122
O O7 0.460279 0.634356 0.290913
O O8 0.500000 0.500000 0.000000
O O9 0.000000 0.000000 0.500000
#
# Coordination Sequence:
#
# PCOD9243082 Si02
#       4
#     4   4   4   4
#     4  10  22  38  67  91 117 162 215 249 313 398
#     4  11  22  36  62  88 133 161 220 259 305 370
#     4  11  23  39  62  96 120 180 211 257 312 372
#     4  10  20  36  62  91 117 148 200 264 315 368
#
# _framework density 26.323720000000002
#
# number of rings (size 3 to 8) (size 9 to 14) (size 15 to 20)
#    0.000    1.500    2.500    3.750    3.500    0.000 
#    0.000    0.000    0.000   48.000    0.000    0.000 
#    0.000    0.000    0.000    0.000    0.000    0.000 
#
# Total GULP energy -89146.153367 kJ/mol
# GULP energy per Si atom -5571.634585 kJ/mol
# Density = 2.626381 g / cm^3
# Si number density = 26.323720 Si / 1000 Ang^3
#
#
#
# Elastic Constant Matrix: (Units=GPa)
#
#
# Indices 1 2 3 4 5 6 
#
# 1 75.2545 -16.8902 42.0322 0.0000 -14.2865 0.0000
# 2 -16.8902 84.3103 4.0043 0.0000 -8.8499 0.0000
# 3 42.0322 4.0043 212.7726 0.0000 -1.8711 0.0000
# 4 0.0000 0.0000 0.0000 16.3463 0.0000 13.8673
# 5 -14.2865 -8.8499 -1.8711 0.0000 64.1869 0.0000
# 6 0.0000 0.0000 0.0000 13.8673 0.0000 32.4282
#
#
#
# Elastic Compliance Matrix: (Units=1/GPa)
#
#
# Indices 1 2 3 4 5 6 
#
# 1 0.016861 0.003979 -0.003369 0.000000 0.004203 0.000000
# 2 0.003979 0.012984 -0.001007 0.000000 0.002646 0.000000
# 3 -0.003369 -0.001007 0.005378 0.000000 -0.000732 0.000000
# 4 0.000000 0.000000 0.000000 0.096004 0.000000 -0.041054
# 5 0.004203 0.002646 -0.000732 0.000000 0.016859 0.000000
# 6 0.000000 0.000000 0.000000 -0.041054 0.000000 0.048394
#
#
# Mechanical properties :
#
#
# Convention : Reuss Voigt Hill
#
# Bulk Modulus (GPa) = 29.04554 47.84777 38.44665
# Shear Modulus (GPa) = 23.95227 45.47168 34.71198
#
# Velocity S-wave (km/s) = 3.01975 4.16071 3.63527
# Velocity P-wave (km/s) = 4.81834 6.42637 5.67955
#
# Compressibility (1/GPa) = 0.03442870
#
# Stress axis : x y z
#
# Youngs Moduli (GPa) = 59.30931 77.01964 185.94831
#
# Poissons Ratio (x) = -0.30646 0.62640
# Poissons Ratio (y) = -0.23599 0.18727
# Poissons Ratio (z) = 0.19979 0.07757
#
# Static dielectric constant tensor:
#      x y z
#    x 2.258790 0.000000 -0.292210 
#    y 0.000000 2.140270 0.000000 
#    z -0.292210 0.000000 2.368410 
# 
# From -- ./inp_files/4044.got.cif
#   From: 2010.05.17/outbox.cif.g08.bks.cpg/sg14_3_cif.got.tgz:4044.got - 2010.06.03 17:49:19.
