data_PCOD9243556
_publ_section_title
;
Structure prediction by ZEFSAII (Michael W. Deem and Ramdas Pophale) SiO2 
 PCOD9243556
Probable space group: P 21/C
;
_chemical_formula_sum "Si O2"
_cell_formula_units_Z 28
_cell_length_a 23.898369
_cell_length_b 8.832606
_cell_length_c 14.292978
_cell_angle_alpha 90.000000
_cell_angle_beta 155.354617
_cell_angle_gamma 90.000000
_cell_volume 1258.104709
_symmetry_space_group_name_H-M "P 21/C"
_symmetry_group_IT_number 14
_symmetry_cell_setting 'monoclinic'
loop_
_space_group_symop_operation_xyz
x,y,z
-x,1/2+y,1/2-z
-x,-y,-z
x,1/2-y,1/2+z
loop_
_atom_site_type_symbol
_atom_site_label
_atom_site_fract_x
_atom_site_fract_y
_atom_site_fract_z
Si Si1 0.478582 0.888142 0.742978
Si Si2 0.087129 0.996760 0.853880
Si Si3 0.923866 0.513672 0.286249
Si Si4 0.373377 0.534431 0.370543
Si Si5 0.272067 0.750645 0.077048
Si Si6 0.300913 0.341187 0.949121
Si Si7 0.852816 0.696604 0.959491
O O1 0.391038 0.786828 0.684183
O O2 0.373394 0.999304 0.533271
O O3 0.576374 0.002436 0.949243
O O4 0.581882 0.777974 0.848533
O O5 0.030995 0.940449 0.870252
O O6 0.968374 0.925633 0.610106
O O7 0.219587 0.919408 0.013478
O O8 0.104425 0.172701 0.903013
O O9 0.800069 0.624002 0.120444
O O10 0.000000 0.500000 0.500000
O O11 0.852625 0.356311 0.145679
O O12 0.500000 0.500000 0.500000
O O13 0.315989 0.691607 0.246552
O O14 0.263784 0.409385 0.179362
O O15 0.212381 0.278612 0.729162
#
# Coordination Sequence:
#
# PCOD9243556 Si02
#       7
#     4   4   4   4   4   4   4
#     4   9  21  38  60  84 121 160 208 257 307 366
#     4  12  21  37  62  94 121 159 207 255 305 373
#     4  11  20  38  64  85 122 169 200 251 319 374
#     4   9  18  38  61  84 112 161 202 252 305 363
#     4  10  20  38  60  86 121 158 208 256 307 366
#     4  10  21  41  62  88 123 167 208 252 315 370
#     4  11  21  37  64  91 124 159 208 257 301 370
#
# _framework density 22.255697999999999
#
# number of rings (size 3 to 8) (size 9 to 14) (size 15 to 20)
#    0.000    1.714    4.286    0.000    0.000    1.143 
#    2.571    6.429    0.000    3.429    0.000    0.000 
#    0.000    0.000    0.000    0.000    0.000    0.000 
#
# Total GULP energy -156062.924522 kJ/mol
# GULP energy per Si atom -5573.675876 kJ/mol
# Density = 2.220504 g / cm^3
# Si number density = 22.255698 Si / 1000 Ang^3
#
#
#
# Elastic Constant Matrix: (Units=GPa)
#
#
# Indices 1 2 3 4 5 6 
#
# 1 33.9046 -11.1581 1.1639 0.0000 4.4730 0.0000
# 2 -11.1581 46.9176 18.7715 0.0000 1.8206 0.0000
# 3 1.1639 18.7715 78.1132 0.0000 9.2989 0.0000
# 4 0.0000 0.0000 0.0000 52.4269 0.0000 11.3027
# 5 4.4730 1.8206 9.2989 0.0000 24.3875 0.0000
# 6 0.0000 0.0000 0.0000 11.3027 0.0000 33.4041
#
#
#
# Elastic Compliance Matrix: (Units=1/GPa)
#
#
# Indices 1 2 3 4 5 6 
#
# 1 0.033293 0.008921 -0.001921 0.000000 -0.006040 0.000000
# 2 0.008921 0.025976 -0.006232 0.000000 -0.001199 0.000000
# 3 -0.001921 -0.006232 0.014908 0.000000 -0.004867 0.000000
# 4 0.000000 0.000000 0.000000 0.020575 0.000000 -0.006962
# 5 -0.006040 -0.001199 -0.004867 0.000000 0.044058 0.000000
# 6 0.000000 0.000000 0.000000 -0.006962 0.000000 0.032292
#
#
# Mechanical properties :
#
#
# Convention : Reuss Voigt Hill
#
# Bulk Modulus (GPa) = 13.20803 19.61001 16.40902
# Shear Modulus (GPa) = 25.66691 32.05424 28.86057
#
# Velocity S-wave (km/s) = 3.39967 3.79921 3.60498
# Velocity P-wave (km/s) = 4.62146 5.29865 4.97160
#
# Compressibility (1/GPa) = 0.07571150
#
# Stress axis : x y z
#
# Youngs Moduli (GPa) = 30.03620 38.49756 67.07970
#
# Poissons Ratio (x) = -0.34343 0.12885
# Poissons Ratio (y) = -0.26795 0.41807
# Poissons Ratio (z) = 0.05769 0.23993
#
# Static dielectric constant tensor:
#      x y z
#    x 1.810670 0.000000 -0.037030 
#    y 0.000000 1.854850 0.000000 
#    z -0.037030 0.000000 1.880810 
# 
# From -- ./inp_files/62615.got.cif
#   From: 2010.05.17/outbox.cif.g08.bks.cpg/sg14_32_cif.got.tgz:62615.got - 2010.06.03 17:49:19.
