data_PCOD9243257
_publ_section_title
;
Structure prediction by ZEFSAII (Michael W. Deem and Ramdas Pophale) SiO2 
 PCOD9243257
Probable space group: P 21/C
;
_chemical_formula_sum "Si O2"
_cell_formula_units_Z 16
_cell_length_a 11.838821
_cell_length_b 8.295490
_cell_length_c 14.530335
_cell_angle_alpha 90.000000
_cell_angle_beta 24.009086
_cell_angle_gamma 90.000000
_cell_volume 580.622790
_symmetry_space_group_name_H-M "P 21/C"
_symmetry_group_IT_number 14
_symmetry_cell_setting 'monoclinic'
loop_
_space_group_symop_operation_xyz
x,y,z
-x,1/2+y,1/2-z
-x,-y,-z
x,1/2-y,1/2+z
loop_
_atom_site_type_symbol
_atom_site_label
_atom_site_fract_x
_atom_site_fract_y
_atom_site_fract_z
Si Si1 0.572642 0.255373 0.709672
Si Si2 0.071524 0.054179 0.049413
Si Si3 0.416215 0.748307 0.574818
Si Si4 0.928804 0.557320 0.154934
O O1 0.725612 0.417053 0.562446
O O2 0.567478 0.254299 0.825500
O O3 0.780160 0.114404 0.521451
O O4 0.265257 0.213209 0.906420
O O5 0.775029 0.102034 0.313235
O O6 0.000000 0.000000 0.000000
O O7 0.723764 0.712166 0.310565
O O8 0.241734 0.589227 0.675199
O O9 0.000000 0.500000 0.000000
#
# Coordination Sequence:
#
# PCOD9243257 Si02
#       4
#     4   4   4   4
#     4  10  20  37  59  88 128 176 223 276 337 398
#     4  10  21  38  62  92 132 179 228 282 337 399
#     4   9  19  37  60  91 125 165 219 277 341 408
#     4   9  18  36  63  90 124 164 211 275 343 409
#
# _framework density 27.556616000000002
#
# number of rings (size 3 to 8) (size 9 to 14) (size 15 to 20)
#    0.000    2.500    0.000    1.500    0.000    3.000 
#    0.000   20.000    0.000    0.000    0.000    0.000 
#    0.000    0.000    0.000    0.000    0.000    0.000 
#
# Total GULP energy -89583.167355 kJ/mol
# GULP energy per Si atom -5598.947960 kJ/mol
# Density = 2.749390 g / cm^3
# Si number density = 27.556616 Si / 1000 Ang^3
#
#
#
# Elastic Constant Matrix: (Units=GPa)
#
#
# Indices 1 2 3 4 5 6 
#
# 1 127.5244 33.9629 57.7291 0.0000 17.2004 0.0000
# 2 33.9629 96.3035 31.5243 0.0000 -9.3366 0.0000
# 3 57.7291 31.5243 171.4980 0.0000 -28.7990 0.0000
# 4 0.0000 0.0000 0.0000 76.2760 0.0000 -23.6207
# 5 17.2004 -9.3366 -28.7990 0.0000 57.6481 0.0000
# 6 0.0000 0.0000 0.0000 -23.6207 0.0000 29.5956
#
#
#
# Elastic Compliance Matrix: (Units=1/GPa)
#
#
# Indices 1 2 3 4 5 6 
#
# 1 0.011463 -0.003229 -0.004287 0.000000 -0.006085 0.000000
# 2 -0.003229 0.011996 -0.000688 0.000000 0.002563 0.000000
# 3 -0.004287 -0.000688 0.008292 0.000000 0.005310 0.000000
# 4 0.000000 0.000000 0.000000 0.017414 0.000000 0.013899
# 5 -0.006085 0.002563 0.005310 0.000000 0.022230 0.000000
# 6 0.000000 0.000000 0.000000 0.013899 0.000000 0.044882
#
#
# Mechanical properties :
#
#
# Convention : Reuss Voigt Hill
#
# Bulk Modulus (GPa) = 65.17313 71.30649 68.23981
# Shear Modulus (GPa) = 36.28464 50.84458 43.56461
#
# Velocity S-wave (km/s) = 3.63261 4.30012 3.98038
# Velocity P-wave (km/s) = 6.42623 7.11247 6.77804
#
# Compressibility (1/GPa) = 0.01534375
#
# Stress axis : x y z
#
# Youngs Moduli (GPa) = 87.23738 83.35925 120.59651
#
# Poissons Ratio (x) = 0.26919 0.51698
# Poissons Ratio (y) = 0.28171 0.08294
# Poissons Ratio (z) = 0.37397 0.05733
#
# Static dielectric constant tensor:
#      x y z
#    x 2.066230 0.000000 -0.010920 
#    y 0.000000 2.270120 0.000000 
#    z -0.010920 0.000000 2.070240 
# 
# From -- ./inp_files/58843.got.cif
#   From: 2010.05.17/outbox.cif.g08.bks.cpg/sg14_30_cif.got.tgz:58843.got - 2010.06.03 17:49:19.
