data_PCOD9243017
_publ_section_title
;
Structure prediction by ZEFSAII (Michael W. Deem and Ramdas Pophale) SiO2 
 PCOD9243017
Probable space group: P 21/C
;
_chemical_formula_sum "Si O2"
_cell_formula_units_Z 28
_cell_length_a 19.977064
_cell_length_b 8.868320
_cell_length_c 22.749246
_cell_angle_alpha 90.000000
_cell_angle_beta 159.691185
_cell_angle_gamma 90.000000
_cell_volume 1398.844824
_symmetry_space_group_name_H-M "P 21/C"
_symmetry_group_IT_number 14
_symmetry_cell_setting 'monoclinic'
loop_
_space_group_symop_operation_xyz
x,y,z
-x,1/2+y,1/2-z
-x,-y,-z
x,1/2-y,1/2+z
loop_
_atom_site_type_symbol
_atom_site_label
_atom_site_fract_x
_atom_site_fract_y
_atom_site_fract_z
Si Si1 0.965240 0.255412 0.481432
Si Si2 0.954165 0.490451 0.880683
Si Si3 0.069109 0.874904 0.766532
Si Si4 0.209401 0.390403 0.470325
Si Si5 0.601305 0.318510 0.903401
Si Si6 0.386539 0.010265 0.699998
Si Si7 0.761997 0.974842 0.868956
O O1 0.085813 0.156600 0.627643
O O2 0.812291 0.357310 0.390109
O O3 0.097935 0.365057 0.551941
O O4 0.881150 0.134456 0.366230
O O5 0.889243 0.450102 0.762006
O O6 0.189789 0.481475 0.074303
O O7 0.875495 0.776527 0.602057
O O8 0.073578 0.002272 0.819684
O O9 0.234924 0.758557 0.923314
O O10 0.427263 0.413035 0.625879
O O11 0.208030 0.450654 0.536393
O O12 0.670557 0.424962 0.907371
O O13 0.454931 0.420025 0.820175
O O14 0.477217 0.178758 0.773195
#
# Coordination Sequence:
#
# PCOD9243017 Si02
#       7
#     4   4   4   4   4   4   4
#     4  10  22  37  66  77 114 168 203 248 276 372
#     4  11  21  39  60  88 116 153 209 240 305 358
#     4  11  22  37  58  93 128 148 191 263 321 349
#     4  10  22  37  61  90 120 155 193 256 313 351
#     4  10  21  36  61  89 121 156 196 260 301 357
#     4  10  20  36  60  87 118 153 205 242 295 368
#     4  10  20  42  60  84 114 156 216 233 295 368
#
# _framework density 20.016517
#
# number of rings (size 3 to 8) (size 9 to 14) (size 15 to 20)
#    0.000    1.714    2.857    1.714    8.000    0.000 
#    0.000    1.429    0.000    0.000    0.000    0.000 
#    0.000    0.000    0.000    0.000    0.000    0.000 
#
# Total GULP energy -156242.025238 kJ/mol
# GULP energy per Si atom -5580.072330 kJ/mol
# Density = 1.997096 g / cm^3
# Si number density = 20.016517 Si / 1000 Ang^3
#
#
#
# Elastic Constant Matrix: (Units=GPa)
#
#
# Indices 1 2 3 4 5 6 
#
# 1 80.5216 45.3883 31.5760 0.0000 -16.2498 0.0000
# 2 45.3883 94.1616 18.2425 0.0000 -20.2797 0.0000
# 3 31.5760 18.2425 61.0384 0.0000 -19.1038 0.0000
# 4 0.0000 0.0000 0.0000 37.8194 0.0000 -7.3157
# 5 -16.2498 -20.2797 -19.1038 0.0000 12.7663 0.0000
# 6 0.0000 0.0000 0.0000 -7.3157 0.0000 33.9411
#
#
#
# Elastic Compliance Matrix: (Units=1/GPa)
#
#
# Indices 1 2 3 4 5 6 
#
# 1 0.020174 -0.007827 -0.007433 0.000000 0.002123 0.000000
# 2 -0.007827 0.020449 0.009379 0.000000 0.036555 0.000000
# 3 -0.007433 0.009379 0.035977 0.000000 0.059274 0.000000
# 4 0.000000 0.000000 0.000000 0.027592 0.000000 0.005947
# 5 0.002123 0.036555 0.059274 0.000000 0.227800 0.000000
# 6 0.000000 0.000000 0.000000 0.005947 0.000000 0.030745
#
#
# Mechanical properties :
#
#
# Convention : Reuss Voigt Hill
#
# Bulk Modulus (GPa) = 15.42330 47.34836 31.38583
# Shear Modulus (GPa) = 12.62270 26.27302 19.44786
#
# Velocity S-wave (km/s) = 2.51393 3.62687 3.12042
# Velocity P-wave (km/s) = 4.01851 6.42222 5.35693
#
# Compressibility (1/GPa) = 0.06483696
#
# Stress axis : x y z
#
# Youngs Moduli (GPa) = 49.56831 48.90219 27.79586
#
# Poissons Ratio (x) = 0.38277 0.20660
# Poissons Ratio (y) = 0.38799 -0.26069
# Poissons Ratio (z) = 0.36843 -0.45864
#
# Static dielectric constant tensor:
#      x y z
#    x 1.698680 0.000000 0.000970 
#    y 0.000000 1.754390 0.000000 
#    z 0.000970 0.000000 1.740880 
# 
# From -- ./inp_files/74660.got.cif
#   From: 2010.05.17/outbox.cif.g08.bks.cpg/sg14_38_cif.got.tgz:74660.got - 2010.06.03 17:49:19.
