data_PCOD9243186
_publ_section_title
;
Structure prediction by ZEFSAII (Michael W. Deem and Ramdas Pophale) SiO2 
 PCOD9243186
Probable space group: P 21/C
;
_chemical_formula_sum "Si O2"
_cell_formula_units_Z 24
_cell_length_a 14.828475
_cell_length_b 5.206152
_cell_length_c 12.305668
_cell_angle_alpha 90.000000
_cell_angle_beta 95.511408
_cell_angle_gamma 90.000000
_cell_volume 945.597183
_symmetry_space_group_name_H-M "P 21/C"
_symmetry_group_IT_number 14
_symmetry_cell_setting 'monoclinic'
loop_
_space_group_symop_operation_xyz
x,y,z
-x,1/2+y,1/2-z
-x,-y,-z
x,1/2-y,1/2+z
loop_
_atom_site_type_symbol
_atom_site_label
_atom_site_fract_x
_atom_site_fract_y
_atom_site_fract_z
Si Si1 0.393269 0.891639 0.790220
Si Si2 0.919472 0.227850 0.066624
Si Si3 0.909804 0.524528 0.859888
Si Si4 0.798931 0.193442 0.710907
Si Si5 0.222752 0.382938 0.565108
Si Si6 0.412358 0.105896 0.144248
O O1 0.482478 0.862671 0.875516
O O2 0.391982 0.170966 0.732424
O O3 0.297310 0.813900 0.829627
O O4 0.407716 0.675089 0.698531
O O5 0.853916 0.437685 0.120355
O O6 0.017559 0.248809 0.135762
O O7 0.948319 0.313002 0.946567
O O8 0.846567 0.009085 0.026777
O O9 0.876204 0.407645 0.744431
O O10 0.815827 0.610841 0.903273
O O11 0.785237 0.038257 0.820316
O O12 0.329260 0.372408 0.550886
#
# Coordination Sequence:
#
# PCOD9243186 Si02
#       6
#     4   4   4   4   4   4
#     4   9  17  33  56  90 115 155 206 245 297 360
#     4  10  23  37  55  86 116 151 196 255 291 361
#     4  10  21  39  57  79 116 154 197 240 309 353
#     4  10  21  36  58  86 114 152 206 244 299 355
#     4  10  20  37  57  82 115 156 193 246 301 359
#     4   9  17  32  60  84 119 158 198 247 301 360
#
# _framework density 25.380786000000001
#
# number of rings (size 3 to 8) (size 9 to 14) (size 15 to 20)
#    0.000    2.333    1.667    0.500    2.333    1.333 
#    0.000    0.833    0.000    1.000    0.000    0.000 
#    0.000    0.000    0.000    0.000    0.000    0.000 
#
# Total GULP energy -133701.566284 kJ/mol
# GULP energy per Si atom -5570.898595 kJ/mol
# Density = 2.532302 g / cm^3
# Si number density = 25.380786 Si / 1000 Ang^3
#
#
#
# Elastic Constant Matrix: (Units=GPa)
#
#
# Indices 1 2 3 4 5 6 
#
# 1 179.5798 -0.6452 28.4253 0.0000 30.7135 0.0000
# 2 -0.6452 70.2732 0.4357 0.0000 10.0392 0.0000
# 3 28.4253 0.4357 31.2353 0.0000 6.6137 0.0000
# 4 0.0000 0.0000 0.0000 15.2510 0.0000 4.4956
# 5 30.7135 10.0392 6.6137 0.0000 36.8504 0.0000
# 6 0.0000 0.0000 0.0000 4.4956 0.0000 21.1099
#
#
#
# Elastic Compliance Matrix: (Units=1/GPa)
#
#
# Indices 1 2 3 4 5 6 
#
# 1 0.007376 0.000871 -0.005585 0.000000 -0.005383 0.000000
# 2 0.000871 0.014923 0.000014 0.000000 -0.004794 0.000000
# 3 -0.005585 0.000014 0.037539 0.000000 -0.002086 0.000000
# 4 0.000000 0.000000 0.000000 0.069961 0.000000 -0.014899
# 5 -0.005383 -0.004794 -0.002086 0.000000 0.033304 0.000000
# 6 0.000000 0.000000 0.000000 -0.014899 0.000000 0.050544
#
#
# Mechanical properties :
#
#
# Convention : Reuss Voigt Hill
#
# Bulk Modulus (GPa) = 19.82592 37.50221 28.66407
# Shear Modulus (GPa) = 20.84546 31.50043 26.17295
#
# Velocity S-wave (km/s) = 2.86896 3.52677 3.21473
# Velocity P-wave (km/s) = 4.33623 5.60286 5.00974
#
# Compressibility (1/GPa) = 0.05043901
#
# Stress axis : x y z
#
# Youngs Moduli (GPa) = 135.56751 67.01067 26.63874
#
# Poissons Ratio (x) = -0.05839 0.14878
# Poissons Ratio (y) = -0.11813 -0.00037
# Poissons Ratio (z) = 0.75717 -0.00094
#
# Static dielectric constant tensor:
#      x y z
#    x 2.011730 0.000000 -0.050540 
#    y 0.000000 2.297180 0.000000 
#    z -0.050540 0.000000 2.298100 
# 
# From -- ./inp_files/45844.got.cif
#   From: 2010.05.17/outbox.cif.g08.bks.cpg/sg14_23_cif.got.tgz:45844.got - 2010.06.03 17:49:19.
