data_PCOD9243854
_publ_section_title
;
Structure prediction by ZEFSAII (Michael W. Deem and Ramdas Pophale) SiO2 
 PCOD9243854
Probable space group: P 21/C
;
_chemical_formula_sum "Si O2"
_cell_formula_units_Z 20
_cell_length_a 24.634023
_cell_length_b 5.220189
_cell_length_c 13.351177
_cell_angle_alpha 90.000000
_cell_angle_beta 29.749215
_cell_angle_gamma 90.000000
_cell_volume 851.926086
_symmetry_space_group_name_H-M "P 21/C"
_symmetry_group_IT_number 14
_symmetry_cell_setting 'monoclinic'
loop_
_space_group_symop_operation_xyz
x,y,z
-x,1/2+y,1/2-z
-x,-y,-z
x,1/2-y,1/2+z
loop_
_atom_site_type_symbol
_atom_site_label
_atom_site_fract_x
_atom_site_fract_y
_atom_site_fract_z
Si Si1 0.715364 0.305394 0.997826
Si Si2 0.671573 0.806558 0.990114
Si Si3 0.003802 0.506824 0.875124
Si Si4 0.125805 0.004015 0.601913
Si Si5 0.498408 0.487886 0.384396
O O1 0.760525 0.426048 0.028131
O O2 0.748784 0.020916 0.915671
O O3 0.585068 0.269416 0.215348
O O4 0.732780 0.531268 0.888308
O O5 0.618251 0.921496 0.975620
O O6 0.565240 0.725185 0.228509
O O7 0.082165 0.279416 0.708236
O O8 0.892130 0.481211 0.988418
O O9 0.049013 0.784848 0.772660
O O10 0.000000 0.500000 0.000000
O O11 0.500000 0.500000 0.500000
#
# Coordination Sequence:
#
# PCOD9243854 Si02
#       5
#     4   4   4   4   4
#     4  10  20  39  56  85 119 148 192 240 282 331
#     4  10  20  39  56  80 119 150 194 236 284 332
#     4  10  21  40  64  83 116 154 187 230 303 347
#     4  10  21  39  60  87 120 147 188 247 278 346
#     4  10  21  39  60  80 119 157 194 234 288 335
#
# _framework density 23.476216999999998
#
# number of rings (size 3 to 8) (size 9 to 14) (size 15 to 20)
#    1.200    0.800    2.000    1.800    0.000    0.800 
#    7.200    0.000    0.000    0.000    0.000    0.000 
#    0.000    0.000    0.000    0.000    0.000    0.000 
#
# Total GULP energy -111396.608516 kJ/mol
# GULP energy per Si atom -5569.830426 kJ/mol
# Density = 2.342278 g / cm^3
# Si number density = 23.476217 Si / 1000 Ang^3
#
#
#
# Elastic Constant Matrix: (Units=GPa)
#
#
# Indices 1 2 3 4 5 6 
#
# 1 189.5978 38.0214 29.9630 0.0000 18.1924 0.0000
# 2 38.0214 119.3983 8.2945 0.0000 6.9342 0.0000
# 3 29.9630 8.2945 35.8677 0.0000 17.1747 0.0000
# 4 0.0000 0.0000 0.0000 10.9983 0.0000 -1.4137
# 5 18.1924 6.9342 17.1747 0.0000 48.3678 0.0000
# 6 0.0000 0.0000 0.0000 -1.4137 0.0000 27.6323
#
#
#
# Elastic Compliance Matrix: (Units=1/GPa)
#
#
# Indices 1 2 3 4 5 6 
#
# 1 0.006406 -0.001683 -0.004728 0.000000 -0.000489 0.000000
# 2 -0.001683 0.008970 -0.000429 0.000000 -0.000501 0.000000
# 3 -0.004728 -0.000429 0.037408 0.000000 -0.011443 0.000000
# 4 0.000000 0.000000 0.000000 0.091525 0.000000 0.004682
# 5 -0.000489 -0.000501 -0.011443 0.000000 0.024994 0.000000
# 6 0.000000 0.000000 0.000000 0.004682 0.000000 0.036429
#
#
# Mechanical properties :
#
#
# Convention : Reuss Voigt Hill
#
# Bulk Modulus (GPa) = 25.57186 55.26908 40.42047
# Shear Modulus (GPa) = 21.51029 35.30535 28.40782
#
# Velocity S-wave (km/s) = 3.03026 3.88219 3.48238
# Velocity P-wave (km/s) = 4.81244 6.60976 5.78137
#
# Compressibility (1/GPa) = 0.03910549
#
# Stress axis : x y z
#
# Youngs Moduli (GPa) = 156.10476 111.48098 26.73196
#
# Poissons Ratio (x) = 0.18763 0.12638
# Poissons Ratio (y) = 0.26273 0.01146
# Poissons Ratio (z) = 0.73804 0.04778
#
# Static dielectric constant tensor:
#      x y z
#    x 1.971090 0.000000 -0.045780 
#    y 0.000000 2.152130 0.000000 
#    z -0.045780 0.000000 1.973090 
# 
# From -- ./inp_files/33257.got.cif
#   From: 2010.05.17/outbox.cif.g08.bks.cpg/sg14_17_cif.got.tgz:33257.got - 2010.06.03 17:49:19.
