data_PCOD9243462
_publ_section_title
;
Structure prediction by ZEFSAII (Michael W. Deem and Ramdas Pophale) SiO2 
 PCOD9243462
Probable space group: P 21/C
;
_chemical_formula_sum "Si O2"
_cell_formula_units_Z 32
_cell_length_a 13.883381
_cell_length_b 11.977773
_cell_length_c 14.571057
_cell_angle_alpha 90.000000
_cell_angle_beta 138.333553
_cell_angle_gamma 90.000000
_cell_volume 1610.826688
_symmetry_space_group_name_H-M "P 21/C"
_symmetry_group_IT_number 14
_symmetry_cell_setting 'monoclinic'
loop_
_space_group_symop_operation_xyz
x,y,z
-x,1/2+y,1/2-z
-x,-y,-z
x,1/2-y,1/2+z
loop_
_atom_site_type_symbol
_atom_site_label
_atom_site_fract_x
_atom_site_fract_y
_atom_site_fract_z
Si Si1 0.438245 0.887744 0.694712
Si Si2 0.879230 0.008426 0.337905
Si Si3 0.284708 0.761255 0.738888
Si Si4 0.875751 0.465639 0.631011
Si Si5 0.653755 0.878730 0.285062
Si Si6 0.236843 0.162983 0.079902
Si Si7 0.983991 0.122271 0.030417
Si Si8 0.361672 0.726628 0.497397
O O1 0.409425 0.800206 0.757576
O O2 0.606605 0.890827 0.785953
O O3 0.338803 0.834755 0.544869
O O4 0.392632 0.008666 0.696724
O O5 0.806668 0.127926 0.303499
O O6 0.932789 0.001866 0.271810
O O7 0.760742 0.916232 0.279766
O O8 0.000000 0.000000 0.500000
O O9 0.168361 0.676507 0.611303
O O10 0.349538 0.732667 0.884161
O O11 0.827355 0.579133 0.542847
O O12 0.979193 0.396822 0.635896
O O13 0.745303 0.377482 0.557733
O O14 0.723360 0.792583 0.407525
O O15 0.517402 0.820336 0.139265
O O16 0.123367 0.177173 0.082851
O O17 0.000000 0.000000 0.000000
#
# Coordination Sequence:
#
# PCOD9243462 Si02
#       8
#     4   4   4   4   4   4   4   4
#     4  10  20  37  66  92 129 166 216 270 318 394
#     4  10  22  39  61  93 125 159 214 273 316 381
#     4  10  21  37  65  89 122 165 217 268 316 393
#     4  10  20  39  67  86 121 173 211 255 331 388
#     4  10  21  38  63  96 133 161 218 275 315 388
#     4  10  21  37  64  92 130 168 213 264 319 383
#     4  10  21  40  61  89 123 169 211 261 320 399
#     4  10  20  37  66  94 122 169 219 260 333 377
#
# _framework density 19.865575
#
# number of rings (size 3 to 8) (size 9 to 14) (size 15 to 20)
#    0.000    2.000    2.500    0.750    1.750    1.500 
#    9.000    5.000    5.500    9.000    0.000    0.000 
#    0.000    0.000    0.000    0.000    0.000    0.000 
#
# Total GULP energy -178184.893211 kJ/mol
# GULP energy per Si atom -5568.277913 kJ/mol
# Density = 1.982036 g / cm^3
# Si number density = 19.865575 Si / 1000 Ang^3
#
#
#
# Elastic Constant Matrix: (Units=GPa)
#
#
# Indices 1 2 3 4 5 6 
#
# 1 88.3227 19.1301 65.1058 0.0000 -6.8202 0.0000
# 2 19.1301 81.0338 28.0428 0.0000 -1.9222 0.0000
# 3 65.1058 28.0428 85.7661 0.0000 -25.9077 0.0000
# 4 0.0000 0.0000 0.0000 22.3509 0.0000 -2.0676
# 5 -6.8202 -1.9222 -25.9077 0.0000 30.4192 0.0000
# 6 0.0000 0.0000 0.0000 -2.0676 0.0000 15.9685
#
#
#
# Elastic Compliance Matrix: (Units=1/GPa)
#
#
# Indices 1 2 3 4 5 6 
#
# 1 0.032153 0.002703 -0.031050 0.000000 -0.019066 0.000000
# 2 0.002703 0.014520 -0.008535 0.000000 -0.005745 0.000000
# 3 -0.031050 -0.008535 0.048140 0.000000 0.033499 0.000000
# 4 0.000000 0.000000 0.000000 0.045283 0.000000 0.005863
# 5 -0.019066 -0.005745 0.033499 0.000000 0.056767 0.000000
# 6 0.000000 0.000000 0.000000 0.005863 0.000000 0.063382
#
#
# Mechanical properties :
#
#
# Convention : Reuss Voigt Hill
#
# Bulk Modulus (GPa) = 47.51068 53.29779 50.40424
# Shear Modulus (GPa) = 14.66160 23.27065 18.96613
#
# Velocity S-wave (km/s) = 2.71964 3.42629 3.09321
# Velocity P-wave (km/s) = 5.81635 6.52228 6.17940
#
# Compressibility (1/GPa) = 0.02104790
#
# Stress axis : x y z
#
# Youngs Moduli (GPa) = 31.10136 68.87181 20.77267
#
# Poissons Ratio (x) = -0.18613 0.64500
# Poissons Ratio (y) = -0.08405 0.17729
# Poissons Ratio (z) = 0.96571 0.58779
#
# Static dielectric constant tensor:
#      x y z
#    x 1.796700 0.000000 -0.014250 
#    y 0.000000 1.778370 0.000000 
#    z -0.014250 0.000000 1.763510 
# 
# From -- ./inp_files/47163.got.cif
#   From: 2010.05.17/outbox.cif.g08.bks.cpg/sg14_24_cif.got.tgz:47163.got - 2010.06.03 17:49:19.
