data_PCOD9243200
_publ_section_title
;
Structure prediction by ZEFSAII (Michael W. Deem and Ramdas Pophale) SiO2 
 PCOD9243200
Probable space group: P 21/C
;
_chemical_formula_sum "Si O2"
_cell_formula_units_Z 32
_cell_length_a 15.353971
_cell_length_b 13.599650
_cell_length_c 10.037397
_cell_angle_alpha 90.000000
_cell_angle_beta 38.535746
_cell_angle_gamma 90.000000
_cell_volume 1305.748481
_symmetry_space_group_name_H-M "P 21/C"
_symmetry_group_IT_number 14
_symmetry_cell_setting 'monoclinic'
loop_
_space_group_symop_operation_xyz
x,y,z
-x,1/2+y,1/2-z
-x,-y,-z
x,1/2-y,1/2+z
loop_
_atom_site_type_symbol
_atom_site_label
_atom_site_fract_x
_atom_site_fract_y
_atom_site_fract_z
Si Si1 0.215288 0.967649 0.661266
Si Si2 0.495161 0.876343 0.394324
Si Si3 0.724963 0.426919 0.184416
Si Si4 0.238032 0.350898 0.869665
Si Si5 0.003307 0.861143 0.528214
Si Si6 0.509930 0.780621 0.094660
Si Si7 0.032225 0.363892 0.423659
Si Si8 0.196950 0.359808 0.504724
O O1 0.375238 0.956975 0.514009
O O2 0.203881 0.900622 0.543140
O O3 0.148432 0.073435 0.705206
O O4 0.111008 0.924651 0.895998
O O5 0.481202 0.798657 0.285760
O O6 0.479256 0.821223 0.554821
O O7 0.654268 0.912827 0.189965
O O8 0.692176 0.541694 0.201853
O O9 0.590069 0.360254 0.358284
O O10 0.844201 0.407190 0.149151
O O11 0.079474 0.368253 0.010395
O O12 0.330311 0.305863 0.635300
O O13 0.237303 0.256838 0.968111
O O14 0.009920 0.746214 0.559620
O O15 0.897591 0.902810 0.765611
O O16 0.105737 0.361957 0.480262
#
# Coordination Sequence:
#
# PCOD9243200 Si02
#       8
#     4   4   4   4   4   4   4   4
#     4  10  21  38  58  84 119 152 198 250 303 357
#     4  10  21  39  62  89 119 163 198 252 297 360
#     4  11  21  36  58  87 118 151 195 254 302 356
#     4  10  21  36  58  83 113 156 198 241 298 361
#     4  11  20  36  58  84 114 151 197 245 301 361
#     4  10  21  39  62  85 124 155 205 242 305 359
#     4  10  21  37  59  83 114 156 197 243 302 363
#     4  10  20  37  58  82 115 156 200 240 298 360
#
# _framework density 24.507017999999999
#
# number of rings (size 3 to 8) (size 9 to 14) (size 15 to 20)
#    0.000    1.750    2.500    2.250    0.000    0.500 
#    0.000    1.250    0.000    0.000    0.000    0.000 
#    0.000    0.000    0.000    0.000    0.000    0.000 
#
# Total GULP energy -178617.543530 kJ/mol
# GULP energy per Si atom -5581.798235 kJ/mol
# Density = 2.445124 g / cm^3
# Si number density = 24.507018 Si / 1000 Ang^3
#
#
#
# Elastic Constant Matrix: (Units=GPa)
#
#
# Indices 1 2 3 4 5 6 
#
# 1 84.1502 7.6947 20.5724 0.0000 -18.8979 0.0000
# 2 7.6947 72.1009 14.6521 0.0000 -8.5166 0.0000
# 3 20.5724 14.6521 56.5907 0.0000 -23.3324 0.0000
# 4 0.0000 0.0000 0.0000 28.0608 0.0000 -2.1028
# 5 -18.8979 -8.5166 -23.3324 0.0000 39.6808 0.0000
# 6 0.0000 0.0000 0.0000 -2.1028 0.0000 25.2306
#
#
#
# Elastic Compliance Matrix: (Units=1/GPa)
#
#
# Indices 1 2 3 4 5 6 
#
# 1 0.013693 -0.000304 -0.002953 0.000000 0.004720 0.000000
# 2 -0.000304 0.014690 -0.003238 0.000000 0.001105 0.000000
# 3 -0.002953 -0.003238 0.024706 0.000000 0.012426 0.000000
# 4 0.000000 0.000000 0.000000 0.035861 0.000000 0.002989
# 5 0.004720 0.001105 0.012426 0.000000 0.034992 0.000000
# 6 0.000000 0.000000 0.000000 0.002989 0.000000 0.039884
#
#
# Mechanical properties :
#
#
# Convention : Reuss Voigt Hill
#
# Bulk Modulus (GPa) = 24.93785 33.18669 29.06227
# Shear Modulus (GPa) = 26.29062 29.92262 28.10662
#
# Velocity S-wave (km/s) = 3.27888 3.49805 3.39024
# Velocity P-wave (km/s) = 4.95305 5.46683 5.21627
#
# Compressibility (1/GPa) = 0.04009969
#
# Stress axis : x y z
#
# Youngs Moduli (GPa) = 73.02896 68.07223 40.47638
#
# Poissons Ratio (x) = 0.02067 0.11954
# Poissons Ratio (y) = 0.02218 0.13105
# Poissons Ratio (z) = 0.21568 0.22040
#
# Static dielectric constant tensor:
#      x y z
#    x 2.005360 0.000000 0.058240 
#    y 0.000000 2.002230 0.000000 
#    z 0.058240 0.000000 1.960380 
# 
# From -- ./inp_files/32756.got.cif
#   From: 2010.05.17/outbox.cif.g08.bks.cpg/sg14_17_cif.got.tgz:32756.got - 2010.06.03 17:49:19.
