data_PCOD9243628
_publ_section_title
;
Structure prediction by ZEFSAII (Michael W. Deem and Ramdas Pophale) SiO2 
 PCOD9243628
Probable space group: P 21/C
;
_chemical_formula_sum "Si O2"
_cell_formula_units_Z 20
_cell_length_a 7.647993
_cell_length_b 8.043606
_cell_length_c 14.747663
_cell_angle_alpha 90.000000
_cell_angle_beta 128.423012
_cell_angle_gamma 90.000000
_cell_volume 710.770493
_symmetry_space_group_name_H-M "P 21/C"
_symmetry_group_IT_number 14
_symmetry_cell_setting 'monoclinic'
loop_
_space_group_symop_operation_xyz
x,y,z
-x,1/2+y,1/2-z
-x,-y,-z
x,1/2-y,1/2+z
loop_
_atom_site_type_symbol
_atom_site_label
_atom_site_fract_x
_atom_site_fract_y
_atom_site_fract_z
Si Si1 0.690095 0.170329 0.156653
Si Si2 0.083884 0.508768 0.842309
Si Si3 0.667851 0.702008 0.229610
Si Si4 0.255884 0.636548 0.640134
Si Si5 0.793829 0.721931 0.959055
O O1 0.811909 0.308335 0.134154
O O2 0.732315 0.241539 0.270419
O O3 0.839124 0.002946 0.212217
O O4 0.423154 0.189031 0.064738
O O5 0.215731 0.377042 0.819781
O O6 0.141102 0.437153 0.959841
O O7 0.660296 0.536077 0.291327
O O8 0.434607 0.787170 0.129010
O O9 0.761869 0.819790 0.341919
O O10 0.003068 0.655895 0.529861
#
# Coordination Sequence:
#
# PCOD9243628 Si02
#       5
#     4   4   4   4   4
#     4   9  20  38  58  84 117 150 189 235 281 336
#     4  10  21  38  58  84 116 149 191 236 282 337
#     4  10  21  38  58  84 116 149 191 236 282 337
#     4   9  20  38  58  84 117 150 189 235 281 336
#     4  10  20  38  62  84 114 152 190 234 284 336
#
# _framework density 28.138479
#
# number of rings (size 3 to 8) (size 9 to 14) (size 15 to 20)
#    0.000    2.400    0.000    1.200    0.000    6.400 
#    0.000   20.000    0.000    0.000    0.000    0.000 
#    0.000    0.000    0.000    0.000    0.000    0.000 
#
# Total GULP energy -111753.522645 kJ/mol
# GULP energy per Si atom -5587.676132 kJ/mol
# Density = 2.807443 g / cm^3
# Si number density = 28.138479 Si / 1000 Ang^3
#
#
#
# Elastic Constant Matrix: (Units=GPa)
#
#
# Indices 1 2 3 4 5 6 
#
# 1 88.7718 12.8101 56.1049 0.0000 3.2775 0.0000
# 2 12.8101 71.7996 47.7828 0.0000 -3.0038 0.0000
# 3 56.1049 47.7828 156.9392 0.0000 35.3931 0.0000
# 4 0.0000 0.0000 0.0000 38.2922 0.0000 -2.3377
# 5 3.2775 -3.0038 35.3931 0.0000 65.2717 0.0000
# 6 0.0000 0.0000 0.0000 -2.3377 0.0000 41.3272
#
#
#
# Elastic Compliance Matrix: (Units=1/GPa)
#
#
# Indices 1 2 3 4 5 6 
#
# 1 0.015062 0.001823 -0.006594 0.000000 0.002903 0.000000
# 2 0.001823 0.018761 -0.007449 0.000000 0.004811 0.000000
# 3 -0.006594 -0.007449 0.012532 0.000000 -0.006807 0.000000
# 4 0.000000 0.000000 0.000000 0.026205 0.000000 0.001482
# 5 0.002903 0.004811 -0.006807 0.000000 0.019087 0.000000
# 6 0.000000 0.000000 0.000000 0.001482 0.000000 0.024281
#
#
# Mechanical properties :
#
#
# Convention : Reuss Voigt Hill
#
# Bulk Modulus (GPa) = 45.63095 61.21181 53.42138
# Shear Modulus (GPa) = 33.85814 42.36575 38.11195
#
# Velocity S-wave (km/s) = 3.47258 3.88444 3.68427
# Velocity P-wave (km/s) = 5.68596 6.47452 6.09301
#
# Compressibility (1/GPa) = 0.02191495
#
# Stress axis : x y z
#
# Youngs Moduli (GPa) = 66.39053 53.30272 79.79317
#
# Poissons Ratio (x) = -0.09716 0.52619
# Poissons Ratio (y) = -0.12101 0.59435
# Poissons Ratio (z) = 0.43781 0.39703
#
# Static dielectric constant tensor:
#      x y z
#    x 2.350860 0.000000 0.185290 
#    y 0.000000 2.268330 0.000000 
#    z 0.185290 0.000000 2.260940 
# 
# From -- ./inp_files/28794.got.cif
#   From: 2010.05.17/outbox.cif.g08.bks.cpg/sg14_15_cif.got.tgz:28794.got - 2010.06.03 17:49:19.
