data_PCOD9243378
_publ_section_title
;
Structure prediction by ZEFSAII (Michael W. Deem and Ramdas Pophale) SiO2 
 PCOD9243378
Probable space group: P 21/C
;
_chemical_formula_sum "Si O2"
_cell_formula_units_Z 32
_cell_length_a 5.946134
_cell_length_b 20.959847
_cell_length_c 12.281329
_cell_angle_alpha 90.000000
_cell_angle_beta 104.402108
_cell_angle_gamma 90.000000
_cell_volume 1482.521422
_symmetry_space_group_name_H-M "P 21/C"
_symmetry_group_IT_number 14
_symmetry_cell_setting 'monoclinic'
loop_
_space_group_symop_operation_xyz
x,y,z
-x,1/2+y,1/2-z
-x,-y,-z
x,1/2-y,1/2+z
loop_
_atom_site_type_symbol
_atom_site_label
_atom_site_fract_x
_atom_site_fract_y
_atom_site_fract_z
Si Si1 0.800043 0.275639 0.579569
Si Si2 0.406939 0.544733 0.828817
Si Si3 0.443429 0.683575 0.812058
Si Si4 0.044900 0.107689 0.017786
Si Si5 0.332622 0.194662 0.895748
Si Si6 0.882271 0.689163 0.029065
Si Si7 0.166378 0.045613 0.452716
Si Si8 0.644226 0.490335 0.407976
O O1 0.728250 0.242106 0.683489
O O2 0.560145 0.299946 0.498696
O O3 0.972396 0.335511 0.590805
O O4 0.910843 0.220716 0.515816
O O5 0.310145 0.616602 0.810567
O O6 0.231148 0.491235 0.850270
O O7 0.492562 0.525724 0.718825
O O8 0.606743 0.549230 0.943057
O O9 0.568274 0.683663 0.711398
O O10 0.654921 0.687088 0.923612
O O11 0.213783 0.055666 0.090505
O O12 0.170488 0.140941 0.929967
O O13 0.823225 0.067476 0.950831
O O14 0.192341 0.261049 0.887029
O O15 0.928353 0.617166 0.072289
O O16 0.000000 0.000000 0.500000
O O17 0.500000 0.500000 0.500000
#
# Coordination Sequence:
#
# PCOD9243378 Si02
#       8
#     4   4   4   4   4   4   4   4
#     4  10  20  38  60  87 120 156 201 256 306 364
#     4  10  22  39  62  89 121 162 206 252 306 364
#     4  10  20  37  63  85 113 162 206 250 305 366
#     4  10  22  39  62  90 129 158 205 254 307 375
#     4  10  21  40  61  86 122 159 203 254 306 366
#     4   9  21  38  57  86 120 153 203 253 305 364
#     4  10  21  40  62  87 122 160 207 257 303 367
#     4  11  23  41  64  92 128 166 205 255 312 372
#
# _framework density 21.584848999999998
#
# number of rings (size 3 to 8) (size 9 to 14) (size 15 to 20)
#    0.000    2.000    0.000    3.000    0.000    8.000 
#   11.250    0.000    0.000    0.000    0.000    0.000 
#    0.000    0.000    0.000    0.000    0.000    0.000 
#
# Total GULP energy -178728.472746 kJ/mol
# GULP energy per Si atom -5585.264773 kJ/mol
# Density = 2.153572 g / cm^3
# Si number density = 21.584849 Si / 1000 Ang^3
#
#
#
# Elastic Constant Matrix: (Units=GPa)
#
#
# Indices 1 2 3 4 5 6 
#
# 1 71.0959 50.9294 19.5346 0.0000 -24.4774 0.0000
# 2 50.9294 179.5073 44.0611 0.0000 -30.4617 0.0000
# 3 19.5346 44.0611 84.4915 0.0000 -23.8055 0.0000
# 4 0.0000 0.0000 0.0000 17.1479 0.0000 -7.5779
# 5 -24.4774 -30.4617 -23.8055 0.0000 29.8658 0.0000
# 6 0.0000 0.0000 0.0000 -7.5779 0.0000 42.4357
#
#
#
# Elastic Compliance Matrix: (Units=1/GPa)
#
#
# Indices 1 2 3 4 5 6 
#
# 1 0.021596 -0.003935 0.001180 0.000000 0.014627 0.000000
# 2 -0.003935 0.007736 -0.002334 0.000000 0.002805 0.000000
# 3 0.001180 -0.002334 0.015968 0.000000 0.011314 0.000000
# 4 0.000000 0.000000 0.000000 0.063313 0.000000 0.011306
# 5 0.014627 0.002805 0.011314 0.000000 0.057350 0.000000
# 6 0.000000 0.000000 0.000000 0.011306 0.000000 0.025584
#
#
# Mechanical properties :
#
#
# Convention : Reuss Voigt Hill
#
# Bulk Modulus (GPa) = 28.47238 62.68276 45.57757
# Shear Modulus (GPa) = 23.42677 32.59451 28.01064
#
# Velocity S-wave (km/s) = 3.29801 3.89017 3.60627
# Velocity P-wave (km/s) = 5.26518 7.02005 6.20497
#
# Compressibility (1/GPa) = 0.03512176
#
# Stress axis : x y z
#
# Youngs Moduli (GPa) = 46.30559 129.26422 62.62664
#
# Poissons Ratio (x) = 0.50860 -0.07390
# Poissons Ratio (y) = 0.18219 0.14618
# Poissons Ratio (z) = -0.05464 0.30173
#
# Static dielectric constant tensor:
#      x y z
#    x 1.124440 0.000000 -0.001060 
#    y 0.000000 1.784060 0.000000 
#    z -0.001060 0.000000 1.777710 
# 
# From -- ./inp_files/21790.got.cif
#   From: 2010.05.17/outbox.cif.g08.bks.cpg/sg14_11_cif.got.tgz:21790.got - 2010.06.03 17:49:19.
