data_PCOD9243572
_publ_section_title
;
Structure prediction by ZEFSAII (Michael W. Deem and Ramdas Pophale) SiO2 
 PCOD9243572
Probable space group: P 21/C
;
_chemical_formula_sum "Si O2"
_cell_formula_units_Z 20
_cell_length_a 12.330208
_cell_length_b 8.277392
_cell_length_c 14.114000
_cell_angle_alpha 90.000000
_cell_angle_beta 36.543507
_cell_angle_gamma 90.000000
_cell_volume 857.722793
_symmetry_space_group_name_H-M "P 21/C"
_symmetry_group_IT_number 14
_symmetry_cell_setting 'monoclinic'
loop_
_space_group_symop_operation_xyz
x,y,z
-x,1/2+y,1/2-z
-x,-y,-z
x,1/2-y,1/2+z
loop_
_atom_site_type_symbol
_atom_site_label
_atom_site_fract_x
_atom_site_fract_y
_atom_site_fract_z
Si Si1 0.561157 0.193769 0.246492
Si Si2 0.635214 0.355036 0.381092
Si Si3 0.922851 0.496782 0.447943
Si Si4 0.616296 0.399444 0.043667
Si Si5 0.970129 0.228257 0.759223
O O1 0.639426 0.322131 0.266944
O O2 0.724148 0.079473 0.096342
O O3 0.499081 0.288502 0.197738
O O4 0.420492 0.080251 0.399577
O O5 0.500000 0.500000 0.500000
O O6 0.578485 0.181558 0.468386
O O7 0.830722 0.381620 0.293898
O O8 0.080901 0.334122 0.606186
O O9 0.041756 0.377355 0.296287
O O10 0.000000 0.500000 0.500000
O O11 0.828133 0.354074 0.908337
#
# Coordination Sequence:
#
# PCOD9243572 Si02
#       5
#     4   4   4   4   4
#     4  11  20  37  66  87 123 162 205 262 315 373
#     4  10  20  38  60  89 124 155 207 262 313 367
#     4  11  21  44  61  87 128 170 206 259 315 376
#     4   9  21  36  56  93 112 159 207 252 312 369
#     4   9  23  39  60  88 124 162 210 256 310 384
#
# _framework density 23.317557999999998
#
# number of rings (size 3 to 8) (size 9 to 14) (size 15 to 20)
#    1.200    0.800    2.000    1.800    0.000    1.600 
#    3.600    1.000    0.000    0.000    0.000    0.000 
#    0.000    0.000    0.000    0.000    0.000    0.000 
#
# Total GULP energy -111436.013575 kJ/mol
# GULP energy per Si atom -5571.800679 kJ/mol
# Density = 2.326449 g / cm^3
# Si number density = 23.317558 Si / 1000 Ang^3
#
#
#
# Elastic Constant Matrix: (Units=GPa)
#
#
# Indices 1 2 3 4 5 6 
#
# 1 23.7972 14.1165 8.6985 0.0000 18.1230 0.0000
# 2 14.1165 63.5469 21.4467 0.0000 -2.8829 0.0000
# 3 8.6985 21.4467 78.4243 0.0000 15.6929 0.0000
# 4 0.0000 0.0000 0.0000 75.1193 0.0000 1.3893
# 5 18.1230 -2.8829 15.6929 0.0000 36.6592 0.0000
# 6 0.0000 0.0000 0.0000 1.3893 0.0000 31.7750
#
#
#
# Elastic Compliance Matrix: (Units=1/GPa)
#
#
# Indices 1 2 3 4 5 6 
#
# 1 0.093576 -0.025407 0.006809 0.000000 -0.051173 0.000000
# 2 -0.025407 0.024709 -0.007482 0.000000 0.017706 0.000000
# 3 0.006809 -0.007482 0.016223 0.000000 -0.010899 0.000000
# 4 0.000000 0.000000 0.000000 0.013323 0.000000 -0.000582
# 5 -0.051173 0.017706 -0.010899 0.000000 0.058635 0.000000
# 6 0.000000 0.000000 0.000000 -0.000582 0.000000 0.031497
#
#
# Mechanical properties :
#
#
# Convention : Reuss Voigt Hill
#
# Bulk Modulus (GPa) = 12.14366 28.25463 20.19915
# Shear Modulus (GPa) = 15.74451 36.81114 26.27782
#
# Velocity S-wave (km/s) = 2.60132 3.97758 3.36066
# Velocity P-wave (km/s) = 3.77382 5.76528 4.87238
#
# Compressibility (1/GPa) = 0.08234750
#
# Stress axis : x y z
#
# Youngs Moduli (GPa) = 10.68653 40.47142 61.64078
#
# Poissons Ratio (x) = 1.02825 -0.41970
# Poissons Ratio (y) = 0.27151 0.46121
# Poissons Ratio (z) = -0.07276 0.30281
#
# Static dielectric constant tensor:
#      x y z
#    x 1.898420 0.000000 -0.052950 
#    y 0.000000 1.958210 0.000000 
#    z -0.052950 0.000000 1.913450 
# 
# From -- ./inp_files/31294.got.cif
#   From: 2010.05.17/outbox.cif.g08.bks.cpg/sg14_16_cif.got.tgz:31294.got - 2010.06.03 17:49:19.
