data_PCOD9243269
_publ_section_title
;
Structure prediction by ZEFSAII (Michael W. Deem and Ramdas Pophale) SiO2 
 PCOD9243269
Probable space group: P 21/C
;
_chemical_formula_sum "Si O2"
_cell_formula_units_Z 24
_cell_length_a 23.300261
_cell_length_b 9.078227
_cell_length_c 9.214929
_cell_angle_alpha 90.000000
_cell_angle_beta 150.568553
_cell_angle_gamma 90.000000
_cell_volume 957.795797
_symmetry_space_group_name_H-M "P 21/C"
_symmetry_group_IT_number 14
_symmetry_cell_setting 'monoclinic'
loop_
_space_group_symop_operation_xyz
x,y,z
-x,1/2+y,1/2-z
-x,-y,-z
x,1/2-y,1/2+z
loop_
_atom_site_type_symbol
_atom_site_label
_atom_site_fract_x
_atom_site_fract_y
_atom_site_fract_z
Si Si1 0.647758 0.343282 0.033775
Si Si2 0.245321 0.886559 0.534871
Si Si3 0.565045 0.026650 0.830796
Si Si4 0.065045 0.473351 0.830796
Si Si5 0.254679 0.113441 0.965129
Si Si6 0.147758 0.343282 0.533775
O O1 0.726752 0.387309 0.072165
O O2 0.555470 0.463232 0.879759
O O3 0.570632 0.200812 0.814102
O O4 0.724703 0.274751 0.333175
O O5 0.120404 0.937669 0.318691
O O6 0.159905 0.011423 0.671433
O O7 0.340095 0.988577 0.828567
O O8 0.620404 0.937669 0.818691
O O9 0.929368 0.700812 0.185898
O O10 0.944530 0.536768 0.620241
O O11 0.224703 0.274751 0.833176
O O12 0.226752 0.112691 0.072165
#
# Coordination Sequence:
#
# PCOD9243269 Si02
#       6
#     4   4   4   4   4   4
#     4  10  20  37  60  81 112 148 182 228 275 327
#     4   9  21  38  57  82 114 146 182 227 278 325
#     4   9  21  38  59  80 114 147 183 225 281 323
#     4   9  21  38  59  80 114 147 183 225 281 323
#     4   9  21  38  57  82 114 146 182 227 278 325
#     4  10  20  37  60  81 112 148 182 228 275 327
#
# _framework density 25.057532999999999
#
# number of rings (size 3 to 8) (size 9 to 14) (size 15 to 20)
#    2.000    0.667    0.000    1.000    0.000    6.667 
#    0.000    3.333    0.000    0.000    0.000    0.000 
#    0.000    0.000    0.000    0.000    0.000    0.000 
#
# Total GULP energy -134348.467898 kJ/mol
# GULP energy per Si atom -5597.852829 kJ/mol
# Density = 2.500050 g / cm^3
# Si number density = 25.057533 Si / 1000 Ang^3
#
#
#
# Elastic Constant Matrix: (Units=GPa)
#
#
# Indices 1 2 3 4 5 6 
#
# 1 258.6935 59.4899 82.5484 0.0000 17.3726 0.0000
# 2 59.4899 92.9571 43.9383 0.0000 35.9107 0.0000
# 3 82.5484 43.9383 82.8385 0.0000 9.7973 0.0000
# 4 0.0000 0.0000 0.0000 34.0324 0.0000 10.4178
# 5 17.3726 35.9107 9.7973 0.0000 44.5193 0.0000
# 6 0.0000 0.0000 0.0000 10.4178 0.0000 50.8450
#
#
#
# Elastic Compliance Matrix: (Units=1/GPa)
#
#
# Indices 1 2 3 4 5 6 
#
# 1 0.005784 -0.001246 -0.005088 0.000000 -0.000133 0.000000
# 2 -0.001246 0.021147 -0.008229 0.000000 -0.014761 0.000000
# 3 -0.005088 -0.008229 0.021034 0.000000 0.003994 0.000000
# 4 0.000000 0.000000 0.000000 0.031350 0.000000 -0.006423
# 5 -0.000133 -0.014761 0.003994 0.000000 0.033541 0.000000
# 6 0.000000 0.000000 0.000000 -0.006423 0.000000 0.020984
#
#
# Mechanical properties :
#
#
# Convention : Reuss Voigt Hill
#
# Bulk Modulus (GPa) = 53.07928 89.60469 71.34199
# Shear Modulus (GPa) = 29.54274 42.44685 35.99479
#
# Velocity S-wave (km/s) = 3.43738 4.12026 3.79421
# Velocity P-wave (km/s) = 6.08137 7.64674 6.90853
#
# Compressibility (1/GPa) = 0.01883974
#
# Stress axis : x y z
#
# Youngs Moduli (GPa) = 172.87716 47.28804 47.54186
#
# Poissons Ratio (x) = 0.05891 0.24188
# Poissons Ratio (y) = 0.21537 0.39124
# Poissons Ratio (z) = 0.87955 0.38915
#
# Static dielectric constant tensor:
#      x y z
#    x 1.873940 0.000000 -0.070540 
#    y 0.000000 2.030120 0.000000 
#    z -0.070540 0.000000 1.987480 
# 
# From -- ./inp_files/18893.got.cif
#   From: 2010.05.17/outbox.cif.g08.bks.cpg/sg14_10_cif.got.tgz:18893.got - 2010.06.03 17:49:19.
