data_PCOD9243555
_publ_section_title
;
Structure prediction by ZEFSAII (Michael W. Deem and Ramdas Pophale) SiO2 
 PCOD9243555
Probable space group: P 21/C
;
_chemical_formula_sum "Si O2"
_cell_formula_units_Z 20
_cell_length_a 11.859189
_cell_length_b 15.373889
_cell_length_c 9.763449
_cell_angle_alpha 90.000000
_cell_angle_beta 34.588787
_cell_angle_gamma 90.000000
_cell_volume 1010.526274
_symmetry_space_group_name_H-M "P 21/C"
_symmetry_group_IT_number 14
_symmetry_cell_setting 'monoclinic'
loop_
_space_group_symop_operation_xyz
x,y,z
-x,1/2+y,1/2-z
-x,-y,-z
x,1/2-y,1/2+z
loop_
_atom_site_type_symbol
_atom_site_label
_atom_site_fract_x
_atom_site_fract_y
_atom_site_fract_z
Si Si1 0.294021 0.077048 0.455997
Si Si2 0.009490 0.347080 0.465002
Si Si3 0.317343 0.806450 0.932661
Si Si4 0.009468 0.152915 0.516057
Si Si5 0.204608 0.611744 0.045395
O O1 0.480979 0.140524 0.269027
O O2 0.162347 0.098638 0.453696
O O3 0.336731 0.974541 0.413285
O O4 0.162386 0.098643 0.721611
O O5 0.814375 0.332333 0.566924
O O6 0.094004 0.249996 0.406012
O O7 0.937739 0.386536 0.679450
O O8 0.185662 0.832333 0.195650
O O9 0.328883 0.701552 0.921122
O O10 0.937733 0.113461 0.445085
#
# Coordination Sequence:
#
# PCOD9243555 Si02
#       5
#     4   4   4   4   4
#     4  11  21  37  63  86 110 154 195 227 287 347
#     4   9  20  39  58  81 116 150 186 236 286 336
#     4   9  21  39  55  82 120 150 185 233 281 337
#     4   9  20  39  58  81 116 150 186 236 286 336
#     4  10  20  38  60  86 120 148 186 244 282 326
#
# _framework density 19.791667
#
# number of rings (size 3 to 8) (size 9 to 14) (size 15 to 20)
#    0.000    2.400    0.000    2.400    0.000    6.400 
#    0.000   18.000    0.000    0.000    0.000    0.000 
#    0.000    0.000    0.000    0.000    0.000    0.000 
#
# Total GULP energy -111682.568302 kJ/mol
# GULP energy per Si atom -5584.128415 kJ/mol
# Density = 1.974662 g / cm^3
# Si number density = 19.791667 Si / 1000 Ang^3
#
#
#
# Elastic Constant Matrix: (Units=GPa)
#
#
# Indices 1 2 3 4 5 6 
#
# 1 71.5315 57.8789 69.1949 0.0000 24.6599 0.0000
# 2 57.8789 128.9978 62.2827 0.0000 -14.8032 0.0000
# 3 69.1949 62.2827 60.7349 0.0000 12.0706 0.0000
# 4 0.0000 0.0000 0.0000 10.3115 0.0000 -1.8057
# 5 24.6599 -14.8032 12.0706 0.0000 40.1046 0.0000
# 6 0.0000 0.0000 0.0000 -1.8057 0.0000 9.7772
#
#
#
# Elastic Compliance Matrix: (Units=1/GPa)
#
#
# Indices 1 2 3 4 5 6 
#
# 1 -0.090458 -0.010362 0.109969 0.000000 0.018699 0.000000
# 2 -0.010362 0.020775 -0.013071 0.000000 0.017974 0.000000
# 3 0.109969 -0.013071 -0.086174 0.000000 -0.046507 0.000000
# 4 0.000000 0.000000 0.000000 0.100220 0.000000 0.018510
# 5 0.018699 0.017974 -0.046507 0.000000 0.034069 0.000000
# 6 0.000000 0.000000 0.000000 0.018510 0.000000 0.105698
#
#
# Mechanical properties :
#
#
# Convention : Reuss Voigt Hill
#
# Bulk Modulus (GPa) = 58.09616 71.10855 64.60236
# Shear Modulus (GPa) = -60.09305 16.83252 -21.63026
#
# Velocity S-wave (km/s) = -5.51622 2.91947 -3.30949
# Velocity P-wave (km/s) = 3.33977 6.88266 4.25540
#
# Compressibility (1/GPa) = 0.01721284
#
# Stress axis : x y z
#
# Youngs Moduli (GPa) = -11.05481 48.13499 -11.60437
#
# Poissons Ratio (x) = 0.49878 1.27612
# Poissons Ratio (y) = -0.11455 -0.15168
# Poissons Ratio (z) = 1.21568 0.62917
#
# Static dielectric constant tensor:
#      x y z
#    x 1.676730 0.000000 0.032110 
#    y 0.000000 1.731150 0.000000 
#    z 0.032110 0.000000 1.667240 
# 
# From -- ./inp_files/13648.got.cif
#   From: 2010.05.17/outbox.cif.g08.bks.cpg/sg14_7_cif.got.tgz:13648.got - 2010.06.03 17:49:19.
