data_PCOD9243671
_publ_section_title
;
Structure prediction by ZEFSAII (Michael W. Deem and Ramdas Pophale) SiO2 
 PCOD9243671
Probable space group: P 21/C
;
_chemical_formula_sum "Si O2"
_cell_formula_units_Z 32
_cell_length_a 9.487270
_cell_length_b 11.784815
_cell_length_c 29.700432
_cell_angle_alpha 90.000000
_cell_angle_beta 153.876665
_cell_angle_gamma 90.000000
_cell_volume 1462.110818
_symmetry_space_group_name_H-M "P 21/C"
_symmetry_group_IT_number 14
_symmetry_cell_setting 'monoclinic'
loop_
_space_group_symop_operation_xyz
x,y,z
-x,1/2+y,1/2-z
-x,-y,-z
x,1/2-y,1/2+z
loop_
_atom_site_type_symbol
_atom_site_label
_atom_site_fract_x
_atom_site_fract_y
_atom_site_fract_z
Si Si1 0.449562 0.544831 0.719531
Si Si2 0.718970 0.988358 0.161862
Si Si3 0.056008 0.950362 0.347090
Si Si4 0.832679 0.235766 0.410090
Si Si5 0.261958 0.165008 0.452061
Si Si6 0.206925 0.411652 0.730555
Si Si7 0.230648 0.394351 0.577440
Si Si8 0.422973 0.876616 0.997813
O O1 0.262649 0.649868 0.644368
O O2 0.338543 0.513130 0.737106
O O3 0.376954 0.432223 0.667563
O O4 0.822532 0.576259 0.821756
O O5 0.852678 0.928473 0.244371
O O6 0.507651 0.093315 0.119182
O O7 0.494002 0.900566 0.070269
O O8 0.010121 0.036163 0.215686
O O9 0.389377 0.887831 0.439012
O O10 0.120028 0.083990 0.372768
O O11 0.509108 0.167402 0.328435
O O12 0.048499 0.167770 0.435724
O O13 0.039288 0.279354 0.512126
O O14 0.329357 0.288549 0.451739
O O15 0.934239 0.349767 0.621614
O O16 0.000000 0.500000 0.500000
O O17 0.500000 0.000000 0.000000
#
# Coordination Sequence:
#
# PCOD9243671 Si02
#       8
#     4   4   4   4   4   4   4   4
#     4  10  20  40  62  90 128 164 212 265 324 384
#     4  10  21  42  64  93 128 163 220 274 311 382
#     4  10  23  44  65  92 132 177 218 261 331 408
#     4  11  20  36  65  92 126 167 212 263 320 387
#     4  11  22  42  66  92 131 180 213 266 341 396
#     4  11  21  37  63  95 124 164 214 262 326 379
#     4   9  19  37  61  89 124 159 204 265 315 369
#     4  10  20  38  62  93 121 159 213 272 319 375
#
# _framework density 21.886167
#
# number of rings (size 3 to 8) (size 9 to 14) (size 15 to 20)
#    0.000    1.750    1.250    5.250    0.000    0.000 
#   18.000    0.625    0.000    0.000    0.000    0.000 
#    0.000    0.000    0.000    0.000    0.000    0.000 
#
# Total GULP energy -178624.229393 kJ/mol
# GULP energy per Si atom -5582.007169 kJ/mol
# Density = 2.183635 g / cm^3
# Si number density = 21.886167 Si / 1000 Ang^3
#
#
#
# Elastic Constant Matrix: (Units=GPa)
#
#
# Indices 1 2 3 4 5 6 
#
# 1 114.3278 16.9312 19.1414 0.0000 35.1782 0.0000
# 2 16.9312 60.9295 1.1950 0.0000 12.7164 0.0000
# 3 19.1414 1.1950 75.9254 0.0000 23.0941 0.0000
# 4 0.0000 0.0000 0.0000 32.7393 0.0000 11.3300
# 5 35.1782 12.7164 23.0941 0.0000 35.1109 0.0000
# 6 0.0000 0.0000 0.0000 11.3300 0.0000 24.3312
#
#
#
# Elastic Compliance Matrix: (Units=1/GPa)
#
#
# Indices 1 2 3 4 5 6 
#
# 1 0.012728 -0.000853 0.000737 0.000000 -0.012928 0.000000
# 2 -0.000853 0.018082 0.002078 0.000000 -0.007061 0.000000
# 3 0.000737 0.002078 0.016759 0.000000 -0.012514 0.000000
# 4 0.000000 0.000000 0.000000 0.036412 0.000000 -0.016955
# 5 -0.012928 -0.007061 -0.012514 0.000000 0.052222 0.000000
# 6 0.000000 0.000000 0.000000 -0.016955 0.000000 0.048995
#
#
# Mechanical properties :
#
#
# Convention : Reuss Voigt Hill
#
# Bulk Modulus (GPa) = 19.42022 36.19089 27.80555
# Shear Modulus (GPa) = 25.19683 32.69730 28.94707
#
# Velocity S-wave (km/s) = 3.39671 3.86939 3.64073
# Velocity P-wave (km/s) = 4.92708 6.04440 5.51411
#
# Compressibility (1/GPa) = 0.05149273
#
# Stress axis : x y z
#
# Youngs Moduli (GPa) = 78.56993 55.30228 59.67052
#
# Poissons Ratio (x) = 0.04718 -0.04397
# Poissons Ratio (y) = 0.06703 -0.12401
# Poissons Ratio (z) = -0.05790 -0.11493
#
# Static dielectric constant tensor:
#      x y z
#    x 1.840740 0.000000 -0.001480 
#    y 0.000000 1.804360 0.000000 
#    z -0.001480 0.000000 1.867870 
# 
# From -- ./inp_files/79644.got.cif
#   From: 2010.05.17/outbox.cif.g08.bks.cpg/sg14_40_cif.got.tgz:79644.got - 2010.06.03 17:49:19.
