data_PCOD9243865
_publ_section_title
;
Structure prediction by ZEFSAII (Michael W. Deem and Ramdas Pophale) SiO2 
 PCOD9243865
Probable space group: P 21/C
;
_chemical_formula_sum "Si O2"
_cell_formula_units_Z 28
_cell_length_a 19.118397
_cell_length_b 9.885104
_cell_length_c 16.627683
_cell_angle_alpha 90.000000
_cell_angle_beta 22.776467
_cell_angle_gamma 90.000000
_cell_volume 1216.547424
_symmetry_space_group_name_H-M "P 21/C"
_symmetry_group_IT_number 14
_symmetry_cell_setting 'monoclinic'
loop_
_space_group_symop_operation_xyz
x,y,z
-x,1/2+y,1/2-z
-x,-y,-z
x,1/2-y,1/2+z
loop_
_atom_site_type_symbol
_atom_site_label
_atom_site_fract_x
_atom_site_fract_y
_atom_site_fract_z
Si Si1 0.894005 0.095326 0.807630
Si Si2 0.100089 0.257102 0.468049
Si Si3 0.118412 0.719869 0.950511
Si Si4 0.391979 0.026131 0.990438
Si Si5 0.052125 0.014498 0.797864
Si Si6 0.285010 0.633865 0.938874
Si Si7 0.513355 0.789841 0.961827
O O1 0.065809 0.168281 0.584599
O O2 0.922782 0.009359 0.857035
O O3 0.800899 0.001785 0.841113
O O4 0.767073 0.221969 0.968008
O O5 0.000849 0.177514 0.500277
O O6 0.988466 0.394985 0.597960
O O7 0.309511 0.300317 0.238479
O O8 0.174637 0.631330 0.969743
O O9 0.319315 0.758700 0.701761
O O10 0.994837 0.842260 0.114733
O O11 0.474353 0.879192 0.924468
O O12 0.510884 0.110626 0.802530
O O13 0.403271 0.106765 0.060996
O O14 0.237321 0.979582 0.555915
#
# Coordination Sequence:
#
# PCOD9243865 Si02
#       7
#     4   4   4   4   4   4   4
#     4  10  21  38  60  87 122 159 200 248 298 354
#     4  11  22  39  65  87 117 161 201 239 300 354
#     4  10  21  42  60  86 126 152 201 248 287 357
#     4  10  20  39  58  87 122 153 198 250 296 343
#     4  10  22  40  58  89 122 157 194 249 300 350
#     4   9  21  39  58  86 122 156 202 249 294 357
#     4  10  22  37  61  92 114 153 206 247 285 358
#
# _framework density 23.015954000000001
#
# number of rings (size 3 to 8) (size 9 to 14) (size 15 to 20)
#    0.000    2.000    1.429    1.286    2.000    2.286 
#    7.714    0.000    0.000    0.000    0.000    0.000 
#    0.000    0.000    0.000    0.000    0.000    0.000 
#
# Total GULP energy -156043.067965 kJ/mol
# GULP energy per Si atom -5572.966713 kJ/mol
# Density = 2.296357 g / cm^3
# Si number density = 23.015954 Si / 1000 Ang^3
#
#
#
# Elastic Constant Matrix: (Units=GPa)
#
#
# Indices 1 2 3 4 5 6 
#
# 1 66.5248 3.6044 16.0435 0.0000 8.0120 0.0000
# 2 3.6044 33.5339 0.9934 0.0000 12.1940 0.0000
# 3 16.0435 0.9934 86.7783 0.0000 7.1923 0.0000
# 4 0.0000 0.0000 0.0000 21.4910 0.0000 4.2124
# 5 8.0120 12.1940 7.1923 0.0000 27.6807 0.0000
# 6 0.0000 0.0000 0.0000 4.2124 0.0000 20.7305
#
#
#
# Elastic Compliance Matrix: (Units=1/GPa)
#
#
# Indices 1 2 3 4 5 6 
#
# 1 0.016154 -0.000249 -0.002663 0.000000 -0.003874 0.000000
# 2 -0.000249 0.035583 0.000952 0.000000 -0.015850 0.000000
# 3 -0.002663 0.000952 0.012239 0.000000 -0.002829 0.000000
# 4 0.000000 0.000000 0.000000 0.048461 0.000000 -0.009847
# 5 -0.003874 -0.015850 -0.002829 0.000000 0.044965 0.000000
# 6 0.000000 0.000000 0.000000 -0.009847 0.000000 0.050239
#
#
# Mechanical properties :
#
#
# Convention : Reuss Voigt Hill
#
# Bulk Modulus (GPa) = 16.65040 25.34663 20.99852
# Shear Modulus (GPa) = 21.59089 25.06016 23.32552
#
# Velocity S-wave (km/s) = 3.06614 3.30330 3.18693
# Velocity P-wave (km/s) = 4.44802 5.05822 4.76291
#
# Compressibility (1/GPa) = 0.06005861
#
# Stress axis : x y z
#
# Youngs Moduli (GPa) = 61.90338 28.10348 81.70298
#
# Poissons Ratio (x) = 0.00699 0.21754
# Poissons Ratio (y) = 0.01539 -0.07781
# Poissons Ratio (z) = 0.16483 -0.02676
#
# Static dielectric constant tensor:
#      x y z
#    x 1.878270 0.000000 -0.002280 
#    y 0.000000 1.865890 0.000000 
#    z -0.002280 0.000000 1.901080 
# 
# From -- ./inp_files/61237.got.cif
#   From: 2010.05.17/outbox.cif.g08.bks.cpg/sg14_31_cif.got.tgz:61237.got - 2010.06.03 17:49:19.
