data_PCOD9243014
_publ_section_title
;
Structure prediction by ZEFSAII (Michael W. Deem and Ramdas Pophale) SiO2 
 PCOD9243014
Probable space group: P 21/C
;
_chemical_formula_sum "Si O2"
_cell_formula_units_Z 32
_cell_length_a 5.210993
_cell_length_b 20.313954
_cell_length_c 14.612352
_cell_angle_alpha 90.000000
_cell_angle_beta 77.925540
_cell_angle_gamma 90.000000
_cell_volume 1512.582684
_symmetry_space_group_name_H-M "P 21/C"
_symmetry_group_IT_number 14
_symmetry_cell_setting 'monoclinic'
loop_
_space_group_symop_operation_xyz
x,y,z
-x,1/2+y,1/2-z
-x,-y,-z
x,1/2-y,1/2+z
loop_
_atom_site_type_symbol
_atom_site_label
_atom_site_fract_x
_atom_site_fract_y
_atom_site_fract_z
Si Si1 0.051712 0.201903 0.950214
Si Si2 0.533817 0.218449 0.446552
Si Si3 0.176185 0.339880 0.255026
Si Si4 0.023184 0.409438 0.090096
Si Si5 0.839679 0.102058 0.323600
Si Si6 0.982374 0.203088 0.165751
Si Si7 0.370505 0.803580 0.371957
Si Si8 0.688912 0.536922 0.098077
O O1 0.092312 0.150480 0.865193
O O2 0.283508 0.254609 0.912407
O O3 0.759378 0.228577 0.953583
O O4 0.096386 0.188475 0.055139
O O5 0.683458 0.161571 0.383306
O O6 0.445140 0.195338 0.553897
O O7 0.490157 0.339859 0.221100
O O8 0.083185 0.395541 0.191427
O O9 0.089158 0.266071 0.220188
O O10 0.888208 0.340210 0.072467
O O11 0.792344 0.462612 0.093273
O O12 0.259196 0.435437 0.008762
O O13 0.951159 0.136454 0.224289
O O14 0.604097 0.048227 0.342386
O O15 0.089816 0.076227 0.360572
O O16 0.697527 0.231923 0.159266
#
# Coordination Sequence:
#
# PCOD9243014 Si02
#       8
#     4   4   4   4   4   4   4   4
#     4  11  23  36  57  87 124 155 191 241 295 361
#     4  11  20  35  56  88 123 154 190 230 302 356
#     4  11  21  37  61  85 121 160 194 249 301 358
#     4  10  24  41  58  94 117 161 208 248 300 356
#     4  12  23  38  60  88 121 164 192 245 301 360
#     4  10  23  36  56  91 121 154 200 239 303 367
#     4  10  20  36  60  86 123 159 190 247 296 364
#     4  11  26  40  64  87 124 159 204 252 296 361
#
# _framework density 21.15587
#
# number of rings (size 3 to 8) (size 9 to 14) (size 15 to 20)
#    0.000    1.250    3.750    2.250    7.000    1.000 
#    0.000    0.000    0.000    1.500    0.000    0.000 
#    0.000    0.000    0.000    0.000    0.000    0.000 
#
# Total GULP energy -178333.561409 kJ/mol
# GULP energy per Si atom -5572.923794 kJ/mol
# Density = 2.110772 g / cm^3
# Si number density = 21.155870 Si / 1000 Ang^3
#
#
#
# Elastic Constant Matrix: (Units=GPa)
#
#
# Indices 1 2 3 4 5 6 
#
# 1 76.7944 14.4433 19.7290 0.0000 -0.0212 0.0000
# 2 14.4433 45.3843 29.8187 0.0000 4.8860 0.0000
# 3 19.7290 29.8187 125.0737 0.0000 -1.1194 0.0000
# 4 0.0000 0.0000 0.0000 29.8964 0.0000 0.9224
# 5 -0.0212 4.8860 -1.1194 0.0000 26.5178 0.0000
# 6 0.0000 0.0000 0.0000 0.9224 0.0000 26.4833
#
#
#
# Elastic Compliance Matrix: (Units=1/GPa)
#
#
# Indices 1 2 3 4 5 6 
#
# 1 0.014054 -0.003661 -0.001338 0.000000 0.000629 0.000000
# 2 -0.003661 0.027782 -0.006094 0.000000 -0.005379 0.000000
# 3 -0.001338 -0.006094 0.009673 0.000000 0.001530 0.000000
# 4 0.000000 0.000000 0.000000 0.033485 0.000000 -0.001166
# 5 0.000629 -0.005379 0.001530 0.000000 0.038767 0.000000
# 6 0.000000 0.000000 0.000000 -0.001166 0.000000 0.037800
#
#
# Mechanical properties :
#
#
# Convention : Reuss Voigt Hill
#
# Bulk Modulus (GPa) = 34.10381 41.69272 37.89826
# Shear Modulus (GPa) = 25.83671 28.79693 27.31682
#
# Velocity S-wave (km/s) = 3.49844 3.69342 3.59725
# Velocity P-wave (km/s) = 5.69860 6.15943 5.93349
#
# Compressibility (1/GPa) = 0.02932224
#
# Stress axis : x y z
#
# Youngs Moduli (GPa) = 71.15216 35.99413 103.38029
#
# Poissons Ratio (x) = 0.13178 0.13837
# Poissons Ratio (y) = 0.26049 0.63002
# Poissons Ratio (z) = 0.09523 0.21936
#
# Static dielectric constant tensor:
#      x y z
#    x 1.855060 0.000000 -0.015570 
#    y 0.000000 1.805170 0.000000 
#    z -0.015570 0.000000 1.844100 
# 
# From -- ./inp_files/38011.got.cif
#   From: 2010.05.17/outbox.cif.g08.bks.cpg/sg14_20_cif.got.tgz:38011.got - 2010.06.03 17:49:19.
