data_PCOD9243899
_publ_section_title
;
Structure prediction by ZEFSAII (Michael W. Deem and Ramdas Pophale) SiO2 
 PCOD9243899
Probable space group: P 21/C
;
_chemical_formula_sum "Si O2"
_cell_formula_units_Z 20
_cell_length_a 14.823534
_cell_length_b 9.564644
_cell_length_c 19.877067
_cell_angle_alpha 90.000000
_cell_angle_beta 163.153933
_cell_angle_gamma 90.000000
_cell_volume 816.720313
_symmetry_space_group_name_H-M "P 21/C"
_symmetry_group_IT_number 14
_symmetry_cell_setting 'monoclinic'
loop_
_space_group_symop_operation_xyz
x,y,z
-x,1/2+y,1/2-z
-x,-y,-z
x,1/2-y,1/2+z
loop_
_atom_site_type_symbol
_atom_site_label
_atom_site_fract_x
_atom_site_fract_y
_atom_site_fract_z
Si Si1 0.195745 0.110442 0.542807
Si Si2 0.210774 0.193153 0.280462
Si Si3 0.594332 0.551458 0.668033
Si Si4 0.932193 0.426117 0.164716
Si Si5 0.873368 0.112644 0.781158
O O1 0.424440 0.064623 0.765250
O O2 0.131280 0.273991 0.484894
O O3 0.867159 0.051522 0.338043
O O4 0.265063 0.030361 0.522731
O O5 0.305763 0.298612 0.289353
O O6 0.969366 0.278350 0.153867
O O7 0.523623 0.165841 0.547603
O O8 0.092124 0.045190 0.168852
O O9 0.272521 0.498671 0.408387
O O10 0.855729 0.402643 0.187362
#
# Coordination Sequence:
#
# PCOD9243899 Si02
#       5
#     4   4   4   4   4
#     4  10  20  39  61  84 114 158 199 238 302 347
#     4  10  21  37  60  88 121 153 197 245 302 344
#     4  10  20  39  62  81 116 162 194 239 294 364
#     4  11  20  40  62  84 119 162 197 238 295 363
#     4  11  21  36  62  91 118 156 195 254 292 343
#
# _framework density 24.488188999999998
#
# number of rings (size 3 to 8) (size 9 to 14) (size 15 to 20)
#    0.000    1.600    4.000    2.400    0.000    0.800 
#    3.600    2.000    0.000    0.000    0.000    0.000 
#    0.000    0.000    0.000    0.000    0.000    0.000 
#
# Total GULP energy -111956.678546 kJ/mol
# GULP energy per Si atom -5597.833927 kJ/mol
# Density = 2.443245 g / cm^3
# Si number density = 24.488189 Si / 1000 Ang^3
#
#
#
# Elastic Constant Matrix: (Units=GPa)
#
#
# Indices 1 2 3 4 5 6 
#
# 1 71.0825 14.1278 5.6816 0.0000 -13.2134 0.0000
# 2 14.1278 174.1886 7.4421 0.0000 -6.1455 0.0000
# 3 5.6816 7.4421 37.0204 0.0000 -10.2519 0.0000
# 4 0.0000 0.0000 0.0000 19.7613 0.0000 -0.1174
# 5 -13.2134 -6.1455 -10.2519 0.0000 33.0034 0.0000
# 6 0.0000 0.0000 0.0000 -0.1174 0.0000 12.9854
#
#
#
# Elastic Compliance Matrix: (Units=1/GPa)
#
#
# Indices 1 2 3 4 5 6 
#
# 1 0.015393 -0.001020 -0.000551 0.000000 0.005802 0.000000
# 2 -0.001020 0.005877 -0.000913 0.000000 0.000402 0.000000
# 3 -0.000551 -0.000913 0.029730 0.000000 0.008844 0.000000
# 4 0.000000 0.000000 0.000000 0.050607 0.000000 0.000458
# 5 0.005802 0.000402 0.008844 0.000000 0.035445 0.000000
# 6 0.000000 0.000000 0.000000 0.000458 0.000000 0.077013
#
#
# Mechanical properties :
#
#
# Convention : Reuss Voigt Hill
#
# Bulk Modulus (GPa) = 21.72447 37.42162 29.57304
# Shear Modulus (GPa) = 21.33310 30.15269 25.74289
#
# Velocity S-wave (km/s) = 2.95474 3.51282 3.24580
# Velocity P-wave (km/s) = 4.53115 5.63630 5.11367
#
# Compressibility (1/GPa) = 0.04603105
#
# Stress axis : x y z
#
# Youngs Moduli (GPa) = 64.96257 170.15862 33.63658
#
# Poissons Ratio (x) = 0.17361 0.01852
# Poissons Ratio (y) = 0.06628 0.03073
# Poissons Ratio (z) = 0.03577 0.15544
#
# Static dielectric constant tensor:
#      x y z
#    x 1.960040 0.000000 0.037940 
#    y 0.000000 1.963490 0.000000 
#    z 0.037940 0.000000 1.932790 
# 
# From -- ./inp_files/38627.got.cif
#   From: 2010.05.17/outbox.cif.g08.bks.cpg/sg14_20_cif.got.tgz:38627.got - 2010.06.03 17:49:19.
