data_PCOD9243099
_publ_section_title
;
Structure prediction by ZEFSAII (Michael W. Deem and Ramdas Pophale) SiO2 
 PCOD9243099
Probable space group: P 21/C
;
_chemical_formula_sum "Si O2"
_cell_formula_units_Z 28
_cell_length_a 14.770329
_cell_length_b 7.873375
_cell_length_c 16.019963
_cell_angle_alpha 90.000000
_cell_angle_beta 39.836753
_cell_angle_gamma 90.000000
_cell_volume 1193.441595
_symmetry_space_group_name_H-M "P 21/C"
_symmetry_group_IT_number 14
_symmetry_cell_setting 'monoclinic'
loop_
_space_group_symop_operation_xyz
x,y,z
-x,1/2+y,1/2-z
-x,-y,-z
x,1/2-y,1/2+z
loop_
_atom_site_type_symbol
_atom_site_label
_atom_site_fract_x
_atom_site_fract_y
_atom_site_fract_z
Si Si1 0.820386 0.952053 0.875777
Si Si2 0.811999 0.745231 0.712048
Si Si3 0.941305 0.253572 0.197957
Si Si4 0.420414 0.263139 0.366004
Si Si5 0.810368 0.969380 0.549611
Si Si6 0.875799 0.164870 0.058778
Si Si7 0.617753 0.526479 0.760534
O O1 0.824412 0.832431 0.791498
O O2 0.955476 0.887079 0.834446
O O3 0.841833 0.148324 0.834104
O O4 0.666862 0.904904 0.022092
O O5 0.796174 0.887047 0.651291
O O6 0.672466 0.627851 0.802370
O O7 0.961210 0.654703 0.583851
O O8 0.868138 0.191809 0.164533
O O9 0.044338 0.402376 0.091800
O O10 0.308036 0.116812 0.422436
O O11 0.461855 0.352404 0.249005
O O12 0.542825 0.154820 0.323414
O O13 0.816458 0.168432 0.555619
O O14 0.771224 0.013298 0.109651
#
# Coordination Sequence:
#
# PCOD9243099 Si02
#       7
#     4   4   4   4   4   4   4
#     4  11  22  37  61  92 128 149 192 254 307 353
#     4  10  20  36  63  91 122 153 194 248 303 351
#     4  10  21  34  57  91 126 151 192 245 310 354
#     4  10  24  41  60  88 114 163 209 244 297 350
#     4   9  17  38  62  84 116 162 195 237 294 370
#     4  11  19  37  63  91 116 162 200 238 300 365
#     4  11  24  40  62  82 121 163 210 246 281 369
#
# _framework density 23.461556000000002
#
# number of rings (size 3 to 8) (size 9 to 14) (size 15 to 20)
#    0.000    1.714    2.857    3.000    4.000    0.571 
#    0.000    0.714    0.000    0.000    0.000    0.000 
#    0.000    0.000    0.000    0.000    0.000    0.000 
#
# Total GULP energy -156445.897445 kJ/mol
# GULP energy per Si atom -5587.353480 kJ/mol
# Density = 2.340816 g / cm^3
# Si number density = 23.461556 Si / 1000 Ang^3
#
#
#
# Elastic Constant Matrix: (Units=GPa)
#
#
# Indices 1 2 3 4 5 6 
#
# 1 61.0926 2.9201 22.9257 0.0000 0.6020 0.0000
# 2 2.9201 61.7179 1.2836 0.0000 -5.7053 0.0000
# 3 22.9257 1.2836 40.5340 0.0000 0.4953 0.0000
# 4 0.0000 0.0000 0.0000 37.5509 0.0000 -12.6212
# 5 0.6020 -5.7053 0.4953 0.0000 27.4962 0.0000
# 6 0.0000 0.0000 0.0000 -12.6212 0.0000 37.9686
#
#
#
# Elastic Compliance Matrix: (Units=1/GPa)
#
#
# Indices 1 2 3 4 5 6 
#
# 1 0.020817 -0.000778 -0.011744 0.000000 -0.000406 0.000000
# 2 -0.000778 0.016562 -0.000127 0.000000 0.003456 0.000000
# 3 -0.011744 -0.000127 0.031321 0.000000 -0.000333 0.000000
# 4 0.000000 0.000000 0.000000 0.029980 0.000000 0.009966
# 5 -0.000406 0.003456 -0.000333 0.000000 0.037101 0.000000
# 6 0.000000 0.000000 0.000000 0.009966 0.000000 0.029650
#
#
# Mechanical properties :
#
#
# Convention : Reuss Voigt Hill
#
# Bulk Modulus (GPa) = 23.04054 24.17814 23.60934
# Shear Modulus (GPa) = 24.36696 29.68416 27.02556
#
# Velocity S-wave (km/s) = 3.22621 3.56086 3.39766
# Velocity P-wave (km/s) = 4.87030 5.21863 5.04747
#
# Compressibility (1/GPa) = 0.04340175
#
# Stress axis : x y z
#
# Youngs Moduli (GPa) = 48.03781 60.38043 31.92731
#
# Poissons Ratio (x) = 0.04699 0.37496
# Poissons Ratio (y) = 0.03738 0.00404
# Poissons Ratio (z) = 0.56417 0.00764
#
# Static dielectric constant tensor:
#      x y z
#    x 1.919620 0.000000 -0.001080 
#    y 0.000000 1.899270 0.000000 
#    z -0.001080 0.000000 1.929550 
# 
# From -- ./inp_files/46687.got.cif
#   From: 2010.05.17/outbox.cif.g08.bks.cpg/sg14_24_cif.got.tgz:46687.got - 2010.06.03 17:49:19.
