data_PCOD9243444
_publ_section_title
;
Structure prediction by ZEFSAII (Michael W. Deem and Ramdas Pophale) SiO2 
 PCOD9243444
Probable space group: P 21/C
;
_chemical_formula_sum "Si O2"
_cell_formula_units_Z 32
_cell_length_a 11.774234
_cell_length_b 13.493355
_cell_length_c 14.276202
_cell_angle_alpha 90.000000
_cell_angle_beta 31.291970
_cell_angle_gamma 90.000000
_cell_volume 1178.058071
_symmetry_space_group_name_H-M "P 21/C"
_symmetry_group_IT_number 14
_symmetry_cell_setting 'monoclinic'
loop_
_space_group_symop_operation_xyz
x,y,z
-x,1/2+y,1/2-z
-x,-y,-z
x,1/2-y,1/2+z
loop_
_atom_site_type_symbol
_atom_site_label
_atom_site_fract_x
_atom_site_fract_y
_atom_site_fract_z
Si Si1 0.737816 0.111660 0.689839
Si Si2 0.059855 0.217557 0.215869
Si Si3 0.438063 0.564288 0.226180
Si Si4 0.162093 0.810650 0.804318
Si Si5 0.134890 0.063285 0.654873
Si Si6 0.785969 0.615341 0.687300
Si Si7 0.419308 0.743535 0.859195
Si Si8 0.166449 0.443125 0.763398
O O1 0.786965 0.194939 0.733135
O O2 0.577964 0.169062 0.732226
O O3 0.674101 0.009422 0.785507
O O4 0.963644 0.088097 0.474627
O O5 0.977506 0.155933 0.185195
O O6 0.827357 0.240463 0.428785
O O7 0.152014 0.320746 0.115477
O O8 0.219785 0.157318 0.170738
O O9 0.374834 0.627320 0.177748
O O10 0.263182 0.476173 0.348329
O O11 0.456546 0.644355 0.295852
O O12 0.665328 0.512297 0.040790
O O13 0.006913 0.829654 0.002557
O O14 0.175553 0.069650 0.737073
O O15 0.925343 0.014288 0.754778
O O16 0.593007 0.696116 0.808448
#
# Coordination Sequence:
#
# PCOD9243444 Si02
#       8
#     4   4   4   4   4   4   4   4
#     4   9  19  39  61  89 121 170 215 256 326 390
#     4  11  22  40  62  98 127 172 217 270 339 386
#     4  11  23  40  64  94 131 174 216 272 333 392
#     4  11  22  41  67  92 136 171 217 281 325 394
#     4  12  23  40  66  98 131 170 218 276 334 396
#     4  12  24  42  64  99 129 174 222 274 335 391
#     4  10  23  41  62  92 134 169 219 274 323 406
#     4  10  20  37  65  92 123 169 218 261 324 406
#
# _framework density 27.163347000000002
#
# number of rings (size 3 to 8) (size 9 to 14) (size 15 to 20)
#    0.000    1.250    1.250    6.750    0.000    1.000 
#    2.250    0.000    0.000    2.250    0.000    0.000 
#    0.000    0.000    0.000    0.000    0.000    0.000 
#
# Total GULP energy -179098.475296 kJ/mol
# GULP energy per Si atom -5596.827353 kJ/mol
# Density = 2.710152 g / cm^3
# Si number density = 27.163347 Si / 1000 Ang^3
#
#
#
# Elastic Constant Matrix: (Units=GPa)
#
#
# Indices 1 2 3 4 5 6 
#
# 1 102.6593 44.3139 4.0924 0.0000 4.0120 0.0000
# 2 44.3139 86.1716 -9.8407 0.0000 1.1019 0.0000
# 3 4.0924 -9.8407 61.3513 0.0000 -0.0221 0.0000
# 4 0.0000 0.0000 0.0000 28.8519 0.0000 3.3022
# 5 4.0120 1.1019 -0.0221 0.0000 28.0061 0.0000
# 6 0.0000 0.0000 0.0000 3.3022 0.0000 65.6463
#
#
#
# Elastic Compliance Matrix: (Units=1/GPa)
#
#
# Indices 1 2 3 4 5 6 
#
# 1 0.012811 -0.006790 -0.001944 0.000000 -0.001570 0.000000
# 2 -0.006790 0.015426 0.002927 0.000000 0.000368 0.000000
# 3 -0.001944 0.002927 0.016899 0.000000 0.000177 0.000000
# 4 0.000000 0.000000 0.000000 0.034860 0.000000 -0.001754
# 5 -0.001570 0.000368 0.000177 0.000000 0.035917 0.000000
# 6 0.000000 0.000000 0.000000 -0.001754 0.000000 0.015321
#
#
# Mechanical properties :
#
#
# Convention : Reuss Voigt Hill
#
# Bulk Modulus (GPa) = 29.83097 36.36818 33.09957
# Shear Modulus (GPa) = 32.46288 38.60862 35.53575
#
# Velocity S-wave (km/s) = 3.46077 3.77417 3.62086
# Velocity P-wave (km/s) = 5.19376 5.69300 5.44910
#
# Compressibility (1/GPa) = 0.03352221
#
# Stress axis : x y z
#
# Youngs Moduli (GPa) = 78.05958 64.82539 59.17560
#
# Poissons Ratio (x) = 0.44016 0.11505
# Poissons Ratio (y) = 0.53002 -0.17323
# Poissons Ratio (z) = 0.15176 -0.18977
#
# Static dielectric constant tensor:
#      x y z
#    x 2.143220 0.000000 -0.002200 
#    y 0.000000 2.133740 0.000000 
#    z -0.002200 0.000000 2.143770 
# 
# From -- ./inp_files/45078.got.cif
#   From: 2010.05.17/outbox.cif.g08.bks.cpg/sg14_23_cif.got.tgz:45078.got - 2010.06.03 17:49:19.
