data_PCOD9243447
_publ_section_title
;
Structure prediction by ZEFSAII (Michael W. Deem and Ramdas Pophale) SiO2 
 PCOD9243447
Probable space group: P 21/C
;
_chemical_formula_sum "Si O2"
_cell_formula_units_Z 32
_cell_length_a 7.850906
_cell_length_b 12.324139
_cell_length_c 13.890465
_cell_angle_alpha 90.000000
_cell_angle_beta 66.773748
_cell_angle_gamma 90.000000
_cell_volume 1235.057776
_symmetry_space_group_name_H-M "P 21/C"
_symmetry_group_IT_number 14
_symmetry_cell_setting 'monoclinic'
loop_
_space_group_symop_operation_xyz
x,y,z
-x,1/2+y,1/2-z
-x,-y,-z
x,1/2-y,1/2+z
loop_
_atom_site_type_symbol
_atom_site_label
_atom_site_fract_x
_atom_site_fract_y
_atom_site_fract_z
Si Si1 0.471021 0.492964 0.891817
Si Si2 0.262333 0.279043 0.975931
Si Si3 0.367889 0.715283 0.652871
Si Si4 0.028431 0.660368 0.221278
Si Si5 0.742838 0.493017 0.230873
Si Si6 0.451840 0.816814 0.843379
Si Si7 0.241540 0.152641 0.680113
Si Si8 0.952266 0.118857 0.049926
O O1 0.377170 0.374892 0.900093
O O2 0.318470 0.552999 0.859589
O O3 0.670807 0.538036 0.806972
O O4 0.500000 0.500000 0.000000
O O5 0.436766 0.195375 0.942343
O O6 0.175620 0.344478 0.085124
O O7 0.095620 0.206798 0.975861
O O8 0.256492 0.604384 0.693636
O O9 0.405177 0.758978 0.752557
O O10 0.231750 0.806502 0.640547
O O11 0.930935 0.561039 0.189906
O O12 0.900437 0.768029 0.235862
O O13 0.026574 0.630948 0.337034
O O14 0.580978 0.576902 0.300775
O O15 0.573500 0.726754 0.869358
O O16 0.257193 0.851494 0.930418
O O17 0.000000 0.000000 0.000000
#
# Coordination Sequence:
#
# PCOD9243447 Si02
#       8
#     4   4   4   4   4   4   4   4
#     4  10  20  37  65  93 123 165 206 258 327 374
#     4  10  21  38  60  91 127 160 215 259 314 389
#     4  11  21  38  61  93 124 169 211 257 319 374
#     4   9  23  40  60  91 130 166 212 265 312 381
#     4  11  21  40  64  96 127 167 217 259 319 385
#     4  10  20  38  63  90 123 164 213 264 315 376
#     4   9  19  40  62  82 125 167 198 266 323 371
#     4  10  21  41  62  88 127 168 213 267 322 368
#
# _framework density 25.909717000000001
#
# number of rings (size 3 to 8) (size 9 to 14) (size 15 to 20)
#    0.000    2.000    2.500    0.750    0.000    2.000 
#    4.500    5.625    0.000    0.000    0.000    0.000 
#    0.000    0.000    0.000    0.000    0.000    0.000 
#
# Total GULP energy -178422.980117 kJ/mol
# GULP energy per Si atom -5575.718129 kJ/mol
# Density = 2.585075 g / cm^3
# Si number density = 25.909717 Si / 1000 Ang^3
#
#
#
# Elastic Constant Matrix: (Units=GPa)
#
#
# Indices 1 2 3 4 5 6 
#
# 1 111.9999 39.3473 29.2309 0.0000 -17.7079 0.0000
# 2 39.3473 128.8225 19.3091 0.0000 -11.8155 0.0000
# 3 29.2309 19.3091 67.7276 0.0000 -3.6428 0.0000
# 4 0.0000 0.0000 0.0000 10.7044 0.0000 -10.2776
# 5 -17.7079 -11.8155 -3.6428 0.0000 37.2588 0.0000
# 6 0.0000 0.0000 0.0000 -10.2776 0.0000 59.4792
#
#
#
# Elastic Compliance Matrix: (Units=1/GPa)
#
#
# Indices 1 2 3 4 5 6 
#
# 1 0.011548 -0.002529 -0.004032 0.000000 0.004292 0.000000
# 2 -0.002529 0.008875 -0.001359 0.000000 0.001479 0.000000
# 3 -0.004032 -0.001359 0.016855 0.000000 -0.000699 0.000000
# 4 0.000000 0.000000 0.000000 0.112000 0.000000 0.019353
# 5 0.004292 0.001479 -0.000699 0.000000 0.029280 0.000000
# 6 0.000000 0.000000 0.000000 0.019353 0.000000 0.020157
#
#
# Mechanical properties :
#
#
# Convention : Reuss Voigt Hill
#
# Bulk Modulus (GPa) = 46.64816 53.81386 50.23101
# Shear Modulus (GPa) = 22.55290 36.19936 29.37613
#
# Velocity S-wave (km/s) = 2.95353 3.74188 3.37083
# Velocity P-wave (km/s) = 5.44741 6.28361 5.88039
#
# Compressibility (1/GPa) = 0.02143707
#
# Stress axis : x y z
#
# Youngs Moduli (GPa) = 86.59437 112.68236 59.32917
#
# Poissons Ratio (x) = 0.28499 0.23923
# Poissons Ratio (y) = 0.21901 0.08063
# Poissons Ratio (z) = 0.34916 0.15313
#
# Static dielectric constant tensor:
#      x y z
#    x 2.113680 0.000000 0.075030 
#    y 0.000000 2.282840 0.000000 
#    z 0.075030 0.000000 2.076400 
# 
# From -- ./inp_files/55571.got.cif
#   From: 2010.05.17/outbox.cif.g08.bks.cpg/sg14_28_cif.got.tgz:55571.got - 2010.06.03 17:49:19.
