data_PCOD9243890
_publ_section_title
;
Structure prediction by ZEFSAII (Michael W. Deem and Ramdas Pophale) SiO2 
 PCOD9243890
Probable space group: P 21/C
;
_chemical_formula_sum "Si O2"
_cell_formula_units_Z 28
_cell_length_a 21.609398
_cell_length_b 10.097587
_cell_length_c 16.312658
_cell_angle_alpha 90.000000
_cell_angle_beta 22.443058
_cell_angle_gamma 90.000000
_cell_volume 1358.880265
_symmetry_space_group_name_H-M "P 21/C"
_symmetry_group_IT_number 14
_symmetry_cell_setting 'monoclinic'
loop_
_space_group_symop_operation_xyz
x,y,z
-x,1/2+y,1/2-z
-x,-y,-z
x,1/2-y,1/2+z
loop_
_atom_site_type_symbol
_atom_site_label
_atom_site_fract_x
_atom_site_fract_y
_atom_site_fract_z
Si Si1 0.817496 0.549837 0.231799
Si Si2 0.168188 0.515459 0.609784
Si Si3 0.782004 0.981333 0.596086
Si Si4 0.677177 0.232080 0.197258
Si Si5 0.350202 0.242221 0.845856
Si Si6 0.675614 0.817880 0.435291
Si Si7 0.614968 0.079316 0.424964
O O1 0.753584 0.488825 0.394859
O O2 0.810989 0.708679 0.249572
O O3 0.730874 0.512072 0.253998
O O4 0.000000 0.500000 0.000000
O O5 0.244644 0.628370 0.460884
O O6 0.211901 0.371801 0.519129
O O7 0.976254 0.535652 0.852333
O O8 0.696979 0.858048 0.657914
O O9 0.740087 0.121037 0.607680
O O10 0.485609 0.230792 0.414327
O O11 0.711812 0.177757 0.246672
O O12 0.361395 0.305206 0.922788
O O13 0.506520 0.163856 0.620698
O O14 0.707035 0.965176 0.363075
O O15 0.500000 0.000000 0.500000
#
# Coordination Sequence:
#
# PCOD9243890 Si02
#       7
#     4   4   4   4   4   4   4
#     4   9  21  40  63  87 123 166 208 258 319 374
#     4  10  21  42  62  83 130 171 200 261 324 377
#     4  11  23  38  62  95 118 162 223 256 312 386
#     4  11  23  38  63  94 125 164 211 265 318 378
#     4  11  22  38  66  89 126 164 206 264 317 377
#     4  10  22  38  63  93 126 162 212 258 323 375
#     4  10  20  39  60  89 124 163 198 260 322 368
#
# _framework density 20.6052
#
# number of rings (size 3 to 8) (size 9 to 14) (size 15 to 20)
#    0.000    1.714    2.857    2.571    2.000    3.429 
#    0.000    0.000    0.000    3.429    0.000    0.000 
#    0.000    0.000    0.000    0.000    0.000    0.000 
#
# Total GULP energy -156331.767830 kJ/mol
# GULP energy per Si atom -5583.277422 kJ/mol
# Density = 2.055830 g / cm^3
# Si number density = 20.605200 Si / 1000 Ang^3
#
#
#
# Elastic Constant Matrix: (Units=GPa)
#
#
# Indices 1 2 3 4 5 6 
#
# 1 80.7954 55.1176 15.6270 0.0000 20.5121 0.0000
# 2 55.1176 142.6904 42.3908 0.0000 13.3774 0.0000
# 3 15.6270 42.3908 57.6559 0.0000 10.1024 0.0000
# 4 0.0000 0.0000 0.0000 6.8607 0.0000 -6.3594
# 5 20.5121 13.3774 10.1024 0.0000 25.5300 0.0000
# 6 0.0000 0.0000 0.0000 -6.3594 0.0000 37.1304
#
#
#
# Elastic Compliance Matrix: (Units=1/GPa)
#
#
# Indices 1 2 3 4 5 6 
#
# 1 0.020278 -0.007220 0.002153 0.000000 -0.013361 0.000000
# 2 -0.007220 0.011659 -0.007050 0.000000 0.002482 0.000000
# 3 0.002153 -0.007050 0.023209 0.000000 -0.007220 0.000000
# 4 0.000000 0.000000 0.000000 0.173266 0.000000 0.029676
# 5 -0.013361 0.002482 -0.007220 0.000000 0.051462 0.000000
# 6 0.000000 0.000000 0.000000 0.029676 0.000000 0.032015
#
#
# Mechanical properties :
#
#
# Convention : Reuss Voigt Hill
#
# Bulk Modulus (GPa) = 32.34895 56.37917 44.36406
# Shear Modulus (GPa) = 14.43312 25.10462 19.76887
#
# Velocity S-wave (km/s) = 2.64949 3.49429 3.10080
# Velocity P-wave (km/s) = 5.00931 6.61068 5.86491
#
# Compressibility (1/GPa) = 0.03091291
#
# Stress axis : x y z
#
# Youngs Moduli (GPa) = 49.31474 85.77188 43.08652
#
# Poissons Ratio (x) = 0.61927 -0.09278
# Poissons Ratio (y) = 0.35605 0.30376
# Poissons Ratio (z) = -0.10619 0.60469
#
# Static dielectric constant tensor:
#      x y z
#    x 1.765110 0.000000 0.023140 
#    y 0.000000 1.756100 0.000000 
#    z 0.023140 0.000000 1.744100 
# 
# From -- ./inp_files/50221.got.cif
#   From: 2010.05.17/outbox.cif.g08.bks.cpg/sg14_26_cif.got.tgz:50221.got - 2010.06.03 17:49:19.
