data_PCOD9243094
_publ_section_title
;
Structure prediction by ZEFSAII (Michael W. Deem and Ramdas Pophale) SiO2 
 PCOD9243094
Probable space group: P 21/C
;
_chemical_formula_sum "Si O2"
_cell_formula_units_Z 28
_cell_length_a 10.188926
_cell_length_b 12.232258
_cell_length_c 13.453427
_cell_angle_alpha 90.000000
_cell_angle_beta 119.227076
_cell_angle_gamma 90.000000
_cell_volume 1463.284190
_symmetry_space_group_name_H-M "P 21/C"
_symmetry_group_IT_number 14
_symmetry_cell_setting 'monoclinic'
loop_
_space_group_symop_operation_xyz
x,y,z
-x,1/2+y,1/2-z
-x,-y,-z
x,1/2-y,1/2+z
loop_
_atom_site_type_symbol
_atom_site_label
_atom_site_fract_x
_atom_site_fract_y
_atom_site_fract_z
Si Si1 0.161749 0.098675 0.153139
Si Si2 0.932543 0.354309 0.400311
Si Si3 0.020442 0.207357 0.724550
Si Si4 0.520443 0.792643 0.724551
Si Si5 0.567457 0.145692 0.099688
Si Si6 0.661749 0.598674 0.653140
Si Si7 0.250000 0.771250 0.500001
O O1 0.079963 0.178080 0.201927
O O2 0.337068 0.126957 0.219719
O O3 0.126079 0.972241 0.156611
O O4 0.086572 0.127819 0.018975
O O5 0.817955 0.302901 0.437004
O O6 0.958954 0.282108 0.313123
O O7 0.162932 0.126957 0.780280
O O8 0.888872 0.166837 0.602132
O O9 0.458954 0.782107 0.813124
O O10 0.579963 0.678079 0.701928
O O11 0.388872 0.833163 0.602134
O O12 0.682045 0.197099 0.062995
O O13 0.626079 0.027759 0.156611
O O14 0.413428 0.127819 0.981025
#
# Coordination Sequence:
#
# PCOD9243094 Si02
#       7
#     4   4   4   4   4   4   4
#     4   9  21  35  60  91 107 148 198 232 283 330
#     4  10  20  36  63  84 114 146 194 241 273 333
#     4  10  20  37  56  84 121 145 186 239 284 332
#     4  10  20  37  56  84 121 145 186 239 284 332
#     4  10  20  36  63  84 114 146 194 241 273 333
#     4   9  21  35  60  91 107 148 198 232 283 330
#     4  10  22  36  56  90 116 152 186 228 290 340
#
# _framework density 19.135038999999999
#
# number of rings (size 3 to 8) (size 9 to 14) (size 15 to 20)
#    0.000    2.286    0.000    1.714   12.000    0.000 
#    0.000    1.429   12.571    0.000    0.000    0.000 
#    0.000    0.000    0.000    0.000    0.000    0.000 
#
# Total GULP energy -156260.024984 kJ/mol
# GULP energy per Si atom -5580.715178 kJ/mol
# Density = 1.909149 g / cm^3
# Si number density = 19.135039 Si / 1000 Ang^3
#
#
#
# Elastic Constant Matrix: (Units=GPa)
#
#
# Indices 1 2 3 4 5 6 
#
# 1 119.8510 31.7648 78.5534 0.0000 1.3216 0.0000
# 2 31.7648 51.3534 50.5469 0.0000 0.7730 0.0000
# 3 78.5534 50.5469 114.1900 0.0000 8.3464 0.0000
# 4 0.0000 0.0000 0.0000 29.2983 0.0000 4.3021
# 5 1.3216 0.7730 8.3464 0.0000 55.5441 0.0000
# 6 0.0000 0.0000 0.0000 4.3021 0.0000 5.1273
#
#
#
# Elastic Compliance Matrix: (Units=1/GPa)
#
#
# Indices 1 2 3 4 5 6 
#
# 1 0.015363 0.001728 -0.011430 0.000000 0.001328 0.000000
# 2 0.001728 0.034889 -0.016778 0.000000 0.001995 0.000000
# 3 -0.011430 -0.016778 0.024277 0.000000 -0.003143 0.000000
# 4 0.000000 0.000000 0.000000 0.038928 0.000000 -0.032663
# 5 0.001328 0.001995 -0.003143 0.000000 0.018417 0.000000
# 6 0.000000 0.000000 0.000000 -0.032663 0.000000 0.222441
#
#
# Mechanical properties :
#
#
# Convention : Reuss Voigt Hill
#
# Bulk Modulus (GPa) = 46.36568 67.45827 56.91197
# Shear Modulus (GPa) = 12.06375 26.29589 19.17982
#
# Velocity S-wave (km/s) = 2.51361 3.71108 3.16941
# Velocity P-wave (km/s) = 5.71906 7.32756 6.57270
#
# Compressibility (1/GPa) = 0.02156768
#
# Stress axis : x y z
#
# Youngs Moduli (GPa) = 65.09229 28.66250 41.19078
#
# Poissons Ratio (x) = -0.04953 0.47083
# Poissons Ratio (y) = -0.11249 0.69111
# Poissons Ratio (z) = 0.74403 0.48091
#
# Static dielectric constant tensor:
#      x y z
#    x 1.698300 0.000000 0.026920 
#    y 0.000000 1.630290 0.000000 
#    z 0.026920 0.000000 1.677320 
# 
# From -- ./inp_files/44092.got.cif
#   From: 2010.05.17/outbox.cif.g08.bks.cpg/sg14_23_cif.got.tgz:44092.got - 2010.06.03 17:49:19.
