data_PCOD9243140
_publ_section_title
;
Structure prediction by ZEFSAII (Michael W. Deem and Ramdas Pophale) SiO2 
 PCOD9243140
Probable space group: P 21/C
;
_chemical_formula_sum "Si O2"
_cell_formula_units_Z 30
_cell_length_a 13.900045
_cell_length_b 6.997428
_cell_length_c 13.808819
_cell_angle_alpha 90.000000
_cell_angle_beta 105.905293
_cell_angle_gamma 90.000000
_cell_volume 1291.689181
_symmetry_space_group_name_H-M "P 21/C"
_symmetry_group_IT_number 14
_symmetry_cell_setting 'monoclinic'
loop_
_space_group_symop_operation_xyz
x,y,z
-x,1/2+y,1/2-z
-x,-y,-z
x,1/2-y,1/2+z
loop_
_atom_site_type_symbol
_atom_site_label
_atom_site_fract_x
_atom_site_fract_y
_atom_site_fract_z
Si Si1 0.956581 0.403021 0.359683
Si Si2 0.670218 0.788206 0.513222
Si Si3 0.873978 0.721658 0.467158
Si Si4 0.484371 0.297101 0.385160
Si Si5 0.110447 0.758935 0.862034
Si Si6 0.662476 0.263868 0.071982
Si Si7 0.000000 0.500000 0.000000
Si Si8 0.507324 0.140074 0.672888
O O1 0.885488 0.527630 0.410133
O O2 0.907073 0.324500 0.250434
O O3 0.018161 0.247124 0.442255
O O4 0.042793 0.552873 0.355382
O O5 0.777864 0.726331 0.505816
O O6 0.620821 0.676766 0.589590
O O7 0.589751 0.767999 0.404074
O O8 0.675017 0.012188 0.544026
O O9 0.894438 0.912397 0.413221
O O10 0.580610 0.330088 0.478510
O O11 0.495688 0.382621 0.283118
O O12 0.487901 0.070148 0.369519
O O13 0.226332 0.812471 0.903413
O O14 0.074476 0.609047 0.933191
O O15 0.608210 0.261058 0.161795
#
# Coordination Sequence:
#
# PCOD9243140 Si02
#       8
#     4   4   4   4   4   4   2   4
#     4  10  24  39  60  86 128 149 216 246 294 361
#     4   9  18  37  65  82 120 156 199 236 308 362
#     4  10  20  41  59  93 115 160 196 259 295 360
#     4   9  19  39  60  87 120 154 196 251 289 373
#     4  11  21  41  58  88 116 168 191 256 302 354
#     4   9  19  38  62  83 120 159 194 241 312 360
#     4  10  20  36  66  80 120 150 202 242 310 346
#     4   9  19  38  57  91 113 153 198 242 296 362
#
# _framework density 23.225401999999999
#
# number of rings (size 3 to 8) (size 9 to 14) (size 15 to 20)
#    0.000    2.400    1.333    2.400    0.000    2.133 
#   16.800    1.333    0.000    0.000    0.000    0.000 
#    0.000    0.000    0.000    0.000    0.000    0.000 
#
# Total GULP energy -167320.725200 kJ/mol
# GULP energy per Si atom -5577.357507 kJ/mol
# Density = 2.317254 g / cm^3
# Si number density = 23.225402 Si / 1000 Ang^3
#
#
#
# Elastic Constant Matrix: (Units=GPa)
#
#
# Indices 1 2 3 4 5 6 
#
# 1 201.0669 32.1362 76.7350 0.0000 -42.2586 0.0000
# 2 32.1362 89.3347 22.2800 0.0000 -13.6913 0.0000
# 3 76.7350 22.2800 97.1980 0.0000 -31.8953 0.0000
# 4 0.0000 0.0000 0.0000 23.6653 0.0000 -8.4419
# 5 -42.2586 -13.6913 -31.8953 0.0000 26.9660 0.0000
# 6 0.0000 0.0000 0.0000 -8.4419 0.0000 20.3654
#
#
#
# Elastic Compliance Matrix: (Units=1/GPa)
#
#
# Indices 1 2 3 4 5 6 
#
# 1 0.008194 -0.000796 -0.003604 0.000000 0.008174 0.000000
# 2 -0.000796 0.012308 -0.000901 0.000000 0.003935 0.000000
# 3 -0.003604 -0.000901 0.018528 0.000000 0.015809 0.000000
# 4 0.000000 0.000000 0.000000 0.049589 0.000000 0.020556
# 5 0.008174 0.003935 0.015809 0.000000 0.070590 0.000000
# 6 0.000000 0.000000 0.000000 0.020556 0.000000 0.057624
#
#
# Mechanical properties :
#
#
# Convention : Reuss Voigt Hill
#
# Bulk Modulus (GPa) = 35.17828 72.21134 53.69481
# Shear Modulus (GPa) = 21.10490 31.29590 26.20040
#
# Velocity S-wave (km/s) = 3.01773 3.67479 3.36235
# Velocity P-wave (km/s) = 5.22701 7.01174 6.18410
#
# Compressibility (1/GPa) = 0.02842663
#
# Stress axis : x y z
#
# Youngs Moduli (GPa) = 122.03806 81.24682 53.97203
#
# Poissons Ratio (x) = 0.06468 0.19454
# Poissons Ratio (y) = 0.09715 0.04865
# Poissons Ratio (z) = 0.43987 0.07324
#
# Static dielectric constant tensor:
#      x y z
#    x 1.856440 0.000000 -0.035240 
#    y 0.000000 2.141650 0.000000 
#    z -0.035240 0.000000 1.951070 
# 
# From -- ./inp_files/43437.got.cif
#   From: 2010.05.17/outbox.cif.g08.bks.cpg/sg14_22_cif.got.tgz:43437.got - 2010.06.03 17:49:19.
