data_PCOD9243927
_publ_section_title
;
Structure prediction by ZEFSAII (Michael W. Deem and Ramdas Pophale) SiO2 
 PCOD9243927
Probable space group: P 21/C
;
_chemical_formula_sum "Si O2"
_cell_formula_units_Z 24
_cell_length_a 15.353605
_cell_length_b 7.983727
_cell_length_c 14.893080
_cell_angle_alpha 90.000000
_cell_angle_beta 144.992902
_cell_angle_gamma 90.000000
_cell_volume 1047.294185
_symmetry_space_group_name_H-M "P 21/C"
_symmetry_group_IT_number 14
_symmetry_cell_setting 'monoclinic'
loop_
_space_group_symop_operation_xyz
x,y,z
-x,1/2+y,1/2-z
-x,-y,-z
x,1/2-y,1/2+z
loop_
_atom_site_type_symbol
_atom_site_label
_atom_site_fract_x
_atom_site_fract_y
_atom_site_fract_z
Si Si1 0.724350 0.782939 0.929234
Si Si2 0.570088 0.064701 0.241126
Si Si3 0.072130 0.417526 0.762857
Si Si4 0.417914 0.739171 0.431025
Si Si5 0.262695 0.089464 0.252582
Si Si6 0.233383 0.764504 0.954273
O O1 0.600410 0.903906 0.869159
O O2 0.633733 0.614082 0.823510
O O3 0.783215 0.861678 0.886462
O O4 0.845481 0.715131 0.102047
O O5 0.585241 0.100569 0.148693
O O6 0.668184 0.202712 0.378542
O O7 0.127759 0.382341 0.708918
O O8 0.140650 0.597139 0.846587
O O9 0.893746 0.398666 0.627593
O O10 0.589604 0.801232 0.593833
O O11 0.337977 0.692683 0.457072
O O12 0.325185 0.900171 0.314551
#
# Coordination Sequence:
#
# PCOD9243927 Si02
#       6
#     4   4   4   4   4   4
#     4  11  22  38  61  90 119 154 199 245 292 348
#     4  11  22  38  61  90 119 154 199 245 292 348
#     4  10  23  41  60  85 122 158 192 243 298 348
#     4  10  20  39  62  86 119 156 197 244 292 346
#     4  10  20  39  62  86 119 156 197 244 292 346
#     4  10  23  41  60  85 122 158 192 243 298 348
#
# _framework density 22.916198000000001
#
# number of rings (size 3 to 8) (size 9 to 14) (size 15 to 20)
#    0.000    1.667    3.333    1.000    0.000    6.000 
#    0.000    6.667    0.000    0.000    0.000    0.000 
#    0.000    0.000    0.000    0.000    0.000    0.000 
#
# Total GULP energy -134509.976869 kJ/mol
# GULP energy per Si atom -5604.582370 kJ/mol
# Density = 2.286404 g / cm^3
# Si number density = 22.916198 Si / 1000 Ang^3
#
#
#
# Elastic Constant Matrix: (Units=GPa)
#
#
# Indices 1 2 3 4 5 6 
#
# 1 173.7730 39.8597 60.8651 0.0000 -8.1314 0.0000
# 2 39.8597 80.0499 21.5141 0.0000 -12.3444 0.0000
# 3 60.8651 21.5141 65.9251 0.0000 -4.4995 0.0000
# 4 0.0000 0.0000 0.0000 50.1120 0.0000 -2.5036
# 5 -8.1314 -12.3444 -4.4995 0.0000 46.7258 0.0000
# 6 0.0000 0.0000 0.0000 -2.5036 0.0000 42.0261
#
#
#
# Elastic Compliance Matrix: (Units=1/GPa)
#
#
# Indices 1 2 3 4 5 6 
#
# 1 0.008922 -0.002413 -0.007436 0.000000 0.000199 0.000000
# 2 -0.002413 0.014841 -0.002392 0.000000 0.003271 0.000000
# 3 -0.007436 -0.002392 0.022833 0.000000 0.000273 0.000000
# 4 0.000000 0.000000 0.000000 0.020015 0.000000 0.001192
# 5 0.000199 0.003271 0.000273 0.000000 0.022326 0.000000
# 6 0.000000 0.000000 0.000000 0.001192 0.000000 0.023866
#
#
# Mechanical properties :
#
#
# Convention : Reuss Voigt Hill
#
# Bulk Modulus (GPa) = 45.22086 62.69176 53.95631
# Shear Modulus (GPa) = 34.56440 40.94004 37.75222
#
# Velocity S-wave (km/s) = 3.88789 4.23130 4.06323
# Velocity P-wave (km/s) = 6.31904 7.16158 6.75346
#
# Compressibility (1/GPa) = 0.02211369
#
# Stress axis : x y z
#
# Youngs Moduli (GPa) = 112.08160 67.38040 43.79573
#
# Poissons Ratio (x) = 0.16262 0.32567
# Poissons Ratio (y) = 0.27050 0.10475
# Poissons Ratio (z) = 0.83345 0.16117
#
# Static dielectric constant tensor:
#      x y z
#    x 1.784050 0.000000 0.009320 
#    y 0.000000 1.893620 0.000000 
#    z 0.009320 0.000000 1.829020 
# 
# From -- ./inp_files/38889.got.cif
#   From: 2010.05.17/outbox.cif.g08.bks.cpg/sg14_20_cif.got.tgz:38889.got - 2010.06.03 17:49:19.
