data_PCOD9243498
_publ_section_title
;
Structure prediction by ZEFSAII (Michael W. Deem and Ramdas Pophale) SiO2 
 PCOD9243498
Probable space group: P 21/C
;
_chemical_formula_sum "Si O2"
_cell_formula_units_Z 28
_cell_length_a 17.699795
_cell_length_b 5.396509
_cell_length_c 14.153127
_cell_angle_alpha 90.000000
_cell_angle_beta 121.604843
_cell_angle_gamma 90.000000
_cell_volume 1151.360540
_symmetry_space_group_name_H-M "P 21/C"
_symmetry_group_IT_number 14
_symmetry_cell_setting 'monoclinic'
loop_
_space_group_symop_operation_xyz
x,y,z
-x,1/2+y,1/2-z
-x,-y,-z
x,1/2-y,1/2+z
loop_
_atom_site_type_symbol
_atom_site_label
_atom_site_fract_x
_atom_site_fract_y
_atom_site_fract_z
Si Si1 0.106517 0.390372 0.119550
Si Si2 0.799790 0.288817 0.450142
Si Si3 0.035874 0.270187 0.890842
Si Si4 0.869795 0.382831 0.170296
Si Si5 0.431137 0.094298 0.302035
Si Si6 0.743125 0.569864 0.231950
Si Si7 0.609890 0.094462 0.342129
O O1 0.142699 0.616971 0.081037
O O2 0.190128 0.299365 0.233315
O O3 0.024964 0.483772 0.127096
O O4 0.070587 0.196697 0.017315
O O5 0.856883 0.329953 0.582401
O O6 0.760237 0.491289 0.352765
O O7 0.712878 0.139433 0.430326
O O8 0.117479 0.368729 0.882952
O O9 0.960464 0.114919 0.789970
O O10 0.787271 0.382361 0.187363
O O11 0.361689 0.108903 0.342974
O O12 0.537769 0.113019 0.379123
O O13 0.402955 0.330000 0.218142
O O14 0.416086 0.824081 0.244282
#
# Coordination Sequence:
#
# PCOD9243498 Si02
#       7
#     4   4   4   4   4   4   4
#     4  10  20  38  58  77 111 153 195 249 294 360
#     4  10  21  38  57  84 118 150 199 242 300 361
#     4  10  22  37  52  82 114 149 201 247 298 352
#     4  11  23  37  56  85 113 153 202 248 298 358
#     4   9  18  32  62  88 119 158 200 240 303 365
#     4  11  21  37  60  83 112 158 191 243 306 354
#     4   9  17  35  58  91 119 157 198 245 298 367
#
# _framework density 24.319056
#
# number of rings (size 3 to 8) (size 9 to 14) (size 15 to 20)
#    0.000    2.000    2.857    0.857    2.000    0.571 
#    0.000    0.714    0.000    0.000    0.000   12.000 
#    0.000    0.000    0.000    0.000    0.000    0.000 
#
# Total GULP energy -156100.711209 kJ/mol
# GULP energy per Si atom -5575.025400 kJ/mol
# Density = 2.426371 g / cm^3
# Si number density = 24.319056 Si / 1000 Ang^3
#
#
#
# Elastic Constant Matrix: (Units=GPa)
#
#
# Indices 1 2 3 4 5 6 
#
# 1 176.8762 -2.2430 19.5260 0.0000 15.1641 0.0000
# 2 -2.2430 78.7285 11.3900 0.0000 -2.6374 0.0000
# 3 19.5260 11.3900 44.2213 0.0000 -8.9813 0.0000
# 4 0.0000 0.0000 0.0000 17.6720 0.0000 4.8289
# 5 15.1641 -2.6374 -8.9813 0.0000 30.2566 0.0000
# 6 0.0000 0.0000 0.0000 4.8289 0.0000 23.2483
#
#
#
# Elastic Compliance Matrix: (Units=1/GPa)
#
#
# Indices 1 2 3 4 5 6 
#
# 1 0.006463 0.000602 -0.003890 0.000000 -0.004342 0.000000
# 2 0.000602 0.013250 -0.003730 0.000000 -0.000254 0.000000
# 3 -0.003890 -0.003730 0.027266 0.000000 0.009718 0.000000
# 4 0.000000 0.000000 0.000000 0.059992 0.000000 -0.012461
# 5 -0.004342 -0.000254 0.009718 0.000000 0.038089 0.000000
# 6 0.000000 0.000000 0.000000 -0.012461 0.000000 0.045602
#
#
# Mechanical properties :
#
#
# Convention : Reuss Voigt Hill
#
# Bulk Modulus (GPa) = 30.35706 39.68577 35.02142
# Shear Modulus (GPa) = 23.18246 32.31223 27.74734
#
# Velocity S-wave (km/s) = 3.09085 3.64906 3.38149
# Velocity P-wave (km/s) = 5.02471 5.84024 5.44776
#
# Compressibility (1/GPa) = 0.03294127
#
# Stress axis : x y z
#
# Youngs Moduli (GPa) = 154.72713 75.47086 36.67596
#
# Poissons Ratio (x) = -0.04540 0.14269
# Poissons Ratio (y) = -0.09307 0.13680
# Poissons Ratio (z) = 0.60196 0.28150
#
# Static dielectric constant tensor:
#      x y z
#    x 1.976510 0.000000 0.002710 
#    y 0.000000 2.024920 0.000000 
#    z 0.002710 0.000000 2.003840 
# 
# From -- ./inp_files/48015.got.cif
#   From: 2010.05.17/outbox.cif.g08.bks.cpg/sg14_25_cif.got.tgz:48015.got - 2010.06.03 17:49:19.
