data_PCOD9243912
_publ_section_title
;
Structure prediction by ZEFSAII (Michael W. Deem and Ramdas Pophale) SiO2 
 PCOD9243912
Probable space group: P 21/C
;
_chemical_formula_sum "Si O2"
_cell_formula_units_Z 28
_cell_length_a 12.507839
_cell_length_b 16.256330
_cell_length_c 15.942700
_cell_angle_alpha 90.000000
_cell_angle_beta 25.618457
_cell_angle_gamma 90.000000
_cell_volume 1401.614179
_symmetry_space_group_name_H-M "P 21/C"
_symmetry_group_IT_number 14
_symmetry_cell_setting 'monoclinic'
loop_
_space_group_symop_operation_xyz
x,y,z
-x,1/2+y,1/2-z
-x,-y,-z
x,1/2-y,1/2+z
loop_
_atom_site_type_symbol
_atom_site_label
_atom_site_fract_x
_atom_site_fract_y
_atom_site_fract_z
Si Si1 0.277286 0.986937 0.721681
Si Si2 0.044150 0.804267 0.360356
Si Si3 0.544057 0.886095 0.767141
Si Si4 0.692482 0.190491 0.211424
Si Si5 0.765028 0.693008 0.445670
Si Si6 0.533291 0.597965 0.469926
Si Si7 0.725296 0.545981 0.595990
O O1 0.297624 0.896637 0.748722
O O2 0.500000 0.000000 0.500000
O O3 0.287488 0.048490 0.793957
O O4 0.001070 0.988309 0.879147
O O5 0.802420 0.859223 0.543759
O O6 0.002864 0.742565 0.310640
O O7 0.086276 0.746931 0.412227
O O8 0.280278 0.861141 0.181277
O O9 0.339595 0.830178 0.863864
O O10 0.471592 0.979789 0.797231
O O11 0.561243 0.877177 0.853808
O O12 0.447183 0.238736 0.413728
O O13 0.752588 0.635311 0.372664
O O14 0.693099 0.632173 0.572980
O O15 0.500000 0.500000 0.500000
#
# Coordination Sequence:
#
# PCOD9243912 Si02
#       7
#     4   4   4   4   4   4   4
#     4  10  21  39  65  94 120 163 210 255 309 365
#     4  10  22  42  63  86 128 163 205 262 310 357
#     4  10  22  39  63  90 119 165 205 247 313 367
#     4   9  20  40  61  89 124 160 201 261 305 359
#     4  10  20  41  61  87 129 160 200 260 305 355
#     4  11  23  41  63  92 126 163 209 253 302 381
#     4  10  20  39  61  89 126 158 203 260 301 365
#
# _framework density 19.976966999999998
#
# number of rings (size 3 to 8) (size 9 to 14) (size 15 to 20)
#    0.000    2.000    2.857    0.000    0.000    5.143 
#   10.286    0.000    0.000    0.000    0.000    0.000 
#    0.000    0.000    0.000    0.000    0.000    0.000 
#
# Total GULP energy -156144.914860 kJ/mol
# GULP energy per Si atom -5576.604102 kJ/mol
# Density = 1.993150 g / cm^3
# Si number density = 19.976967 Si / 1000 Ang^3
#
#
#
# Elastic Constant Matrix: (Units=GPa)
#
#
# Indices 1 2 3 4 5 6 
#
# 1 94.9036 36.8894 22.4542 0.0000 1.9587 0.0000
# 2 36.8894 92.0123 13.2577 0.0000 -0.1721 0.0000
# 3 22.4542 13.2577 69.3052 0.0000 5.0155 0.0000
# 4 0.0000 0.0000 0.0000 20.7410 0.0000 -1.6078
# 5 1.9587 -0.1721 5.0155 0.0000 25.2755 0.0000
# 6 0.0000 0.0000 0.0000 -1.6078 0.0000 -15.5447
#
#
#
# Elastic Compliance Matrix: (Units=1/GPa)
#
#
# Indices 1 2 3 4 5 6 
#
# 1 0.013204 -0.004815 -0.003328 0.000000 -0.000396 0.000000
# 2 -0.004815 0.012938 -0.000962 0.000000 0.000652 0.000000
# 3 -0.003328 -0.000962 0.015902 0.000000 -0.002904 0.000000
# 4 0.000000 0.000000 0.000000 0.047830 0.000000 -0.004947
# 5 -0.000396 0.000652 -0.002904 0.000000 0.040175 0.000000
# 6 0.000000 0.000000 0.000000 -0.004947 0.000000 -0.063819
#
#
# Mechanical properties :
#
#
# Convention : Reuss Voigt Hill
#
# Bulk Modulus (GPa) = 41.95856 44.60261 43.28058
# Shear Modulus (GPa) = 54.12053 18.33568 36.22810
#
# Velocity S-wave (km/s) = 5.21059 3.03288 4.26313
# Velocity P-wave (km/s) = 7.56634 5.88557 6.77825
#
# Compressibility (1/GPa) = 0.02383304
#
# Stress axis : x y z
#
# Youngs Moduli (GPa) = 75.73306 77.28928 62.88712
#
# Poissons Ratio (x) = 0.37215 0.20931
# Poissons Ratio (y) = 0.36466 0.06051
# Poissons Ratio (z) = 0.25207 0.07437
#
# Static dielectric constant tensor:
#      x y z
#    x 1.781690 0.000000 -0.026120 
#    y 0.000000 1.704710 0.000000 
#    z -0.026120 0.000000 1.677620 
# 
# From -- ./inp_files/45290.got.cif
#   From: 2010.05.17/outbox.cif.g08.bks.cpg/sg14_23_cif.got.tgz:45290.got - 2010.06.03 17:49:19.
