data_PCOD9243746
_publ_section_title
;
Structure prediction by ZEFSAII (Michael W. Deem and Ramdas Pophale) SiO2 
 PCOD9243746
Probable space group: P 21/C
;
_chemical_formula_sum "Si O2"
_cell_formula_units_Z 26
_cell_length_a 10.001602
_cell_length_b 6.559688
_cell_length_c 15.711014
_cell_angle_alpha 90.000000
_cell_angle_beta 106.155866
_cell_angle_gamma 90.000000
_cell_volume 990.052195
_symmetry_space_group_name_H-M "P 21/C"
_symmetry_group_IT_number 14
_symmetry_cell_setting 'monoclinic'
loop_
_space_group_symop_operation_xyz
x,y,z
-x,1/2+y,1/2-z
-x,-y,-z
x,1/2-y,1/2+z
loop_
_atom_site_type_symbol
_atom_site_label
_atom_site_fract_x
_atom_site_fract_y
_atom_site_fract_z
Si Si1 0.351285 0.963166 0.203907
Si Si2 0.236664 0.207163 0.813767
Si Si3 0.437951 0.671475 0.361077
Si Si4 0.288982 0.957550 0.445356
Si Si5 0.000000 0.500000 0.500000
Si Si6 0.850758 0.132465 0.405488
Si Si7 0.996281 0.225309 0.662359
O O1 0.446016 0.835715 0.285773
O O2 0.425822 0.035966 0.130736
O O3 0.235130 0.802055 0.159211
O O4 0.296548 0.153830 0.247574
O O5 0.309183 0.986457 0.826447
O O6 0.289553 0.315409 0.909244
O O7 0.070989 0.235347 0.767577
O O8 0.415516 0.810501 0.440045
O O9 0.249053 0.943399 0.535985
O O10 0.159769 0.859113 0.368927
O O11 0.975692 0.261980 0.468597
O O12 0.004006 0.577291 0.398819
O O13 0.905207 0.946859 0.361705
#
# Coordination Sequence:
#
# PCOD9243746 Si02
#       7
#     4   4   4   4   2   4   4
#     4  11  22  42  71  91 125 176 229 259 331 394
#     4  11  23  41  64  94 127 171 216 273 318 385
#     4  11  23  42  66  94 127 170 223 279 317 394
#     4  10  26  39  60 101 137 160 215 274 334 379
#     4  10  20  38  64  92 128 164 210 264 316 390
#     4  11  23  43  65  99 131 178 218 263 333 402
#     4  11  23  41  67  95 130 175 218 259 330 404
#
# _framework density 26.261243
#
# number of rings (size 3 to 8) (size 9 to 14) (size 15 to 20)
#    0.000    1.231    4.615    1.846    2.154    5.538 
#    0.000    0.769    0.000    0.000    0.000    0.000 
#    0.000    0.000    0.000    0.000    0.000    0.000 
#
# Total GULP energy -145031.932719 kJ/mol
# GULP energy per Si atom -5578.151258 kJ/mol
# Density = 2.620147 g / cm^3
# Si number density = 26.261243 Si / 1000 Ang^3
#
#
#
# Elastic Constant Matrix: (Units=GPa)
#
#
# Indices 1 2 3 4 5 6 
#
# 1 43.3436 16.8144 7.6879 0.0000 -12.4715 0.0000
# 2 16.8144 111.3910 39.5016 0.0000 -19.4819 0.0000
# 3 7.6879 39.5016 66.7648 0.0000 -13.0873 0.0000
# 4 0.0000 0.0000 0.0000 44.7618 0.0000 -4.8435
# 5 -12.4715 -19.4819 -13.0873 0.0000 35.6566 0.0000
# 6 0.0000 0.0000 0.0000 -4.8435 0.0000 36.0918
#
#
#
# Elastic Compliance Matrix: (Units=1/GPa)
#
#
# Indices 1 2 3 4 5 6 
#
# 1 0.026324 -0.002629 0.000051 0.000000 0.007789 0.000000
# 2 -0.002629 0.012188 -0.006232 0.000000 0.003452 0.000000
# 3 0.000051 -0.006232 0.019390 0.000000 0.003730 0.000000
# 4 0.000000 0.000000 0.000000 0.022670 0.000000 0.003042
# 5 0.007789 0.003452 0.003730 0.000000 0.034025 0.000000
# 6 0.000000 0.000000 0.000000 0.003042 0.000000 0.028115
#
#
# Mechanical properties :
#
#
# Convention : Reuss Voigt Hill
#
# Bulk Modulus (GPa) = 24.82458 38.83414 31.82936
# Shear Modulus (GPa) = 28.77559 33.80175 31.28867
#
# Velocity S-wave (km/s) = 3.31379 3.59156 3.45547
# Velocity P-wave (km/s) = 4.91071 5.65851 5.29782
#
# Compressibility (1/GPa) = 0.04028265
#
# Stress axis : x y z
#
# Youngs Moduli (GPa) = 37.98867 82.04842 51.57271
#
# Poissons Ratio (x) = 0.21574 -0.00265
# Poissons Ratio (y) = 0.09989 0.32138
# Poissons Ratio (z) = -0.00196 0.51129
#
# Static dielectric constant tensor:
#      x y z
#    x 2.425150 0.000000 0.066240 
#    y 0.000000 2.197290 0.000000 
#    z 0.066240 0.000000 2.102730 
# 
# From -- ./inp_files/56600.got.cif
#   From: 2010.05.17/outbox.cif.g08.bks.cpg/sg14_29_cif.got.tgz:56600.got - 2010.06.03 17:49:19.
