data_PCOD9243430
_publ_section_title
;
Structure prediction by ZEFSAII (Michael W. Deem and Ramdas Pophale) SiO2 
 PCOD9243430
Probable space group: P 21/C
;
_chemical_formula_sum "Si O2"
_cell_formula_units_Z 28
_cell_length_a 21.426723
_cell_length_b 8.059520
_cell_length_c 13.908397
_cell_angle_alpha 90.000000
_cell_angle_beta 149.670204
_cell_angle_gamma 90.000000
_cell_volume 1212.867128
_symmetry_space_group_name_H-M "P 21/C"
_symmetry_group_IT_number 14
_symmetry_cell_setting 'monoclinic'
loop_
_space_group_symop_operation_xyz
x,y,z
-x,1/2+y,1/2-z
-x,-y,-z
x,1/2-y,1/2+z
loop_
_atom_site_type_symbol
_atom_site_label
_atom_site_fract_x
_atom_site_fract_y
_atom_site_fract_z
Si Si1 0.509203 0.856028 0.752703
Si Si2 0.850068 0.670138 0.872539
Si Si3 0.333372 0.854159 0.112224
Si Si4 0.850120 0.348284 0.482189
Si Si5 0.871921 0.299040 0.812969
Si Si6 0.694718 0.909554 0.533956
Si Si7 0.883166 0.979997 0.613993
O O1 0.608491 0.000231 0.873967
O O2 0.390502 0.937706 0.541519
O O3 0.437872 0.789418 0.753726
O O4 0.592050 0.696720 0.836475
O O5 0.853608 0.485226 0.830746
O O6 0.750703 0.788784 0.689702
O O7 0.837793 0.646549 0.970318
O O8 0.988287 0.732417 0.033779
O O9 0.275584 0.910486 0.135532
O O10 0.217109 0.795032 0.895682
O O11 0.843827 0.330126 0.359829
O O12 0.972018 0.448176 0.674132
O O13 0.867601 0.160729 0.545912
O O14 0.804286 0.951133 0.605409
#
# Coordination Sequence:
#
# PCOD9243430 Si02
#       7
#     4   4   4   4   4   4   4
#     4  10  24  40  66  80 130 176 202 244 302 362
#     4  10  20  37  64  93 123 160 200 250 314 372
#     4  11  21  44  61  94 122 166 207 252 301 368
#     4  11  23  39  64  96 125 158 202 256 315 366
#     4  10  20  37  64  93 123 160 200 250 314 372
#     4  11  21  44  61  94 122 166 207 252 301 368
#     4  11  23  39  64  96 125 158 202 256 315 366
#
# _framework density 23.085792999999999
#
# number of rings (size 3 to 8) (size 9 to 14) (size 15 to 20)
#    0.000    1.429    5.714    0.000    2.000    0.000 
#    2.571   10.714    0.000    0.000    0.000    0.000 
#    0.000    0.000    0.000    0.000    0.000    0.000 
#
# Total GULP energy -156173.443694 kJ/mol
# GULP energy per Si atom -5577.622989 kJ/mol
# Density = 2.303325 g / cm^3
# Si number density = 23.085793 Si / 1000 Ang^3
#
#
#
# Elastic Constant Matrix: (Units=GPa)
#
#
# Indices 1 2 3 4 5 6 
#
# 1 96.4585 3.1394 31.8433 0.0000 12.1296 0.0000
# 2 3.1394 57.7600 15.3681 0.0000 11.4628 0.0000
# 3 31.8433 15.3681 56.7275 0.0000 27.1319 0.0000
# 4 0.0000 0.0000 0.0000 43.4005 0.0000 4.5719
# 5 12.1296 11.4628 27.1319 0.0000 39.8884 0.0000
# 6 0.0000 0.0000 0.0000 4.5719 0.0000 22.1867
#
#
#
# Elastic Compliance Matrix: (Units=1/GPa)
#
#
# Indices 1 2 3 4 5 6 
#
# 1 0.012861 0.001217 -0.008169 0.000000 0.001296 0.000000
# 2 0.001217 0.018994 -0.004508 0.000000 -0.002762 0.000000
# 3 -0.008169 -0.004508 0.032056 0.000000 -0.018025 0.000000
# 4 0.000000 0.000000 0.000000 0.023552 0.000000 -0.004853
# 5 0.001296 -0.002762 -0.018025 0.000000 0.037730 0.000000
# 6 0.000000 0.000000 0.000000 -0.004853 0.000000 0.046072
#
#
# Mechanical properties :
#
#
# Convention : Reuss Voigt Hill
#
# Bulk Modulus (GPa) = 24.39476 34.62749 29.51113
# Shear Modulus (GPa) = 24.05578 31.80147 27.92862
#
# Velocity S-wave (km/s) = 3.23153 3.71554 3.48196
# Velocity P-wave (km/s) = 4.95113 5.78265 5.38297
#
# Compressibility (1/GPa) = 0.04099240
#
# Stress axis : x y z
#
# Youngs Moduli (GPa) = 77.75191 52.64684 31.19544
#
# Poissons Ratio (x) = -0.06409 0.25484
# Poissons Ratio (y) = -0.09465 0.14063
# Poissons Ratio (z) = 0.63517 0.23733
#
# Static dielectric constant tensor:
#      x y z
#    x 1.836490 0.000000 0.013670 
#    y 0.000000 1.987980 0.000000 
#    z 0.013670 0.000000 1.850790 
# 
# From -- ./inp_files/43363.got.cif
#   From: 2010.05.17/outbox.cif.g08.bks.cpg/sg14_22_cif.got.tgz:43363.got - 2010.06.03 17:49:19.
