data_PCOD9243327
_publ_section_title
;
Structure prediction by ZEFSAII (Michael W. Deem and Ramdas Pophale) SiO2 
 PCOD9243327
Probable space group: P 21/C
;
_chemical_formula_sum "Si O2"
_cell_formula_units_Z 32
_cell_length_a 9.736915
_cell_length_b 15.109486
_cell_length_c 11.291145
_cell_angle_alpha 90.000000
_cell_angle_beta 89.773164
_cell_angle_gamma 90.000000
_cell_volume 1661.137760
_symmetry_space_group_name_H-M "P 21/C"
_symmetry_group_IT_number 14
_symmetry_cell_setting 'monoclinic'
loop_
_space_group_symop_operation_xyz
x,y,z
-x,1/2+y,1/2-z
-x,-y,-z
x,1/2-y,1/2+z
loop_
_atom_site_type_symbol
_atom_site_label
_atom_site_fract_x
_atom_site_fract_y
_atom_site_fract_z
Si Si1 0.542242 0.103658 0.786710
Si Si2 0.255005 0.603696 0.498940
Si Si3 0.199023 0.886694 0.614540
Si Si4 0.080129 0.054194 0.397310
Si Si5 0.735199 0.253987 0.197706
Si Si6 0.761339 0.545042 0.699744
Si Si7 0.943653 0.395374 0.282770
Si Si8 0.642961 0.492051 0.069666
O O1 0.613386 0.101222 0.914682
O O2 0.599390 0.187501 0.714190
O O3 0.380363 0.096741 0.792565
O O4 0.599885 0.023918 0.705131
O O5 0.258637 0.689509 0.414356
O O6 0.242533 0.517857 0.415688
O O7 0.127766 0.605881 0.589453
O O8 0.264880 0.807264 0.685274
O O9 0.273329 0.909890 0.491098
O O10 0.033960 0.870128 0.617930
O O11 0.225057 0.975698 0.691571
O O12 0.238333 0.067763 0.433624
O O13 0.000000 0.000000 0.500000
O O14 0.084467 0.989002 0.283933
O O15 0.867342 0.318462 0.209580
O O16 0.893355 0.607770 0.705116
O O17 0.500000 0.500000 0.000000
#
# Coordination Sequence:
#
# PCOD9243327 Si02
#       8
#     4   4   4   4   4   4   4   4
#     4  11  22  36  60  87 121 157 195 238 301 356
#     4  10  21  38  62  87 117 162 195 240 293 363
#     4   9  20  36  59  83 113 150 201 244 293 345
#     4   9  18  33  57  87 110 147 192 247 280 335
#     4  10  22  38  61  82 117 159 199 234 296 361
#     4  10  20  39  59  89 116 150 198 252 294 349
#     4  10  20  37  61  87 117 151 201 240 294 347
#     4  11  19  34  59  88 115 148 198 248 289 350
#
# _framework density 19.263905000000001
#
# number of rings (size 3 to 8) (size 9 to 14) (size 15 to 20)
#    0.000    2.000    3.750    0.750    3.500    0.000 
#    0.000    2.500    0.000    0.000    0.000    0.000 
#    0.000    0.000    0.000    0.000    0.000    0.000 
#
# Total GULP energy -178314.833923 kJ/mol
# GULP energy per Si atom -5572.338560 kJ/mol
# Density = 1.922006 g / cm^3
# Si number density = 19.263905 Si / 1000 Ang^3
#
#
#
# Elastic Constant Matrix: (Units=GPa)
#
#
# Indices 1 2 3 4 5 6 
#
# 1 208.8558 43.9540 43.2191 0.0000 5.0184 0.0000
# 2 43.9540 46.9205 21.9433 0.0000 -0.5347 0.0000
# 3 43.2191 21.9433 107.0489 0.0000 1.0927 0.0000
# 4 0.0000 0.0000 0.0000 23.7714 0.0000 1.8791
# 5 5.0184 -0.5347 1.0927 0.0000 18.1382 0.0000
# 6 0.0000 0.0000 0.0000 1.8791 0.0000 13.4567
#
#
#
# Elastic Compliance Matrix: (Units=1/GPa)
#
#
# Indices 1 2 3 4 5 6 
#
# 1 0.006216 -0.005174 -0.001431 0.000000 -0.001786 0.000000
# 2 -0.005174 0.027897 -0.003655 0.000000 0.002474 0.000000
# 3 -0.001431 -0.003655 0.010672 0.000000 -0.000355 0.000000
# 4 0.000000 0.000000 0.000000 0.042537 0.000000 -0.005940
# 5 -0.001786 0.002474 -0.000355 0.000000 0.055721 0.000000
# 6 0.000000 0.000000 0.000000 -0.005940 0.000000 0.075142
#
#
# Mechanical properties :
#
#
# Convention : Reuss Voigt Hill
#
# Bulk Modulus (GPa) = 41.21043 64.56199 52.88621
# Shear Modulus (GPa) = 20.25997 27.98717 24.12357
#
# Velocity S-wave (km/s) = 3.24652 3.81574 3.54258
# Velocity P-wave (km/s) = 5.95753 7.28013 6.65179
#
# Compressibility (1/GPa) = 0.02426570
#
# Stress axis : x y z
#
# Youngs Moduli (GPa) = 160.87836 35.84610 93.70376
#
# Poissons Ratio (x) = 0.18547 0.13406
# Poissons Ratio (y) = 0.83241 0.34246
# Poissons Ratio (z) = 0.23017 0.13101
#
# Static dielectric constant tensor:
#      x y z
#    x 1.709640 0.000000 0.041760 
#    y 0.000000 1.703800 0.000000 
#    z 0.041760 0.000000 1.722880 
# 
# From -- ./inp_files/25540.got.cif
#   From: 2010.05.17/outbox.cif.g08.bks.cpg/sg14_13_cif.got.tgz:25540.got - 2010.06.03 17:49:19.
