data_PCOD9243005
_publ_section_title
;
Structure prediction by ZEFSAII (Michael W. Deem and Ramdas Pophale) SiO2 
 PCOD9243005
Probable space group: P 21/C
;
_chemical_formula_sum "Si O2"
_cell_formula_units_Z 32
_cell_length_a 7.823392
_cell_length_b 14.123780
_cell_length_c 22.861101
_cell_angle_alpha 90.000000
_cell_angle_beta 141.900537
_cell_angle_gamma 90.000000
_cell_volume 1558.649276
_symmetry_space_group_name_H-M "P 21/C"
_symmetry_group_IT_number 14
_symmetry_cell_setting 'monoclinic'
loop_
_space_group_symop_operation_xyz
x,y,z
-x,1/2+y,1/2-z
-x,-y,-z
x,1/2-y,1/2+z
loop_
_atom_site_type_symbol
_atom_site_label
_atom_site_fract_x
_atom_site_fract_y
_atom_site_fract_z
Si Si1 0.087490 0.273860 0.130810
Si Si2 0.841152 0.121592 0.279401
Si Si3 0.313203 0.824085 0.225518
Si Si4 0.117068 0.466649 0.442149
Si Si5 0.904541 0.479576 0.065125
Si Si6 0.768089 0.620300 0.413112
Si Si7 0.013583 0.596639 0.315548
Si Si8 0.532894 0.981863 0.359641
O O1 0.402420 0.301947 0.231707
O O2 0.906121 0.368305 0.081262
O O3 0.132078 0.225085 0.078665
O O4 0.984857 0.192481 0.146399
O O5 0.854745 0.228968 0.306256
O O6 0.514126 0.097922 0.197792
O O7 0.894621 0.116057 0.225165
O O8 0.040696 0.049485 0.366358
O O9 0.403914 0.879496 0.309035
O O10 0.133463 0.896961 0.140844
O O11 0.287905 0.403531 0.534240
O O12 0.005339 0.553555 0.450859
O O13 0.186599 0.516849 0.398858
O O14 0.187638 0.492184 0.103321
O O15 0.640746 0.505764 0.954607
O O16 0.700509 0.555915 0.223748
#
# Coordination Sequence:
#
# PCOD9243005 Si02
#       8
#     4   4   4   4   4   4   4   4
#     4   9  18  33  54  78 106 136 173 220 267 313
#     4  11  22  33  50  77 111 144 174 210 264 325
#     4   9  18  34  55  76 102 138 176 219 265 315
#     4   9  18  35  58  76  98 133 179 224 264 305
#     4  10  20  36  60  83 104 138 183 227 269 315
#     4   9  18  34  55  79 101 132 178 225 265 311
#     4  10  21  36  51  76 112 143 171 213 265 323
#     4   9  19  37  59  81 104 136 182 230 269 310
#
# _framework density 20.530595999999999
#
# number of rings (size 3 to 8) (size 9 to 14) (size 15 to 20)
#    0.000    2.500    0.000    3.750    0.000    8.000 
#    0.000    2.500    0.000    0.000    0.000    0.000 
#    0.000    0.000    0.000    0.000    0.000    0.000 
#
# Total GULP energy -178275.227870 kJ/mol
# GULP energy per Si atom -5571.100871 kJ/mol
# Density = 2.048387 g / cm^3
# Si number density = 20.530596 Si / 1000 Ang^3
#
#
#
# Elastic Constant Matrix: (Units=GPa)
#
#
# Indices 1 2 3 4 5 6 
#
# 1 23.8318 7.3329 0.1333 0.0000 -13.2997 0.0000
# 2 7.3329 111.3365 51.8869 0.0000 -5.8906 0.0000
# 3 0.1333 51.8869 111.2606 0.0000 -10.8609 0.0000
# 4 0.0000 0.0000 0.0000 10.9565 0.0000 5.2876
# 5 -13.2997 -5.8906 -10.8609 0.0000 24.1192 0.0000
# 6 0.0000 0.0000 0.0000 5.2876 0.0000 1.2603
#
#
#
# Elastic Compliance Matrix: (Units=1/GPa)
#
#
# Indices 1 2 3 4 5 6 
#
# 1 0.063915 -0.004986 0.005826 0.000000 0.036650 0.000000
# 2 -0.004986 0.011869 -0.005768 0.000000 -0.002448 0.000000
# 3 0.005826 -0.005768 0.012392 0.000000 0.007384 0.000000
# 4 0.000000 0.000000 0.000000 -0.089074 0.000000 0.373694
# 5 0.036650 -0.002448 0.007384 0.000000 0.064397 0.000000
# 6 0.000000 0.000000 0.000000 0.373694 0.000000 -0.774338
#
#
# Mechanical properties :
#
#
# Convention : Reuss Voigt Hill
#
# Bulk Modulus (GPa) = 12.76810 40.57059 26.66934
# Shear Modulus (GPa) = -7.40876 19.73893 6.16509
#
# Velocity S-wave (km/s) = -1.90170 3.10407 1.73476
# Velocity P-wave (km/s) = 1.18768 5.71410 4.12684
#
# Compressibility (1/GPa) = 0.07832021
#
# Stress axis : x y z
#
# Youngs Moduli (GPa) = 15.64575 84.25478 80.69941
#
# Poissons Ratio (x) = 0.42008 -0.47017
# Poissons Ratio (y) = 0.07801 0.46548
# Poissons Ratio (z) = -0.09115 0.48598
#
# Static dielectric constant tensor:
#      x y z
#    x 1.766590 0.000000 -0.010890 
#    y 0.000000 1.744660 0.000000 
#    z -0.010890 0.000000 1.755690 
# 
# From -- ./inp_files/65859.got.cif
#   From: 2010.05.17/outbox.cif.g08.bks.cpg/sg14_33_cif.got.tgz:65859.got - 2010.06.03 17:49:19.
