data_PCOD9243431
_publ_section_title
;
Structure prediction by ZEFSAII (Michael W. Deem and Ramdas Pophale) SiO2 
 PCOD9243431
Probable space group: P 21/C
;
_chemical_formula_sum "Si O2"
_cell_formula_units_Z 20
_cell_length_a 6.981285
_cell_length_b 9.367922
_cell_length_c 17.270413
_cell_angle_alpha 90.000000
_cell_angle_beta 51.633034
_cell_angle_gamma 90.000000
_cell_volume 885.576167
_symmetry_space_group_name_H-M "P 21/C"
_symmetry_group_IT_number 14
_symmetry_cell_setting 'monoclinic'
loop_
_space_group_symop_operation_xyz
x,y,z
-x,1/2+y,1/2-z
-x,-y,-z
x,1/2-y,1/2+z
loop_
_atom_site_type_symbol
_atom_site_label
_atom_site_fract_x
_atom_site_fract_y
_atom_site_fract_z
Si Si1 0.125032 0.295422 0.279657
Si Si2 0.033023 0.609608 0.316348
Si Si3 0.576056 0.670117 0.156709
Si Si4 0.562828 0.091189 0.560899
Si Si5 0.536435 0.836333 0.011576
O O1 0.980225 0.441115 0.330512
O O2 0.238272 0.232462 0.328553
O O3 0.340681 0.354848 0.170012
O O4 0.997900 0.171466 0.262432
O O5 0.317626 0.635319 0.264333
O O6 0.826982 0.687726 0.418669
O O7 0.679918 0.527290 0.088356
O O8 0.515480 0.785261 0.105012
O O9 0.636126 0.239548 0.501192
O O10 0.500000 0.000000 0.500000
O O11 0.500000 0.000000 0.000000
#
# Coordination Sequence:
#
# PCOD9243431 Si02
#       5
#     4   4   4   4   4
#     4  10  21  37  62  90 120 165 212 259 313 378
#     4  10  22  40  60  88 127 163 203 260 323 371
#     4  10  21  39  61  88 124 167 211 253 314 390
#     4   8  18  37  57  80 119 164 198 245 312 368
#     4  10  20  37  64  93 124 162 207 265 321 376
#
# _framework density 22.584167000000001
#
# number of rings (size 3 to 8) (size 9 to 14) (size 15 to 20)
#    0.000    2.400    0.000    1.200    0.000   10.400 
#    0.000    8.000    0.000   30.000    0.000    0.000 
#    0.000    0.000    0.000    0.000    0.000    0.000 
#
# Total GULP energy -111441.589030 kJ/mol
# GULP energy per Si atom -5572.079452 kJ/mol
# Density = 2.253276 g / cm^3
# Si number density = 22.584167 Si / 1000 Ang^3
#
#
#
# Elastic Constant Matrix: (Units=GPa)
#
#
# Indices 1 2 3 4 5 6 
#
# 1 86.7710 51.4479 30.9732 0.0000 3.9507 0.0000
# 2 51.4479 172.6536 20.1786 0.0000 12.3987 0.0000
# 3 30.9732 20.1786 81.6523 0.0000 1.6772 0.0000
# 4 0.0000 0.0000 0.0000 25.3813 0.0000 -2.6052
# 5 3.9507 12.3987 1.6772 0.0000 20.0717 0.0000
# 6 0.0000 0.0000 0.0000 -2.6052 0.0000 30.0879
#
#
#
# Elastic Compliance Matrix: (Units=1/GPa)
#
#
# Indices 1 2 3 4 5 6 
#
# 1 0.015728 -0.004097 -0.004950 0.000000 -0.000151 0.000000
# 2 -0.004097 0.007298 -0.000174 0.000000 -0.003687 0.000000
# 3 -0.004950 -0.000174 0.014170 0.000000 -0.000102 0.000000
# 4 0.000000 0.000000 0.000000 0.039752 0.000000 0.003442
# 5 -0.000151 -0.003687 -0.000102 0.000000 0.052137 0.000000
# 6 0.000000 0.000000 0.000000 0.003442 0.000000 0.033534
#
#
# Mechanical properties :
#
#
# Convention : Reuss Voigt Hill
#
# Bulk Modulus (GPa) = 53.32415 60.69738 57.01076
# Shear Modulus (GPa) = 26.69333 31.00667 28.85000
#
# Velocity S-wave (km/s) = 3.44168 3.70934 3.57801
# Velocity P-wave (km/s) = 6.28141 6.72904 6.50907
#
# Compressibility (1/GPa) = 0.01875323
#
# Stress axis : x y z
#
# Youngs Moduli (GPa) = 63.58153 137.02543 70.57214
#
# Poissons Ratio (x) = 0.56142 0.34936
# Poissons Ratio (y) = 0.26051 0.01225
# Poissons Ratio (z) = 0.31475 0.02379
#
# Static dielectric constant tensor:
#      x y z
#    x 1.836660 0.000000 -0.101250 
#    y 0.000000 1.909940 0.000000 
#    z -0.101250 0.000000 1.920270 
# 
# From -- ./inp_files/54673.got.cif
#   From: 2010.05.17/outbox.cif.g08.bks.cpg/sg14_28_cif.got.tgz:54673.got - 2010.06.03 17:49:19.
