data_PCOD9243756
_publ_section_title
;
Structure prediction by ZEFSAII (Michael W. Deem and Ramdas Pophale) SiO2 
 PCOD9243756
Probable space group: P 21/C
;
_chemical_formula_sum "Si O2"
_cell_formula_units_Z 28
_cell_length_a 8.170028
_cell_length_b 5.009342
_cell_length_c 31.168041
_cell_angle_alpha 90.000000
_cell_angle_beta 56.708717
_cell_angle_gamma 90.000000
_cell_volume 1066.260501
_symmetry_space_group_name_H-M "P 21/C"
_symmetry_group_IT_number 14
_symmetry_cell_setting 'monoclinic'
loop_
_space_group_symop_operation_xyz
x,y,z
-x,1/2+y,1/2-z
-x,-y,-z
x,1/2-y,1/2+z
loop_
_atom_site_type_symbol
_atom_site_label
_atom_site_fract_x
_atom_site_fract_y
_atom_site_fract_z
Si Si1 0.284105 0.449256 0.138772
Si Si2 0.041048 0.222799 0.771392
Si Si3 0.230838 0.168477 0.827624
Si Si4 0.574837 0.452756 0.428905
Si Si5 0.898636 0.144618 0.946852
Si Si6 0.178186 0.744311 0.956164
Si Si7 0.594141 0.148310 0.658755
O O1 0.408995 0.657432 0.092786
O O2 0.380192 0.402886 0.171348
O O3 0.087236 0.602860 0.176497
O O4 0.283446 0.170766 0.114491
O O5 0.195394 0.103790 0.783121
O O6 0.931016 0.965826 0.766810
O O7 0.340830 0.448070 0.814323
O O8 0.037747 0.194072 0.886001
O O9 0.361302 0.945388 0.832577
O O10 0.684146 0.422374 0.459024
O O11 0.361989 0.563832 0.445195
O O12 0.881436 0.363331 0.987839
O O13 0.008866 0.912204 0.957056
O O14 0.274559 0.585857 0.902866
#
# Coordination Sequence:
#
# PCOD9243756 Si02
#       7
#     4   4   4   4   4   4   4
#     4  11  23  43  68  96 130 173 216 271 343 391
#     4  12  26  44  70 102 129 164 224 285 342 417
#     4  11  23  42  68  97 128 176 219 266 339 397
#     4  11  22  40  64  94 136 181 224 268 327 398
#     4  10  20  38  64  95 137 178 227 268 327 386
#     4   9  21  37  61  99 136 180 224 275 310 387
#     4  10  22  42  67  94 136 175 215 266 322 403
#
# _framework density 26.259999000000001
#
# number of rings (size 3 to 8) (size 9 to 14) (size 15 to 20)
#    0.000    1.429    1.429    4.714    4.000    0.571 
#    0.000   16.429    0.000    0.000    0.000    0.000 
#    0.000    0.000    0.000    0.000    0.000    0.000 
#
# Total GULP energy -156390.587263 kJ/mol
# GULP energy per Si atom -5585.378117 kJ/mol
# Density = 2.620023 g / cm^3
# Si number density = 26.259999 Si / 1000 Ang^3
#
#
#
# Elastic Constant Matrix: (Units=GPa)
#
#
# Indices 1 2 3 4 5 6 
#
# 1 112.0974 33.8606 26.2076 0.0000 42.7927 0.0000
# 2 33.8606 82.9358 28.7260 0.0000 7.8050 0.0000
# 3 26.2076 28.7260 102.0000 0.0000 48.2224 0.0000
# 4 0.0000 0.0000 0.0000 12.7019 0.0000 -2.5947
# 5 42.7927 7.8050 48.2224 0.0000 42.0558 0.0000
# 6 0.0000 0.0000 0.0000 -2.5947 0.0000 34.1864
#
#
#
# Elastic Compliance Matrix: (Units=1/GPa)
#
#
# Indices 1 2 3 4 5 6 
#
# 1 0.024979 -0.012162 0.017375 0.000000 -0.043082 0.000000
# 2 -0.012162 0.019599 -0.014251 0.000000 0.025078 0.000000
# 3 0.017375 -0.014251 0.035948 0.000000 -0.056254 0.000000
# 4 0.000000 0.000000 0.000000 0.079968 0.000000 0.006069
# 5 -0.043082 0.025078 -0.056254 0.000000 0.127463 0.000000
# 6 0.000000 0.000000 0.000000 0.006069 0.000000 0.029712
#
#
# Mechanical properties :
#
#
# Convention : Reuss Voigt Hill
#
# Bulk Modulus (GPa) = 16.01285 52.73574 34.37430
# Shear Modulus (GPa) = 14.02285 31.67141 22.84713
#
# Velocity S-wave (km/s) = 2.31335 3.47662 2.95284
# Velocity P-wave (km/s) = 3.63958 6.02010 4.97434
#
# Compressibility (1/GPa) = 0.06244983
#
# Stress axis : x y z
#
# Youngs Moduli (GPa) = 40.03423 51.02344 27.81788
#
# Poissons Ratio (x) = 0.62054 -0.48333
# Poissons Ratio (y) = 0.48689 0.39643
# Poissons Ratio (z) = -0.69559 0.72713
#
# Static dielectric constant tensor:
#      x y z
#    x -7.983090 0.000000 1.386550 
#    y 0.000000 2.014640 0.000000 
#    z 1.386550 0.000000 2.019110 
# 
# From -- ./inp_files/79094.got.cif
#   From: 2010.05.17/outbox.cif.g08.bks.cpg/sg14_40_cif.got.tgz:79094.got - 2010.06.03 17:49:19.
