data_PCOD9243685
_publ_section_title
;
Structure prediction by ZEFSAII (Michael W. Deem and Ramdas Pophale) SiO2 
 PCOD9243685
Probable space group: P 21/C
;
_chemical_formula_sum "Si O2"
_cell_formula_units_Z 32
_cell_length_a 8.284612
_cell_length_b 6.353855
_cell_length_c 28.365947
_cell_angle_alpha 90.000000
_cell_angle_beta 88.428395
_cell_angle_gamma 90.000000
_cell_volume 1492.599738
_symmetry_space_group_name_H-M "P 21/C"
_symmetry_group_IT_number 14
_symmetry_cell_setting 'monoclinic'
loop_
_space_group_symop_operation_xyz
x,y,z
-x,1/2+y,1/2-z
-x,-y,-z
x,1/2-y,1/2+z
loop_
_atom_site_type_symbol
_atom_site_label
_atom_site_fract_x
_atom_site_fract_y
_atom_site_fract_z
Si Si1 0.818636 0.485156 0.160861
Si Si2 0.055414 0.013393 0.735152
Si Si3 0.534343 0.729047 0.679117
Si Si4 0.816412 0.981698 0.486300
Si Si5 0.624417 0.349587 0.723697
Si Si6 0.603955 0.446778 0.905281
Si Si7 0.616434 0.867221 0.032510
Si Si8 0.682832 0.228667 0.574471
O O1 0.711051 0.695511 0.160885
O O2 0.713498 0.345325 0.198591
O O3 0.804175 0.375229 0.110649
O O4 0.995383 0.496852 0.181623
O O5 0.012680 0.267526 0.748596
O O6 0.235364 0.987967 0.752783
O O7 0.535791 0.478292 0.683208
O O8 0.493361 0.790336 0.733133
O O9 0.405641 0.841310 0.645905
O O10 0.769013 0.028830 0.432708
O O11 0.719830 0.135953 0.522493
O O12 0.746501 0.754044 0.500339
O O13 0.000000 0.000000 0.500000
O O14 0.492390 0.294461 0.937902
O O15 0.496949 0.659545 0.907888
O O16 0.697350 0.023973 0.068977
O O17 0.500000 0.000000 0.000000
#
# Coordination Sequence:
#
# PCOD9243685 Si02
#       8
#     4   4   4   4   4   4   4   4
#     4  10  21  37  60  88 117 160 208 252 303 383
#     4  10  21  38  61  84 120 163 207 259 320 378
#     4  11  21  36  59  86 119 154 210 251 312 367
#     4  11  23  38  59  89 129 153 190 260 324 362
#     4  11  21  37  59  84 119 158 200 263 320 361
#     4  10  21  37  59  88 114 159 200 251 297 375
#     4  11  18  38  66  84 113 160 207 240 297 381
#     4  10  20  38  63  86 114 161 205 242 298 376
#
# _framework density 21.439105000000001
#
# number of rings (size 3 to 8) (size 9 to 14) (size 15 to 20)
#    0.000    1.500    5.000    1.500    0.000    1.500 
#    0.000    0.000    2.750    0.000    0.000    0.000 
#    0.000    0.000    0.000    0.000    0.000    0.000 
#
# Total GULP energy -178146.397497 kJ/mol
# GULP energy per Si atom -5567.074922 kJ/mol
# Density = 2.139031 g / cm^3
# Si number density = 21.439105 Si / 1000 Ang^3
#
#
#
# Elastic Constant Matrix: (Units=GPa)
#
#
# Indices 1 2 3 4 5 6 
#
# 1 56.4268 25.1477 12.3396 0.0000 20.6761 0.0000
# 2 25.1477 78.8673 17.9616 0.0000 0.2955 0.0000
# 3 12.3396 17.9616 91.0103 0.0000 23.4632 0.0000
# 4 0.0000 0.0000 0.0000 35.8707 0.0000 9.3116
# 5 20.6761 0.2955 23.4632 0.0000 32.4439 0.0000
# 6 0.0000 0.0000 0.0000 9.3116 0.0000 26.1207
#
#
#
# Elastic Compliance Matrix: (Units=1/GPa)
#
#
# Indices 1 2 3 4 5 6 
#
# 1 0.029083 -0.009973 0.003417 0.000000 -0.020915 0.000000
# 2 -0.009973 0.016823 -0.004385 0.000000 0.009374 0.000000
# 3 0.003417 -0.004385 0.014677 0.000000 -0.012752 0.000000
# 4 0.000000 0.000000 0.000000 0.030721 0.000000 -0.010951
# 5 -0.020915 0.009374 -0.012752 0.000000 0.053288 0.000000
# 6 0.000000 0.000000 0.000000 -0.010951 0.000000 0.042188
#
#
# Mechanical properties :
#
#
# Convention : Reuss Voigt Hill
#
# Bulk Modulus (GPa) = 25.83831 37.46692 31.65261
# Shear Modulus (GPa) = 22.56692 30.27743 26.42217
#
# Velocity S-wave (km/s) = 3.24791 3.76207 3.51441
# Velocity P-wave (km/s) = 5.11305 6.03198 5.59143
#
# Compressibility (1/GPa) = 0.03870222
#
# Stress axis : x y z
#
# Youngs Moduli (GPa) = 34.38391 59.44203 68.13168
#
# Poissons Ratio (x) = 0.59284 -0.23281
# Poissons Ratio (y) = 0.34293 0.29872
# Poissons Ratio (z) = -0.11749 0.26062
#
# Static dielectric constant tensor:
#      x y z
#    x 1.799790 0.000000 0.041120 
#    y 0.000000 1.906960 0.000000 
#    z 0.041120 0.000000 1.806240 
# 
# From -- ./inp_files/79257.got.cif
#   From: 2010.05.17/outbox.cif.g08.bks.cpg/sg14_40_cif.got.tgz:79257.got - 2010.06.03 17:49:19.
