data_PCOD9243233
_publ_section_title
;
Structure prediction by ZEFSAII (Michael W. Deem and Ramdas Pophale) SiO2 
 PCOD9243233
Probable space group: P 21/C
;
_chemical_formula_sum "Si O2"
_cell_formula_units_Z 32
_cell_length_a 16.438389
_cell_length_b 10.560996
_cell_length_c 8.649450
_cell_angle_alpha 90.000000
_cell_angle_beta 82.093507
_cell_angle_gamma 90.000000
_cell_volume 1487.320011
_symmetry_space_group_name_H-M "P 21/C"
_symmetry_group_IT_number 14
_symmetry_cell_setting 'monoclinic'
loop_
_space_group_symop_operation_xyz
x,y,z
-x,1/2+y,1/2-z
-x,-y,-z
x,1/2-y,1/2+z
loop_
_atom_site_type_symbol
_atom_site_label
_atom_site_fract_x
_atom_site_fract_y
_atom_site_fract_z
Si Si1 0.762218 0.147465 0.130107
Si Si2 0.945943 0.174771 0.140846
Si Si3 0.542678 0.378947 0.234207
Si Si4 0.350237 0.712576 0.073521
Si Si5 0.796098 0.626758 0.621767
Si Si6 0.416172 0.152818 0.263264
Si Si7 0.022107 0.398053 0.298517
Si Si8 0.304341 0.216786 0.569780
O O1 0.848104 0.193398 0.180877
O O2 0.691966 0.134956 0.278579
O O3 0.783406 0.011433 0.054523
O O4 0.723685 0.238716 0.013922
O O5 0.992965 0.302627 0.173606
O O6 0.975750 0.050133 0.229560
O O7 0.964433 0.134308 0.959924
O O8 0.603348 0.328072 0.352737
O O9 0.466675 0.283167 0.259043
O O10 0.528304 0.527847 0.260630
O O11 0.586248 0.356437 0.056759
O O12 0.886073 0.634926 0.669180
O O13 0.730001 0.642138 0.775718
O O14 0.773677 0.730700 0.502314
O O15 0.360375 0.144580 0.431403
O O16 0.357975 0.169372 0.129549
#
# Coordination Sequence:
#
# PCOD9243233 Si02
#       8
#     4   4   4   4   4   4   4   4
#     4  10  20  37  59  82 113 151 189 233 282 332
#     4  10  21  37  58  86 118 152 191 234 282 336
#     4  11  24  40  60  86 115 149 189 234 285 341
#     4  10  22  38  59  84 113 147 191 236 281 335
#     4  10  20  37  59  82 113 151 189 233 282 332
#     4  11  24  40  60  86 115 149 189 234 285 341
#     4  10  21  37  58  86 118 152 191 234 282 336
#     4  10  22  38  59  84 113 147 191 236 281 335
#
# _framework density 21.51521
#
# number of rings (size 3 to 8) (size 9 to 14) (size 15 to 20)
#    0.000    1.750    0.000    3.750    0.000    8.500 
#    0.000    6.250    0.000    0.000    0.000    0.000 
#    0.000    0.000    0.000    0.000    0.000    0.000 
#
# Total GULP energy -178721.442478 kJ/mol
# GULP energy per Si atom -5585.045077 kJ/mol
# Density = 2.146624 g / cm^3
# Si number density = 21.515210 Si / 1000 Ang^3
#
#
#
# Elastic Constant Matrix: (Units=GPa)
#
#
# Indices 1 2 3 4 5 6 
#
# 1 55.9306 -1.6143 -8.8002 0.0000 -7.8176 0.0000
# 2 -1.6143 48.0878 -1.4534 0.0000 5.1309 0.0000
# 3 -8.8002 -1.4534 49.9030 0.0000 -4.5523 0.0000
# 4 0.0000 0.0000 0.0000 3.7949 0.0000 -2.4952
# 5 -7.8176 5.1309 -4.5523 0.0000 26.4631 0.0000
# 6 0.0000 0.0000 0.0000 -2.4952 0.0000 25.3444
#
#
#
# Elastic Compliance Matrix: (Units=1/GPa)
#
#
# Indices 1 2 3 4 5 6 
#
# 1 0.019408 0.000089 0.004010 0.000000 0.006406 0.000000
# 2 0.000089 0.021238 0.000265 0.000000 -0.004046 0.000000
# 3 0.004010 0.000265 0.021190 0.000000 0.004778 0.000000
# 4 0.000000 0.000000 0.000000 0.281754 0.000000 0.027739
# 5 0.006406 -0.004046 0.004778 0.000000 0.041287 0.000000
# 6 0.000000 0.000000 0.000000 0.027739 0.000000 0.042187
#
#
# Mechanical properties :
#
#
# Convention : Reuss Voigt Hill
#
# Bulk Modulus (GPa) = 14.17165 14.46508 14.31836
# Shear Modulus (GPa) = 11.31587 22.17308 16.74448
#
# Velocity S-wave (km/s) = 2.29584 3.21374 2.79276
# Velocity P-wave (km/s) = 3.69174 4.52865 4.13144
#
# Compressibility (1/GPa) = 0.07056343
#
# Stress axis : x y z
#
# Youngs Moduli (GPa) = 51.52488 47.08547 47.19308
#
# Poissons Ratio (x) = -0.00420 -0.18922
# Poissons Ratio (y) = -0.00460 -0.01252
# Poissons Ratio (z) = -0.20659 -0.01249
#
# Static dielectric constant tensor:
#      x y z
#    x 1.785380 0.000000 -0.001330 
#    y 0.000000 1.801760 0.000000 
#    z -0.001330 0.000000 1.768270 
# 
# From -- ./inp_files/15804.got.cif
#   From: 2010.05.17/outbox.cif.g08.bks.cpg/sg14_8_cif.got.tgz:15804.got - 2010.06.03 17:49:19.
