data_PCOD9243523
_publ_section_title
;
Structure prediction by ZEFSAII (Michael W. Deem and Ramdas Pophale) SiO2 
 PCOD9243523
Probable space group: P 21/C
;
_chemical_formula_sum "Si O2"
_cell_formula_units_Z 32
_cell_length_a 12.256250
_cell_length_b 7.964271
_cell_length_c 28.992190
_cell_angle_alpha 90.000000
_cell_angle_beta 150.490132
_cell_angle_gamma 90.000000
_cell_volume 1393.977182
_symmetry_space_group_name_H-M "P 21/C"
_symmetry_group_IT_number 14
_symmetry_cell_setting 'monoclinic'
loop_
_space_group_symop_operation_xyz
x,y,z
-x,1/2+y,1/2-z
-x,-y,-z
x,1/2-y,1/2+z
loop_
_atom_site_type_symbol
_atom_site_label
_atom_site_fract_x
_atom_site_fract_y
_atom_site_fract_z
Si Si1 0.517812 0.100741 0.761455
Si Si2 0.181205 0.612150 0.003976
Si Si3 0.691741 0.576791 0.170783
Si Si4 0.949772 0.271257 0.943764
Si Si5 0.083822 0.376341 0.298127
Si Si6 0.411307 0.296970 0.645164
Si Si7 0.839908 0.115029 0.247446
Si Si8 0.868682 0.725871 0.815955
O O1 0.410328 0.117553 0.671250
O O2 0.352634 0.194375 0.735875
O O3 0.550295 0.924517 0.798551
O O4 0.761801 0.177984 0.846542
O O5 0.431987 0.563922 0.083819
O O6 0.026737 0.445918 0.949295
O O7 0.154154 0.696897 0.043869
O O8 0.073828 0.732820 0.926061
O O9 0.747264 0.748136 0.164198
O O10 0.824120 0.614657 0.267248
O O11 0.820951 0.426054 0.193017
O O12 0.176645 0.171678 0.035567
O O13 0.174987 0.554652 0.312039
O O14 0.027225 0.258332 0.321586
O O15 0.610189 0.319821 0.683240
O O16 0.898948 0.942830 0.296118
#
# Coordination Sequence:
#
# PCOD9243523 Si02
#       8
#     4   4   4   4   4   4   4   4
#     4  11  22  38  58  91 131 169 203 247 301 377
#     4  11  22  37  62  91 122 168 205 247 310 378
#     4  10  20  39  66  87 120 159 207 257 313 363
#     4  11  22  37  59  90 129 164 209 242 299 378
#     4   9  19  38  62  87 109 156 208 259 306 357
#     4  11  23  37  61  93 129 166 201 253 310 373
#     4   9  19  36  60  84 116 153 205 256 306 354
#     4  10  20  38  59  89 124 160 201 249 305 372
#
# _framework density 22.9559
#
# number of rings (size 3 to 8) (size 9 to 14) (size 15 to 20)
#    0.000    1.750    2.500    2.625    1.750    1.000 
#    0.000    6.250    0.000    3.000    0.000    0.000 
#    0.000    0.000    0.000    0.000    0.000    0.000 
#
# Total GULP energy -178264.219662 kJ/mol
# GULP energy per Si atom -5570.756864 kJ/mol
# Density = 2.290365 g / cm^3
# Si number density = 22.955900 Si / 1000 Ang^3
#
#
#
# Elastic Constant Matrix: (Units=GPa)
#
#
# Indices 1 2 3 4 5 6 
#
# 1 96.8749 38.6286 47.4991 0.0000 37.4905 0.0000
# 2 38.6286 65.3135 13.8727 0.0000 13.6683 0.0000
# 3 47.4991 13.8727 90.6597 0.0000 17.4777 0.0000
# 4 0.0000 0.0000 0.0000 24.3647 0.0000 5.3333
# 5 37.4905 13.6683 17.4777 0.0000 24.1533 0.0000
# 6 0.0000 0.0000 0.0000 5.3333 0.0000 40.1420
#
#
#
# Elastic Compliance Matrix: (Units=1/GPa)
#
#
# Indices 1 2 3 4 5 6 
#
# 1 0.034854 -0.009946 -0.008593 0.000000 -0.042253 0.000000
# 2 -0.009946 0.020267 0.001563 0.000000 0.002838 0.000000
# 3 -0.008593 0.001563 0.014983 0.000000 0.001613 0.000000
# 4 0.000000 0.000000 0.000000 0.042272 0.000000 -0.005616
# 5 -0.042253 0.002838 0.001613 0.000000 0.104214 0.000000
# 6 0.000000 0.000000 0.000000 -0.005616 0.000000 0.025658
#
#
# Mechanical properties :
#
#
# Convention : Reuss Voigt Hill
#
# Bulk Modulus (GPa) = 27.66237 50.31656 38.98947
# Shear Modulus (GPa) = 17.34593 27.92184 22.63388
#
# Velocity S-wave (km/s) = 2.75184 3.49137 3.14343
# Velocity P-wave (km/s) = 4.70884 6.18217 5.49511
#
# Compressibility (1/GPa) = 0.03615019
#
# Stress axis : x y z
#
# Youngs Moduli (GPa) = 28.69114 49.34038 66.74435
#
# Poissons Ratio (x) = 0.49075 0.57355
# Poissons Ratio (y) = 0.28537 -0.10429
# Poissons Ratio (z) = 0.24655 -0.07710
#
# Static dielectric constant tensor:
#      x y z
#    x 1.910500 0.000000 -0.054610 
#    y 0.000000 2.018240 0.000000 
#    z -0.054610 0.000000 1.824850 
# 
# From -- ./inp_files/43732.got.cif
#   From: 2010.05.17/outbox.cif.g08.bks.cpg/sg14_22_cif.got.tgz:43732.got - 2010.06.03 17:49:19.
