data_PCOD9243972
_publ_section_title
;
Structure prediction by ZEFSAII (Michael W. Deem and Ramdas Pophale) SiO2 
 PCOD9243972
Probable space group: P 21/C
;
_chemical_formula_sum "Si O2"
_cell_formula_units_Z 28
_cell_length_a 7.210017
_cell_length_b 13.720025
_cell_length_c 15.163631
_cell_angle_alpha 90.000000
_cell_angle_beta 59.617354
_cell_angle_gamma 90.000000
_cell_volume 1294.009705
_symmetry_space_group_name_H-M "P 21/C"
_symmetry_group_IT_number 14
_symmetry_cell_setting 'monoclinic'
loop_
_space_group_symop_operation_xyz
x,y,z
-x,1/2+y,1/2-z
-x,-y,-z
x,1/2-y,1/2+z
loop_
_atom_site_type_symbol
_atom_site_label
_atom_site_fract_x
_atom_site_fract_y
_atom_site_fract_z
Si Si1 0.945508 0.705684 0.569661
Si Si2 0.405372 0.630865 0.403483
Si Si3 0.346435 0.173031 0.698492
Si Si4 0.495560 0.315288 0.433553
Si Si5 0.390374 0.545095 0.736682
Si Si6 0.879223 0.923435 0.588538
Si Si7 0.565922 0.609383 0.009787
O O1 0.853875 0.672001 0.686593
O O2 0.741518 0.692334 0.552887
O O3 0.993501 0.820636 0.568280
O O4 0.156189 0.654936 0.480837
O O5 0.534487 0.721387 0.327819
O O6 0.509198 0.623825 0.475639
O O7 0.437885 0.531920 0.342440
O O8 0.518320 0.096837 0.697738
O O9 0.297878 0.145331 0.608829
O O10 0.639341 0.370197 0.327336
O O11 0.576626 0.206981 0.440651
O O12 0.185418 0.478920 0.807593
O O13 0.670319 0.900315 0.580527
O O14 0.000000 0.000000 0.500000
O O15 0.500000 0.500000 0.000000
#
# Coordination Sequence:
#
# PCOD9243972 Si02
#       7
#     4   4   4   4   4   4   4
#     4  10  22  41  62  93 125 164 216 258 316 392
#     4  11  22  42  67  86 132 173 198 270 328 363
#     4  10  21  38  64  92 122 164 210 256 316 386
#     4   9  23  39  63  94 128 159 217 260 311 390
#     4  11  21  39  66  91 128 168 208 264 327 372
#     4  11  22  38  62  93 123 162 216 264 314 384
#     4  10  20  39  63  89 123 165 205 263 314 377
#
# _framework density 21.638166999999999
#
# number of rings (size 3 to 8) (size 9 to 14) (size 15 to 20)
#    0.000    1.714    2.857    1.286    2.000    3.429 
#    0.000    5.714    0.000    0.000    0.000    0.000 
#    0.000    0.000    0.000    0.000    0.000    0.000 
#
# Total GULP energy -156131.001286 kJ/mol
# GULP energy per Si atom -5576.107189 kJ/mol
# Density = 2.158892 g / cm^3
# Si number density = 21.638167 Si / 1000 Ang^3
#
#
#
# Elastic Constant Matrix: (Units=GPa)
#
#
# Indices 1 2 3 4 5 6 
#
# 1 47.2055 18.6104 29.1094 0.0000 -1.4619 0.0000
# 2 18.6104 102.8403 19.0676 0.0000 8.9648 0.0000
# 3 29.1094 19.0676 60.4862 0.0000 11.9078 0.0000
# 4 0.0000 0.0000 0.0000 49.9947 0.0000 4.1020
# 5 -1.4619 8.9648 11.9078 0.0000 23.4303 0.0000
# 6 0.0000 0.0000 0.0000 4.1020 0.0000 22.1820
#
#
#
# Elastic Compliance Matrix: (Units=1/GPa)
#
#
# Indices 1 2 3 4 5 6 
#
# 1 0.033982 -0.003988 -0.017573 0.000000 0.012577 0.000000
# 2 -0.003988 0.010935 -0.000728 0.000000 -0.004063 0.000000
# 3 -0.017573 -0.000728 0.028202 0.000000 -0.015151 0.000000
# 4 0.000000 0.000000 0.000000 0.020310 0.000000 -0.003756
# 5 0.012577 -0.004063 -0.015151 0.000000 0.052719 0.000000
# 6 0.000000 0.000000 0.000000 -0.003756 0.000000 0.045776
#
#
# Mechanical properties :
#
#
# Convention : Reuss Voigt Hill
#
# Bulk Modulus (GPa) = 35.03730 38.23408 36.63569
# Shear Modulus (GPa) = 20.32393 28.70437 24.51415
#
# Velocity S-wave (km/s) = 3.06806 3.64615 3.36953
# Velocity P-wave (km/s) = 5.36453 5.95265 5.66622
#
# Compressibility (1/GPa) = 0.02854102
#
# Stress axis : x y z
#
# Youngs Moduli (GPa) = 29.42734 91.45296 35.45835
#
# Poissons Ratio (x) = 0.36469 0.62311
# Poissons Ratio (y) = 0.11735 0.02582
# Poissons Ratio (z) = 0.51713 0.06659
#
# Static dielectric constant tensor:
#      x y z
#    x 1.651020 0.000000 -0.080790 
#    y 0.000000 1.831190 0.000000 
#    z -0.080790 0.000000 1.754170 
# 
# From -- ./inp_files/41412.got.cif
#   From: 2010.05.17/outbox.cif.g08.bks.cpg/sg14_21_cif.got.tgz:41412.got - 2010.06.03 17:49:19.
