data_PCOD9243205
_publ_section_title
;
Structure prediction by ZEFSAII (Michael W. Deem and Ramdas Pophale) SiO2 
 PCOD9243205
Probable space group: P 21/C
;
_chemical_formula_sum "Si O2"
_cell_formula_units_Z 28
_cell_length_a 7.432255
_cell_length_b 28.195133
_cell_length_c 7.671398
_cell_angle_alpha 90.000000
_cell_angle_beta 51.682270
_cell_angle_gamma 90.000000
_cell_volume 1261.272750
_symmetry_space_group_name_H-M "P 21/C"
_symmetry_group_IT_number 14
_symmetry_cell_setting 'monoclinic'
loop_
_space_group_symop_operation_xyz
x,y,z
-x,1/2+y,1/2-z
-x,-y,-z
x,1/2-y,1/2+z
loop_
_atom_site_type_symbol
_atom_site_label
_atom_site_fract_x
_atom_site_fract_y
_atom_site_fract_z
Si Si1 0.169940 0.308789 0.574653
Si Si2 0.640174 0.089092 0.015411
Si Si3 0.611229 0.994947 0.243324
Si Si4 0.640009 0.305816 0.509245
Si Si5 0.092951 0.732259 0.958750
Si Si6 0.858080 0.048268 0.571741
Si Si7 0.160922 0.415348 0.588439
O O1 0.408000 0.302635 0.535650
O O2 0.154697 0.362483 0.515077
O O3 0.110427 0.269001 0.467965
O O4 0.977175 0.300275 0.838349
O O5 0.652450 0.141965 0.082822
O O6 0.384077 0.085567 0.083741
O O7 0.665192 0.046299 0.134660
O O8 0.840086 0.082365 0.749537
O O9 0.396657 0.972052 0.274181
O O10 0.500000 0.000000 0.500000
O O11 0.806072 0.956562 0.075992
O O12 0.690241 0.264911 0.618078
O O13 0.842833 0.298256 0.247125
O O14 0.947312 0.073521 0.343807
O O15 0.000000 0.000000 0.500000
#
# Coordination Sequence:
#
# PCOD9243205 Si02
#       7
#     4   4   4   4   4   4   4
#     4  10  21  38  61  88 115 154 195 237 298 349
#     4  10  20  37  58  85 113 153 195 228 287 351
#     4  11  23  37  53  86 123 146 189 242 286 339
#     4  10  21  38  62  83 119 152 186 249 292 340
#     4  10  21  39  59  89 116 147 198 241 292 356
#     4  11  18  36  61  77 108 158 190 226 275 340
#     4  10  20  38  60  83 114 156 194 230 284 353
#
# _framework density 22.199797
#
# number of rings (size 3 to 8) (size 9 to 14) (size 15 to 20)
#    0.000    1.714    2.857    2.571    0.000    1.714 
#    2.571    7.143    0.000    0.000    0.000    0.000 
#    0.000    0.000    0.000    0.000    0.000    0.000 
#
# Total GULP energy -156219.784420 kJ/mol
# GULP energy per Si atom -5579.278015 kJ/mol
# Density = 2.214927 g / cm^3
# Si number density = 22.199797 Si / 1000 Ang^3
#
#
#
# Elastic Constant Matrix: (Units=GPa)
#
#
# Indices 1 2 3 4 5 6 
#
# 1 55.9101 21.8529 -10.3180 0.0000 -13.5977 0.0000
# 2 21.8529 144.9907 36.7915 0.0000 2.0290 0.0000
# 3 -10.3180 36.7915 85.7874 0.0000 7.0442 0.0000
# 4 0.0000 0.0000 0.0000 4.5397 0.0000 -4.7198
# 5 -13.5977 2.0290 7.0442 0.0000 30.7755 0.0000
# 6 0.0000 0.0000 0.0000 -4.7198 0.0000 9.3235
#
#
#
# Elastic Compliance Matrix: (Units=1/GPa)
#
#
# Indices 1 2 3 4 5 6 
#
# 1 0.022671 -0.004538 0.003899 0.000000 0.009424 0.000000
# 2 -0.004538 0.008650 -0.004121 0.000000 -0.001632 0.000000
# 3 0.003899 -0.004121 0.013992 0.000000 -0.001208 0.000000
# 4 0.000000 0.000000 0.000000 0.465026 0.000000 0.235409
# 5 0.009424 -0.001632 -0.001208 0.000000 0.037041 0.000000
# 6 0.000000 0.000000 0.000000 0.235409 0.000000 0.226427
#
#
# Mechanical properties :
#
#
# Convention : Reuss Voigt Hill
#
# Bulk Modulus (GPa) = 27.93883 42.59343 35.26613
# Shear Modulus (GPa) = 6.28726 24.81852 15.55289
#
# Velocity S-wave (km/s) = 1.68472 3.34722 2.64973
# Velocity P-wave (km/s) = 4.04930 5.84522 5.02809
#
# Compressibility (1/GPa) = 0.03579248
#
# Stress axis : x y z
#
# Youngs Moduli (GPa) = 44.10888 115.61163 71.46712
#
# Poissons Ratio (x) = 0.52468 -0.27867
# Poissons Ratio (y) = 0.20018 0.29454
# Poissons Ratio (z) = -0.17199 0.47648
#
# Static dielectric constant tensor:
#      x y z
#    x 1.588750 0.000000 0.017890 
#    y 0.000000 1.846370 0.000000 
#    z 0.017890 0.000000 1.849840 
# 
# From -- ./inp_files/11318.got.cif
#   From: 2010.05.17/outbox.cif.g08.bks.cpg/sg14_6_cif.got.tgz:11318.got - 2010.06.03 17:49:19.
