data_PCOD9243627
_publ_section_title
;
Structure prediction by ZEFSAII (Michael W. Deem and Ramdas Pophale) SiO2 
 PCOD9243627
Probable space group: P 21/C
;
_chemical_formula_sum "Si O2"
_cell_formula_units_Z 28
_cell_length_a 11.871736
_cell_length_b 12.856256
_cell_length_c 10.430076
_cell_angle_alpha 90.000000
_cell_angle_beta 110.051957
_cell_angle_gamma 90.000000
_cell_volume 1495.403827
_symmetry_space_group_name_H-M "P 21/C"
_symmetry_group_IT_number 14
_symmetry_cell_setting 'monoclinic'
loop_
_space_group_symop_operation_xyz
x,y,z
-x,1/2+y,1/2-z
-x,-y,-z
x,1/2-y,1/2+z
loop_
_atom_site_type_symbol
_atom_site_label
_atom_site_fract_x
_atom_site_fract_y
_atom_site_fract_z
Si Si1 0.171725 0.170572 0.949433
Si Si2 0.686498 0.157518 0.780224
Si Si3 0.445644 0.448152 0.807915
Si Si4 0.434135 0.395215 0.519898
Si Si5 0.595812 0.216049 0.481463
Si Si6 0.058402 0.951449 0.149007
Si Si7 0.189831 0.141787 0.263597
O O1 0.185656 0.275187 0.874219
O O2 0.047660 0.122919 0.848632
O O3 0.289366 0.101518 0.960637
O O4 0.171166 0.179972 0.106313
O O5 0.674545 0.214276 0.639789
O O6 0.664676 0.234292 0.889156
O O7 0.816997 0.104745 0.837645
O O8 0.581921 0.068025 0.737968
O O9 0.464533 0.387135 0.681821
O O10 0.550805 0.401839 0.936547
O O11 0.320945 0.408751 0.816555
O O12 0.500000 0.500000 0.500000
O O13 0.484719 0.294310 0.466624
O O14 0.095035 0.049265 0.249608
O O15 0.000000 0.000000 0.000000
#
# Coordination Sequence:
#
# PCOD9243627 Si02
#       7
#     4   4   4   4   4   4   4
#     4  10  20  38  62  84 112 157 197 244 288 357
#     4  11  24  38  61  88 123 161 198 249 303 363
#     4  10  20  39  57  87 123 162 196 245 304 369
#     4  11  21  36  61  90 118 156 199 245 306 365
#     4  12  22  37  60  91 122 153 202 248 306 357
#     4   9  21  41  60  82 116 161 201 238 296 358
#     4   9  19  36  60  83 114 153 201 237 300 354
#
# _framework density 18.724039999999999
#
# number of rings (size 3 to 8) (size 9 to 14) (size 15 to 20)
#    0.000    1.714    4.286    1.286    0.000    2.286 
#    0.000    0.714    0.000    0.000    0.000    0.000 
#    0.000    0.000    0.000    0.000    0.000    0.000 
#
# Total GULP energy -155972.169251 kJ/mol
# GULP energy per Si atom -5570.434616 kJ/mol
# Density = 1.868142 g / cm^3
# Si number density = 18.724040 Si / 1000 Ang^3
#
#
#
# Elastic Constant Matrix: (Units=GPa)
#
#
# Indices 1 2 3 4 5 6 
#
# 1 60.1999 13.0392 31.4294 0.0000 8.2220 0.0000
# 2 13.0392 56.7491 19.8264 0.0000 -1.4211 0.0000
# 3 31.4294 19.8264 82.9331 0.0000 -0.6464 0.0000
# 4 0.0000 0.0000 0.0000 34.5472 0.0000 -1.1366
# 5 8.2220 -1.4211 -0.6464 0.0000 16.9956 0.0000
# 6 0.0000 0.0000 0.0000 -1.1366 0.0000 33.8856
#
#
#
# Elastic Compliance Matrix: (Units=1/GPa)
#
#
# Indices 1 2 3 4 5 6 
#
# 1 0.023074 -0.002736 -0.008181 0.000000 -0.011702 0.000000
# 2 -0.002736 0.019587 -0.003623 0.000000 0.002824 0.000000
# 3 -0.008181 -0.003623 0.016058 0.000000 0.004266 0.000000
# 4 0.000000 0.000000 0.000000 0.028978 0.000000 0.000972
# 5 -0.011702 0.002824 0.004266 0.000000 0.064899 0.000000
# 6 0.000000 0.000000 0.000000 0.000972 0.000000 0.029544
#
#
# Mechanical properties :
#
#
# Convention : Reuss Voigt Hill
#
# Bulk Modulus (GPa) = 33.74274 36.49687 35.11981
# Shear Modulus (GPa) = 22.61424 26.12480 24.36952
#
# Velocity S-wave (km/s) = 3.47906 3.73936 3.61156
# Velocity P-wave (km/s) = 5.84797 6.17884 6.01568
#
# Compressibility (1/GPa) = 0.02963600
#
# Stress axis : x y z
#
# Youngs Moduli (GPa) = 43.33943 51.05481 62.27455
#
# Poissons Ratio (x) = 0.13970 0.50949
# Poissons Ratio (y) = 0.11859 0.22565
# Poissons Ratio (z) = 0.35457 0.18500
#
# Static dielectric constant tensor:
#      x y z
#    x 1.664760 0.000000 0.006340 
#    y 0.000000 2.601670 0.000000 
#    z 0.006340 0.000000 1.687960 
# 
# From -- ./inp_files/12984.got.cif
#   From: 2010.05.17/outbox.cif.g08.bks.cpg/sg14_7_cif.got.tgz:12984.got - 2010.06.03 17:49:19.
