data_PCOD9243101
_publ_section_title
;
Structure prediction by ZEFSAII (Michael W. Deem and Ramdas Pophale) SiO2 
 PCOD9243101
Probable space group: P 21/C
;
_chemical_formula_sum "Si O2"
_cell_formula_units_Z 20
_cell_length_a 8.789650
_cell_length_b 9.441686
_cell_length_c 16.679642
_cell_angle_alpha 90.000000
_cell_angle_beta 35.262054
_cell_angle_gamma 90.000000
_cell_volume 799.138758
_symmetry_space_group_name_H-M "P 21/C"
_symmetry_group_IT_number 14
_symmetry_cell_setting 'monoclinic'
loop_
_space_group_symop_operation_xyz
x,y,z
-x,1/2+y,1/2-z
-x,-y,-z
x,1/2-y,1/2+z
loop_
_atom_site_type_symbol
_atom_site_label
_atom_site_fract_x
_atom_site_fract_y
_atom_site_fract_z
Si Si1 0.089046 0.596875 0.182911
Si Si2 0.460345 0.968136 0.403622
Si Si3 0.464722 0.506029 0.610490
Si Si4 0.119907 0.251507 0.074720
Si Si5 0.737742 0.081618 0.137479
O O1 0.275315 0.501164 0.159532
O O2 0.847142 0.510900 0.249266
O O3 0.966478 0.712516 0.296577
O O4 0.288133 0.646705 0.027146
O O5 0.263841 0.101974 0.496403
O O6 0.562368 0.978091 0.269331
O O7 0.500000 0.500000 0.500000
O O8 0.642718 0.643183 0.551495
O O9 0.574681 0.392577 0.627175
O O10 0.859335 0.214241 0.134311
O O11 0.000000 0.000000 0.000000
#
# Coordination Sequence:
#
# PCOD9243101 Si02
#       5
#     4   4   4   4   4
#     4   9  20  35  58  90 125 161 203 266 306 368
#     4  10  20  36  63  92 123 170 213 253 314 374
#     4   9  18  36  61  84 121 167 202 260 321 359
#     4   9  19  36  63  88 123 169 210 254 309 379
#     4   9  19  37  61  82 119 162 210 257 313 364
#
# _framework density 25.026942999999999
#
# number of rings (size 3 to 8) (size 9 to 14) (size 15 to 20)
#    0.000    2.800    0.000    1.200    5.600    0.800 
#    0.000    4.000   57.200    0.000    0.000    0.000 
#    0.000    0.000    0.000    0.000    0.000    0.000 
#
# Total GULP energy -111469.525612 kJ/mol
# GULP energy per Si atom -5573.476281 kJ/mol
# Density = 2.496998 g / cm^3
# Si number density = 25.026943 Si / 1000 Ang^3
#
#
#
# Elastic Constant Matrix: (Units=GPa)
#
#
# Indices 1 2 3 4 5 6 
#
# 1 155.5569 30.5390 73.8371 0.0000 -9.2774 0.0000
# 2 30.5390 29.3085 38.2358 0.0000 8.6916 0.0000
# 3 73.8371 38.2358 209.9246 0.0000 8.7008 0.0000
# 4 0.0000 0.0000 0.0000 36.1748 0.0000 -2.3236
# 5 -9.2774 8.6916 8.7008 0.0000 50.2278 0.0000
# 6 0.0000 0.0000 0.0000 -2.3236 0.0000 17.5100
#
#
#
# Elastic Compliance Matrix: (Units=1/GPa)
#
#
# Indices 1 2 3 4 5 6 
#
# 1 0.009101 -0.008042 -0.001877 0.000000 0.003398 0.000000
# 2 -0.008042 0.053985 -0.006603 0.000000 -0.009683 0.000000
# 3 -0.001877 -0.006603 0.006641 0.000000 -0.000355 0.000000
# 4 0.000000 0.000000 0.000000 0.027881 0.000000 0.003700
# 5 0.003398 -0.009683 -0.000355 0.000000 0.022274 0.000000
# 6 0.000000 0.000000 0.000000 0.003700 0.000000 0.057601
#
#
# Mechanical properties :
#
#
# Convention : Reuss Voigt Hill
#
# Bulk Modulus (GPa) = 27.26025 75.55709 51.40867
# Shear Modulus (GPa) = 22.44615 37.59438 30.02027
#
# Velocity S-wave (km/s) = 2.99804 3.87997 3.46716
# Velocity P-wave (km/s) = 4.78543 7.09423 6.05097
#
# Compressibility (1/GPa) = 0.03668345
#
# Stress axis : x y z
#
# Youngs Moduli (GPa) = 109.87869 18.52366 150.57392
#
# Poissons Ratio (x) = 0.14896 0.28266
# Poissons Ratio (y) = 0.88361 0.99424
# Poissons Ratio (z) = 0.20626 0.12231
#
# Static dielectric constant tensor:
#      x y z
#    x 2.046770 0.000000 0.075760 
#    y 0.000000 2.219200 0.000000 
#    z 0.075760 0.000000 2.018850 
# 
# From -- ./inp_files/40550.got.cif
#   From: 2010.05.17/outbox.cif.g08.bks.cpg/sg14_21_cif.got.tgz:40550.got - 2010.06.03 17:49:19.
