data_PCOD9243121
_publ_section_title
;
Structure prediction by ZEFSAII (Michael W. Deem and Ramdas Pophale) SiO2 
 PCOD9243121
Probable space group: P 21/C
;
_chemical_formula_sum "Si O2"
_cell_formula_units_Z 22
_cell_length_a 5.168593
_cell_length_b 15.429582
_cell_length_c 10.210957
_cell_angle_alpha 90.000000
_cell_angle_beta 86.330774
_cell_angle_gamma 90.000000
_cell_volume 812.646716
_symmetry_space_group_name_H-M "P 21/C"
_symmetry_group_IT_number 14
_symmetry_cell_setting 'monoclinic'
loop_
_space_group_symop_operation_xyz
x,y,z
-x,1/2+y,1/2-z
-x,-y,-z
x,1/2-y,1/2+z
loop_
_atom_site_type_symbol
_atom_site_label
_atom_site_fract_x
_atom_site_fract_y
_atom_site_fract_z
Si Si1 0.500000 0.000000 0.500000
Si Si2 0.905043 0.129874 0.572121
Si Si3 0.944467 0.072941 0.868019
Si Si4 0.116536 0.253132 0.878777
Si Si5 0.626391 0.278207 0.707273
Si Si6 0.553274 0.474164 0.681109
O O1 0.767379 0.055182 0.498525
O O2 0.506984 0.005794 0.336341
O O3 0.979605 0.104136 0.715205
O O4 0.701805 0.208994 0.594798
O O5 0.143044 0.170367 0.484519
O O6 0.019034 0.161333 0.939971
O O7 0.658338 0.034527 0.882365
O O8 0.159922 0.999971 0.873645
O O9 0.389853 0.240327 0.799879
O O10 0.887436 0.285166 0.787765
O O11 0.528594 0.371355 0.663803
#
# Coordination Sequence:
#
# PCOD9243121 Si02
#       6
#     2   4   4   4   4   4
#     4  10  20  36  64  92 120 158 214 262 316 364
#     4  10  23  40  67  96 130 167 216 266 326 382
#     4  10  23  39  61  92 126 165 209 267 310 386
#     4  11  22  41  63  91 130 170 211 260 331 379
#     4  11  24  41  61  96 131 169 208 272 325 384
#     4  11  22  39  61  91 130 159 214 266 319 371
#
# _framework density 27.072032
#
# number of rings (size 3 to 8) (size 9 to 14) (size 15 to 20)
#    0.000    1.455    1.818    4.364    2.545    4.364 
#    0.000    1.818    0.000    0.000    0.000    0.000 
#    0.000    0.000    0.000    0.000    0.000    0.000 
#
# Total GULP energy -123002.054039 kJ/mol
# GULP energy per Si atom -5591.002456 kJ/mol
# Density = 2.701041 g / cm^3
# Si number density = 27.072032 Si / 1000 Ang^3
#
#
#
# Elastic Constant Matrix: (Units=GPa)
#
#
# Indices 1 2 3 4 5 6 
#
# 1 115.2759 20.1115 18.0143 0.0000 -24.5395 0.0000
# 2 20.1115 93.6846 -10.0016 0.0000 0.2866 0.0000
# 3 18.0143 -10.0016 78.3451 0.0000 8.6982 0.0000
# 4 0.0000 0.0000 0.0000 32.6637 0.0000 -13.2383
# 5 -24.5395 0.2866 8.6982 0.0000 46.4148 0.0000
# 6 0.0000 0.0000 0.0000 -13.2383 0.0000 30.0933
#
#
#
# Elastic Compliance Matrix: (Units=1/GPa)
#
#
# Indices 1 2 3 4 5 6 
#
# 1 0.011136 -0.002800 -0.003650 0.000000 0.006589 0.000000
# 2 -0.002800 0.011531 0.002337 0.000000 -0.001990 0.000000
# 3 -0.003650 0.002337 0.014417 0.000000 -0.004646 0.000000
# 4 0.000000 0.000000 0.000000 0.037258 0.000000 0.016390
# 5 0.006589 -0.001990 -0.004646 0.000000 0.025911 0.000000
# 6 0.000000 0.000000 0.000000 0.016390 0.000000 0.040440
#
#
# Mechanical properties :
#
#
# Convention : Reuss Voigt Hill
#
# Bulk Modulus (GPa) = 34.65239 38.17266 36.41252
# Shear Modulus (GPa) = 31.53781 39.11313 35.32547
#
# Velocity S-wave (km/s) = 3.41685 3.80515 3.61622
# Velocity P-wave (km/s) = 5.32864 5.78244 5.56017
#
# Compressibility (1/GPa) = 0.02885804
#
# Stress axis : x y z
#
# Youngs Moduli (GPa) = 89.79541 86.72378 69.36078
#
# Poissons Ratio (x) = 0.24287 0.25315
# Poissons Ratio (y) = 0.25147 -0.16209
# Poissons Ratio (z) = 0.32773 -0.20266
#
# Static dielectric constant tensor:
#      x y z
#    x 1.998750 0.000000 -0.023360 
#    y 0.000000 1.862720 0.000000 
#    z -0.023360 0.000000 2.172070 
# 
# From -- ./inp_files/20778.got.cif
#   From: 2010.05.17/outbox.cif.g08.bks.cpg/sg14_11_cif.got.tgz:20778.got - 2010.06.03 17:49:19.
