data_PCOD9243575
_publ_section_title
;
Structure prediction by ZEFSAII (Michael W. Deem and Ramdas Pophale) SiO2 
 PCOD9243575
Probable space group: P 21/C
;
_chemical_formula_sum "Si O2"
_cell_formula_units_Z 32
_cell_length_a 7.370760
_cell_length_b 22.064817
_cell_length_c 8.536210
_cell_angle_alpha 90.000000
_cell_angle_beta 107.835980
_cell_angle_gamma 90.000000
_cell_volume 1321.557326
_symmetry_space_group_name_H-M "P 21/C"
_symmetry_group_IT_number 14
_symmetry_cell_setting 'monoclinic'
loop_
_space_group_symop_operation_xyz
x,y,z
-x,1/2+y,1/2-z
-x,-y,-z
x,1/2-y,1/2+z
loop_
_atom_site_type_symbol
_atom_site_label
_atom_site_fract_x
_atom_site_fract_y
_atom_site_fract_z
Si Si1 0.552148 0.079427 0.632550
Si Si2 0.291773 0.569345 0.135961
Si Si3 0.558271 0.275165 0.496782
Si Si4 0.781495 0.955454 0.240562
Si Si5 0.997159 0.157682 0.560971
Si Si6 0.659597 0.887732 0.916505
Si Si7 0.277883 0.327254 0.871373
Si Si8 0.215743 0.807665 0.215814
O O1 0.659532 0.042516 0.524110
O O2 0.428956 0.049320 0.735605
O O3 0.408520 0.122879 0.496336
O O4 0.707449 0.123685 0.749901
O O5 0.160569 0.523707 0.200521
O O6 0.481454 0.580779 0.284460
O O7 0.198041 0.634489 0.071342
O O8 0.438632 0.334892 0.505957
O O9 0.410129 0.230192 0.373077
O O10 0.752886 0.290104 0.454300
O O11 0.631838 0.236544 0.661809
O O12 0.905397 0.905408 0.362079
O O13 0.766925 0.934406 0.057899
O O14 0.118122 0.188686 0.457010
O O15 0.963646 0.192863 0.714872
O O16 0.781730 0.857004 0.809353
#
# Coordination Sequence:
#
# PCOD9243575 Si02
#       8
#     4   4   4   4   4   4   4   4
#     4   8  17  34  61  85 114 157 212 245 281 374
#     4  10  21  39  62  88 125 166 205 255 311 355
#     4  11  20  39  64  83 120 166 205 246 300 371
#     4  11  20  38  63  92 120 163 212 256 304 356
#     4  10  23  42  59  92 130 159 198 254 311 379
#     4  11  22  39  63  91 119 159 215 261 286 362
#     4   9  20  39  59  85 124 162 197 244 312 364
#     4  10  20  38  60  90 117 160 203 246 307 367
#
# _framework density 24.213856
#
# number of rings (size 3 to 8) (size 9 to 14) (size 15 to 20)
#    0.000    2.000    2.500    1.875    0.000    0.000 
#    6.750    0.625    0.000    0.000    0.000    0.000 
#    0.000    0.000    0.000    0.000    0.000    0.000 
#
# Total GULP energy -178677.198581 kJ/mol
# GULP energy per Si atom -5583.662456 kJ/mol
# Density = 2.415874 g / cm^3
# Si number density = 24.213856 Si / 1000 Ang^3
#
#
#
# Elastic Constant Matrix: (Units=GPa)
#
#
# Indices 1 2 3 4 5 6 
#
# 1 81.4953 6.5217 18.3075 0.0000 -36.0799 0.0000
# 2 6.5217 47.4759 8.8335 0.0000 -5.5497 0.0000
# 3 18.3075 8.8335 61.0453 0.0000 -17.8859 0.0000
# 4 0.0000 0.0000 0.0000 30.4583 0.0000 -4.2746
# 5 -36.0799 -5.5497 -17.8859 0.0000 44.1317 0.0000
# 6 0.0000 0.0000 0.0000 -4.2746 0.0000 22.1226
#
#
#
# Elastic Compliance Matrix: (Units=1/GPa)
#
#
# Indices 1 2 3 4 5 6 
#
# 1 0.019344 -0.000645 -0.001246 0.000000 0.015229 0.000000
# 2 -0.000645 0.021774 -0.002621 0.000000 0.001148 0.000000
# 3 -0.001246 -0.002621 0.018995 0.000000 0.006350 0.000000
# 4 0.000000 0.000000 0.000000 0.033747 0.000000 0.006521
# 5 0.015229 0.001148 0.006350 0.000000 0.037828 0.000000
# 6 0.000000 0.000000 0.000000 0.006521 0.000000 0.046463
#
#
# Mechanical properties :
#
#
# Convention : Reuss Voigt Hill
#
# Bulk Modulus (GPa) = 19.57379 28.59357 24.08368
# Shear Modulus (GPa) = 24.48533 29.76611 27.12572
#
# Velocity S-wave (km/s) = 3.18340 3.50994 3.35065
# Velocity P-wave (km/s) = 4.64902 5.31608 4.99370
#
# Compressibility (1/GPa) = 0.05108873
#
# Stress axis : x y z
#
# Youngs Moduli (GPa) = 51.69463 45.92672 52.64624
#
# Poissons Ratio (x) = 0.02964 0.06560
# Poissons Ratio (y) = 0.03336 0.13797
# Poissons Ratio (z) = 0.06441 0.12036
#
# Static dielectric constant tensor:
#      x y z
#    x 1.989640 0.000000 -0.041520 
#    y 0.000000 1.957180 0.000000 
#    z -0.041520 0.000000 1.941200 
# 
# From -- ./inp_files/10698.got.cif
#   From: 2010.05.17/outbox.cif.g08.bks.cpg/sg14_6_cif.got.tgz:10698.got - 2010.06.03 17:49:19.
