data_PCOD9243692
_publ_section_title
;
Structure prediction by ZEFSAII (Michael W. Deem and Ramdas Pophale) SiO2 
 PCOD9243692
Probable space group: P 21/C
;
_chemical_formula_sum "Si O2"
_cell_formula_units_Z 28
_cell_length_a 8.549818
_cell_length_b 11.513074
_cell_length_c 11.805033
_cell_angle_alpha 90.000000
_cell_angle_beta 85.679448
_cell_angle_gamma 90.000000
_cell_volume 1158.722461
_symmetry_space_group_name_H-M "P 21/C"
_symmetry_group_IT_number 14
_symmetry_cell_setting 'monoclinic'
loop_
_space_group_symop_operation_xyz
x,y,z
-x,1/2+y,1/2-z
-x,-y,-z
x,1/2-y,1/2+z
loop_
_atom_site_type_symbol
_atom_site_label
_atom_site_fract_x
_atom_site_fract_y
_atom_site_fract_z
Si Si1 0.037681 0.891985 0.331563
Si Si2 0.738083 0.297933 0.598295
Si Si3 0.794671 0.594214 0.044291
Si Si4 0.466740 0.135806 0.577633
Si Si5 0.526910 0.509312 0.684030
Si Si6 0.735722 0.828076 0.015486
Si Si7 0.828907 0.034057 0.892238
O O1 0.127030 0.768882 0.339174
O O2 0.036271 0.927130 0.200960
O O3 0.886052 0.899030 0.419206
O O4 0.137593 0.996825 0.381331
O O5 0.636647 0.190659 0.555479
O O6 0.622140 0.386680 0.672520
O O7 0.799731 0.369456 0.488342
O O8 0.614079 0.571287 0.024165
O O9 0.803508 0.725450 0.090322
O O10 0.450870 0.071531 0.696976
O O11 0.358658 0.254056 0.573615
O O12 0.613219 0.591138 0.587307
O O13 0.341388 0.512521 0.661422
O O14 0.860090 0.912270 0.951750
#
# Coordination Sequence:
#
# PCOD9243692 Si02
#       7
#     4   4   4   4   4   4   4
#     4  11  24  43  63  87 127 167 200 261 306 354
#     4  11  22  40  62  98 123 154 212 259 298 369
#     4   9  23  45  57  88 123 160 212 245 303 379
#     4  10  20  38  63  88 120 159 200 248 303 365
#     4  11  19  37  64  92 125 155 203 259 310 357
#     4   9  20  39  60  86 118 161 202 247 301 375
#     4  11  20  39  64  90 128 160 197 258 319 353
#
# _framework density 24.164543999999999
#
# number of rings (size 3 to 8) (size 9 to 14) (size 15 to 20)
#    0.857    0.857    4.286    0.857    2.000    1.714 
#   12.857    1.429    0.000    0.000    0.000    0.000 
#    0.000    0.000    0.000    0.000    0.000    0.000 
#
# Total GULP energy -156332.706056 kJ/mol
# GULP energy per Si atom -5583.310931 kJ/mol
# Density = 2.410954 g / cm^3
# Si number density = 24.164544 Si / 1000 Ang^3
#
#
#
# Elastic Constant Matrix: (Units=GPa)
#
#
# Indices 1 2 3 4 5 6 
#
# 1 48.6125 27.3992 14.3791 0.0000 -9.0260 0.0000
# 2 27.3992 92.0202 8.6993 0.0000 0.4292 0.0000
# 3 14.3791 8.6993 66.9867 0.0000 -11.7862 0.0000
# 4 0.0000 0.0000 0.0000 30.7445 0.0000 2.8785
# 5 -9.0260 0.4292 -11.7862 0.0000 32.2132 0.0000
# 6 0.0000 0.0000 0.0000 2.8785 0.0000 28.6931
#
#
#
# Elastic Compliance Matrix: (Units=1/GPa)
#
#
# Indices 1 2 3 4 5 6 
#
# 1 0.027245 -0.007791 -0.003714 0.000000 0.006379 0.000000
# 2 -0.007791 0.013246 -0.000495 0.000000 -0.002540 0.000000
# 3 -0.003714 -0.000495 0.016682 0.000000 0.005069 0.000000
# 4 0.000000 0.000000 0.000000 0.032835 0.000000 -0.003294
# 5 0.006379 -0.002540 0.005069 0.000000 0.034719 0.000000
# 6 0.000000 0.000000 0.000000 -0.003294 0.000000 0.035182
#
#
# Mechanical properties :
#
#
# Convention : Reuss Voigt Hill
#
# Bulk Modulus (GPa) = 30.14530 34.28608 32.21569
# Shear Modulus (GPa) = 25.64558 28.80627 27.22593
#
# Velocity S-wave (km/s) = 3.26128 3.45641 3.36026
# Velocity P-wave (km/s) = 5.16559 5.49076 5.33065
#
# Compressibility (1/GPa) = 0.03317266
#
# Stress axis : x y z
#
# Youngs Moduli (GPa) = 36.70401 75.49702 59.94544
#
# Poissons Ratio (x) = 0.58819 0.22265
# Poissons Ratio (y) = 0.28596 0.02966
# Poissons Ratio (z) = 0.13633 0.03735
#
# Static dielectric constant tensor:
#      x y z
#    x 1.994740 0.000000 0.025310 
#    y 0.000000 2.015630 0.000000 
#    z 0.025310 0.000000 1.889540 
# 
# From -- ./inp_files/28609.got.cif
#   From: 2010.05.17/outbox.cif.g08.bks.cpg/sg14_15_cif.got.tgz:28609.got - 2010.06.03 17:49:19.
