data_PCOD9243197
_publ_section_title
;
Structure prediction by ZEFSAII (Michael W. Deem and Ramdas Pophale) SiO2 
 PCOD9243197
Probable space group: P 21/C
;
_chemical_formula_sum "Si O2"
_cell_formula_units_Z 26
_cell_length_a 11.553798
_cell_length_b 16.386988
_cell_length_c 8.207114
_cell_angle_alpha 90.000000
_cell_angle_beta 141.489333
_cell_angle_gamma 90.000000
_cell_volume 967.532512
_symmetry_space_group_name_H-M "P 21/C"
_symmetry_group_IT_number 14
_symmetry_cell_setting 'monoclinic'
loop_
_space_group_symop_operation_xyz
x,y,z
-x,1/2+y,1/2-z
-x,-y,-z
x,1/2-y,1/2+z
loop_
_atom_site_type_symbol
_atom_site_label
_atom_site_fract_x
_atom_site_fract_y
_atom_site_fract_z
Si Si1 0.000000 0.000000 0.500000
Si Si2 0.864464 0.166532 0.191496
Si Si3 0.700623 0.779559 0.358834
Si Si4 0.690092 0.926419 0.128123
Si Si5 0.826579 0.334266 0.289579
Si Si6 0.676883 0.483044 0.937386
Si Si7 0.268628 0.367627 0.784992
O O1 0.119617 0.918896 0.703548
O O2 0.878743 0.934879 0.239186
O O3 0.775998 0.241403 0.190983
O O4 0.075411 0.202966 0.401016
O O5 0.770147 0.152117 0.913837
O O6 0.630367 0.842008 0.142151
O O7 0.648934 0.814645 0.474955
O O8 0.658552 0.684246 0.288059
O O9 0.783077 0.975229 0.396149
O O10 0.526275 0.973187 0.861710
O O11 0.047177 0.354757 0.537495
O O12 0.743772 0.396027 0.068275
O O13 0.689972 0.541598 0.108734
#
# Coordination Sequence:
#
# PCOD9243197 Si02
#       7
#     2   4   4   4   4   4   4
#     4  10  20  40  64  84 120 162 206 250 302 360
#     4   9  20  36  59  87 120 154 206 245 300 352
#     4   8  16  34  53  79 109 149 195 240 290 349
#     4   9  20  38  59  84 116 163 195 252 301 363
#     4  10  20  37  57  92 120 156 203 249 297 368
#     4  10  20  37  59  87 121 152 207 242 306 362
#     4   9  17  33  57  82 112 152 195 240 291 356
#
# _framework density 26.872484
#
# number of rings (size 3 to 8) (size 9 to 14) (size 15 to 20)
#    0.000    2.769    0.000    1.385    2.154    0.000 
#   16.615    2.308    0.000    0.000    0.000    0.000 
#    0.000    0.000    0.000    0.000    0.000    0.000 
#
# Total GULP energy -145083.952177 kJ/mol
# GULP energy per Si atom -5580.152007 kJ/mol
# Density = 2.681132 g / cm^3
# Si number density = 26.872484 Si / 1000 Ang^3
#
#
#
# Elastic Constant Matrix: (Units=GPa)
#
#
# Indices 1 2 3 4 5 6 
#
# 1 58.4015 31.1871 35.7952 0.0000 12.8052 0.0000
# 2 31.1871 167.7857 56.6446 0.0000 -16.6619 0.0000
# 3 35.7952 56.6446 105.0562 0.0000 9.0484 0.0000
# 4 0.0000 0.0000 0.0000 47.9813 0.0000 -10.2880
# 5 12.8052 -16.6619 9.0484 0.0000 32.3024 0.0000
# 6 0.0000 0.0000 0.0000 -10.2880 0.0000 25.8496
#
#
#
# Elastic Compliance Matrix: (Units=1/GPa)
#
#
# Indices 1 2 3 4 5 6 
#
# 1 0.024750 -0.003743 -0.005537 0.000000 -0.010191 0.000000
# 2 -0.003743 0.008728 -0.004044 0.000000 0.007118 0.000000
# 3 -0.005537 -0.004044 0.013912 0.000000 -0.003788 0.000000
# 4 0.000000 0.000000 0.000000 0.022786 0.000000 0.009069
# 5 -0.010191 0.007118 -0.003788 0.000000 0.039730 0.000000
# 6 0.000000 0.000000 0.000000 0.009069 0.000000 0.042295
#
#
# Mechanical properties :
#
#
# Convention : Reuss Voigt Hill
#
# Bulk Modulus (GPa) = 48.21108 64.27747 56.24427
# Shear Modulus (GPa) = 26.91626 35.06775 30.99200
#
# Velocity S-wave (km/s) = 3.16829 3.61635 3.39971
# Velocity P-wave (km/s) = 5.60033 6.43496 6.03210
#
# Compressibility (1/GPa) = 0.02074212
#
# Stress axis : x y z
#
# Youngs Moduli (GPa) = 40.40422 114.57722 71.88176
#
# Poissons Ratio (x) = 0.42888 0.39800
# Poissons Ratio (y) = 0.15124 0.29066
# Poissons Ratio (z) = 0.22371 0.46330
#
# Static dielectric constant tensor:
#      x y z
#    x 2.547330 0.000000 0.102100 
#    y 0.000000 2.103250 0.000000 
#    z 0.102100 0.000000 2.177470 
# 
# From -- ./inp_files/18179.got.cif
#   From: 2010.05.17/outbox.cif.g08.bks.cpg/sg14_10_cif.got.tgz:18179.got - 2010.06.03 17:49:19.
