data_PCOD9243437
_publ_section_title
;
Structure prediction by ZEFSAII (Michael W. Deem and Ramdas Pophale) SiO2 
 PCOD9243437
Probable space group: P 21/C
;
_chemical_formula_sum "Si O2"
_cell_formula_units_Z 16
_cell_length_a 10.451156
_cell_length_b 5.172300
_cell_length_c 18.666943
_cell_angle_alpha 90.000000
_cell_angle_beta 133.710951
_cell_angle_gamma 90.000000
_cell_volume 729.391103
_symmetry_space_group_name_H-M "P 21/C"
_symmetry_group_IT_number 14
_symmetry_cell_setting 'monoclinic'
loop_
_space_group_symop_operation_xyz
x,y,z
-x,1/2+y,1/2-z
-x,-y,-z
x,1/2-y,1/2+z
loop_
_atom_site_type_symbol
_atom_site_label
_atom_site_fract_x
_atom_site_fract_y
_atom_site_fract_z
Si Si1 0.741082 0.057965 0.661840
Si Si2 0.073987 0.946843 0.950098
Si Si3 0.560057 0.200044 0.961174
Si Si4 0.045391 0.942877 0.683752
O O1 0.667654 0.102460 0.553440
O O2 0.766469 0.316802 0.718322
O O3 0.603664 0.848898 0.638340
O O4 0.935500 0.962008 0.715630
O O5 0.975563 0.703506 0.871975
O O6 0.286248 0.903009 0.030814
O O7 0.038350 0.209145 0.893439
O O8 0.000000 0.000000 0.000000
O O9 0.500000 0.000000 0.000000
#
# Coordination Sequence:
#
# PCOD9243437 Si02
#       4
#     4   4   4   4
#     4  10  21  36  63 101 128 162 225 287 333 375
#     4  11  24  42  65  94 134 183 221 261 339 413
#     4  10  20  37  64  97 129 166 216 280 329 387
#     4  11  22  38  66  97 129 172 226 281 329 395
#
# _framework density 21.936105000000001
#
# number of rings (size 3 to 8) (size 9 to 14) (size 15 to 20)
#    0.000    1.500    2.500    3.750    3.500    0.000 
#    0.000    0.000    5.500    0.000    0.000    0.000 
#    0.000    0.000    0.000    0.000    0.000    0.000 
#
# Total GULP energy -89127.733315 kJ/mol
# GULP energy per Si atom -5570.483332 kJ/mol
# Density = 2.188618 g / cm^3
# Si number density = 21.936105 Si / 1000 Ang^3
#
#
#
# Elastic Constant Matrix: (Units=GPa)
#
#
# Indices 1 2 3 4 5 6 
#
# 1 151.9826 59.9450 45.6787 0.0000 -16.0044 0.0000
# 2 59.9450 169.0987 62.0192 0.0000 0.6056 0.0000
# 3 45.6787 62.0192 68.1041 0.0000 -6.5703 0.0000
# 4 0.0000 0.0000 0.0000 51.9187 0.0000 5.0527
# 5 -16.0044 0.6056 -6.5703 0.0000 22.3981 0.0000
# 6 0.0000 0.0000 0.0000 5.0527 0.0000 24.8589
#
#
#
# Elastic Compliance Matrix: (Units=1/GPa)
#
#
# Indices 1 2 3 4 5 6 
#
# 1 0.009022 -0.001783 -0.003912 0.000000 0.005347 0.000000
# 2 -0.001783 0.009392 -0.007723 0.000000 -0.003793 0.000000
# 3 -0.003912 -0.007723 0.024792 0.000000 0.004686 0.000000
# 4 0.000000 0.000000 0.000000 0.019650 0.000000 -0.003994
# 5 0.005347 -0.003793 0.004686 0.000000 0.049945 0.000000
# 6 0.000000 0.000000 0.000000 -0.003994 0.000000 0.041039
#
#
# Mechanical properties :
#
#
# Convention : Reuss Voigt Hill
#
# Bulk Modulus (GPa) = 61.08424 80.49681 70.79052
# Shear Modulus (GPa) = 26.86300 34.60464 30.73382
#
# Velocity S-wave (km/s) = 3.50323 3.97611 3.74714
# Velocity P-wave (km/s) = 6.65360 7.60624 7.14581
#
# Compressibility (1/GPa) = 0.01637084
#
# Stress axis : x y z
#
# Youngs Moduli (GPa) = 110.84600 106.47715 40.33547
#
# Poissons Ratio (x) = 0.18980 0.15778
# Poissons Ratio (y) = 0.19759 0.31151
# Poissons Ratio (z) = 0.43360 0.82231
#
# Static dielectric constant tensor:
#      x y z
#    x 1.888130 0.000000 0.154650 
#    y 0.000000 1.956260 0.000000 
#    z 0.154650 0.000000 1.956340 
# 
# From -- ./inp_files/38417.got.cif
#   From: 2010.05.17/outbox.cif.g08.bks.cpg/sg14_20_cif.got.tgz:38417.got - 2010.06.03 17:49:19.
