data_PCOD9243980
_publ_section_title
;
Structure prediction by ZEFSAII (Michael W. Deem and Ramdas Pophale) SiO2 
 PCOD9243980
Probable space group: P 21/C
;
_chemical_formula_sum "Si O2"
_cell_formula_units_Z 24
_cell_length_a 23.562061
_cell_length_b 5.195520
_cell_length_c 15.113814
_cell_angle_alpha 90.000000
_cell_angle_beta 151.598710
_cell_angle_gamma 90.000000
_cell_volume 880.031881
_symmetry_space_group_name_H-M "P 21/C"
_symmetry_group_IT_number 14
_symmetry_cell_setting 'monoclinic'
loop_
_space_group_symop_operation_xyz
x,y,z
-x,1/2+y,1/2-z
-x,-y,-z
x,1/2-y,1/2+z
loop_
_atom_site_type_symbol
_atom_site_label
_atom_site_fract_x
_atom_site_fract_y
_atom_site_fract_z
Si Si1 0.859483 0.144263 0.002702
Si Si2 0.085963 0.094430 0.750313
Si Si3 0.511449 0.788613 0.463432
Si Si4 0.571958 0.201343 0.331602
Si Si5 0.095133 0.201592 0.089900
Si Si6 0.652257 0.155648 0.119392
O O1 0.838579 0.931734 0.899172
O O2 0.764714 0.351289 0.839194
O O3 0.000462 0.208760 0.186716
O O4 0.840465 0.052322 0.075431
O O5 0.157667 0.204863 0.765630
O O6 0.986890 0.916464 0.568271
O O7 0.500000 0.500000 0.500000
O O8 0.413456 0.792750 0.249453
O O9 0.566222 0.100468 0.547121
O O10 0.621042 0.644935 0.561696
O O11 0.472303 0.406038 0.231174
O O12 0.668872 0.234333 0.542508
O O13 0.000000 0.000000 0.000000
#
# Coordination Sequence:
#
# PCOD9243980 Si02
#       6
#     4   4   4   4   4   4
#     4  11  21  40  65  97 132 178 230 275 349 415
#     4  10  20  39  63  90 133 181 219 287 341 391
#     4  10  20  42  65  92 131 169 214 285 347 412
#     4  10  20  40  67  91 128 174 215 279 347 404
#     4   9  20  39  63  85 126 177 222 279 334 398
#     4  10  23  39  64  95 130 169 228 275 339 427
#
# _framework density 27.271740999999999
#
# number of rings (size 3 to 8) (size 9 to 14) (size 15 to 20)
#    0.000    2.000    3.333    0.000    0.000    1.333 
#    9.000    0.000    0.000    0.000    0.000    0.000 
#    0.000    0.000    0.000    0.000    0.000    0.000 
#
# Total GULP energy -133689.960389 kJ/mol
# GULP energy per Si atom -5570.415016 kJ/mol
# Density = 2.720967 g / cm^3
# Si number density = 27.271741 Si / 1000 Ang^3
#
#
#
# Elastic Constant Matrix: (Units=GPa)
#
#
# Indices 1 2 3 4 5 6 
#
# 1 104.0829 46.1899 65.9429 0.0000 -44.1113 0.0000
# 2 46.1899 123.2467 26.3687 0.0000 -8.9434 0.0000
# 3 65.9429 26.3687 148.5279 0.0000 -47.5485 0.0000
# 4 0.0000 0.0000 0.0000 52.2810 0.0000 -3.6358
# 5 -44.1113 -8.9434 -47.5485 0.0000 70.2765 0.0000
# 6 0.0000 0.0000 0.0000 -3.6358 0.0000 52.6752
#
#
#
# Elastic Compliance Matrix: (Units=1/GPa)
#
#
# Indices 1 2 3 4 5 6 
#
# 1 0.018087 -0.005228 -0.004698 0.000000 0.007509 0.000000
# 2 -0.005228 0.009946 -0.000115 0.000000 -0.002094 0.000000
# 3 -0.004698 -0.000115 0.010072 0.000000 0.003851 0.000000
# 4 0.000000 0.000000 0.000000 0.019220 0.000000 0.001327
# 5 0.007509 -0.002094 0.003851 0.000000 0.021282 0.000000
# 6 0.000000 0.000000 0.000000 0.001327 0.000000 0.019076
#
#
# Mechanical properties :
#
#
# Convention : Reuss Voigt Hill
#
# Bulk Modulus (GPa) = 55.48783 72.54005 64.01394
# Shear Modulus (GPa) = 40.39701 50.87027 45.63364
#
# Velocity S-wave (km/s) = 3.85291 4.32361 4.09503
# Velocity P-wave (km/s) = 6.33906 7.18203 6.77367
#
# Compressibility (1/GPa) = 0.01802197
#
# Stress axis : x y z
#
# Youngs Moduli (GPa) = 55.28887 100.54368 99.28741
#
# Poissons Ratio (x) = 0.52569 0.46646
# Poissons Ratio (y) = 0.28908 0.01139
# Poissons Ratio (z) = 0.25975 0.01153
#
# Static dielectric constant tensor:
#      x y z
#    x -0.827670 0.000000 -1.159120 
#    y 0.000000 2.184720 0.000000 
#    z -1.159120 0.000000 1.607400 
# 
# From -- ./inp_files/45835.got.cif
#   From: 2010.05.17/outbox.cif.g08.bks.cpg/sg14_23_cif.got.tgz:45835.got - 2010.06.03 17:49:19.
