data_PCOD9243286
_publ_section_title
;
Structure prediction by ZEFSAII (Michael W. Deem and Ramdas Pophale) SiO2 
 PCOD9243286
Probable space group: P 21/C
;
_chemical_formula_sum "Si O2"
_cell_formula_units_Z 28
_cell_length_a 11.908034
_cell_length_b 23.321627
_cell_length_c 5.246154
_cell_angle_alpha 90.000000
_cell_angle_beta 60.191861
_cell_angle_gamma 90.000000
_cell_volume 1264.174323
_symmetry_space_group_name_H-M "P 21/C"
_symmetry_group_IT_number 14
_symmetry_cell_setting 'monoclinic'
loop_
_space_group_symop_operation_xyz
x,y,z
-x,1/2+y,1/2-z
-x,-y,-z
x,1/2-y,1/2+z
loop_
_atom_site_type_symbol
_atom_site_label
_atom_site_fract_x
_atom_site_fract_y
_atom_site_fract_z
Si Si1 0.765006 0.219768 0.703106
Si Si2 0.698149 0.528179 0.934273
Si Si3 0.922765 0.715079 0.163017
Si Si4 0.629799 0.105901 0.044118
Si Si5 0.133281 0.531089 0.599278
Si Si6 0.497859 0.068946 0.709758
Si Si7 0.888253 0.585084 0.077788
O O1 0.727518 0.231595 0.452785
O O2 0.703523 0.163555 0.892381
O O3 0.920416 0.215039 0.524077
O O4 0.811195 0.482305 0.743160
O O5 0.572636 0.492001 0.156718
O O6 0.762442 0.572313 0.050723
O O7 0.645333 0.557973 0.735206
O O8 0.879867 0.750901 0.963130
O O9 0.884144 0.648384 0.196713
O O10 0.740814 0.056891 0.901180
O O11 0.520964 0.098966 0.950948
O O12 0.570464 0.100974 0.393484
O O13 0.016588 0.575653 0.756498
O O14 0.096681 0.468312 0.745398
#
# Coordination Sequence:
#
# PCOD9243286 Si02
#       7
#     4   4   4   4   4   4   4
#     4  10  20  37  60  86 118 156 201 256 306 352
#     4  10  22  37  57  89 125 165 196 245 300 376
#     4  10  23  40  60  87 119 163 204 243 297 364
#     4  11  20  40  59  92 120 158 200 256 298 369
#     4  10  22  35  60  95 124 158 191 254 317 366
#     4  10  23  36  62  85 127 160 206 237 304 365
#     4  11  21  39  60  91 126 161 198 256 306 370
#
# _framework density 22.148842999999999
#
# number of rings (size 3 to 8) (size 9 to 14) (size 15 to 20)
#    0.000    1.714    2.857    1.286    4.000    1.714 
#    0.000    0.000    0.000    5.143    0.000    0.000 
#    0.000    0.000    0.000    0.000    0.000    0.000 
#
# Total GULP energy -156416.247587 kJ/mol
# GULP energy per Si atom -5586.294557 kJ/mol
# Density = 2.209843 g / cm^3
# Si number density = 22.148843 Si / 1000 Ang^3
#
#
#
# Elastic Constant Matrix: (Units=GPa)
#
#
# Indices 1 2 3 4 5 6 
#
# 1 77.7082 9.2338 22.4782 0.0000 17.0562 0.0000
# 2 9.2338 86.5468 1.5064 0.0000 9.8685 0.0000
# 3 22.4782 1.5064 72.1118 0.0000 11.1480 0.0000
# 4 0.0000 0.0000 0.0000 28.1230 0.0000 -1.7535
# 5 17.0562 9.8685 11.1480 0.0000 29.9588 0.0000
# 6 0.0000 0.0000 0.0000 -1.7535 0.0000 26.8770
#
#
#
# Elastic Compliance Matrix: (Units=1/GPa)
#
#
# Indices 1 2 3 4 5 6 
#
# 1 0.015634 -0.000776 -0.003735 0.000000 -0.007255 0.000000
# 2 -0.000776 0.012054 0.000568 0.000000 -0.003740 0.000000
# 3 -0.003735 0.000568 0.015619 0.000000 -0.003872 0.000000
# 4 0.000000 0.000000 0.000000 0.035703 0.000000 0.002329
# 5 -0.007255 -0.003740 -0.003872 0.000000 0.040183 0.000000
# 6 0.000000 0.000000 0.000000 0.002329 0.000000 0.037358
#
#
# Mechanical properties :
#
#
# Convention : Reuss Voigt Hill
#
# Bulk Modulus (GPa) = 28.23247 33.64485 30.93866
# Shear Modulus (GPa) = 28.36989 30.53499 29.45244
#
# Velocity S-wave (km/s) = 3.58281 3.71701 3.65053
# Velocity P-wave (km/s) = 5.46715 5.80042 5.63625
#
# Compressibility (1/GPa) = 0.03542021
#
# Stress axis : x y z
#
# Youngs Moduli (GPa) = 63.96397 82.96136 64.02654
#
# Poissons Ratio (x) = 0.06435 0.23917
# Poissons Ratio (y) = 0.04962 -0.03638
# Poissons Ratio (z) = 0.23894 -0.04714
#
# Static dielectric constant tensor:
#      x y z
#    x 1.834950 0.000000 -0.010230 
#    y 0.000000 1.801820 0.000000 
#    z -0.010230 0.000000 1.919190 
# 
# From -- ./inp_files/2921.got.cif
#   From: 2010.05.17/outbox.cif.g08.bks.cpg/sg14_2_cif.got.tgz:2921.got - 2010.06.03 17:49:19.
