data_PCOD9243882
_publ_section_title
;
Structure prediction by ZEFSAII (Michael W. Deem and Ramdas Pophale) SiO2 
 PCOD9243882
Probable space group: P 21/C
;
_chemical_formula_sum "Si O2"
_cell_formula_units_Z 24
_cell_length_a 9.402375
_cell_length_b 9.663888
_cell_length_c 12.670434
_cell_angle_alpha 90.000000
_cell_angle_beta 132.562357
_cell_angle_gamma 90.000000
_cell_volume 847.965625
_symmetry_space_group_name_H-M "P 21/C"
_symmetry_group_IT_number 14
_symmetry_cell_setting 'monoclinic'
loop_
_space_group_symop_operation_xyz
x,y,z
-x,1/2+y,1/2-z
-x,-y,-z
x,1/2-y,1/2+z
loop_
_atom_site_type_symbol
_atom_site_label
_atom_site_fract_x
_atom_site_fract_y
_atom_site_fract_z
Si Si1 0.541574 0.879351 0.201701
Si Si2 0.362939 0.241360 0.955694
Si Si3 0.140525 0.445717 0.730677
Si Si4 0.032473 0.205432 0.956882
Si Si5 0.283834 0.627569 0.100058
Si Si6 0.761500 0.174285 0.099220
O O1 0.632960 0.978935 0.331831
O O2 0.462571 0.734572 0.206113
O O3 0.584013 0.198415 0.088741
O O4 0.341195 0.924580 0.042872
O O5 0.331238 0.391511 0.884548
O O6 0.213900 0.228045 0.973676
O O7 0.321185 0.143897 0.831146
O O8 0.109493 0.601168 0.677357
O O9 0.101210 0.362350 0.601317
O O10 0.965187 0.394394 0.718236
O O11 0.900218 0.335701 0.920813
O O12 0.217926 0.677798 0.950669
#
# Coordination Sequence:
#
# PCOD9243882 Si02
#       6
#     4   4   4   4   4   4
#     4   8  18  34  56  84 120 156 198 253 293 361
#     4   9  21  35  60  88 121 153 204 258 297 348
#     4  10  20  39  60  85 123 159 202 254 301 361
#     4  10  21  34  61  92 116 162 209 244 301 376
#     4   8  17  32  56  83 118 155 200 244 300 354
#     4   7  19  34  55  84 118 152 207 242 290 372
#
# _framework density 28.303032999999999
#
# number of rings (size 3 to 8) (size 9 to 14) (size 15 to 20)
#    2.000    1.000    0.000    0.000    7.000    0.667 
#    0.000    8.333    0.000    1.000    0.000    0.000 
#    0.000    0.000    0.000    0.000    0.000    0.000 
#
# Total GULP energy -134157.525835 kJ/mol
# GULP energy per Si atom -5589.896910 kJ/mol
# Density = 2.823861 g / cm^3
# Si number density = 28.303033 Si / 1000 Ang^3
#
#
#
# Elastic Constant Matrix: (Units=GPa)
#
#
# Indices 1 2 3 4 5 6 
#
# 1 169.1406 22.5712 10.4167 0.0000 -22.7231 0.0000
# 2 22.5712 86.7697 27.5670 0.0000 7.5448 0.0000
# 3 10.4167 27.5670 72.2720 0.0000 -2.4782 0.0000
# 4 0.0000 0.0000 0.0000 21.6496 0.0000 7.9802
# 5 -22.7231 7.5448 -2.4782 0.0000 48.9306 0.0000
# 6 0.0000 0.0000 0.0000 7.9802 0.0000 31.3336
#
#
#
# Elastic Compliance Matrix: (Units=1/GPa)
#
#
# Indices 1 2 3 4 5 6 
#
# 1 0.006638 -0.001996 -0.000079 0.000000 0.003387 0.000000
# 2 -0.001996 0.013973 -0.005157 0.000000 -0.003343 0.000000
# 3 -0.000079 -0.005157 0.015869 0.000000 0.001562 0.000000
# 4 0.000000 0.000000 0.000000 0.050976 0.000000 -0.012983
# 5 0.003387 -0.003343 0.001562 0.000000 0.022604 0.000000
# 6 0.000000 0.000000 0.000000 -0.012983 0.000000 0.035221
#
#
# Mechanical properties :
#
#
# Convention : Reuss Voigt Hill
#
# Bulk Modulus (GPa) = 45.42201 49.92136 47.67169
# Shear Modulus (GPa) = 29.92508 38.22460 34.07484
#
# Velocity S-wave (km/s) = 3.25516 3.67897 3.47353
# Velocity P-wave (km/s) = 5.49649 5.97686 5.74170
#
# Compressibility (1/GPa) = 0.02201576
#
# Stress axis : x y z
#
# Youngs Moduli (GPa) = 150.63687 71.56679 63.01776
#
# Poissons Ratio (x) = 0.14286 0.00500
# Poissons Ratio (y) = 0.30069 0.32496
# Poissons Ratio (z) = 0.01194 0.36905
#
# Static dielectric constant tensor:
#      x y z
#    x 2.140240 0.000000 -0.040580 
#    y 0.000000 2.255120 0.000000 
#    z -0.040580 0.000000 2.314720 
# 
# From -- ./inp_files/29191.got.cif
#   From: 2010.05.17/outbox.cif.g08.bks.cpg/sg14_15_cif.got.tgz:29191.got - 2010.06.03 17:49:19.
