data_PCOD9243880
_publ_section_title
;
Structure prediction by ZEFSAII (Michael W. Deem and Ramdas Pophale) SiO2 
 PCOD9243880
Probable space group: P 21/C
;
_chemical_formula_sum "Si O2"
_cell_formula_units_Z 24
_cell_length_a 11.996726
_cell_length_b 9.826073
_cell_length_c 15.277652
_cell_angle_alpha 90.000000
_cell_angle_beta 151.481119
_cell_angle_gamma 90.000000
_cell_volume 859.855995
_symmetry_space_group_name_H-M "P 21/C"
_symmetry_group_IT_number 14
_symmetry_cell_setting 'monoclinic'
loop_
_space_group_symop_operation_xyz
x,y,z
-x,1/2+y,1/2-z
-x,-y,-z
x,1/2-y,1/2+z
loop_
_atom_site_type_symbol
_atom_site_label
_atom_site_fract_x
_atom_site_fract_y
_atom_site_fract_z
Si Si1 0.436044 0.394405 0.307249
Si Si2 0.638436 0.702735 0.565597
Si Si3 0.181954 0.292140 0.497848
Si Si4 0.731396 0.000494 0.475702
Si Si5 0.263895 0.873374 0.231100
Si Si6 0.898461 0.207441 0.073623
O O1 0.347829 0.400299 0.344430
O O2 0.341315 0.507512 0.176756
O O3 0.711326 0.380497 0.494966
O O4 0.343632 0.255856 0.191865
O O5 0.386792 0.770450 0.383218
O O6 0.694489 0.660452 0.505495
O O7 0.828656 0.816535 0.725944
O O8 0.987140 0.397184 0.396529
O O9 0.113186 0.137363 0.418972
O O10 0.486323 0.968574 0.357545
O O11 0.860173 0.139020 0.584379
O O12 0.180931 0.807228 0.082028
#
# Coordination Sequence:
#
# PCOD9243880 Si02
#       6
#     4   4   4   4   4   4
#     4   9  20  37  62  83 116 158 186 239 296 331
#     4  11  20  35  62  85 110 160 191 232 298 336
#     4   9  19  39  59  82 121 152 188 240 285 345
#     4   8  20  37  61  86 117 155 189 244 293 329
#     4  10  20  39  60  84 123 149 195 244 284 349
#     4  11  19  39  63  83 119 155 193 241 290 346
#
# _framework density 27.911650000000002
#
# number of rings (size 3 to 8) (size 9 to 14) (size 15 to 20)
#    1.000    1.333    3.333    1.000    0.000    2.667 
#    0.000   18.333    0.000    0.000    0.000    0.000 
#    0.000    0.000    0.000    0.000    0.000    0.000 
#
# Total GULP energy -134004.598522 kJ/mol
# GULP energy per Si atom -5583.524938 kJ/mol
# Density = 2.784812 g / cm^3
# Si number density = 27.911650 Si / 1000 Ang^3
#
#
#
# Elastic Constant Matrix: (Units=GPa)
#
#
# Indices 1 2 3 4 5 6 
#
# 1 169.1840 8.6983 21.5961 0.0000 -6.2602 0.0000
# 2 8.6983 90.1279 9.4195 0.0000 -5.0573 0.0000
# 3 21.5961 9.4195 138.7958 0.0000 1.4224 0.0000
# 4 0.0000 0.0000 0.0000 31.8110 0.0000 5.0601
# 5 -6.2602 -5.0573 1.4224 0.0000 46.6963 0.0000
# 6 0.0000 0.0000 0.0000 5.0601 0.0000 1.5917
#
#
#
# Elastic Compliance Matrix: (Units=1/GPa)
#
#
# Indices 1 2 3 4 5 6 
#
# 1 0.006081 -0.000446 -0.000924 0.000000 0.000795 0.000000
# 2 -0.000446 0.011279 -0.000708 0.000000 0.001183 0.000000
# 3 -0.000924 -0.000708 0.007401 0.000000 -0.000426 0.000000
# 4 0.000000 0.000000 0.000000 0.063594 0.000000 -0.202172
# 5 0.000795 0.001183 -0.000426 0.000000 0.021663 0.000000
# 6 0.000000 0.000000 0.000000 -0.202172 0.000000 1.270994
#
#
# Mechanical properties :
#
#
# Convention : Reuss Voigt Hill
#
# Bulk Modulus (GPa) = 48.53227 53.05948 50.79587
# Shear Modulus (GPa) = 3.59186 39.91271 21.75228
#
# Velocity S-wave (km/s) = 1.13563 3.78559 2.79467
# Velocity P-wave (km/s) = 4.37551 6.17727 5.35275
#
# Compressibility (1/GPa) = 0.02060485
#
# Stress axis : x y z
#
# Youngs Moduli (GPa) = 164.44617 88.66213 135.11606
#
# Poissons Ratio (x) = 0.03952 0.12486
# Poissons Ratio (y) = 0.07329 0.09569
# Poissons Ratio (z) = 0.15196 0.06279
#
# Static dielectric constant tensor:
#      x y z
#    x 2.180550 0.000000 0.027710 
#    y 0.000000 2.240220 0.000000 
#    z 0.027710 0.000000 2.149250 
# 
# From -- ./inp_files/44968.got.cif
#   From: 2010.05.17/outbox.cif.g08.bks.cpg/sg14_23_cif.got.tgz:44968.got - 2010.06.03 17:49:19.
