data_PCOD9243672
_publ_section_title
;
Structure prediction by ZEFSAII (Michael W. Deem and Ramdas Pophale) SiO2 
 PCOD9243672
Probable space group: P 21/C
;
_chemical_formula_sum "Si O2"
_cell_formula_units_Z 32
_cell_length_a 18.214438
_cell_length_b 14.779368
_cell_length_c 12.179157
_cell_angle_alpha 90.000000
_cell_angle_beta 27.512625
_cell_angle_gamma 90.000000
_cell_volume 1514.531283
_symmetry_space_group_name_H-M "P 21/C"
_symmetry_group_IT_number 14
_symmetry_cell_setting 'monoclinic'
loop_
_space_group_symop_operation_xyz
x,y,z
-x,1/2+y,1/2-z
-x,-y,-z
x,1/2-y,1/2+z
loop_
_atom_site_type_symbol
_atom_site_label
_atom_site_fract_x
_atom_site_fract_y
_atom_site_fract_z
Si Si1 0.733606 0.155725 0.222738
Si Si2 0.758435 0.473486 0.489286
Si Si3 0.228109 0.264795 0.949138
Si Si4 0.319047 0.925138 0.134844
Si Si5 0.977364 0.200032 0.437176
Si Si6 0.497322 0.695074 0.555067
Si Si7 0.545900 0.648363 0.734672
Si Si8 0.895906 0.912126 0.527075
O O1 0.642331 0.231601 0.270772
O O2 0.610415 0.138355 0.484180
O O3 0.755809 0.071862 0.111874
O O4 0.894527 0.201183 0.055877
O O5 0.669133 0.415622 0.512228
O O6 0.667883 0.568742 0.605986
O O7 0.942225 0.469756 0.204470
O O8 0.338592 0.253555 0.694284
O O9 0.362784 0.242721 0.860867
O O10 0.146621 0.359889 0.028360
O O11 0.083828 0.204262 0.186442
O O12 0.171271 0.866117 0.373089
O O13 0.464732 0.883937 0.008332
O O14 0.252728 0.025604 0.244007
O O15 0.068918 0.161451 0.422998
O O16 0.500325 0.650690 0.669154
#
# Coordination Sequence:
#
# PCOD9243672 Si02
#       8
#     4   4   4   4   4   4   4   4
#     4  10  23  39  65  92 127 174 207 255 321 386
#     4  11  21  40  65  93 124 165 213 255 323 379
#     4  11  21  37  59  91 124 165 207 257 318 375
#     4  10  22  39  65  98 124 164 213 270 317 368
#     4  10  20  38  62  94 126 158 209 263 319 374
#     4  10  24  40  61  94 128 165 211 260 314 375
#     4  11  24  41  62  92 132 168 211 261 317 376
#     4  11  22  38  66  96 123 165 213 268 317 370
#
# _framework density 21.12865
#
# number of rings (size 3 to 8) (size 9 to 14) (size 15 to 20)
#    0.000    1.500    1.250    4.875    7.000    2.000 
#    0.000    0.000    2.750    1.500    0.000    0.000 
#    0.000    0.000    0.000    0.000    0.000    0.000 
#
# Total GULP energy -178274.656531 kJ/mol
# GULP energy per Si atom -5571.083017 kJ/mol
# Density = 2.108056 g / cm^3
# Si number density = 21.128650 Si / 1000 Ang^3
#
#
#
# Elastic Constant Matrix: (Units=GPa)
#
#
# Indices 1 2 3 4 5 6 
#
# 1 82.4402 40.3759 38.6543 0.0000 10.8060 0.0000
# 2 40.3759 66.1295 27.2779 0.0000 6.5061 0.0000
# 3 38.6543 27.2779 80.1215 0.0000 18.6874 0.0000
# 4 0.0000 0.0000 0.0000 34.9339 0.0000 0.9830
# 5 10.8060 6.5061 18.6874 0.0000 27.5743 0.0000
# 6 0.0000 0.0000 0.0000 0.9830 0.0000 38.5422
#
#
#
# Elastic Compliance Matrix: (Units=1/GPa)
#
#
# Indices 1 2 3 4 5 6 
#
# 1 0.019750 -0.009452 -0.005969 0.000000 -0.001465 0.000000
# 2 -0.009452 0.022117 -0.003108 0.000000 0.000592 0.000000
# 3 -0.005969 -0.003108 0.018650 0.000000 -0.009567 0.000000
# 4 0.000000 0.000000 0.000000 0.028646 0.000000 -0.000731
# 5 -0.001465 0.000592 -0.009567 0.000000 0.043184 0.000000
# 6 0.000000 0.000000 0.000000 -0.000731 0.000000 0.025964
#
#
# Mechanical properties :
#
#
# Convention : Reuss Voigt Hill
#
# Bulk Modulus (GPa) = 42.62661 49.03413 45.83037
# Shear Modulus (GPa) = 24.60787 28.36896 26.48842
#
# Velocity S-wave (km/s) = 3.41643 3.66823 3.54457
# Velocity P-wave (km/s) = 5.98174 6.41865 6.20404
#
# Compressibility (1/GPa) = 0.02345953
#
# Stress axis : x y z
#
# Youngs Moduli (GPa) = 50.63331 45.21477 53.61956
#
# Poissons Ratio (x) = 0.42739 0.32003
# Poissons Ratio (y) = 0.47860 0.16663
# Poissons Ratio (z) = 0.30221 0.14051
#
# Static dielectric constant tensor:
#      x y z
#    x 1.793650 0.000000 -0.024530 
#    y 0.000000 1.842670 0.000000 
#    z -0.024530 0.000000 1.794710 
# 
# From -- ./inp_files/34150.got.cif
#   From: 2010.05.17/outbox.cif.g08.bks.cpg/sg14_18_cif.got.tgz:34150.got - 2010.06.03 17:49:19.
