data_PCOD9243630
_publ_section_title
;
Structure prediction by ZEFSAII (Michael W. Deem and Ramdas Pophale) SiO2 
 PCOD9243630
Probable space group: P 21/C
;
_chemical_formula_sum "Si O2"
_cell_formula_units_Z 24
_cell_length_a 12.029186
_cell_length_b 11.110279
_cell_length_c 13.985467
_cell_angle_alpha 90.000000
_cell_angle_beta 150.062577
_cell_angle_gamma 90.000000
_cell_volume 932.793668
_symmetry_space_group_name_H-M "P 21/C"
_symmetry_group_IT_number 14
_symmetry_cell_setting 'monoclinic'
loop_
_space_group_symop_operation_xyz
x,y,z
-x,1/2+y,1/2-z
-x,-y,-z
x,1/2-y,1/2+z
loop_
_atom_site_type_symbol
_atom_site_label
_atom_site_fract_x
_atom_site_fract_y
_atom_site_fract_z
Si Si1 0.638620 0.996594 0.751442
Si Si2 0.236338 0.750566 0.210449
Si Si3 0.736157 0.880514 0.421210
Si Si4 0.296588 0.356259 0.511727
Si Si5 0.589203 0.259015 0.954660
Si Si6 0.969118 0.124757 0.601240
O O1 0.576892 0.873523 0.651397
O O2 0.778398 0.103740 0.808925
O O3 0.405557 0.063668 0.596205
O O4 0.716500 0.957410 0.916051
O O5 0.449255 0.688215 0.314071
O O6 0.299082 0.718550 0.364696
O O7 0.028981 0.699904 0.995494
O O8 0.827121 0.756857 0.531745
O O9 0.557704 0.842242 0.207245
O O10 0.895956 0.990623 0.520017
O O11 0.187222 0.382860 0.328957
O O12 0.784033 0.308976 0.030420
#
# Coordination Sequence:
#
# PCOD9243630 Si02
#       6
#     4   4   4   4   4   4
#     4   9  17  39  61  81 113 160 190 234 296 340
#     4  11  21  39  61  87 117 154 196 239 293 347
#     4   9  18  38  61  80 116 161 187 231 301 343
#     4  10  21  38  62  84 119 154 194 241 289 345
#     4  10  20  38  62  84 119 154 193 244 287 344
#     4  11  22  38  59  89 114 159 196 236 298 341
#
# _framework density 25.729164000000001
#
# number of rings (size 3 to 8) (size 9 to 14) (size 15 to 20)
#    0.000    2.000    6.667    0.500    2.333    0.667 
#    6.000    1.667    0.000    0.000    0.000    0.000 
#    0.000    0.000    0.000    0.000    0.000    0.000 
#
# Total GULP energy -134213.013937 kJ/mol
# GULP energy per Si atom -5592.208914 kJ/mol
# Density = 2.567060 g / cm^3
# Si number density = 25.729164 Si / 1000 Ang^3
#
#
#
# Elastic Constant Matrix: (Units=GPa)
#
#
# Indices 1 2 3 4 5 6 
#
# 1 68.8289 4.1669 26.5606 0.0000 -13.4740 0.0000
# 2 4.1669 86.6629 28.0438 0.0000 -1.8452 0.0000
# 3 26.5606 28.0438 140.9409 0.0000 -17.5432 0.0000
# 4 0.0000 0.0000 0.0000 18.4510 0.0000 -4.4395
# 5 -13.4740 -1.8452 -17.5432 0.0000 40.1620 0.0000
# 6 0.0000 0.0000 0.0000 -4.4395 0.0000 27.6848
#
#
#
# Elastic Compliance Matrix: (Units=1/GPa)
#
#
# Indices 1 2 3 4 5 6 
#
# 1 0.016368 0.000137 -0.002567 0.000000 0.004376 0.000000
# 2 0.000137 0.012345 -0.002544 0.000000 -0.000498 0.000000
# 3 -0.002567 -0.002544 0.008421 0.000000 0.002700 0.000000
# 4 0.000000 0.000000 0.000000 0.056373 0.000000 0.009040
# 5 0.004376 -0.000498 0.002700 0.000000 0.027524 0.000000
# 6 0.000000 0.000000 0.000000 0.009040 0.000000 0.037570
#
#
# Mechanical properties :
#
#
# Convention : Reuss Voigt Hill
#
# Bulk Modulus (GPa) = 36.78441 45.99726 41.39083
# Shear Modulus (GPa) = 28.15130 33.10368 30.62749
#
# Velocity S-wave (km/s) = 3.31137 3.59084 3.45393
# Velocity P-wave (km/s) = 5.38034 5.92524 5.65935
#
# Compressibility (1/GPa) = 0.02718543
#
# Stress axis : x y z
#
# Youngs Moduli (GPa) = 61.09561 81.00407 118.74665
#
# Poissons Ratio (x) = -0.01109 0.30483
# Poissons Ratio (y) = -0.00836 0.30211
# Poissons Ratio (z) = 0.15684 0.20609
#
# Static dielectric constant tensor:
#      x y z
#    x 2.183390 0.000000 0.104230 
#    y 0.000000 1.998680 0.000000 
#    z 0.104230 0.000000 1.988720 
# 
# From -- ./inp_files/47009.got.cif
#   From: 2010.05.17/outbox.cif.g08.bks.cpg/sg14_24_cif.got.tgz:47009.got - 2010.06.03 17:49:19.
