data_PCOD9243510
_publ_section_title
;
Structure prediction by ZEFSAII (Michael W. Deem and Ramdas Pophale) SiO2 
 PCOD9243510
Probable space group: P 21/C
;
_chemical_formula_sum "Si O2"
_cell_formula_units_Z 28
_cell_length_a 11.292175
_cell_length_b 7.762276
_cell_length_c 24.831620
_cell_angle_alpha 90.000000
_cell_angle_beta 33.929417
_cell_angle_gamma 90.000000
_cell_volume 1214.896122
_symmetry_space_group_name_H-M "P 21/C"
_symmetry_group_IT_number 14
_symmetry_cell_setting 'monoclinic'
loop_
_space_group_symop_operation_xyz
x,y,z
-x,1/2+y,1/2-z
-x,-y,-z
x,1/2-y,1/2+z
loop_
_atom_site_type_symbol
_atom_site_label
_atom_site_fract_x
_atom_site_fract_y
_atom_site_fract_z
Si Si1 0.719949 0.764090 0.485648
Si Si2 0.809326 0.869580 0.835865
Si Si3 0.260002 0.762375 0.193436
Si Si4 0.688147 0.791987 0.272855
Si Si5 0.961104 0.980247 0.090266
Si Si6 0.211098 0.748325 0.920817
Si Si7 0.877926 0.450675 0.150829
O O1 0.705543 0.686216 0.431223
O O2 0.493194 0.808375 0.595232
O O3 0.846483 0.614717 0.471331
O O4 0.874527 0.929106 0.427755
O O5 0.734797 0.741551 0.817207
O O6 0.061810 0.848222 0.747949
O O7 0.752984 0.058871 0.835816
O O8 0.228333 0.812956 0.267863
O O9 0.833835 0.938485 0.192155
O O10 0.439499 0.803174 0.356123
O O11 0.767784 0.624503 0.209846
O O12 0.799377 0.074601 0.110537
O O13 0.055649 0.807065 0.027554
O O14 0.145447 0.604284 0.902183
#
# Coordination Sequence:
#
# PCOD9243510 Si02
#       7
#     4   4   4   4   4   4   4
#     4  10  20  39  60  80 111 151 182 224 278 330
#     4  10  21  35  57  86 111 143 187 223 272 334
#     4  10  20  38  59  79 112 147 181 231 275 325
#     4  11  21  36  55  84 117 143 181 236 274 319
#     4  10  21  37  61  84 106 145 197 224 265 340
#     4  10  21  38  58  81 111 150 185 228 278 324
#     4   9  21  37  55  83 112 143 186 225 280 331
#
# _framework density 23.047236999999999
#
# number of rings (size 3 to 8) (size 9 to 14) (size 15 to 20)
#    0.000    2.000    0.000    3.857    0.000    4.000 
#    0.000   13.571    0.000    0.000    0.000    0.000 
#    0.000    0.000    0.000    0.000    0.000    0.000 
#
# Total GULP energy -156603.034212 kJ/mol
# GULP energy per Si atom -5592.965508 kJ/mol
# Density = 2.299478 g / cm^3
# Si number density = 23.047237 Si / 1000 Ang^3
#
#
#
# Elastic Constant Matrix: (Units=GPa)
#
#
# Indices 1 2 3 4 5 6 
#
# 1 112.2947 9.5610 42.1831 0.0000 13.0254 0.0000
# 2 9.5610 40.0385 -14.3408 0.0000 0.1665 0.0000
# 3 42.1831 -14.3408 114.9656 0.0000 -11.1742 0.0000
# 4 0.0000 0.0000 0.0000 19.8084 0.0000 -1.2413
# 5 13.0254 0.1665 -11.1742 0.0000 23.3125 0.0000
# 6 0.0000 0.0000 0.0000 -1.2413 0.0000 15.5734
#
#
#
# Elastic Compliance Matrix: (Units=1/GPa)
#
#
# Indices 1 2 3 4 5 6 
#
# 1 0.012969 -0.005356 -0.006426 0.000000 -0.010288 0.000000
# 2 -0.005356 0.028402 0.006062 0.000000 0.005695 0.000000
# 3 -0.006426 0.006062 0.012751 0.000000 0.009659 0.000000
# 4 0.000000 0.000000 0.000000 0.050737 0.000000 0.004044
# 5 -0.010288 0.005695 0.009659 0.000000 0.053233 0.000000
# 6 0.000000 0.000000 0.000000 0.004044 0.000000 0.064534
#
#
# Mechanical properties :
#
#
# Convention : Reuss Voigt Hill
#
# Bulk Modulus (GPa) = 23.42977 38.01171 30.72074
# Shear Modulus (GPa) = 20.13736 27.06523 23.60129
#
# Velocity S-wave (km/s) = 2.95912 3.43058 3.20353
# Velocity P-wave (km/s) = 4.67581 5.67632 5.20018
#
# Compressibility (1/GPa) = 0.04268074
#
# Stress axis : x y z
#
# Youngs Moduli (GPa) = 77.10964 35.20835 78.42398
#
# Poissons Ratio (x) = 0.18857 0.50399
# Poissons Ratio (y) = 0.41299 -0.47538
# Poissons Ratio (z) = 0.49554 -0.21342
#
# Static dielectric constant tensor:
#      x y z
#    x 1.827300 0.000000 0.023220 
#    y 0.000000 1.920180 0.000000 
#    z 0.023220 0.000000 1.840530 
# 
# From -- ./inp_files/36129.got.cif
#   From: 2010.05.17/outbox.cif.g08.bks.cpg/sg14_19_cif.got.tgz:36129.got - 2010.06.03 17:49:19.
