data_PCOD9243799
_publ_section_title
;
Structure prediction by ZEFSAII (Michael W. Deem and Ramdas Pophale) SiO2 
 PCOD9243799
Probable space group: P 21/C
;
_chemical_formula_sum "Si O2"
_cell_formula_units_Z 32
_cell_length_a 11.585728
_cell_length_b 11.218259
_cell_length_c 12.913603
_cell_angle_alpha 90.000000
_cell_angle_beta 65.543562
_cell_angle_gamma 90.000000
_cell_volume 1527.810382
_symmetry_space_group_name_H-M "P 21/C"
_symmetry_group_IT_number 14
_symmetry_cell_setting 'monoclinic'
loop_
_space_group_symop_operation_xyz
x,y,z
-x,1/2+y,1/2-z
-x,-y,-z
x,1/2-y,1/2+z
loop_
_atom_site_type_symbol
_atom_site_label
_atom_site_fract_x
_atom_site_fract_y
_atom_site_fract_z
Si Si1 0.862378 0.940275 0.053056
Si Si2 0.034121 0.259308 0.326055
Si Si3 0.156191 0.281872 0.084074
Si Si4 0.615394 0.704611 0.847222
Si Si5 0.600092 0.378164 0.196844
Si Si6 0.554823 0.128233 0.948836
Si Si7 0.234819 0.678721 0.479640
Si Si8 0.769252 0.611397 0.157085
O O1 0.875932 0.855323 0.147325
O O2 0.773728 0.055442 0.081980
O O3 0.834265 0.852240 0.966962
O O4 0.000000 0.000000 0.000000
O O5 0.033189 0.286928 0.204136
O O6 0.110664 0.134676 0.311329
O O7 0.901627 0.268240 0.435465
O O8 0.268006 0.321403 0.119841
O O9 0.170121 0.360841 0.977157
O O10 0.525387 0.605650 0.828209
O O11 0.665162 0.793567 0.738320
O O12 0.525637 0.778292 0.956860
O O13 0.549988 0.348503 0.329504
O O14 0.682951 0.273402 0.114429
O O15 0.693673 0.489295 0.177761
O O16 0.696318 0.142085 0.939627
O O17 0.500000 0.000000 0.000000
#
# Coordination Sequence:
#
# PCOD9243799 Si02
#       8
#     4   4   4   4   4   4   4   4
#     4   9  19  39  62  87 121 162 215 262 311 388
#     4   9  21  41  62  93 124 169 217 258 331 393
#     4  10  20  38  66  90 122 170 215 267 325 395
#     4  10  21  39  60  91 121 166 215 260 325 388
#     4  11  24  40  59  95 130 163 216 271 327 389
#     4  11  21  38  64  84 122 168 213 260 320 386
#     4  10  23  40  61  94 124 167 216 268 322 396
#     4  10  21  40  62  90 129 166 208 271 326 384
#
# _framework density 20.945008000000001
#
# number of rings (size 3 to 8) (size 9 to 14) (size 15 to 20)
#    0.000    2.000    1.250    1.500    1.750    6.000 
#    9.000    0.000    0.000    0.000    0.000    0.000 
#    0.000    0.000    0.000    0.000    0.000    0.000 
#
# Total GULP energy -178264.701866 kJ/mol
# GULP energy per Si atom -5570.771933 kJ/mol
# Density = 2.089734 g / cm^3
# Si number density = 20.945008 Si / 1000 Ang^3
#
#
#
# Elastic Constant Matrix: (Units=GPa)
#
#
# Indices 1 2 3 4 5 6 
#
# 1 70.1898 5.1831 14.3818 0.0000 -3.2989 0.0000
# 2 5.1831 33.9114 12.0300 0.0000 -11.5864 0.0000
# 3 14.3818 12.0300 138.7490 0.0000 -4.4483 0.0000
# 4 0.0000 0.0000 0.0000 19.6112 0.0000 -4.0394
# 5 -3.2989 -11.5864 -4.4483 0.0000 24.2087 0.0000
# 6 0.0000 0.0000 0.0000 -4.0394 0.0000 27.7683
#
#
#
# Elastic Compliance Matrix: (Units=1/GPa)
#
#
# Indices 1 2 3 4 5 6 
#
# 1 0.014681 -0.001388 -0.001367 0.000000 0.001085 0.000000
# 2 -0.001388 0.036291 -0.002466 0.000000 0.016726 0.000000
# 3 -0.001367 -0.002466 0.007563 0.000000 0.000023 0.000000
# 4 0.000000 0.000000 0.000000 0.052566 0.000000 0.007647
# 5 0.001085 0.016726 0.000023 0.000000 0.049465 0.000000
# 6 0.000000 0.000000 0.000000 0.007647 0.000000 0.037125
#
#
# Mechanical properties :
#
#
# Convention : Reuss Voigt Hill
#
# Bulk Modulus (GPa) = 20.79340 34.00444 27.39892
# Shear Modulus (GPa) = 22.30513 28.40133 25.35323
#
# Velocity S-wave (km/s) = 3.26688 3.68638 3.48295
# Velocity P-wave (km/s) = 4.91723 5.86426 5.41150
#
# Compressibility (1/GPa) = 0.04809217
#
# Stress axis : x y z
#
# Youngs Moduli (GPa) = 68.11711 27.55538 132.21422
#
# Poissons Ratio (x) = 0.03826 0.18067
# Poissons Ratio (y) = 0.09457 0.32609
# Poissons Ratio (z) = 0.09308 0.06796
#
# Static dielectric constant tensor:
#      x y z
#    x 1.584340 0.000000 0.057500 
#    y 0.000000 1.774430 0.000000 
#    z 0.057500 0.000000 1.736740 
# 
# From -- ./inp_files/29366.got.cif
#   From: 2010.05.17/outbox.cif.g08.bks.cpg/sg14_15_cif.got.tgz:29366.got - 2010.06.03 17:49:19.
