data_PCOD9243441
_publ_section_title
;
Structure prediction by ZEFSAII (Michael W. Deem and Ramdas Pophale) SiO2 
 PCOD9243441
Probable space group: P 21/C
;
_chemical_formula_sum "Si O2"
_cell_formula_units_Z 28
_cell_length_a 9.344732
_cell_length_b 8.343629
_cell_length_c 25.321489
_cell_angle_alpha 90.000000
_cell_angle_beta 41.414535
_cell_angle_gamma 90.000000
_cell_volume 1305.997441
_symmetry_space_group_name_H-M "P 21/C"
_symmetry_group_IT_number 14
_symmetry_cell_setting 'monoclinic'
loop_
_space_group_symop_operation_xyz
x,y,z
-x,1/2+y,1/2-z
-x,-y,-z
x,1/2-y,1/2+z
loop_
_atom_site_type_symbol
_atom_site_label
_atom_site_fract_x
_atom_site_fract_y
_atom_site_fract_z
Si Si1 0.719682 0.538888 0.469940
Si Si2 0.271987 0.569990 0.717065
Si Si3 0.599329 0.002002 0.295358
Si Si4 0.868620 0.159870 0.023532
Si Si5 0.977338 0.622439 0.297397
Si Si6 0.693291 0.783392 0.568185
Si Si7 0.491450 0.832282 0.784809
O O1 0.500000 0.500000 0.500000
O O2 0.763879 0.388333 0.496701
O O3 0.899695 0.564229 0.375938
O O4 0.720780 0.707083 0.502401
O O5 0.205912 0.431462 0.693146
O O6 0.496411 0.662261 0.640602
O O7 0.333537 0.471266 0.752072
O O8 0.076692 0.698349 0.771350
O O9 0.403623 0.044113 0.389196
O O10 0.596883 0.134057 0.248893
O O11 0.809505 0.018289 0.272794
O O12 0.599861 0.838142 0.263461
O O13 0.694241 0.172354 0.118670
O O14 0.070955 0.280530 0.969355
O O15 0.000000 0.000000 0.000000
#
# Coordination Sequence:
#
# PCOD9243441 Si02
#       7
#     4   4   4   4   4   4   4
#     4  11  20  37  70  94 125 171 214 256 324 377
#     4  11  22  42  62  91 128 157 222 256 321 381
#     4  11  25  38  65  91 133 161 220 261 320 372
#     4  10  20  37  65  87 127 164 215 256 323 377
#     4  11  23  39  66  94 123 173 204 268 313 383
#     4  10  21  40  60  94 125 163 210 267 301 389
#     4  12  23  41  63  95 121 173 208 270 314 384
#
# _framework density 21.439554000000001
#
# number of rings (size 3 to 8) (size 9 to 14) (size 15 to 20)
#    0.000    1.143    4.286    4.286    2.000    0.571 
#    0.000    0.000    0.000    3.429    0.000    0.000 
#    0.000    0.000    0.000    0.000    0.000    0.000 
#
# Total GULP energy -155909.823319 kJ/mol
# GULP energy per Si atom -5568.207976 kJ/mol
# Density = 2.139076 g / cm^3
# Si number density = 21.439554 Si / 1000 Ang^3
#
#
#
# Elastic Constant Matrix: (Units=GPa)
#
#
# Indices 1 2 3 4 5 6 
#
# 1 129.1698 5.3515 20.0364 0.0000 -12.3243 0.0000
# 2 5.3515 53.4468 -3.4596 0.0000 -13.3661 0.0000
# 3 20.0364 -3.4596 77.6018 0.0000 -7.5538 0.0000
# 4 0.0000 0.0000 0.0000 23.1955 0.0000 3.1652
# 5 -12.3243 -13.3661 -7.5538 0.0000 28.1417 0.0000
# 6 0.0000 0.0000 0.0000 3.1652 0.0000 29.3821
#
#
#
# Elastic Compliance Matrix: (Units=1/GPa)
#
#
# Indices 1 2 3 4 5 6 
#
# 1 0.008330 -0.000190 -0.001862 0.000000 0.003058 0.000000
# 2 -0.000190 0.021537 0.002050 0.000000 0.010696 0.000000
# 3 -0.001862 0.002050 0.013835 0.000000 0.003872 0.000000
# 4 0.000000 0.000000 0.000000 0.043755 0.000000 -0.004714
# 5 0.003058 0.010696 0.003872 0.000000 0.042993 0.000000
# 6 0.000000 0.000000 0.000000 -0.004714 0.000000 0.034542
#
#
# Mechanical properties :
#
#
# Convention : Reuss Voigt Hill
#
# Bulk Modulus (GPa) = 22.88312 33.78611 28.33461
# Shear Modulus (GPa) = 27.84558 32.02988 29.93773
#
# Velocity S-wave (km/s) = 3.60779 3.86937 3.74087
# Velocity P-wave (km/s) = 5.29635 5.97961 5.64832
#
# Compressibility (1/GPa) = 0.04370034
#
# Stress axis : x y z
#
# Youngs Moduli (GPa) = 120.04562 46.43193 72.27900
#
# Poissons Ratio (x) = 0.00881 0.13455
# Poissons Ratio (y) = 0.02278 -0.14820
# Poissons Ratio (z) = 0.22347 -0.09520
#
# Static dielectric constant tensor:
#      x y z
#    x 1.850090 0.000000 -0.046190 
#    y 0.000000 1.855900 0.000000 
#    z -0.046190 0.000000 1.775090 
# 
# From -- ./inp_files/76313.got.cif
#   From: 2010.05.17/outbox.cif.g08.bks.cpg/sg14_39_cif.got.tgz:76313.got - 2010.06.03 17:49:19.
