data_PCOD9243905
_publ_section_title
;
Structure prediction by ZEFSAII (Michael W. Deem and Ramdas Pophale) SiO2 
 PCOD9243905
Probable space group: P 21/C
;
_chemical_formula_sum "Si O2"
_cell_formula_units_Z 32
_cell_length_a 18.418599
_cell_length_b 8.857512
_cell_length_c 20.354243
_cell_angle_alpha 90.000000
_cell_angle_beta 29.129339
_cell_angle_gamma 90.000000
_cell_volume 1616.435836
_symmetry_space_group_name_H-M "P 21/C"
_symmetry_group_IT_number 14
_symmetry_cell_setting 'monoclinic'
loop_
_space_group_symop_operation_xyz
x,y,z
-x,1/2+y,1/2-z
-x,-y,-z
x,1/2-y,1/2+z
loop_
_atom_site_type_symbol
_atom_site_label
_atom_site_fract_x
_atom_site_fract_y
_atom_site_fract_z
Si Si1 0.603477 0.544620 0.357498
Si Si2 0.053336 0.538964 0.145412
Si Si3 0.681824 0.263195 0.124072
Si Si4 0.416916 0.026547 0.878541
Si Si5 0.885257 0.818213 0.897401
Si Si6 0.882137 0.799367 0.670215
Si Si7 0.167863 0.781908 0.358430
Si Si8 0.963226 0.031479 0.105839
O O1 0.500000 0.500000 0.500000
O O2 0.496204 0.543361 0.379698
O O3 0.709737 0.688027 0.286195
O O4 0.732331 0.421276 0.241806
O O5 0.087640 0.360961 0.120056
O O6 0.001390 0.602074 0.256494
O O7 0.927249 0.581519 0.190943
O O8 0.194649 0.635965 0.009946
O O9 0.639555 0.113189 0.119447
O O10 0.540052 0.370133 0.246327
O O11 0.751538 0.220361 0.139756
O O12 0.276380 0.135459 0.002069
O O13 0.910595 0.894377 0.948743
O O14 0.913892 0.630376 0.671741
O O15 0.000067 0.821984 0.516578
O O16 0.159273 0.662152 0.306460
O O17 0.000000 0.000000 0.000000
#
# Coordination Sequence:
#
# PCOD9243905 Si02
#       8
#     4   4   4   4   4   4   4   4
#     4  11  23  37  56  84 120 157 191 236 294 352
#     4  11  23  40  64  90 118 155 201 252 301 350
#     4  10  22  39  58  87 121 159 203 246 294 354
#     4  11  23  39  59  87 123 160 197 241 296 358
#     4  12  23  39  62  90 120 155 196 250 303 354
#     4  10  20  39  61  86 113 149 200 246 291 351
#     4   9  20  38  59  84 115 152 200 246 287 343
#     4  10  21  37  64  92 116 149 199 253 293 346
#
# _framework density 19.796641000000001
#
# number of rings (size 3 to 8) (size 9 to 14) (size 15 to 20)
#    0.000    1.500    0.000    6.375    0.000    9.000 
#    0.000    0.625    0.000    0.000    0.000    0.000 
#    0.000    0.000    0.000    0.000    0.000    0.000 
#
# Total GULP energy -178626.318804 kJ/mol
# GULP energy per Si atom -5582.072463 kJ/mol
# Density = 1.975158 g / cm^3
# Si number density = 19.796641 Si / 1000 Ang^3
#
#
#
# Elastic Constant Matrix: (Units=GPa)
#
#
# Indices 1 2 3 4 5 6 
#
# 1 70.2306 53.2681 30.1786 0.0000 -16.6280 0.0000
# 2 53.2681 91.3479 16.7656 0.0000 -17.6899 0.0000
# 3 30.1786 16.7656 78.6079 0.0000 -8.2908 0.0000
# 4 0.0000 0.0000 0.0000 16.5059 0.0000 -5.0891
# 5 -16.6280 -17.6899 -8.2908 0.0000 28.3550 0.0000
# 6 0.0000 0.0000 0.0000 -5.0891 0.0000 34.6639
#
#
#
# Elastic Compliance Matrix: (Units=1/GPa)
#
#
# Indices 1 2 3 4 5 6 
#
# 1 0.030618 -0.015218 -0.007859 0.000000 0.006163 0.000000
# 2 -0.015218 0.020295 0.001969 0.000000 0.004313 0.000000
# 3 -0.007859 0.001969 0.015438 0.000000 0.001134 0.000000
# 4 0.000000 0.000000 0.000000 0.063457 0.000000 0.009316
# 5 0.006163 0.004313 0.001134 0.000000 0.041903 0.000000
# 6 0.000000 0.000000 0.000000 0.009316 0.000000 0.030216
#
#
# Mechanical properties :
#
#
# Convention : Reuss Voigt Hill
#
# Bulk Modulus (GPa) = 41.43445 48.95678 45.19562
# Shear Modulus (GPa) = 19.82640 25.23656 22.53148
#
# Velocity S-wave (km/s) = 3.16809 3.57429 3.37730
# Velocity P-wave (km/s) = 5.86156 6.46666 6.17153
#
# Compressibility (1/GPa) = 0.02413451
#
# Stress axis : x y z
#
# Youngs Moduli (GPa) = 32.66089 49.27212 64.77480
#
# Poissons Ratio (x) = 0.74984 0.50905
# Poissons Ratio (y) = 0.49705 -0.12753
# Poissons Ratio (z) = 0.25667 -0.09701
#
# Static dielectric constant tensor:
#      x y z
#    x 1.737280 0.000000 -0.000140 
#    y 0.000000 1.743900 0.000000 
#    z -0.000140 0.000000 1.699800 
# 
# From -- ./inp_files/69141.got.cif
#   From: 2010.05.17/outbox.cif.g08.bks.cpg/sg14_35_cif.got.tgz:69141.got - 2010.06.03 17:49:19.
