data_PCOD9243931
_publ_section_title
;
Structure prediction by ZEFSAII (Michael W. Deem and Ramdas Pophale) SiO2 
 PCOD9243931
Probable space group: P 21/C
;
_chemical_formula_sum "Si O2"
_cell_formula_units_Z 20
_cell_length_a 6.754826
_cell_length_b 7.829820
_cell_length_c 18.054316
_cell_angle_alpha 90.000000
_cell_angle_beta 120.134050
_cell_angle_gamma 90.000000
_cell_volume 825.827602
_symmetry_space_group_name_H-M "P 21/C"
_symmetry_group_IT_number 14
_symmetry_cell_setting 'monoclinic'
loop_
_space_group_symop_operation_xyz
x,y,z
-x,1/2+y,1/2-z
-x,-y,-z
x,1/2-y,1/2+z
loop_
_atom_site_type_symbol
_atom_site_label
_atom_site_fract_x
_atom_site_fract_y
_atom_site_fract_z
Si Si1 0.887078 0.175527 0.415055
Si Si2 0.662655 0.654915 0.439927
Si Si3 0.530030 0.266275 0.446304
Si Si4 0.897318 0.921211 0.681396
Si Si5 0.316028 0.726547 0.772725
O O1 0.700545 0.129805 0.441236
O O2 0.740897 0.278297 0.324998
O O3 0.084944 0.283308 0.491866
O O4 0.006851 0.036586 0.383511
O O5 0.626492 0.453470 0.445328
O O6 0.498680 0.743065 0.471111
O O7 0.566512 0.713827 0.342850
O O8 0.276272 0.235568 0.366213
O O9 0.127961 0.864300 0.765949
O O10 0.757808 0.054939 0.701633
#
# Coordination Sequence:
#
# PCOD9243931 Si02
#       5
#     4   4   4   4   4
#     4   9  22  38  60  89 118 150 205 238 289 361
#     4  10  21  38  63  84 120 159 191 244 296 353
#     4  10  20  39  62  87 119 153 201 240 297 355
#     4   9  21  39  58  84 119 153 196 245 294 350
#     4  10  21  41  60  84 123 157 196 249 299 346
#
# _framework density 24.218128
#
# number of rings (size 3 to 8) (size 9 to 14) (size 15 to 20)
#    1.200    1.200    0.000    1.800    2.800    4.800 
#    3.600    2.000    0.000    0.000    0.000    0.000 
#    0.000    0.000    0.000    0.000    0.000    0.000 
#
# Total GULP energy -111561.458134 kJ/mol
# GULP energy per Si atom -5578.072907 kJ/mol
# Density = 2.416301 g / cm^3
# Si number density = 24.218128 Si / 1000 Ang^3
#
#
#
# Elastic Constant Matrix: (Units=GPa)
#
#
# Indices 1 2 3 4 5 6 
#
# 1 86.6456 -5.8887 30.8672 0.0000 -5.9592 0.0000
# 2 -5.8887 34.0386 32.3396 0.0000 -5.7122 0.0000
# 3 30.8672 32.3396 162.7380 0.0000 27.6117 0.0000
# 4 0.0000 0.0000 0.0000 32.6349 0.0000 1.3584
# 5 -5.9592 -5.7122 27.6117 0.0000 25.7415 0.0000
# 6 0.0000 0.0000 0.0000 1.3584 0.0000 13.9877
#
#
#
# Elastic Compliance Matrix: (Units=1/GPa)
#
#
# Indices 1 2 3 4 5 6 
#
# 1 0.016691 0.013856 -0.008676 0.000000 0.016245 0.000000
# 2 0.013856 0.057680 -0.020546 0.000000 0.038046 0.000000
# 3 -0.008676 -0.020546 0.015877 0.000000 -0.023598 0.000000
# 4 0.000000 0.000000 0.000000 0.030766 0.000000 -0.002988
# 5 0.016245 0.038046 -0.023598 0.000000 0.076364 0.000000
# 6 0.000000 0.000000 0.000000 -0.002988 0.000000 0.071782
#
#
# Mechanical properties :
#
#
# Convention : Reuss Voigt Hill
#
# Bulk Modulus (GPa) = 16.80160 44.22870 30.51515
# Shear Modulus (GPa) = 15.63822 29.54643 22.59233
#
# Velocity S-wave (km/s) = 2.54387 3.49666 3.05760
# Velocity P-wave (km/s) = 3.94728 5.88255 5.00926
#
# Compressibility (1/GPa) = 0.05951814
#
# Stress axis : x y z
#
# Youngs Moduli (GPa) = 59.91310 17.33693 62.98357
#
# Poissons Ratio (x) = -0.24022 0.54642
# Poissons Ratio (y) = -0.83016 1.29404
# Poissons Ratio (z) = 0.51978 0.35620
#
# Static dielectric constant tensor:
#      x y z
#    x 1.894260 0.000000 -0.011310 
#    y 0.000000 1.987000 0.000000 
#    z -0.011310 0.000000 1.942420 
# 
# From -- ./inp_files/52746.got.cif
#   From: 2010.05.17/outbox.cif.g08.bks.cpg/sg14_27_cif.got.tgz:52746.got - 2010.06.03 17:49:19.
