data_PCOD9243201
_publ_section_title
;
Structure prediction by ZEFSAII (Michael W. Deem and Ramdas Pophale) SiO2 
 PCOD9243201
Probable space group: P 21/C
;
_chemical_formula_sum "Si O2"
_cell_formula_units_Z 24
_cell_length_a 15.635918
_cell_length_b 5.109103
_cell_length_c 11.470016
_cell_angle_alpha 90.000000
_cell_angle_beta 77.052851
_cell_angle_gamma 90.000000
_cell_volume 892.993486
_symmetry_space_group_name_H-M "P 21/C"
_symmetry_group_IT_number 14
_symmetry_cell_setting 'monoclinic'
loop_
_space_group_symop_operation_xyz
x,y,z
-x,1/2+y,1/2-z
-x,-y,-z
x,1/2-y,1/2+z
loop_
_atom_site_type_symbol
_atom_site_label
_atom_site_fract_x
_atom_site_fract_y
_atom_site_fract_z
Si Si1 0.085589 0.497481 0.606493
Si Si2 0.592020 0.702264 0.555268
Si Si3 0.595143 0.202619 0.391971
Si Si4 0.225546 0.116614 0.456021
Si Si5 0.908798 0.249514 0.132875
Si Si6 0.217671 0.821667 0.699805
O O1 0.167073 0.338334 0.532819
O O2 0.058649 0.701386 0.514618
O O3 0.128399 0.641416 0.704505
O O4 0.005808 0.306413 0.658559
O O5 0.598954 0.416163 0.495672
O O6 0.497170 0.739434 0.642890
O O7 0.678098 0.773401 0.602623
O O8 0.591232 0.911129 0.447504
O O9 0.684199 0.242097 0.291271
O O10 0.170523 0.954307 0.380582
O O11 0.236295 0.924266 0.565175
O O12 0.840477 0.006965 0.194354
#
# Coordination Sequence:
#
# PCOD9243201 Si02
#       6
#     4   4   4   4   4   4
#     4  10  21  39  56  82 115 159 199 252 316 373
#     4   9  17  32  61  85 119 157 198 250 308 370
#     4   9  17  33  57  91 115 155 204 248 305 371
#     4  10  20  37  58  82 118 157 198 252 305 374
#     4  10  23  37  56  84 121 153 203 258 312 369
#     4  10  21  36  59  87 116 154 211 252 310 377
#
# _framework density 26.875893999999999
#
# number of rings (size 3 to 8) (size 9 to 14) (size 15 to 20)
#    0.000    2.333    1.667    0.500    2.333    1.333 
#    0.000    0.000    3.667    0.000    0.000    0.000 
#    0.000    0.000    0.000    0.000    0.000    0.000 
#
# Total GULP energy -133687.455220 kJ/mol
# GULP energy per Si atom -5570.310634 kJ/mol
# Density = 2.681472 g / cm^3
# Si number density = 26.875894 Si / 1000 Ang^3
#
#
#
# Elastic Constant Matrix: (Units=GPa)
#
#
# Indices 1 2 3 4 5 6 
#
# 1 137.5773 119.4272 83.4364 0.0000 8.5219 0.0000
# 2 119.4272 11.4267 -1.9601 0.0000 -60.3368 0.0000
# 3 83.4364 -1.9601 87.7682 0.0000 -14.7449 0.0000
# 4 0.0000 0.0000 0.0000 -6.5761 0.0000 -5.3782
# 5 8.5219 -60.3368 -14.7449 0.0000 -5.0799 0.0000
# 6 0.0000 0.0000 0.0000 -5.3782 0.0000 35.8603
#
#
#
# Elastic Compliance Matrix: (Units=1/GPa)
#
#
# Indices 1 2 3 4 5 6 
#
# 1 0.008450 0.001011 -0.005140 0.000000 0.017084 0.000000
# 2 0.001011 0.002127 -0.003276 0.000000 -0.014063 0.000000
# 3 -0.005140 -0.003276 0.014315 0.000000 -0.011260 0.000000
# 4 0.000000 0.000000 0.000000 -0.135452 0.000000 -0.020315
# 5 0.017084 -0.014063 -0.011260 0.000000 0.031518 0.000000
# 6 0.000000 0.000000 0.000000 -0.020315 0.000000 0.024839
#
#
# Mechanical properties :
#
#
# Convention : Reuss Voigt Hill
#
# Bulk Modulus (GPa) = 99.18502 70.95324 85.06913
# Shear Modulus (GPa) = -138.77009 7.23211 -65.76899
#
# Velocity S-wave (km/s) = -7.19345 1.64218 -4.95222
# Velocity P-wave (km/s) = 5.65769 5.48209 0.98896
#
# Compressibility (1/GPa) = 0.01008217
#
# Stress axis : x y z
#
# Youngs Moduli (GPa) = 118.34341 470.04236 69.85473
#
# Poissons Ratio (x) = -0.47534 0.35907
# Poissons Ratio (y) = -0.11968 0.22887
# Poissons Ratio (z) = 0.60832 1.54002
#
# Static dielectric constant tensor:
#      x y z
#    x 2.200770 0.000000 0.225210 
#    y 0.000000 2.616500 0.000000 
#    z 0.225210 0.000000 2.744590 
# 
# From -- ./inp_files/45788.got.cif
#   From: 2010.05.17/outbox.cif.g08.bks.cpg/sg14_23_cif.got.tgz:45788.got - 2010.06.03 17:49:19.
