data_PCOD9243206
_publ_section_title
;
Structure prediction by ZEFSAII (Michael W. Deem and Ramdas Pophale) SiO2 
 PCOD9243206
Probable space group: P 21/C
;
_chemical_formula_sum "Si O2"
_cell_formula_units_Z 32
_cell_length_a 20.976767
_cell_length_b 13.380766
_cell_length_c 15.040281
_cell_angle_alpha 90.000000
_cell_angle_beta 19.076578
_cell_angle_gamma 90.000000
_cell_volume 1379.747134
_symmetry_space_group_name_H-M "P 21/C"
_symmetry_group_IT_number 14
_symmetry_cell_setting 'monoclinic'
loop_
_space_group_symop_operation_xyz
x,y,z
-x,1/2+y,1/2-z
-x,-y,-z
x,1/2-y,1/2+z
loop_
_atom_site_type_symbol
_atom_site_label
_atom_site_fract_x
_atom_site_fract_y
_atom_site_fract_z
Si Si1 0.679493 0.447347 0.715360
Si Si2 0.810585 0.847354 0.747052
Si Si3 0.596448 0.260533 0.721030
Si Si4 0.501721 0.674133 0.335893
Si Si5 0.742578 0.633412 0.535684
Si Si6 0.010385 0.236067 0.143548
Si Si7 0.096757 0.432927 0.145860
Si Si8 0.288218 0.966164 0.240669
O O1 0.622571 0.333974 0.769279
O O2 0.697523 0.517102 0.603768
O O3 0.901728 0.449818 0.460789
O O4 0.500000 0.500000 0.000000
O O5 0.802011 0.955629 0.711723
O O6 0.936806 0.766978 0.525954
O O7 0.589814 0.808199 0.025046
O O8 0.851488 0.848744 0.798204
O O9 0.572219 0.330113 0.666586
O O10 0.791437 0.199829 0.444037
O O11 0.561150 0.789631 0.272057
O O12 0.344772 0.633600 0.613138
O O13 0.702350 0.608819 0.077213
O O14 0.847317 0.665304 0.489085
O O15 0.031113 0.341537 0.168331
O O16 0.151253 0.523362 0.007426
O O17 0.500000 0.000000 0.000000
#
# Coordination Sequence:
#
# PCOD9243206 Si02
#       8
#     4   4   4   4   4   4   4   4
#     4  11  22  37  55  79 116 161 196 236 293 358
#     4  10  20  37  58  85 118 154 200 252 296 352
#     4  10  21  37  59  83 114 150 194 245 292 355
#     4   9  18  36  57  85 114 142 187 248 294 342
#     4  10  21  37  57  84 121 157 197 239 293 365
#     4   9  19  37  55  79 114 150 190 243 297 341
#     4   8  18  35  55  79 109 145 190 240 292 344
#     4   9  17  32  59  86 112 147 192 251 308 347
#
# _framework density 23.192655999999999
#
# number of rings (size 3 to 8) (size 9 to 14) (size 15 to 20)
#    0.000    2.500    0.000    2.250    0.000    3.000 
#    0.000   21.875    0.000    0.000    0.000    0.000 
#    0.000    0.000    0.000    0.000    0.000    0.000 
#
# Total GULP energy -178547.375309 kJ/mol
# GULP energy per Si atom -5579.605478 kJ/mol
# Density = 2.313987 g / cm^3
# Si number density = 23.192656 Si / 1000 Ang^3
#
#
#
# Elastic Constant Matrix: (Units=GPa)
#
#
# Indices 1 2 3 4 5 6 
#
# 1 51.9079 16.8801 4.4957 0.0000 3.8761 0.0000
# 2 16.8801 63.4752 -0.7913 0.0000 -2.9421 0.0000
# 3 4.4957 -0.7913 94.7970 0.0000 -8.1688 0.0000
# 4 0.0000 0.0000 0.0000 27.0632 0.0000 6.2431
# 5 3.8761 -2.9421 -8.1688 0.0000 25.5482 0.0000
# 6 0.0000 0.0000 0.0000 6.2431 0.0000 28.1894
#
#
#
# Elastic Compliance Matrix: (Units=1/GPa)
#
#
# Indices 1 2 3 4 5 6 
#
# 1 0.021670 -0.005987 -0.001461 0.000000 -0.004444 0.000000
# 2 -0.005987 0.017501 0.000701 0.000000 0.003148 0.000000
# 3 -0.001461 0.000701 0.010952 0.000000 0.003804 0.000000
# 4 0.000000 0.000000 0.000000 0.038940 0.000000 -0.008624
# 5 -0.004444 0.003148 0.003804 0.000000 0.041395 0.000000
# 6 0.000000 0.000000 0.000000 -0.008624 0.000000 0.037384
#
#
# Mechanical properties :
#
#
# Convention : Reuss Voigt Hill
#
# Bulk Modulus (GPa) = 27.29986 27.92768 27.61377
# Shear Modulus (GPa) = 25.83380 28.79987 27.31684
#
# Velocity S-wave (km/s) = 3.34110 3.52769 3.43567
# Velocity P-wave (km/s) = 5.16531 5.35356 5.26028
#
# Compressibility (1/GPa) = 0.03663023
#
# Stress axis : x y z
#
# Youngs Moduli (GPa) = 46.14633 57.13971 91.30938
#
# Poissons Ratio (x) = 0.34210 0.13337
# Poissons Ratio (y) = 0.27628 -0.06403
# Poissons Ratio (z) = 0.06740 -0.04007
#
# Static dielectric constant tensor:
#      x y z
#    x 1.869570 0.000000 -0.020170 
#    y 0.000000 1.900860 0.000000 
#    z -0.020170 0.000000 1.958330 
# 
# From -- ./inp_files/50692.got.cif
#   From: 2010.05.17/outbox.cif.g08.bks.cpg/sg14_26_cif.got.tgz:50692.got - 2010.06.03 17:49:19.
