data_PCOD9243001
_publ_section_title
;
Structure prediction by ZEFSAII (Michael W. Deem and Ramdas Pophale) SiO2 
 PCOD9243001
Probable space group: P 21/C
;
_chemical_formula_sum "Si O2"
_cell_formula_units_Z 28
_cell_length_a 18.072764
_cell_length_b 15.929668
_cell_length_c 6.971032
_cell_angle_alpha 90.000000
_cell_angle_beta 141.646419
_cell_angle_gamma 90.000000
_cell_volume 1245.314435
_symmetry_space_group_name_H-M "P 21/C"
_symmetry_group_IT_number 14
_symmetry_cell_setting 'monoclinic'
loop_
_space_group_symop_operation_xyz
x,y,z
-x,1/2+y,1/2-z
-x,-y,-z
x,1/2-y,1/2+z
loop_
_atom_site_type_symbol
_atom_site_label
_atom_site_fract_x
_atom_site_fract_y
_atom_site_fract_z
Si Si1 0.810891 0.994405 0.637373
Si Si2 0.132666 0.086517 0.630089
Si Si3 0.627670 0.820809 0.933382
Si Si4 0.636629 0.373848 0.662245
Si Si5 0.640624 0.318180 0.109995
Si Si6 0.123629 0.584350 0.353863
Si Si7 0.376125 0.372128 0.132185
O O1 0.734332 0.055271 0.343491
O O2 0.870476 0.932002 0.606131
O O3 0.724674 0.940097 0.599295
O O4 0.877739 0.051523 0.927567
O O5 0.006242 0.127408 0.436778
O O6 0.131604 0.997510 0.736840
O O7 0.255271 0.136908 0.920438
O O8 0.493014 0.830090 0.573882
O O9 0.646003 0.720834 0.991780
O O10 0.620794 0.858997 0.131694
O O11 0.659192 0.281650 0.624876
O O12 0.505968 0.403764 0.334897
O O13 0.633197 0.357039 0.883576
O O14 0.758202 0.359900 0.438860
#
# Coordination Sequence:
#
# PCOD9243001 Si02
#       7
#     4   4   4   4   4   4   4
#     4  10  20  36  60  80 113 148 187 224 281 328
#     4  10  22  39  57  81 112 145 186 230 276 331
#     4   9  19  35  55  82 112 143 184 228 276 330
#     4   9  18  33  55  84 114 143 182 231 278 328
#     4   9  19  35  55  82 112 143 184 228 276 330
#     4  10  22  39  57  81 112 145 186 230 276 331
#     4   9  18  33  55  84 114 143 182 231 278 328
#
# _framework density 22.484282
#
# number of rings (size 3 to 8) (size 9 to 14) (size 15 to 20)
#    0.000    2.571    0.000    0.857    4.000    1.714 
#    0.000    7.143    0.000    0.000    0.000    0.000 
#    0.000    0.000    0.000    0.000    0.000    0.000 
#
# Total GULP energy -156134.035333 kJ/mol
# GULP energy per Si atom -5576.215548 kJ/mol
# Density = 2.243311 g / cm^3
# Si number density = 22.484282 Si / 1000 Ang^3
#
#
#
# Elastic Constant Matrix: (Units=GPa)
#
#
# Indices 1 2 3 4 5 6 
#
# 1 23.7379 -25.8089 20.6823 0.0000 -34.9472 0.0000
# 2 -25.8089 -15.0702 -13.2824 0.0000 -29.9256 0.0000
# 3 20.6823 -13.2824 45.2819 0.0000 -0.2716 0.0000
# 4 0.0000 0.0000 0.0000 6.9088 0.0000 -11.1516
# 5 -34.9472 -29.9256 -0.2716 0.0000 -19.3937 0.0000
# 6 0.0000 0.0000 0.0000 -11.1516 0.0000 21.3534
#
#
#
# Elastic Compliance Matrix: (Units=1/GPa)
#
#
# Indices 1 2 3 4 5 6 
#
# 1 0.029085 -0.036159 -0.023869 0.000000 0.003720 0.000000
# 2 -0.036159 0.081380 0.040021 0.000000 -0.060977 0.000000
# 3 -0.023869 0.040021 0.044609 0.000000 -0.019369 0.000000
# 4 0.000000 0.000000 0.000000 0.921650 0.000000 0.481323
# 5 0.003720 -0.060977 -0.019369 0.000000 0.036096 0.000000
# 6 0.000000 0.000000 0.000000 0.481323 0.000000 0.298198
#
#
# Mechanical properties :
#
#
# Convention : Reuss Voigt Hill
#
# Bulk Modulus (GPa) = 8.69110 1.90351 5.29731
# Shear Modulus (GPa) = 3.35709 6.59762 4.97735
#
# Velocity S-wave (km/s) = 1.22324 1.71485 1.48947
# Velocity P-wave (km/s) = 2.42258 2.18389 2.30632
#
# Compressibility (1/GPa) = 0.11506020
#
# Stress axis : x y z
#
# Youngs Moduli (GPa) = 34.38194 12.28797 22.41702
#
# Poissons Ratio (x) = 0.44433 0.53507
# Poissons Ratio (y) = 1.24323 -0.89715
# Poissons Ratio (z) = 0.82065 -0.49178
#
# Static dielectric constant tensor:
#      x y z
#    x 1.872900 0.000000 0.005170 
#    y 0.000000 1.844180 0.000000 
#    z 0.005170 0.000000 1.889030 
# 
# From -- ./inp_files/19104.got.cif
#   From: 2010.05.17/outbox.cif.g08.bks.cpg/sg14_10_cif.got.tgz:19104.got - 2010.06.03 17:49:19.
