data_PCOD9243238
_publ_section_title
;
Structure prediction by ZEFSAII (Michael W. Deem and Ramdas Pophale) SiO2 
 PCOD9243238
Probable space group: P 21/C
;
_chemical_formula_sum "Si O2"
_cell_formula_units_Z 32
_cell_length_a 16.966033
_cell_length_b 12.407910
_cell_length_c 22.620182
_cell_angle_alpha 90.000000
_cell_angle_beta 17.087744
_cell_angle_gamma 90.000000
_cell_volume 1399.200153
_symmetry_space_group_name_H-M "P 21/C"
_symmetry_group_IT_number 14
_symmetry_cell_setting 'monoclinic'
loop_
_space_group_symop_operation_xyz
x,y,z
-x,1/2+y,1/2-z
-x,-y,-z
x,1/2-y,1/2+z
loop_
_atom_site_type_symbol
_atom_site_label
_atom_site_fract_x
_atom_site_fract_y
_atom_site_fract_z
Si Si1 0.899148 0.964718 0.507244
Si Si2 0.670592 0.190420 0.793444
Si Si3 0.213365 0.780984 0.990431
Si Si4 0.743600 0.618316 0.323741
Si Si5 0.808581 0.385910 0.773434
Si Si6 0.550959 0.622787 0.672756
Si Si7 0.085108 0.074859 0.883757
Si Si8 0.529704 0.244563 0.575594
O O1 0.057622 0.026068 0.341023
O O2 0.596038 0.005812 0.720557
O O3 0.019230 0.845677 0.419909
O O4 0.000000 0.000000 0.500000
O O5 0.669135 0.305022 0.826292
O O6 0.563629 0.181943 0.803913
O O7 0.469896 0.107349 0.971083
O O8 0.421564 0.693360 0.816885
O O9 0.323043 0.802980 0.976480
O O10 0.932438 0.719877 0.202750
O O11 0.151770 0.867674 0.983661
O O12 0.570966 0.658384 0.392569
O O13 0.766873 0.503084 0.773065
O O14 0.132100 0.381076 0.547757
O O15 0.707262 0.338453 0.908912
O O16 0.272347 0.170200 0.774538
O O17 0.000000 0.000000 0.000000
#
# Coordination Sequence:
#
# PCOD9243238 Si02
#       8
#     4   4   4   4   4   4   4   4
#     4   9  19  34  55  83 113 149 191 247 308 365
#     4  10  20  37  59  83 119 159 204 259 315 376
#     4  10  21  38  60  86 120 161 204 258 317 373
#     4   9  19  36  58  84 115 156 204 257 313 370
#     4  11  23  39  61  91 124 166 210 259 316 376
#     4  10  21  36  57  87 119 154 206 257 310 380
#     4  11  23  41  66  95 128 167 211 263 321 381
#     4  10  22  41  62  87 124 164 209 258 314 379
#
# _framework density 22.870208000000002
#
# number of rings (size 3 to 8) (size 9 to 14) (size 15 to 20)
#    0.000    2.000    0.000    3.000    0.000    7.000 
#    0.000    8.750    0.000    0.000    0.000    0.000 
#    0.000    0.000    0.000    0.000    0.000    0.000 
#
# Total GULP energy -178488.694550 kJ/mol
# GULP energy per Si atom -5577.771705 kJ/mol
# Density = 2.281815 g / cm^3
# Si number density = 22.870208 Si / 1000 Ang^3
#
#
#
# Elastic Constant Matrix: (Units=GPa)
#
#
# Indices 1 2 3 4 5 6 
#
# 1 95.3483 6.6055 24.0956 0.0000 -17.3586 0.0000
# 2 6.6055 47.1148 6.4725 0.0000 0.4727 0.0000
# 3 24.0956 6.4725 93.6395 0.0000 -10.5468 0.0000
# 4 0.0000 0.0000 0.0000 28.0599 0.0000 0.2682
# 5 -17.3586 0.4727 -10.5468 0.0000 33.9377 0.0000
# 6 0.0000 0.0000 0.0000 0.2682 0.0000 27.9444
#
#
#
# Elastic Compliance Matrix: (Units=1/GPa)
#
#
# Indices 1 2 3 4 5 6 
#
# 1 0.012202 -0.001433 -0.002420 0.000000 0.005509 0.000000
# 2 -0.001433 0.021617 -0.001287 0.000000 -0.001434 0.000000
# 3 -0.002420 -0.001287 0.011662 0.000000 0.002404 0.000000
# 4 0.000000 0.000000 0.000000 0.035641 0.000000 -0.000342
# 5 0.005509 -0.001434 0.002404 0.000000 0.033051 0.000000
# 6 0.000000 0.000000 0.000000 -0.000342 0.000000 0.035789
#
#
# Mechanical properties :
#
#
# Convention : Reuss Voigt Hill
#
# Bulk Modulus (GPa) = 28.40969 34.49442 31.45205
# Shear Modulus (GPa) = 29.07397 31.25033 30.16215
#
# Velocity S-wave (km/s) = 3.56934 3.70052 3.63552
# Velocity P-wave (km/s) = 5.42550 5.77702 5.60401
#
# Compressibility (1/GPa) = 0.03519926
#
# Stress axis : x y z
#
# Youngs Moduli (GPa) = 81.95581 46.26008 85.75027
#
# Poissons Ratio (x) = 0.06631 0.20754
# Poissons Ratio (y) = 0.11748 0.11035
# Poissons Ratio (z) = 0.19835 0.05953
#
# Static dielectric constant tensor:
#      x y z
#    x 1.833350 0.000000 0.046800 
#    y 0.000000 1.926390 0.000000 
#    z 0.046800 0.000000 1.893130 
# 
# From -- ./inp_files/68627.got.cif
#   From: 2010.05.17/outbox.cif.g08.bks.cpg/sg14_35_cif.got.tgz:68627.got - 2010.06.03 17:49:19.
