data_PCOD9243031
_publ_section_title
;
Structure prediction by ZEFSAII (Michael W. Deem and Ramdas Pophale) SiO2 
 PCOD9243031
Probable space group: P 21/C
;
_chemical_formula_sum "Si O2"
_cell_formula_units_Z 28
_cell_length_a 21.013067
_cell_length_b 12.351856
_cell_length_c 17.782776
_cell_angle_alpha 90.000000
_cell_angle_beta 18.283154
_cell_angle_gamma 90.000000
_cell_volume 1447.951937
_symmetry_space_group_name_H-M "P 21/C"
_symmetry_group_IT_number 14
_symmetry_cell_setting 'monoclinic'
loop_
_space_group_symop_operation_xyz
x,y,z
-x,1/2+y,1/2-z
-x,-y,-z
x,1/2-y,1/2+z
loop_
_atom_site_type_symbol
_atom_site_label
_atom_site_fract_x
_atom_site_fract_y
_atom_site_fract_z
Si Si1 0.060829 0.882826 0.137290
Si Si2 0.072182 0.840699 0.867792
Si Si3 0.735825 0.003416 0.222339
Si Si4 0.260685 0.980809 0.047443
Si Si5 0.877071 0.359553 0.980108
Si Si6 0.839049 0.401970 0.187608
Si Si7 0.706178 0.047462 0.520729
O O1 0.070020 0.765003 0.092097
O O2 0.208452 0.959617 0.923556
O O3 0.841125 0.937784 0.373788
O O4 0.148369 0.889263 0.123341
O O5 0.168037 0.907860 0.829447
O O6 0.072667 0.713770 0.884422
O O7 0.200816 0.878651 0.650274
O O8 0.847344 0.889621 0.111077
O O9 0.500000 0.000000 0.500000
O O10 0.470389 0.020711 0.776651
O O11 0.089231 0.074297 0.242029
O O12 0.303830 0.939007 0.083573
O O13 0.745613 0.396510 0.056630
O O14 0.767132 0.381439 0.183032
O O15 0.000000 0.500000 0.000000
#
# Coordination Sequence:
#
# PCOD9243031 Si02
#       7
#     4   4   4   4   4   4   4
#     4  10  20  38  60  85 121 151 200 258 298 353
#     4  10  20  38  60  86 125 156 194 259 300 351
#     4  10  20  36  60  92 118 153 204 249 306 357
#     4  10  22  39  60  87 119 160 206 242 302 369
#     4  10  21  39  58  84 121 159 197 250 302 354
#     4  10  21  40  60  86 127 165 200 244 304 363
#     4  10  22  38  61  89 118 158 205 251 302 355
#
# _framework density 19.337658999999999
#
# number of rings (size 3 to 8) (size 9 to 14) (size 15 to 20)
#    0.000    2.000    1.429    1.714    0.000    2.857 
#    5.143    4.286    0.000    0.000    0.000    0.000 
#    0.000    0.000    0.000    0.000    0.000    0.000 
#
# Total GULP energy -156155.763116 kJ/mol
# GULP energy per Si atom -5576.991540 kJ/mol
# Density = 1.929365 g / cm^3
# Si number density = 19.337659 Si / 1000 Ang^3
#
#
#
# Elastic Constant Matrix: (Units=GPa)
#
#
# Indices 1 2 3 4 5 6 
#
# 1 101.6834 13.7896 13.2704 0.0000 16.5634 0.0000
# 2 13.7896 91.8879 3.9557 0.0000 -2.6056 0.0000
# 3 13.2704 3.9557 89.6614 0.0000 -5.9367 0.0000
# 4 0.0000 0.0000 0.0000 8.3908 0.0000 8.8948
# 5 16.5634 -2.6056 -5.9367 0.0000 22.4910 0.0000
# 6 0.0000 0.0000 0.0000 8.8948 0.0000 22.4731
#
#
#
# Elastic Compliance Matrix: (Units=1/GPa)
#
#
# Indices 1 2 3 4 5 6 
#
# 1 0.011980 -0.001972 -0.002326 0.000000 -0.009665 0.000000
# 2 -0.001972 0.011258 -0.000023 0.000000 0.002750 0.000000
# 3 -0.002326 -0.000023 0.011818 0.000000 0.004830 0.000000
# 4 0.000000 0.000000 0.000000 0.205326 0.000000 -0.081267
# 5 -0.009665 0.002750 0.004830 0.000000 0.053173 0.000000
# 6 0.000000 0.000000 0.000000 -0.081267 0.000000 0.076663
#
#
# Mechanical properties :
#
#
# Convention : Reuss Voigt Hill
#
# Bulk Modulus (GPa) = 37.85786 38.36268 38.11027
# Shear Modulus (GPa) = 12.89779 27.48545 20.19162
#
# Velocity S-wave (km/s) = 2.58539 3.77416 3.23485
# Velocity P-wave (km/s) = 5.34155 6.23488 5.80542
#
# Compressibility (1/GPa) = 0.02641459
#
# Stress axis : x y z
#
# Youngs Moduli (GPa) = 83.47447 88.82822 84.61578
#
# Poissons Ratio (x) = 0.17514 0.19682
# Poissons Ratio (y) = 0.16459 0.00192
# Poissons Ratio (z) = 0.19416 0.00202
#
# Static dielectric constant tensor:
#      x y z
#    x 1.721390 0.000000 0.036440 
#    y 0.000000 1.664880 0.000000 
#    z 0.036440 0.000000 1.645600 
# 
# From -- ./inp_files/61260.got.cif
#   From: 2010.05.17/outbox.cif.g08.bks.cpg/sg14_31_cif.got.tgz:61260.got - 2010.06.03 17:49:19.
