data_PCOD9243016
_publ_section_title
;
Structure prediction by ZEFSAII (Michael W. Deem and Ramdas Pophale) SiO2 
 PCOD9243016
Probable space group: P 21/C
;
_chemical_formula_sum "Si O2"
_cell_formula_units_Z 32
_cell_length_a 8.788801
_cell_length_b 11.338814
_cell_length_c 16.373443
_cell_angle_alpha 90.000000
_cell_angle_beta 109.219791
_cell_angle_gamma 90.000000
_cell_volume 1540.742695
_symmetry_space_group_name_H-M "P 21/C"
_symmetry_group_IT_number 14
_symmetry_cell_setting 'monoclinic'
loop_
_space_group_symop_operation_xyz
x,y,z
-x,1/2+y,1/2-z
-x,-y,-z
x,1/2-y,1/2+z
loop_
_atom_site_type_symbol
_atom_site_label
_atom_site_fract_x
_atom_site_fract_y
_atom_site_fract_z
Si Si1 0.120667 0.854229 0.556911
Si Si2 0.050415 0.319416 0.799058
Si Si3 0.819013 0.878398 0.411716
Si Si4 0.718450 0.156965 0.164217
Si Si5 0.274505 0.387374 0.291037
Si Si6 0.367311 0.055762 0.362992
Si Si7 0.573362 0.222211 0.311458
Si Si8 0.512608 0.817572 0.453956
O O1 0.277186 0.776467 0.599873
O O2 0.027434 0.848832 0.627134
O O3 0.989734 0.822709 0.466242
O O4 0.179110 0.988607 0.550368
O O5 0.152994 0.198799 0.817846
O O6 0.183575 0.420365 0.806949
O O7 0.908134 0.314432 0.707401
O O8 0.798810 0.895898 0.312642
O O9 0.669923 0.807988 0.423954
O O10 0.640804 0.216832 0.232017
O O11 0.609220 0.208648 0.072618
O O12 0.707061 0.016163 0.168671
O O13 0.444796 0.322497 0.307614
O O14 0.480952 0.097927 0.309646
O O15 0.418202 0.142921 0.446447
O O16 0.408427 0.926937 0.400946
#
# Coordination Sequence:
#
# PCOD9243016 Si02
#       8
#     4   4   4   4   4   4   4   4
#     4  10  20  36  60  87 117 148 193 257 304 345
#     4  10  22  37  54  86 125 153 193 255 293 356
#     4  11  19  35  63  89 117 147 198 251 304 350
#     4  11  23  38  60  90 122 161 203 238 310 356
#     4  11  22  38  59  87 120 160 199 240 302 371
#     4  10  21  37  60  91 122 148 204 249 298 342
#     4  10  20  38  58  84 121 159 194 246 296 364
#     4  11  21  35  63  94 118 153 197 258 293 349
#
# _framework density 20.769204999999999
#
# number of rings (size 3 to 8) (size 9 to 14) (size 15 to 20)
#    0.000    1.500    6.250    0.000    1.750    1.000 
#    0.000    2.500    0.000    0.750    0.000    0.000 
#    0.000    0.000    0.000    0.000    0.000    0.000 
#
# Total GULP energy -178745.644119 kJ/mol
# GULP energy per Si atom -5585.801379 kJ/mol
# Density = 2.072193 g / cm^3
# Si number density = 20.769205 Si / 1000 Ang^3
#
#
#
# Elastic Constant Matrix: (Units=GPa)
#
#
# Indices 1 2 3 4 5 6 
#
# 1 109.4582 26.4007 19.3922 0.0000 32.8342 0.0000
# 2 26.4007 76.9260 11.6636 0.0000 24.3098 0.0000
# 3 19.3922 11.6636 42.3691 0.0000 15.1385 0.0000
# 4 0.0000 0.0000 0.0000 26.4257 0.0000 6.1788
# 5 32.8342 24.3098 15.1385 0.0000 35.7697 0.0000
# 6 0.0000 0.0000 0.0000 6.1788 0.0000 23.6821
#
#
#
# Elastic Compliance Matrix: (Units=1/GPa)
#
#
# Indices 1 2 3 4 5 6 
#
# 1 0.012783 -0.000821 -0.001922 0.000000 -0.010362 0.000000
# 2 -0.000821 0.016622 -0.000510 0.000000 -0.010327 0.000000
# 3 -0.001922 -0.000510 0.028120 0.000000 -0.009790 0.000000
# 4 0.000000 0.000000 0.000000 0.040300 0.000000 -0.010515
# 5 -0.010362 -0.010327 -0.009790 0.000000 0.048631 0.000000
# 6 0.000000 0.000000 0.000000 -0.010515 0.000000 0.044969
#
#
# Mechanical properties :
#
#
# Convention : Reuss Voigt Hill
#
# Bulk Modulus (GPa) = 19.60062 38.18513 28.89287
# Shear Modulus (GPa) = 23.26249 28.59530 25.92890
#
# Velocity S-wave (km/s) = 3.35034 3.71457 3.53715
# Velocity P-wave (km/s) = 4.94209 6.06817 5.53385
#
# Compressibility (1/GPa) = 0.05101881
#
# Stress axis : x y z
#
# Youngs Moduli (GPa) = 78.22982 60.16053 35.56152
#
# Poissons Ratio (x) = 0.04939 0.06836
# Poissons Ratio (y) = 0.06422 0.01814
# Poissons Ratio (z) = 0.15037 0.03069
#
# Static dielectric constant tensor:
#      x y z
#    x 1.777010 0.000000 0.000210 
#    y 0.000000 1.735560 0.000000 
#    z 0.000210 0.000000 1.769680 
# 
# From -- ./inp_files/55474.got.cif
#   From: 2010.05.17/outbox.cif.g08.bks.cpg/sg14_28_cif.got.tgz:55474.got - 2010.06.03 17:49:19.
