data_PCOD9243770
_publ_section_title
;
Structure prediction by ZEFSAII (Michael W. Deem and Ramdas Pophale) SiO2 
 PCOD9243770
Probable space group: P 21/C
;
_chemical_formula_sum "Si O2"
_cell_formula_units_Z 24
_cell_length_a 16.612400
_cell_length_b 15.823485
_cell_length_c 7.989306
_cell_angle_alpha 90.000000
_cell_angle_beta 31.711988
_cell_angle_gamma 90.000000
_cell_volume 1103.925991
_symmetry_space_group_name_H-M "P 21/C"
_symmetry_group_IT_number 14
_symmetry_cell_setting 'monoclinic'
loop_
_space_group_symop_operation_xyz
x,y,z
-x,1/2+y,1/2-z
-x,-y,-z
x,1/2-y,1/2+z
loop_
_atom_site_type_symbol
_atom_site_label
_atom_site_fract_x
_atom_site_fract_y
_atom_site_fract_z
Si Si1 0.965825 0.259892 0.171921
Si Si2 0.595004 0.571231 0.232238
Si Si3 0.924787 0.617913 0.738834
Si Si4 0.300445 0.645885 0.815005
Si Si5 0.759650 0.447713 0.735356
Si Si6 0.120741 0.575536 0.830565
O O1 0.792805 0.232850 0.524441
O O2 0.959532 0.332667 0.041458
O O3 0.046833 0.310839 0.173327
O O4 0.042666 0.171554 0.986143
O O5 0.500000 0.500000 0.500000
O O6 0.474299 0.647107 0.441946
O O7 0.751757 0.589806 0.050169
O O8 0.659301 0.530648 0.947789
O O9 0.058204 0.549302 0.538435
O O10 0.211184 0.581251 0.846032
O O11 0.294605 0.616276 0.020683
O O12 0.762608 0.426412 0.534681
O O13 0.000000 0.500000 0.000000
#
# Coordination Sequence:
#
# PCOD9243770 Si02
#       6
#     4   4   4   4   4   4
#     4  10  21  40  63  89 121 172 217 256 312 386
#     4  10  22  38  63  94 125 167 206 269 329 371
#     4  10  20  38  65  87 123 169 215 255 313 390
#     4  10  22  43  63  90 134 162 208 269 326 368
#     4   9  22  38  67  91 124 167 213 254 316 386
#     4  11  24  38  68  99 123 165 222 267 309 385
#
# _framework density 21.740589
#
# number of rings (size 3 to 8) (size 9 to 14) (size 15 to 20)
#    0.000    2.000    1.667    0.500   14.000    0.667 
#    3.000    0.000    0.000    0.000    0.000    0.000 
#    0.000    0.000    0.000    0.000    0.000    0.000 
#
# Total GULP energy -133601.631212 kJ/mol
# GULP energy per Si atom -5566.734634 kJ/mol
# Density = 2.169111 g / cm^3
# Si number density = 21.740589 Si / 1000 Ang^3
#
#
#
# Elastic Constant Matrix: (Units=GPa)
#
#
# Indices 1 2 3 4 5 6 
#
# 1 39.9905 7.4511 33.9779 0.0000 20.4761 0.0000
# 2 7.4511 67.2697 45.8918 0.0000 -5.2603 0.0000
# 3 33.9779 45.8918 130.1590 0.0000 -20.0003 0.0000
# 4 0.0000 0.0000 0.0000 38.0699 0.0000 5.1772
# 5 20.4761 -5.2603 -20.0003 0.0000 42.9721 0.0000
# 6 0.0000 0.0000 0.0000 5.1772 0.0000 33.6719
#
#
#
# Elastic Compliance Matrix: (Units=1/GPa)
#
#
# Indices 1 2 3 4 5 6 
#
# 1 0.071751 0.007994 -0.028705 0.000000 -0.046570 0.000000
# 2 0.007994 0.020495 -0.010245 0.000000 -0.006069 0.000000
# 3 -0.028705 -0.010245 0.022292 0.000000 0.022799 0.000000
# 4 0.000000 0.000000 0.000000 0.026828 0.000000 -0.004125
# 5 -0.046570 -0.006069 0.022799 0.000000 0.055330 0.000000
# 6 0.000000 0.000000 0.000000 -0.004125 0.000000 0.030333
#
#
# Mechanical properties :
#
#
# Convention : Reuss Voigt Hill
#
# Bulk Modulus (GPa) = 19.00263 45.78454 32.39358
# Shear Modulus (GPa) = 16.31410 32.94934 24.63172
#
# Velocity S-wave (km/s) = 2.74231 3.89725 3.36963
# Velocity P-wave (km/s) = 4.33435 6.43091 5.48376
#
# Compressibility (1/GPa) = 0.05262429
#
# Stress axis : x y z
#
# Youngs Moduli (GPa) = 13.93714 48.79222 44.85933
#
# Poissons Ratio (x) = -0.39002 1.28768
# Poissons Ratio (y) = -0.11141 0.45960
# Poissons Ratio (z) = 0.40006 0.49990
#
# Static dielectric constant tensor:
#      x y z
#    x 1.879050 0.000000 0.039690 
#    y 0.000000 1.881560 0.000000 
#    z 0.039690 0.000000 1.861480 
# 
# From -- ./inp_files/18093.got.cif
#   From: 2010.05.17/outbox.cif.g08.bks.cpg/sg14_10_cif.got.tgz:18093.got - 2010.06.03 17:49:19.
