data_PCOD9243098
_publ_section_title
;
Structure prediction by ZEFSAII (Michael W. Deem and Ramdas Pophale) SiO2 
 PCOD9243098
Probable space group: P 21/C
;
_chemical_formula_sum "Si O2"
_cell_formula_units_Z 32
_cell_length_a 25.729147
_cell_length_b 11.739136
_cell_length_c 8.309247
_cell_angle_alpha 90.000000
_cell_angle_beta 142.018710
_cell_angle_gamma 90.000000
_cell_volume 1544.484621
_symmetry_space_group_name_H-M "P 21/C"
_symmetry_group_IT_number 14
_symmetry_cell_setting 'monoclinic'
loop_
_space_group_symop_operation_xyz
x,y,z
-x,1/2+y,1/2-z
-x,-y,-z
x,1/2-y,1/2+z
loop_
_atom_site_type_symbol
_atom_site_label
_atom_site_fract_x
_atom_site_fract_y
_atom_site_fract_z
Si Si1 0.699748 0.620278 0.152906
Si Si2 0.858600 0.975078 0.879820
Si Si3 0.152253 0.802937 0.923312
Si Si4 0.497851 0.627102 0.059873
Si Si5 0.605702 0.695619 0.617471
Si Si6 0.817908 0.041140 0.426341
Si Si7 0.312484 0.589885 0.644019
Si Si8 0.965904 0.066099 0.571709
O O1 0.796425 0.600506 0.337958
O O2 0.673403 0.515250 0.201065
O O3 0.646441 0.622166 0.858330
O O4 0.677623 0.735443 0.194512
O O5 0.824728 0.983329 0.615761
O O6 0.953275 0.925631 0.116653
O O7 0.856958 0.101851 0.957992
O O8 0.076250 0.823104 0.611764
O O9 0.157910 0.673816 0.990355
O O10 0.238925 0.834154 0.042759
O O11 0.546609 0.711137 0.060014
O O12 0.399064 0.656937 0.833290
O O13 0.500000 0.500000 0.000000
O O14 0.547097 0.631274 0.348253
O O15 0.889729 0.000493 0.475885
O O16 0.727505 0.039426 0.118054
O O17 0.000000 0.000000 0.500000
#
# Coordination Sequence:
#
# PCOD9243098 Si02
#       8
#     4   4   4   4   4   4   4   4
#     4  10  22  43  62  88 122 161 208 261 312 369
#     4  10  20  36  63  89 117 168 206 244 317 378
#     4   9  20  39  58  88 130 159 197 263 306 364
#     4  11  23  43  65  93 129 170 216 263 321 383
#     4  10  24  44  64  89 129 166 212 272 316 372
#     4  11  21  36  64  93 126 158 204 260 313 371
#     4  10  22  38  61  92 124 164 203 253 322 377
#     4   9  19  38  58  84 123 159 199 247 300 362
#
# _framework density 20.718886000000001
#
# number of rings (size 3 to 8) (size 9 to 14) (size 15 to 20)
#    0.000    2.000    1.250    2.625    3.500    0.500 
#    2.250    0.000    5.500    0.000    0.000    0.000 
#    0.000    0.000    0.000    0.000    0.000    0.000 
#
# Total GULP energy -178703.623716 kJ/mol
# GULP energy per Si atom -5584.488241 kJ/mol
# Density = 2.067173 g / cm^3
# Si number density = 20.718886 Si / 1000 Ang^3
#
#
#
# Elastic Constant Matrix: (Units=GPa)
#
#
# Indices 1 2 3 4 5 6 
#
# 1 68.9870 9.6165 34.4296 0.0000 -3.4588 0.0000
# 2 9.6165 44.0955 39.1297 0.0000 -2.0108 0.0000
# 3 34.4296 39.1297 112.1236 0.0000 -15.1948 0.0000
# 4 0.0000 0.0000 0.0000 30.2547 0.0000 -4.9995
# 5 -3.4588 -2.0108 -15.1948 0.0000 45.4920 0.0000
# 6 0.0000 0.0000 0.0000 -4.9995 0.0000 13.5806
#
#
#
# Elastic Compliance Matrix: (Units=1/GPa)
#
#
# Indices 1 2 3 4 5 6 
#
# 1 0.017189 0.001418 -0.005852 0.000000 -0.000585 0.000000
# 2 0.001418 0.033240 -0.012383 0.000000 -0.002559 0.000000
# 3 -0.005852 -0.012383 0.015609 0.000000 0.004221 0.000000
# 4 0.000000 0.000000 0.000000 0.035194 0.000000 0.012956
# 5 -0.000585 -0.002559 0.004221 0.000000 0.023234 0.000000
# 6 0.000000 0.000000 0.000000 0.012956 0.000000 0.078404
#
#
# Mechanical properties :
#
#
# Convention : Reuss Voigt Hill
#
# Bulk Modulus (GPa) = 30.85972 43.50642 37.18307
# Shear Modulus (GPa) = 20.21782 27.33413 23.77597
#
# Velocity S-wave (km/s) = 3.12719 3.63614 3.39123
# Velocity P-wave (km/s) = 5.28828 6.21874 5.77229
#
# Compressibility (1/GPa) = 0.03240470
#
# Stress axis : x y z
#
# Youngs Moduli (GPa) = 58.17572 30.08392 64.06433
#
# Poissons Ratio (x) = -0.04266 0.37493
# Poissons Ratio (y) = -0.08249 0.79329
# Poissons Ratio (z) = 0.34047 0.37252
#
# Static dielectric constant tensor:
#      x y z
#    x 1.807610 0.000000 0.013950 
#    y 0.000000 1.722280 0.000000 
#    z 0.013950 0.000000 1.767280 
# 
# From -- ./inp_files/20004.got.cif
#   From: 2010.05.17/outbox.cif.g08.bks.cpg/sg14_11_cif.got.tgz:20004.got - 2010.06.03 17:49:19.
