data_PCOD9243432
_publ_section_title
;
Structure prediction by ZEFSAII (Michael W. Deem and Ramdas Pophale) SiO2 
 PCOD9243432
Probable space group: P 21/C
;
_chemical_formula_sum "Si O2"
_cell_formula_units_Z 28
_cell_length_a 8.487912
_cell_length_b 13.652198
_cell_length_c 18.833774
_cell_angle_alpha 90.000000
_cell_angle_beta 32.430217
_cell_angle_gamma 90.000000
_cell_volume 1170.377406
_symmetry_space_group_name_H-M "P 21/C"
_symmetry_group_IT_number 14
_symmetry_cell_setting 'monoclinic'
loop_
_space_group_symop_operation_xyz
x,y,z
-x,1/2+y,1/2-z
-x,-y,-z
x,1/2-y,1/2+z
loop_
_atom_site_type_symbol
_atom_site_label
_atom_site_fract_x
_atom_site_fract_y
_atom_site_fract_z
Si Si1 0.668079 0.563301 0.376014
Si Si2 0.506115 0.926140 0.614335
Si Si3 0.053399 0.330644 0.618909
Si Si4 0.641066 0.183341 0.704582
Si Si5 0.213812 0.914372 0.590730
Si Si6 0.685847 0.533996 0.595221
Si Si7 0.096274 0.324541 0.919774
O O1 0.500000 0.500000 0.500000
O O2 0.447321 0.557798 0.395456
O O3 0.764223 0.662813 0.377945
O O4 0.977099 0.521584 0.227147
O O5 0.207837 0.912038 0.772801
O O6 0.417240 0.865650 0.574992
O O7 0.758622 0.895514 0.574112
O O8 0.600730 0.024533 0.537584
O O9 0.879603 0.232082 0.667322
O O10 0.259321 0.373093 0.478473
O O11 0.549504 0.073088 0.758459
O O12 0.338393 0.241406 0.822626
O O13 0.790194 0.201338 0.572917
O O14 0.994245 0.853760 0.624918
O O15 0.000000 0.500000 0.500000
#
# Coordination Sequence:
#
# PCOD9243432 Si02
#       7
#     4   4   4   4   4   4   4
#     4   9  20  39  64  93 128 169 226 278 346 405
#     4   9  20  37  62  90 123 161 219 273 341 397
#     4   9  20  41  62  87 130 176 219 280 338 412
#     4  11  23  42  63  95 135 182 226 284 354 415
#     4  10  20  37  64  93 127 163 219 285 330 412
#     4  11  23  37  67  99 135 177 229 284 342 419
#     4  11  23  39  65  87 132 179 224 272 349 407
#
# _framework density 23.923905999999999
#
# number of rings (size 3 to 8) (size 9 to 14) (size 15 to 20)
#    0.000    2.000    1.429    1.286    6.000    0.000 
#    0.000    5.714   12.571    0.000    0.000    0.000 
#    0.000    0.000    0.000    0.000    0.000    0.000 
#
# Total GULP energy -155908.695828 kJ/mol
# GULP energy per Si atom -5568.167708 kJ/mol
# Density = 2.386945 g / cm^3
# Si number density = 23.923906 Si / 1000 Ang^3
#
#
#
# Elastic Constant Matrix: (Units=GPa)
#
#
# Indices 1 2 3 4 5 6 
#
# 1 142.1707 43.1083 5.2298 0.0000 -22.0907 0.0000
# 2 43.1083 37.3870 15.4418 0.0000 0.5974 0.0000
# 3 5.2298 15.4418 121.8373 0.0000 14.8910 0.0000
# 4 0.0000 0.0000 0.0000 34.4180 0.0000 2.3302
# 5 -22.0907 0.5974 14.8910 0.0000 31.3070 0.0000
# 6 0.0000 0.0000 0.0000 2.3302 0.0000 28.6361
#
#
#
# Elastic Compliance Matrix: (Units=1/GPa)
#
#
# Indices 1 2 3 4 5 6 
#
# 1 0.013184 -0.015449 0.000233 0.000000 0.009487 0.000000
# 2 -0.015449 0.046373 -0.004007 0.000000 -0.009880 0.000000
# 3 0.000233 -0.004007 0.009212 0.000000 -0.004141 0.000000
# 4 0.000000 0.000000 0.000000 0.029216 0.000000 -0.002377
# 5 0.009487 -0.009880 -0.004141 0.000000 0.040794 0.000000
# 6 0.000000 0.000000 0.000000 -0.002377 0.000000 0.035114
#
#
# Mechanical properties :
#
#
# Convention : Reuss Voigt Hill
#
# Bulk Modulus (GPa) = 32.97885 47.66164 40.32025
# Shear Modulus (GPa) = 22.47746 34.71321 28.59534
#
# Velocity S-wave (km/s) = 3.06852 3.81331 3.46101
# Velocity P-wave (km/s) = 5.13510 6.27327 5.73250
#
# Compressibility (1/GPa) = 0.03032246
#
# Stress axis : x y z
#
# Youngs Moduli (GPa) = 75.85181 21.56429 108.55892
#
# Poissons Ratio (x) = 0.33314 -0.02525
# Poissons Ratio (y) = 1.17182 0.43496
# Poissons Ratio (z) = -0.01765 0.08640
#
# Static dielectric constant tensor:
#      x y z
#    x 1.994800 0.000000 0.032520 
#    y 0.000000 1.945030 0.000000 
#    z 0.032520 0.000000 1.986910 
# 
# From -- ./inp_files/65905.got.cif
#   From: 2010.05.17/outbox.cif.g08.bks.cpg/sg14_33_cif.got.tgz:65905.got - 2010.06.03 17:49:19.
