data_PCOD9243497
_publ_section_title
;
Structure prediction by ZEFSAII (Michael W. Deem and Ramdas Pophale) SiO2 
 PCOD9243497
Probable space group: P 21/C
;
_chemical_formula_sum "Si O2"
_cell_formula_units_Z 28
_cell_length_a 12.088688
_cell_length_b 18.173048
_cell_length_c 18.463057
_cell_angle_alpha 90.000000
_cell_angle_beta 160.259054
_cell_angle_gamma 90.000000
_cell_volume 1370.026725
_symmetry_space_group_name_H-M "P 21/C"
_symmetry_group_IT_number 14
_symmetry_cell_setting 'monoclinic'
loop_
_space_group_symop_operation_xyz
x,y,z
-x,1/2+y,1/2-z
-x,-y,-z
x,1/2-y,1/2+z
loop_
_atom_site_type_symbol
_atom_site_label
_atom_site_fract_x
_atom_site_fract_y
_atom_site_fract_z
Si Si1 0.694979 0.221880 0.427788
Si Si2 0.196294 0.344377 0.141757
Si Si3 0.260419 0.155518 0.280861
Si Si4 0.258199 0.033699 0.556585
Si Si5 0.514367 0.430261 0.064085
Si Si6 0.128075 0.997063 0.980350
Si Si7 0.575044 0.961909 0.123196
O O1 0.382989 0.274158 0.224106
O O2 0.560340 0.172551 0.410999
O O3 0.835202 0.174480 0.447857
O O4 0.003701 0.277365 0.629928
O O5 0.208099 0.403247 0.085102
O O6 0.408964 0.375561 0.342396
O O7 0.416143 0.137533 0.454534
O O8 0.058815 0.082251 0.131713
O O9 0.276382 0.060676 0.485353
O O10 0.603574 0.997602 0.791546
O O11 0.947869 0.982096 0.371061
O O12 0.874184 0.436339 0.319748
O O13 0.500000 0.500000 0.000000
O O14 0.323823 0.996087 0.025463
O O15 0.500000 0.000000 0.000000
#
# Coordination Sequence:
#
# PCOD9243497 Si02
#       7
#     4   4   4   4   4   4   4
#     4  10  21  39  66  83 125 169 213 243 307 374
#     4  10  22  40  63  91 119 168 213 253 310 373
#     4  10  20  39  62  88 119 166 209 249 297 371
#     4  11  22  40  62  90 128 159 205 267 314 371
#     4  10  22  37  62  91 124 157 203 259 312 363
#     4  10  20  38  57  94 121 157 204 255 316 362
#     4  11  22  37  65  93 127 159 206 267 319 372
#
# _framework density 20.437557999999999
#
# number of rings (size 3 to 8) (size 9 to 14) (size 15 to 20)
#    0.000    1.714    2.857    3.857    6.000    0.000 
#    2.571    1.429    0.000    0.000    0.000    0.000 
#    0.000    0.000    0.000    0.000    0.000    0.000 
#
# Total GULP energy -156091.704774 kJ/mol
# GULP energy per Si atom -5574.703742 kJ/mol
# Density = 2.039104 g / cm^3
# Si number density = 20.437558 Si / 1000 Ang^3
#
#
#
# Elastic Constant Matrix: (Units=GPa)
#
#
# Indices 1 2 3 4 5 6 
#
# 1 155.3951 25.8765 31.7655 0.0000 16.8829 0.0000
# 2 25.8765 37.0551 22.0030 0.0000 1.2491 0.0000
# 3 31.7655 22.0030 74.5781 0.0000 14.0640 0.0000
# 4 0.0000 0.0000 0.0000 22.6579 0.0000 13.7162
# 5 16.8829 1.2491 14.0640 0.0000 40.4718 0.0000
# 6 0.0000 0.0000 0.0000 13.7162 0.0000 36.3522
#
#
#
# Elastic Compliance Matrix: (Units=1/GPa)
#
#
# Indices 1 2 3 4 5 6 
#
# 1 0.007763 -0.004436 -0.001512 0.000000 -0.002576 0.000000
# 2 -0.004436 0.035494 -0.009337 0.000000 0.004000 0.000000
# 3 -0.001512 -0.009337 0.017801 0.000000 -0.005267 0.000000
# 4 0.000000 0.000000 0.000000 0.057200 0.000000 -0.021582
# 5 -0.002576 0.004000 -0.005267 0.000000 0.027490 0.000000
# 6 0.000000 0.000000 0.000000 -0.021582 0.000000 0.035652
#
#
# Mechanical properties :
#
#
# Convention : Reuss Voigt Hill
#
# Bulk Modulus (GPa) = 32.79993 47.36869 40.08431
# Shear Modulus (GPa) = 22.50919 32.38860 27.44889
#
# Velocity S-wave (km/s) = 3.32228 3.98522 3.66876
# Velocity P-wave (km/s) = 5.54981 6.66360 6.13205
#
# Compressibility (1/GPa) = 0.03048787
#
# Stress axis : x y z
#
# Youngs Moduli (GPa) = 128.81811 28.17373 56.17818
#
# Poissons Ratio (x) = 0.12499 0.08493
# Poissons Ratio (y) = 0.57150 0.52451
# Poissons Ratio (z) = 0.19475 0.26304
#
# Static dielectric constant tensor:
#      x y z
#    x 1.741100 0.000000 0.010480 
#    y 0.000000 1.793090 0.000000 
#    z 0.010480 0.000000 1.771600 
# 
# From -- ./inp_files/58177.got.cif
#   From: 2010.05.17/outbox.cif.g08.bks.cpg/sg14_30_cif.got.tgz:58177.got - 2010.06.03 17:49:19.
