data_PCOD9243958
_publ_section_title
;
Structure prediction by ZEFSAII (Michael W. Deem and Ramdas Pophale) SiO2 
 PCOD9243958
Probable space group: P 21/C
;
_chemical_formula_sum "Si O2"
_cell_formula_units_Z 24
_cell_length_a 24.550651
_cell_length_b 5.109008
_cell_length_c 11.045130
_cell_angle_alpha 90.000000
_cell_angle_beta 39.553606
_cell_angle_gamma 90.000000
_cell_volume 882.212885
_symmetry_space_group_name_H-M "P 21/C"
_symmetry_group_IT_number 14
_symmetry_cell_setting 'monoclinic'
loop_
_space_group_symop_operation_xyz
x,y,z
-x,1/2+y,1/2-z
-x,-y,-z
x,1/2-y,1/2+z
loop_
_atom_site_type_symbol
_atom_site_label
_atom_site_fract_x
_atom_site_fract_y
_atom_site_fract_z
Si Si1 0.315192 0.772174 0.187470
Si Si2 0.820715 0.552543 0.429237
Si Si3 0.501381 0.750697 0.911002
Si Si4 0.679285 0.947456 0.570762
Si Si5 0.815192 0.227827 0.687470
Si Si6 0.998619 0.749303 0.088998
O O1 0.218298 0.608327 0.391559
O O2 0.250000 0.005169 0.250000
O O3 0.334766 0.846698 0.295800
O O4 0.415969 0.749096 0.976971
O O5 0.750000 0.749999 0.500000
O O6 0.834766 0.346696 0.295800
O O7 0.907007 0.712901 0.310958
O O8 0.592993 0.787098 0.689042
O O9 0.500000 0.500000 0.000000
O O10 0.500000 0.000000 0.000000
O O11 0.718298 0.108327 0.391559
O O12 0.915969 0.250904 0.476971
O O13 0.000000 0.500000 0.000000
O O14 0.000000 0.000000 0.000000
#
# Coordination Sequence:
#
# PCOD9243958 Si02
#       6
#     4   4   4   4   4   4
#     4  10  22  40  60  93 126 163 215 268 315 383
#     4  10  20  39  63  85 125 168 206 258 324 382
#     4  10  20  39  63  88 124 167 204 256 324 379
#     4  10  20  39  63  85 125 168 206 258 324 382
#     4  10  22  40  60  93 126 163 215 268 315 383
#     4  10  20  39  63  88 124 167 204 256 324 379
#
# _framework density 27.204319000000002
#
# number of rings (size 3 to 8) (size 9 to 14) (size 15 to 20)
#    0.000    2.000    3.333    0.000    0.000    1.333 
#    6.000    0.000    0.000    0.000    0.000    0.000 
#    0.000    0.000    0.000    0.000    0.000    0.000 
#
# Total GULP energy -133633.445698 kJ/mol
# GULP energy per Si atom -5568.060237 kJ/mol
# Density = 2.714240 g / cm^3
# Si number density = 27.204319 Si / 1000 Ang^3
#
#
#
# Elastic Constant Matrix: (Units=GPa)
#
#
# Indices 1 2 3 4 5 6 
#
# 1 204.8258 51.0810 122.8915 0.0000 -57.0772 0.0000
# 2 51.0810 147.0997 49.9869 0.0000 -14.4701 0.0000
# 3 122.8915 49.9869 229.0307 0.0000 -67.5930 0.0000
# 4 0.0000 0.0000 0.0000 51.7510 0.0000 6.7258
# 5 -57.0772 -14.4701 -67.5930 0.0000 97.7604 0.0000
# 6 0.0000 0.0000 0.0000 6.7258 0.0000 45.9311
#
#
#
# Elastic Compliance Matrix: (Units=1/GPa)
#
#
# Indices 1 2 3 4 5 6 
#
# 1 0.007754 -0.001385 -0.003245 0.000000 0.002079 0.000000
# 2 -0.001385 0.007590 -0.001031 0.000000 -0.000398 0.000000
# 3 -0.003245 -0.001031 0.007197 0.000000 0.002929 0.000000
# 4 0.000000 0.000000 0.000000 0.019698 0.000000 -0.002884
# 5 0.002079 -0.000398 0.002929 0.000000 0.013409 0.000000
# 6 0.000000 0.000000 0.000000 -0.002884 0.000000 0.022194
#
#
# Mechanical properties :
#
#
# Convention : Reuss Voigt Hill
#
# Bulk Modulus (GPa) = 89.13445 114.31943 101.72694
# Shear Modulus (GPa) = 53.81987 62.88831 58.35409
#
# Velocity S-wave (km/s) = 4.45270 4.81323 4.63647
# Velocity P-wave (km/s) = 7.69879 8.54420 8.13249
#
# Compressibility (1/GPa) = 0.01121901
#
# Stress axis : x y z
#
# Youngs Moduli (GPa) = 128.97264 131.74701 138.95623
#
# Poissons Ratio (x) = 0.18253 0.45085
# Poissons Ratio (y) = 0.17868 0.14322
# Poissons Ratio (z) = 0.41846 0.13579
#
# Static dielectric constant tensor:
#      x y z
#    x 2.039290 0.000000 -0.005020 
#    y 0.000000 2.050840 0.000000 
#    z -0.005020 0.000000 2.314540 
# 
# From -- ./inp_files/45801.got.cif
#   From: 2010.05.17/outbox.cif.g08.bks.cpg/sg14_23_cif.got.tgz:45801.got - 2010.06.03 17:49:19.
