data_PCOD9243530
_publ_section_title
;
Structure prediction by ZEFSAII (Michael W. Deem and Ramdas Pophale) SiO2 
 PCOD9243530
Probable space group: P 21/C
;
_chemical_formula_sum "Si O2"
_cell_formula_units_Z 12
_cell_length_a 9.959145
_cell_length_b 14.726635
_cell_length_c 4.911843
_cell_angle_alpha 90.000000
_cell_angle_beta 55.487974
_cell_angle_gamma 90.000000
_cell_volume 593.609861
_symmetry_space_group_name_H-M "P 21/C"
_symmetry_group_IT_number 14
_symmetry_cell_setting 'monoclinic'
loop_
_space_group_symop_operation_xyz
x,y,z
-x,1/2+y,1/2-z
-x,-y,-z
x,1/2-y,1/2+z
loop_
_atom_site_type_symbol
_atom_site_label
_atom_site_fract_x
_atom_site_fract_y
_atom_site_fract_z
Si Si1 0.182303 0.505032 0.182937
Si Si2 0.351851 0.690190 0.952358
Si Si3 0.633782 0.937523 0.998645
O O1 0.300918 0.480740 0.298431
O O2 0.000000 0.500000 0.500000
O O3 0.779023 0.562911 0.111538
O O4 0.229701 0.606921 0.036360
O O5 0.327980 0.775879 0.785150
O O6 0.534006 0.652646 0.686473
O O7 0.500000 0.000000 0.000000
#
# Coordination Sequence:
#
# PCOD9243530 Si02
#       3
#     4   4   4
#     4  11  22  39  61  86 118 156 190 232 293 356
#     4  11  21  37  59  86 114 150 196 246 283 327
#     4  10  20  38  60  82 110 154 197 226 276 355
#
# _framework density 20.215297
#
# number of rings (size 3 to 8) (size 9 to 14) (size 15 to 20)
#    0.000    1.333    0.000   11.000    0.000    0.000 
#    0.000   10.000    0.000    0.000    0.000    0.000 
#    0.000    0.000    0.000    0.000    0.000    0.000 
#
# Total GULP energy -67004.087035 kJ/mol
# GULP energy per Si atom -5583.673920 kJ/mol
# Density = 2.016929 g / cm^3
# Si number density = 20.215297 Si / 1000 Ang^3
#
#
#
# Elastic Constant Matrix: (Units=GPa)
#
#
# Indices 1 2 3 4 5 6 
#
# 1 37.9889 10.8016 8.2595 0.0000 3.3929 0.0000
# 2 10.8016 54.9285 15.4773 0.0000 -14.6352 0.0000
# 3 8.2595 15.4773 126.3276 0.0000 -18.1037 0.0000
# 4 0.0000 0.0000 0.0000 44.1810 0.0000 7.3972
# 5 3.3929 -14.6352 -18.1037 0.0000 47.3664 0.0000
# 6 0.0000 0.0000 0.0000 7.3972 0.0000 19.0107
#
#
#
# Elastic Compliance Matrix: (Units=1/GPa)
#
#
# Indices 1 2 3 4 5 6 
#
# 1 0.028973 -0.006461 -0.001784 0.000000 -0.004754 0.000000
# 2 -0.006461 0.021607 -0.001271 0.000000 0.006653 0.000000
# 3 -0.001784 -0.001271 0.008623 0.000000 0.003031 0.000000
# 4 0.000000 0.000000 0.000000 0.024212 0.000000 -0.009421
# 5 -0.004754 0.006653 0.003031 0.000000 0.024666 0.000000
# 6 0.000000 0.000000 0.000000 -0.009421 0.000000 0.056268
#
#
# Mechanical properties :
#
#
# Convention : Reuss Voigt Hill
#
# Bulk Modulus (GPa) = 24.89460 32.03577 28.46518
# Shear Modulus (GPa) = 25.41019 34.42540 29.91780
#
# Velocity S-wave (km/s) = 3.54924 4.13114 3.85120
# Velocity P-wave (km/s) = 5.39792 6.21585 5.82127
#
# Compressibility (1/GPa) = 0.04016936
#
# Stress axis : x y z
#
# Youngs Moduli (GPa) = 34.51476 46.28133 115.97394
#
# Poissons Ratio (x) = 0.29904 0.20689
# Poissons Ratio (y) = 0.22302 0.14744
# Poissons Ratio (z) = 0.06157 0.05884
#
# Static dielectric constant tensor:
#      x y z
#    x 1.711950 0.000000 -0.015290 
#    y 0.000000 1.734510 0.000000 
#    z -0.015290 0.000000 1.767630 
# 
# From -- ./inp_files/116.got.cif
#   From: 2010.05.17/outbox.cif.g08.bks.cpg/sg14_1_cif.got.tgz:116.got - 2010.06.03 17:49:19.
