data_PCOD9243125
_publ_section_title
;
Structure prediction by ZEFSAII (Michael W. Deem and Ramdas Pophale) SiO2 
 PCOD9243125
Probable space group: P 21/C
;
_chemical_formula_sum "Si O2"
_cell_formula_units_Z 30
_cell_length_a 19.091948
_cell_length_b 11.956900
_cell_length_c 22.622477
_cell_angle_alpha 90.000000
_cell_angle_beta 163.919482
_cell_angle_gamma 90.000000
_cell_volume 1430.440733
_symmetry_space_group_name_H-M "P 21/C"
_symmetry_group_IT_number 14
_symmetry_cell_setting 'monoclinic'
loop_
_space_group_symop_operation_xyz
x,y,z
-x,1/2+y,1/2-z
-x,-y,-z
x,1/2-y,1/2+z
loop_
_atom_site_type_symbol
_atom_site_label
_atom_site_fract_x
_atom_site_fract_y
_atom_site_fract_z
Si Si1 0.311814 0.900333 0.722280
Si Si2 0.628994 0.590766 0.042165
Si Si3 0.041588 0.054359 0.667180
Si Si4 0.500000 0.500000 0.500000
Si Si5 0.082590 0.695275 0.597972
Si Si6 0.418382 0.132250 0.360354
Si Si7 0.836334 0.202530 0.208490
Si Si8 0.147741 0.213081 0.850564
O O1 0.181736 0.958718 0.560424
O O2 0.125060 0.798432 0.587932
O O3 0.352777 0.969542 0.815703
O O4 0.583215 0.849305 0.923216
O O5 0.633808 0.462433 0.025869
O O6 0.334831 0.622885 0.794802
O O7 0.676345 0.607636 0.149916
O O8 0.799690 0.675180 0.144441
O O9 0.981928 0.126695 0.676543
O O10 0.167836 0.931545 0.783550
O O11 0.299531 0.105054 0.849417
O O12 0.824877 0.630811 0.377785
O O13 0.088397 0.743782 0.668439
O O14 0.562044 0.249427 0.470427
O O15 0.023467 0.243570 0.309653
#
# Coordination Sequence:
#
# PCOD9243125 Si02
#       8
#     4   4   4   2   4   4   4   4
#     4  10  21  39  64  92 125 162 207 260 318 375
#     4   9  20  41  63  90 119 162 210 255 305 367
#     4  11  23  39  66  92 127 164 208 262 320 377
#     4  10  20  36  64  96 120 154 198 262 318 364
#     4  10  20  37  63  96 122 155 213 261 311 372
#     4  10  21  38  68  90 121 161 206 265 308 352
#     4  11  25  39  58  96 127 163 211 252 313 381
#     4  10  24  42  59  86 130 167 209 250 312 379
#
# _framework density 20.972557999999999
#
# number of rings (size 3 to 8) (size 9 to 14) (size 15 to 20)
#    0.000    1.867    1.333    1.600    5.600    2.133 
#    0.000    0.000    0.000    0.000    0.000    0.000 
#    0.000    0.000    0.000    0.000    0.000    0.000 
#
# Total GULP energy -167026.963953 kJ/mol
# GULP energy per Si atom -5567.565465 kJ/mol
# Density = 2.092482 g / cm^3
# Si number density = 20.972558 Si / 1000 Ang^3
#
#
#
# Elastic Constant Matrix: (Units=GPa)
#
#
# Indices 1 2 3 4 5 6 
#
# 1 51.0980 15.1407 8.8268 0.0000 5.3066 0.0000
# 2 15.1407 83.6665 1.1099 0.0000 -6.1957 0.0000
# 3 8.8268 1.1099 59.9956 0.0000 -23.3452 0.0000
# 4 0.0000 0.0000 0.0000 16.3355 0.0000 -20.9632
# 5 5.3066 -6.1957 -23.3452 0.0000 22.0480 0.0000
# 6 0.0000 0.0000 0.0000 -20.9632 0.0000 -20.7490
#
#
#
# Elastic Compliance Matrix: (Units=1/GPa)
#
#
# Indices 1 2 3 4 5 6 
#
# 1 0.025306 -0.005887 -0.011272 0.000000 -0.019680 0.000000
# 2 -0.005887 0.013703 0.004528 0.000000 0.010062 0.000000
# 3 -0.011272 0.004528 0.033663 0.000000 0.039628 0.000000
# 4 0.000000 0.000000 0.000000 0.026656 0.000000 -0.026931
# 5 -0.019680 0.010062 0.039628 0.000000 0.094880 0.000000
# 6 0.000000 0.000000 0.000000 -0.026931 0.000000 -0.020986
#
#
# Mechanical properties :
#
#
# Convention : Reuss Voigt Hill
#
# Bulk Modulus (GPa) = 21.09352 27.21277 24.15315
# Shear Modulus (GPa) = 23.33329 14.83908 19.08619
#
# Velocity S-wave (km/s) = 3.33913 2.66286 3.01999
# Velocity P-wave (km/s) = 4.99459 4.73899 4.86847
#
# Compressibility (1/GPa) = 0.04740792
#
# Stress axis : x y z
#
# Youngs Moduli (GPa) = 39.51679 72.97854 29.70663
#
# Poissons Ratio (x) = 0.42965 0.33486
# Poissons Ratio (y) = 0.23265 -0.13451
# Poissons Ratio (z) = 0.44544 -0.33044
#
# Static dielectric constant tensor:
#      x y z
#    x 1.648290 0.000000 -0.085920 
#    y 0.000000 1.769530 0.000000 
#    z -0.085920 0.000000 1.664540 
# 
# From -- ./inp_files/69335.got.cif
#   From: 2010.05.17/outbox.cif.g08.bks.cpg/sg14_35_cif.got.tgz:69335.got - 2010.06.03 17:49:19.
