data_PCOD9243406
_publ_section_title
;
Structure prediction by ZEFSAII (Michael W. Deem and Ramdas Pophale) SiO2 
 PCOD9243406
Probable space group: P 21/C
;
_chemical_formula_sum "Si O2"
_cell_formula_units_Z 32
_cell_length_a 24.247634
_cell_length_b 5.452284
_cell_length_c 27.009342
_cell_angle_alpha 90.000000
_cell_angle_beta 24.184843
_cell_angle_gamma 90.000000
_cell_volume 1462.879102
_symmetry_space_group_name_H-M "P 21/C"
_symmetry_group_IT_number 14
_symmetry_cell_setting 'monoclinic'
loop_
_space_group_symop_operation_xyz
x,y,z
-x,1/2+y,1/2-z
-x,-y,-z
x,1/2-y,1/2+z
loop_
_atom_site_type_symbol
_atom_site_label
_atom_site_fract_x
_atom_site_fract_y
_atom_site_fract_z
Si Si1 0.393186 0.721808 0.189461
Si Si2 0.844837 0.946004 0.402276
Si Si3 0.584519 0.246970 0.434579
Si Si4 0.840762 0.940520 0.986404
Si Si5 0.066564 0.285132 0.272031
Si Si6 0.325298 0.494370 0.549003
Si Si7 0.365738 0.707276 0.408117
Si Si8 0.345543 0.287306 0.788067
O O1 0.330063 0.733470 0.185924
O O2 0.373431 0.455448 0.231017
O O3 0.339095 0.954715 0.264764
O O4 0.551477 0.798782 0.053116
O O5 0.874579 0.701547 0.408058
O O6 0.866584 0.942772 0.326372
O O7 0.691949 0.019300 0.539537
O O8 0.948171 0.138886 0.340742
O O9 0.500000 0.500000 0.500000
O O10 0.641923 0.275413 0.442625
O O11 0.500000 0.000000 0.500000
O O12 0.979596 0.078742 0.884671
O O13 0.709994 0.101605 0.077895
O O14 0.788547 0.761957 0.071219
O O15 0.190567 0.113524 0.183722
O O16 0.311922 0.576067 0.502825
O O17 0.525054 0.691193 0.281407
#
# Coordination Sequence:
#
# PCOD9243406 Si02
#       8
#     4   4   4   4   4   4   4   4
#     4  10  22  42  61  91 123 152 200 260 310 371
#     4  11  20  36  53  79 121 158 196 254 298 346
#     4  10  20  38  65  96 125 149 193 262 334 373
#     4  11  25  36  55  82 120 170 201 248 297 366
#     4  11  20  36  55  83 121 156 206 248 309 364
#     4  10  20  37  63  94 116 156 196 256 322 376
#     4  10  22  34  57  84 121 151 205 250 300 363
#     4  11  25  39  61  85 121 169 206 241 304 370
#
# _framework density 21.874670999999999
#
# number of rings (size 3 to 8) (size 9 to 14) (size 15 to 20)
#    0.000    1.500    2.500    3.750    7.000    1.000 
#    0.000    0.000    0.000    1.500    0.000    0.000 
#    0.000    0.000    0.000    0.000    0.000    0.000 
#
# Total GULP energy -178474.104509 kJ/mol
# GULP energy per Si atom -5577.315766 kJ/mol
# Density = 2.182488 g / cm^3
# Si number density = 21.874671 Si / 1000 Ang^3
#
#
#
# Elastic Constant Matrix: (Units=GPa)
#
#
# Indices 1 2 3 4 5 6 
#
# 1 43.0778 12.6977 11.5870 0.0000 12.2994 0.0000
# 2 12.6977 85.4558 20.5849 0.0000 5.0271 0.0000
# 3 11.5870 20.5849 90.1005 0.0000 12.6598 0.0000
# 4 0.0000 0.0000 0.0000 42.3758 0.0000 7.9387
# 5 12.2994 5.0271 12.6598 0.0000 9.0242 0.0000
# 6 0.0000 0.0000 0.0000 7.9387 0.0000 24.9297
#
#
#
# Elastic Compliance Matrix: (Units=1/GPa)
#
#
# Indices 1 2 3 4 5 6 
#
# 1 0.039565 -0.003410 0.003738 0.000000 -0.057268 0.000000
# 2 -0.003410 0.012775 -0.002657 0.000000 0.001259 0.000000
# 3 0.003738 -0.002657 0.014613 0.000000 -0.024115 0.000000
# 4 0.000000 0.000000 0.000000 0.025096 0.000000 -0.007991
# 5 -0.057268 0.001259 -0.024115 0.000000 0.221995 0.000000
# 6 0.000000 0.000000 0.000000 -0.007991 0.000000 0.042658
#
#
# Mechanical properties :
#
#
# Convention : Reuss Voigt Hill
#
# Bulk Modulus (GPa) = 16.05299 34.26370 25.15834
# Shear Modulus (GPa) = 13.08473 26.85023 19.96748
#
# Velocity S-wave (km/s) = 2.44840 3.50731 3.02456
# Velocity P-wave (km/s) = 3.91758 5.66562 4.87066
#
# Compressibility (1/GPa) = 0.06229371
#
# Stress axis : x y z
#
# Youngs Moduli (GPa) = 25.27509 78.28024 68.43049
#
# Poissons Ratio (x) = 0.26696 -0.25577
# Poissons Ratio (y) = 0.08619 0.18181
# Poissons Ratio (z) = -0.09447 0.20798
#
# Static dielectric constant tensor:
#      x y z
#    x 1.755570 0.000000 -0.044290 
#    y 0.000000 1.548810 0.000000 
#    z -0.044290 0.000000 1.810430 
# 
# From -- ./inp_files/80751.got.cif
#   From: 2010.05.17/outbox.cif.g08.bks.cpg/sg14_41_cif.got.tgz:80751.got - 2010.06.03 17:49:19.
