data_PCOD9243873
_publ_section_title
;
Structure prediction by ZEFSAII (Michael W. Deem and Ramdas Pophale) SiO2 
 PCOD9243873
Probable space group: P 21/C
;
_chemical_formula_sum "Si O2"
_cell_formula_units_Z 24
_cell_length_a 8.200209
_cell_length_b 9.128213
_cell_length_c 14.003232
_cell_angle_alpha 90.000000
_cell_angle_beta 100.219503
_cell_angle_gamma 90.000000
_cell_volume 1031.558279
_symmetry_space_group_name_H-M "P 21/C"
_symmetry_group_IT_number 14
_symmetry_cell_setting 'monoclinic'
loop_
_space_group_symop_operation_xyz
x,y,z
-x,1/2+y,1/2-z
-x,-y,-z
x,1/2-y,1/2+z
loop_
_atom_site_type_symbol
_atom_site_label
_atom_site_fract_x
_atom_site_fract_y
_atom_site_fract_z
Si Si1 0.450862 0.126625 0.568386
Si Si2 0.841260 0.068669 0.428238
Si Si3 0.894124 0.900665 0.808338
Si Si4 0.251802 0.709452 0.415779
Si Si5 0.015583 0.292670 0.324717
Si Si6 0.741307 0.598221 0.497856
O O1 0.613849 0.199728 0.632630
O O2 0.377128 0.264115 0.503837
O O3 0.500000 0.000000 0.500000
O O4 0.296700 0.054318 0.608631
O O5 0.771074 0.188621 0.494292
O O6 0.897123 0.159628 0.342282
O O7 0.000000 0.000000 0.500000
O O8 0.840404 0.784629 0.722372
O O9 0.780589 0.917555 0.889497
O O10 0.069601 0.824680 0.856155
O O11 0.931412 0.062965 0.772755
O O12 0.313707 0.550401 0.456993
O O13 0.089624 0.354757 0.431414
#
# Coordination Sequence:
#
# PCOD9243873 Si02
#       6
#     4   4   4   4   4   4
#     4  10  22  33  65  91 118 166 205 247 319 370
#     4  11  19  37  63  91 120 156 207 257 301 370
#     4  11  23  37  66  92 122 161 212 259 311 367
#     4  10  20  39  59  89 124 162 199 249 318 372
#     4  11  23  37  65  96 121 159 212 262 306 361
#     4  11  20  43  63  89 126 164 209 260 310 369
#
# _framework density 23.265772999999999
#
# number of rings (size 3 to 8) (size 9 to 14) (size 15 to 20)
#    0.000    1.333    5.000    1.500    4.667    0.000 
#    0.000    0.000   11.000    0.000    0.000    0.000 
#    0.000    0.000    0.000    0.000    0.000    0.000 
#
# Total GULP energy -133925.169720 kJ/mol
# GULP energy per Si atom -5580.215405 kJ/mol
# Density = 2.321282 g / cm^3
# Si number density = 23.265773 Si / 1000 Ang^3
#
#
#
# Elastic Constant Matrix: (Units=GPa)
#
#
# Indices 1 2 3 4 5 6 
#
# 1 78.1438 40.1065 -4.6981 0.0000 5.5154 0.0000
# 2 40.1065 164.3958 16.2052 0.0000 -9.2624 0.0000
# 3 -4.6981 16.2052 40.1625 0.0000 -14.8070 0.0000
# 4 0.0000 0.0000 0.0000 32.6020 0.0000 -6.8051
# 5 5.5154 -9.2624 -14.8070 0.0000 21.5597 0.0000
# 6 0.0000 0.0000 0.0000 -6.8051 0.0000 62.7660
#
#
#
# Elastic Compliance Matrix: (Units=1/GPa)
#
#
# Indices 1 2 3 4 5 6 
#
# 1 0.015369 -0.004182 0.001839 0.000000 -0.004466 0.000000
# 2 -0.004182 0.007500 -0.002588 0.000000 0.002514 0.000000
# 3 0.001839 -0.002588 0.034246 0.000000 0.021938 0.000000
# 4 0.000000 0.000000 0.000000 0.031383 0.000000 0.003403
# 5 -0.004466 0.002514 0.021938 0.000000 0.063672 0.000000
# 6 0.000000 0.000000 0.000000 0.003403 0.000000 0.016301
#
#
# Mechanical properties :
#
#
# Convention : Reuss Voigt Hill
#
# Bulk Modulus (GPa) = 21.16312 42.88103 32.02208
# Shear Modulus (GPa) = 25.76177 38.79145 32.27661
#
# Velocity S-wave (km/s) = 3.33119 4.08771 3.72869
# Velocity P-wave (km/s) = 4.88997 6.38358 5.68603
#
# Compressibility (1/GPa) = 0.04725202
#
# Stress axis : x y z
#
# Youngs Moduli (GPa) = 65.06496 133.33236 29.20024
#
# Poissons Ratio (x) = 0.55765 -0.05370
# Poissons Ratio (y) = 0.27213 0.07558
# Poissons Ratio (z) = -0.11966 0.34513
#
# Static dielectric constant tensor:
#      x y z
#    x 2.049490 0.000000 0.001170 
#    y 0.000000 1.883860 0.000000 
#    z 0.001170 0.000000 1.998710 
# 
# From -- ./inp_files/38932.got.cif
#   From: 2010.05.17/outbox.cif.g08.bks.cpg/sg14_20_cif.got.tgz:38932.got - 2010.06.03 17:49:19.
