data_PCOD9243129
_publ_section_title
;
Structure prediction by ZEFSAII (Michael W. Deem and Ramdas Pophale) SiO2 
 PCOD9243129
Probable space group: P 21/C
;
_chemical_formula_sum "Si O2"
_cell_formula_units_Z 24
_cell_length_a 9.791678
_cell_length_b 18.075154
_cell_length_c 16.339224
_cell_angle_alpha 90.000000
_cell_angle_beta 151.997019
_cell_angle_gamma 90.000000
_cell_volume 1357.757907
_symmetry_space_group_name_H-M "P 21/C"
_symmetry_group_IT_number 14
_symmetry_cell_setting 'monoclinic'
loop_
_space_group_symop_operation_xyz
x,y,z
-x,1/2+y,1/2-z
-x,-y,-z
x,1/2-y,1/2+z
loop_
_atom_site_type_symbol
_atom_site_label
_atom_site_fract_x
_atom_site_fract_y
_atom_site_fract_z
Si Si1 0.142025 0.522750 0.990077
Si Si2 0.214886 0.176921 0.259323
Si Si3 0.731858 0.587644 0.546331
Si Si4 0.224868 0.067241 0.120802
Si Si5 0.893924 0.431983 0.711705
Si Si6 0.087555 0.830686 0.365375
O O1 0.481008 0.534335 0.184993
O O2 0.024577 0.600835 0.893321
O O3 0.000000 0.500000 0.000000
O O4 0.069983 0.463091 0.882513
O O5 0.139409 0.134675 0.134869
O O6 0.564703 0.180312 0.453127
O O7 0.076516 0.126994 0.257758
O O8 0.073241 0.257340 0.190205
O O9 0.721690 0.594092 0.443494
O O10 0.824916 0.503516 0.618575
O O11 0.414262 0.598451 0.418647
O O12 0.957850 0.642369 0.709938
O O13 0.000000 0.000000 0.000000
#
# Coordination Sequence:
#
# PCOD9243129 Si02
#       6
#     4   4   4   4   4   4
#     4  10  21  39  61  90 119 155 199 246 295 353
#     4  11  23  42  60  86 121 161 198 248 300 359
#     4  10  20  38  60  92 118 156 196 244 293 360
#     4  11  22  36  63  93 122 150 202 251 298 350
#     4  10  20  36  65  85 121 157 195 239 301 356
#     4  10  24  39  61  83 123 160 199 242 303 354
#
# _framework density 17.676200000000001
#
# number of rings (size 3 to 8) (size 9 to 14) (size 15 to 20)
#    0.000    1.667    3.333    1.000    2.333    3.333 
#    3.000    1.667    0.000    0.000    0.000    0.000 
#    0.000    0.000    0.000    0.000    0.000    0.000 
#
# Total GULP energy -134011.432856 kJ/mol
# GULP energy per Si atom -5583.809702 kJ/mol
# Density = 1.763597 g / cm^3
# Si number density = 17.676200 Si / 1000 Ang^3
#
#
#
# Elastic Constant Matrix: (Units=GPa)
#
#
# Indices 1 2 3 4 5 6 
#
# 1 111.3039 53.6085 43.4548 0.0000 -14.5200 0.0000
# 2 53.6085 92.0779 47.7470 0.0000 3.5750 0.0000
# 3 43.4548 47.7470 100.2693 0.0000 -12.3272 0.0000
# 4 0.0000 0.0000 0.0000 24.9814 0.0000 9.3264
# 5 -14.5200 3.5750 -12.3272 0.0000 29.8558 0.0000
# 6 0.0000 0.0000 0.0000 9.3264 0.0000 27.4172
#
#
#
# Elastic Compliance Matrix: (Units=1/GPa)
#
#
# Indices 1 2 3 4 5 6 
#
# 1 0.014296 -0.007770 -0.001608 0.000000 0.007219 0.000000
# 2 -0.007770 0.019330 -0.006939 0.000000 -0.008958 0.000000
# 3 -0.001608 -0.006939 0.014728 0.000000 0.006130 0.000000
# 4 0.000000 0.000000 0.000000 0.045853 0.000000 -0.015598
# 5 0.007219 -0.008958 0.006130 0.000000 0.040609 0.000000
# 6 0.000000 0.000000 0.000000 -0.015598 0.000000 0.041779
#
#
# Mechanical properties :
#
#
# Convention : Reuss Voigt Hill
#
# Bulk Modulus (GPa) = 63.61148 65.91910 64.76529
# Shear Modulus (GPa) = 23.31342 27.04026 25.17684
#
# Velocity S-wave (km/s) = 3.63563 3.91545 3.77813
# Velocity P-wave (km/s) = 7.32727 7.60359 7.46671
#
# Compressibility (1/GPa) = 0.01572043
#
# Stress axis : x y z
#
# Youngs Moduli (GPa) = 69.94810 51.73355 67.89831
#
# Poissons Ratio (x) = 0.40195 0.10921
# Poissons Ratio (y) = 0.54347 0.47113
# Poissons Ratio (z) = 0.11251 0.35896
#
# Static dielectric constant tensor:
#      x y z
#    x 1.589160 0.000000 0.003730 
#    y 0.000000 1.581490 0.000000 
#    z 0.003730 0.000000 1.618340 
# 
# From -- ./inp_files/9816.got.cif
#   From: 2010.05.17/outbox.cif.g08.bks.cpg/sg14_5_cif.got.tgz:9816.got - 2010.06.03 17:49:19.
