data_PCOD9243869
_publ_section_title
;
Structure prediction by ZEFSAII (Michael W. Deem and Ramdas Pophale) SiO2 
 PCOD9243869
Probable space group: P 21/C
;
_chemical_formula_sum "Si O2"
_cell_formula_units_Z 28
_cell_length_a 7.515991
_cell_length_b 11.301711
_cell_length_c 14.386061
_cell_angle_alpha 90.000000
_cell_angle_beta 125.873521
_cell_angle_gamma 90.000000
_cell_volume 990.204529
_symmetry_space_group_name_H-M "P 21/C"
_symmetry_group_IT_number 14
_symmetry_cell_setting 'monoclinic'
loop_
_space_group_symop_operation_xyz
x,y,z
-x,1/2+y,1/2-z
-x,-y,-z
x,1/2-y,1/2+z
loop_
_atom_site_type_symbol
_atom_site_label
_atom_site_fract_x
_atom_site_fract_y
_atom_site_fract_z
Si Si1 0.360713 0.078598 0.315747
Si Si2 0.747985 0.191937 0.065400
Si Si3 0.066475 0.052776 0.891815
Si Si4 0.882920 0.615947 0.791183
Si Si5 0.242425 0.430099 0.978752
Si Si6 0.080820 0.762652 0.550296
Si Si7 0.387382 0.620500 0.281457
O O1 0.305338 0.132926 0.400916
O O2 0.429923 0.142691 0.240672
O O3 0.157303 0.000833 0.217456
O O4 0.551146 0.987932 0.407693
O O5 0.992366 0.254276 0.155305
O O6 0.600120 0.179697 0.112174
O O7 0.773346 0.055868 0.044408
O O8 0.714125 0.258656 0.957723
O O9 0.151119 0.124173 0.829803
O O10 0.021766 0.135060 0.964722
O O11 0.080804 0.532789 0.891564
O O12 0.678638 0.519770 0.744545
O O13 0.121069 0.353239 0.020999
O O14 0.179223 0.809179 0.676603
#
# Coordination Sequence:
#
# PCOD9243869 Si02
#       7
#     4   4   4   4   4   4   4
#     4  10  20  39  58  96 130 155 201 274 318 346
#     4  11  21  37  63  89 118 172 211 245 300 383
#     4  10  22  38  58  87 132 158 202 251 311 372
#     4   9  18  37  64  86 116 160 220 247 293 374
#     4   9  20  38  69  92 119 162 214 266 309 356
#     4  11  21  41  64  90 123 168 211 247 301 391
#     4  10  21  38  61  92 124 159 209 265 308 360
#
# _framework density 28.276985
#
# number of rings (size 3 to 8) (size 9 to 14) (size 15 to 20)
#    0.000    2.000    1.429    3.000    0.000    2.286 
#    5.143    0.714    0.000    0.000    0.000    0.000 
#    0.000    0.000    0.000    0.000    0.000    0.000 
#
# Total GULP energy -155992.250981 kJ/mol
# GULP energy per Si atom -5571.151821 kJ/mol
# Density = 2.821263 g / cm^3
# Si number density = 28.276985 Si / 1000 Ang^3
#
#
#
# Elastic Constant Matrix: (Units=GPa)
#
#
# Indices 1 2 3 4 5 6 
#
# 1 114.6411 29.3382 33.9917 0.0000 -48.8655 0.0000
# 2 29.3382 127.2380 23.4703 0.0000 -20.4344 0.0000
# 3 33.9917 23.4703 86.5228 0.0000 -14.6258 0.0000
# 4 0.0000 0.0000 0.0000 25.6167 0.0000 -13.0620
# 5 -48.8655 -20.4344 -14.6258 0.0000 57.2634 0.0000
# 6 0.0000 0.0000 0.0000 -13.0620 0.0000 23.9843
#
#
#
# Elastic Compliance Matrix: (Units=1/GPa)
#
#
# Indices 1 2 3 4 5 6 
#
# 1 0.014945 -0.000923 -0.003680 0.000000 0.011484 0.000000
# 2 -0.000923 0.008683 -0.001675 0.000000 0.001883 0.000000
# 3 -0.003680 -0.001675 0.013404 0.000000 -0.000314 0.000000
# 4 0.000000 0.000000 0.000000 0.054045 0.000000 0.029433
# 5 0.011484 0.001883 -0.000314 0.000000 0.027855 0.000000
# 6 0.000000 0.000000 0.000000 0.029433 0.000000 0.057723
#
#
# Mechanical properties :
#
#
# Convention : Reuss Voigt Hill
#
# Bulk Modulus (GPa) = 40.85182 55.77804 48.31493
# Shear Modulus (GPa) = 25.33301 37.47967 31.40634
#
# Velocity S-wave (km/s) = 2.99639 3.64462 3.33628
# Velocity P-wave (km/s) = 5.14291 6.12204 5.65371
#
# Compressibility (1/GPa) = 0.02447871
#
# Stress axis : x y z
#
# Youngs Moduli (GPa) = 66.91065 115.16162 74.60203
#
# Poissons Ratio (x) = 0.10628 0.27452
# Poissons Ratio (y) = 0.06175 0.12492
# Poissons Ratio (z) = 0.24622 0.19284
#
# Static dielectric constant tensor:
#      x y z
#    x 2.253850 0.000000 -0.031220 
#    y 0.000000 2.282550 0.000000 
#    z -0.031220 0.000000 2.250870 
# 
# From -- ./inp_files/40122.got.cif
#   From: 2010.05.17/outbox.cif.g08.bks.cpg/sg14_21_cif.got.tgz:40122.got - 2010.06.03 17:49:19.
