data_PCOD9243683
_publ_section_title
;
Structure prediction by ZEFSAII (Michael W. Deem and Ramdas Pophale) SiO2 
 PCOD9243683
Probable space group: P 21/C
;
_chemical_formula_sum "Si O2"
_cell_formula_units_Z 28
_cell_length_a 8.335488
_cell_length_b 11.122874
_cell_length_c 15.004210
_cell_angle_alpha 90.000000
_cell_angle_beta 54.903711
_cell_angle_gamma 90.000000
_cell_volume 1138.187298
_symmetry_space_group_name_H-M "P 21/C"
_symmetry_group_IT_number 14
_symmetry_cell_setting 'monoclinic'
loop_
_space_group_symop_operation_xyz
x,y,z
-x,1/2+y,1/2-z
-x,-y,-z
x,1/2-y,1/2+z
loop_
_atom_site_type_symbol
_atom_site_label
_atom_site_fract_x
_atom_site_fract_y
_atom_site_fract_z
Si Si1 0.706093 0.581735 0.695186
Si Si2 0.211102 0.768117 0.369708
Si Si3 0.707258 0.157962 0.975170
Si Si4 0.295922 0.466808 0.872389
Si Si5 0.104534 0.204740 0.287910
Si Si6 0.466424 0.245231 0.891262
Si Si7 0.078845 0.413032 0.603735
O O1 0.508686 0.509756 0.770869
O O2 0.744254 0.683155 0.757934
O O3 0.679564 0.653346 0.611687
O O4 0.890581 0.495782 0.638900
O O5 0.318208 0.696556 0.414756
O O6 0.188934 0.904836 0.412167
O O7 0.346141 0.757986 0.237290
O O8 0.001415 0.709332 0.417619
O O9 0.535101 0.197919 0.964299
O O10 0.898419 0.233459 0.880476
O O11 0.754223 0.016534 0.955953
O O12 0.182484 0.386986 0.837074
O O13 0.362133 0.375045 0.928900
O O14 0.089120 0.132389 0.202054
#
# Coordination Sequence:
#
# PCOD9243683 Si02
#       7
#     4   4   4   4   4   4   4
#     4   9  19  34  63  86 116 159 199 243 303 364
#     4  11  22  37  64  90 125 157 199 256 307 360
#     4  11  23  39  63  92 120 158 209 249 310 366
#     4  10  20  38  63  84 124 157 205 249 305 364
#     4  10  21  35  65  89 114 167 199 244 311 358
#     4  10  20  42  62  86 123 161 199 253 303 362
#     4  11  20  39  61  90 124 158 202 255 303 365
#
# _framework density 24.600518999999998
#
# number of rings (size 3 to 8) (size 9 to 14) (size 15 to 20)
#    0.000    1.714    2.857    2.143    2.000    1.143 
#    0.000    0.714   28.286    0.000    0.000    0.000 
#    0.000    0.000    0.000    0.000    0.000    0.000 
#
# Total GULP energy -156537.023068 kJ/mol
# GULP energy per Si atom -5590.607967 kJ/mol
# Density = 2.454453 g / cm^3
# Si number density = 24.600519 Si / 1000 Ang^3
#
#
#
# Elastic Constant Matrix: (Units=GPa)
#
#
# Indices 1 2 3 4 5 6 
#
# 1 108.2230 50.9182 27.7538 0.0000 28.8884 0.0000
# 2 50.9182 180.7759 29.7287 0.0000 4.0415 0.0000
# 3 27.7538 29.7287 62.8372 0.0000 13.9809 0.0000
# 4 0.0000 0.0000 0.0000 102.1167 0.0000 25.0422
# 5 28.8884 4.0415 13.9809 0.0000 42.1214 0.0000
# 6 0.0000 0.0000 0.0000 25.0422 0.0000 68.3451
#
#
#
# Elastic Compliance Matrix: (Units=1/GPa)
#
#
# Indices 1 2 3 4 5 6 
#
# 1 0.013610 -0.003211 -0.002682 0.000000 -0.008136 0.000000
# 2 -0.003211 0.006762 -0.002296 0.000000 0.002315 0.000000
# 3 -0.002682 -0.002296 0.019140 0.000000 -0.004293 0.000000
# 4 0.000000 0.000000 0.000000 0.010760 0.000000 -0.003942
# 5 -0.008136 0.002315 -0.004293 0.000000 0.030524 0.000000
# 6 0.000000 0.000000 0.000000 -0.003942 0.000000 0.016076
#
#
# Mechanical properties :
#
#
# Convention : Reuss Voigt Hill
#
# Bulk Modulus (GPa) = 43.22515 63.18193 53.20354
# Shear Modulus (GPa) = 41.33542 58.74569 50.04056
#
# Velocity S-wave (km/s) = 4.10355 4.89200 4.51502
# Velocity P-wave (km/s) = 6.32939 7.59262 6.98960
#
# Compressibility (1/GPa) = 0.02313468
#
# Stress axis : x y z
#
# Youngs Moduli (GPa) = 73.47314 147.88823 52.24557
#
# Poissons Ratio (x) = 0.47481 0.14013
# Poissons Ratio (y) = 0.23589 0.11997
# Poissons Ratio (z) = 0.19707 0.33958
#
# Static dielectric constant tensor:
#      x y z
#    x 1.955740 0.000000 -0.113820 
#    y 0.000000 1.982020 0.000000 
#    z -0.113820 0.000000 2.190000 
# 
# From -- ./inp_files/40024.got.cif
#   From: 2010.05.17/outbox.cif.g08.bks.cpg/sg14_21_cif.got.tgz:40024.got - 2010.06.03 17:49:19.
