data_PCOD9243024
_publ_section_title
;
Structure prediction by ZEFSAII (Michael W. Deem and Ramdas Pophale) SiO2 
 PCOD9243024
Probable space group: P 21/C
;
_chemical_formula_sum "Si O2"
_cell_formula_units_Z 32
_cell_length_a 8.958138
_cell_length_b 14.280736
_cell_length_c 25.890969
_cell_angle_alpha 90.000000
_cell_angle_beta 30.414496
_cell_angle_gamma 90.000000
_cell_volume 1676.808115
_symmetry_space_group_name_H-M "P 21/C"
_symmetry_group_IT_number 14
_symmetry_cell_setting 'monoclinic'
loop_
_space_group_symop_operation_xyz
x,y,z
-x,1/2+y,1/2-z
-x,-y,-z
x,1/2-y,1/2+z
loop_
_atom_site_type_symbol
_atom_site_label
_atom_site_fract_x
_atom_site_fract_y
_atom_site_fract_z
Si Si1 0.943317 0.454197 0.837063
Si Si2 0.683380 0.771522 0.754696
Si Si3 0.666027 0.742454 0.373452
Si Si4 0.135541 0.485477 0.553998
Si Si5 0.707848 0.627914 0.959913
Si Si6 0.982830 0.819826 0.066986
Si Si7 0.172537 0.466539 0.658560
Si Si8 0.981159 0.779717 0.954241
O O1 0.901938 0.535403 0.891647
O O2 0.187458 0.377194 0.779692
O O3 0.024890 0.495281 0.756427
O O4 0.625622 0.403423 0.927921
O O5 0.761556 0.727789 0.787421
O O6 0.333255 0.769357 0.852633
O O7 0.821902 0.719980 0.664845
O O8 0.700142 0.817479 0.407807
O O9 0.322960 0.712633 0.471294
O O10 0.832719 0.646894 0.338880
O O11 0.979329 0.567367 0.568395
O O12 0.050769 0.498591 0.639622
O O13 0.485975 0.502290 0.443531
O O14 0.074308 0.380741 0.554544
O O15 0.836690 0.697538 0.964093
O O16 0.865443 0.782105 0.047643
#
# Coordination Sequence:
#
# PCOD9243024 Si02
#       8
#     4   4   4   4   4   4   4   4
#     4  10  23  40  65  89 128 166 207 260 312 370
#     4  10  22  40  61  87 125 167 203 249 310 374
#     4   9  18  38  61  84 120 153 205 256 301 360
#     4  10  20  36  60  88 125 154 203 262 308 360
#     4  11  22  41  64  92 125 163 211 258 308 364
#     4  10  21  38  60  84 120 166 196 246 325 361
#     4   9  19  36  59  94 116 155 205 259 309 360
#     4  11  24  39  60  92 127 158 203 261 305 375
#
# _framework density 19.083877999999999
#
# number of rings (size 3 to 8) (size 9 to 14) (size 15 to 20)
#    0.000    2.000    2.500    1.125    1.750    3.000 
#    2.250    0.625    0.000    0.000    0.000    0.000 
#    0.000    0.000    0.000    0.000    0.000    0.000 
#
# Total GULP energy -178589.688505 kJ/mol
# GULP energy per Si atom -5580.927766 kJ/mol
# Density = 1.904044 g / cm^3
# Si number density = 19.083878 Si / 1000 Ang^3
#
#
#
# Elastic Constant Matrix: (Units=GPa)
#
#
# Indices 1 2 3 4 5 6 
#
# 1 102.6867 57.5468 40.9746 0.0000 30.3183 0.0000
# 2 57.5468 81.6249 31.9773 0.0000 10.4281 0.0000
# 3 40.9746 31.9773 83.1911 0.0000 37.7391 0.0000
# 4 0.0000 0.0000 0.0000 29.4331 0.0000 4.3106
# 5 30.3183 10.4281 37.7391 0.0000 25.3250 0.0000
# 6 0.0000 0.0000 0.0000 4.3106 0.0000 28.0446
#
#
#
# Elastic Compliance Matrix: (Units=1/GPa)
#
#
# Indices 1 2 3 4 5 6 
#
# 1 0.031218 -0.022091 0.018343 0.000000 -0.055612 0.000000
# 2 -0.022091 0.030489 -0.022041 0.000000 0.046737 0.000000
# 3 0.018343 -0.022041 0.053406 0.000000 -0.092469 0.000000
# 4 0.000000 0.000000 0.000000 0.034758 0.000000 -0.005342
# 5 -0.055612 0.046737 -0.092469 0.000000 0.224615 0.000000
# 6 0.000000 0.000000 0.000000 -0.005342 0.000000 0.036479
#
#
# Mechanical properties :
#
#
# Convention : Reuss Voigt Hill
#
# Bulk Modulus (GPa) = 15.73893 58.72223 37.23058
# Shear Modulus (GPa) = 10.33654 25.69415 18.01534
#
# Velocity S-wave (km/s) = 2.32983 3.67329 3.07581
# Velocity P-wave (km/s) = 3.93734 6.98771 5.67145
#
# Compressibility (1/GPa) = 0.06353671
#
# Stress axis : x y z
#
# Youngs Moduli (GPa) = 32.03250 32.79846 18.72445
#
# Poissons Ratio (x) = 0.72454 -0.34347
# Poissons Ratio (y) = 0.70762 0.41271
# Poissons Ratio (z) = -0.58758 0.72291
#
# Static dielectric constant tensor:
#      x y z
#    x 1.655000 0.000000 0.011560 
#    y 0.000000 1.655280 0.000000 
#    z 0.011560 0.000000 1.700930 
# 
# From -- ./inp_files/72478.got.cif
#   From: 2010.05.17/outbox.cif.g08.bks.cpg/sg14_37_cif.got.tgz:72478.got - 2010.06.03 17:49:19.
