data_PCOD9243985
_publ_section_title
;
Structure prediction by ZEFSAII (Michael W. Deem and Ramdas Pophale) SiO2 
 PCOD9243985
Probable space group: P 21/C
;
_chemical_formula_sum "Si O2"
_cell_formula_units_Z 28
_cell_length_a 22.045630
_cell_length_b 10.802775
_cell_length_c 27.275190
_cell_angle_alpha 90.000000
_cell_angle_beta 11.284417
_cell_angle_gamma 90.000000
_cell_volume 1271.073939
_symmetry_space_group_name_H-M "P 21/C"
_symmetry_group_IT_number 14
_symmetry_cell_setting 'monoclinic'
loop_
_space_group_symop_operation_xyz
x,y,z
-x,1/2+y,1/2-z
-x,-y,-z
x,1/2-y,1/2+z
loop_
_atom_site_type_symbol
_atom_site_label
_atom_site_fract_x
_atom_site_fract_y
_atom_site_fract_z
Si Si1 0.160177 0.525600 0.293050
Si Si2 0.727596 0.372969 0.173392
Si Si3 0.628572 0.642248 0.282420
Si Si4 0.740229 0.752593 0.598166
Si Si5 0.859358 0.295925 0.487640
Si Si6 0.355965 0.868178 0.103328
Si Si7 0.444534 0.308813 0.965093
O O1 0.949419 0.627947 0.431536
O O2 0.962296 0.400403 0.445485
O O3 0.500000 0.500000 0.000000
O O4 0.291507 0.584761 0.239553
O O5 0.571436 0.505932 0.304989
O O6 0.877798 0.334089 0.002668
O O7 0.488375 0.268353 0.381115
O O8 0.012086 0.361975 0.986020
O O9 0.586331 0.742841 0.273857
O O10 0.442368 0.667828 0.479508
O O11 0.484674 0.783158 0.760795
O O12 0.988453 0.863181 0.399611
O O13 0.085407 0.331609 0.262854
O O14 0.476479 0.776411 0.049839
O O15 0.500000 0.000000 0.000000
#
# Coordination Sequence:
#
# PCOD9243985 Si02
#       7
#     4   4   4   4   4   4   4
#     4   9  21  44  63  90 128 178 216 258 324 401
#     4  11  21  37  65  98 120 170 222 264 317 390
#     4  11  21  37  65  97 129 164 221 271 318 393
#     4  11  25  41  64 100 129 169 221 271 338 385
#     4  11  25  39  66  91 134 171 213 276 324 376
#     4  11  19  37  66  95 125 164 210 272 319 382
#     4  10  20  39  63  92 126 170 221 253 319 394
#
# _framework density 22.028616
#
# number of rings (size 3 to 8) (size 9 to 14) (size 15 to 20)
#    0.000    1.429    5.714    0.857    2.000    1.714 
#    0.000    0.000    0.000    0.000    0.000    0.000 
#    0.000    0.000    0.000    0.000    0.000    0.000 
#
# Total GULP energy -156001.287028 kJ/mol
# GULP energy per Si atom -5571.474537 kJ/mol
# Density = 2.197848 g / cm^3
# Si number density = 22.028616 Si / 1000 Ang^3
#
#
#
# Elastic Constant Matrix: (Units=GPa)
#
#
# Indices 1 2 3 4 5 6 
#
# 1 64.0049 5.6923 32.5115 0.0000 10.1908 0.0000
# 2 5.6923 53.8157 19.4567 0.0000 -8.6042 0.0000
# 3 32.5115 19.4567 84.8258 0.0000 -8.2827 0.0000
# 4 0.0000 0.0000 0.0000 30.7426 0.0000 6.1300
# 5 10.1908 -8.6042 -8.2827 0.0000 45.8266 0.0000
# 6 0.0000 0.0000 0.0000 6.1300 0.0000 18.8338
#
#
#
# Elastic Compliance Matrix: (Units=1/GPa)
#
#
# Indices 1 2 3 4 5 6 
#
# 1 0.021019 -0.000098 -0.008644 0.000000 -0.006255 0.000000
# 2 -0.000098 0.020681 -0.004403 0.000000 0.003109 0.000000
# 3 -0.008644 -0.004403 0.016510 0.000000 0.004080 0.000000
# 4 0.000000 0.000000 0.000000 0.034786 0.000000 -0.011322
# 5 -0.006255 0.003109 0.004080 0.000000 0.024533 0.000000
# 6 0.000000 0.000000 0.000000 -0.011322 0.000000 0.056781
#
#
# Mechanical properties :
#
#
# Convention : Reuss Voigt Hill
#
# Bulk Modulus (GPa) = 31.32758 35.32969 33.32863
# Shear Modulus (GPa) = 23.66960 28.74633 26.20796
#
# Velocity S-wave (km/s) = 3.28150 3.61633 3.45298
# Velocity P-wave (km/s) = 5.34882 5.78879 5.57315
#
# Compressibility (1/GPa) = 0.03192076
#
# Stress axis : x y z
#
# Youngs Moduli (GPa) = 47.57498 48.35329 60.56838
#
# Poissons Ratio (x) = 0.00474 0.52358
# Poissons Ratio (y) = 0.00466 0.26665
# Poissons Ratio (z) = 0.41126 0.21288
#
# Static dielectric constant tensor:
#      x y z
#    x 1.821170 0.000000 0.046380 
#    y 0.000000 1.918960 0.000000 
#    z 0.046380 0.000000 1.894010 
# 
# From -- ./inp_files/80651.got.cif
#   From: 2010.05.17/outbox.cif.g08.bks.cpg/sg14_41_cif.got.tgz:80651.got - 2010.06.03 17:49:19.
