data_PCOD9243907
_publ_section_title
;
Structure prediction by ZEFSAII (Michael W. Deem and Ramdas Pophale) SiO2 
 PCOD9243907
Probable space group: P 21/C
;
_chemical_formula_sum "Si O2"
_cell_formula_units_Z 24
_cell_length_a 15.028065
_cell_length_b 7.805290
_cell_length_c 14.897971
_cell_angle_alpha 90.000000
_cell_angle_beta 147.102548
_cell_angle_gamma 90.000000
_cell_volume 949.136578
_symmetry_space_group_name_H-M "P 21/C"
_symmetry_group_IT_number 14
_symmetry_cell_setting 'monoclinic'
loop_
_space_group_symop_operation_xyz
x,y,z
-x,1/2+y,1/2-z
-x,-y,-z
x,1/2-y,1/2+z
loop_
_atom_site_type_symbol
_atom_site_label
_atom_site_fract_x
_atom_site_fract_y
_atom_site_fract_z
Si Si1 0.955274 0.296106 0.807601
Si Si2 0.394921 0.654891 0.447048
Si Si3 0.961019 0.695294 0.435968
Si Si4 0.807804 0.919843 0.644876
Si Si5 0.315030 0.705607 0.687498
Si Si6 0.503345 0.402074 0.812526
O O1 0.785380 0.401146 0.670253
O O2 0.048173 0.303220 0.981476
O O3 0.076859 0.340335 0.832035
O O4 0.884553 0.105876 0.730928
O O5 0.500000 0.500000 0.500000
O O6 0.358213 0.775887 0.329399
O O7 0.486434 0.753502 0.604785
O O8 0.123553 0.753228 0.519596
O O9 0.000000 0.500000 0.500000
O O10 0.812944 0.685482 0.241451
O O11 0.630039 0.954294 0.455679
O O12 0.337387 0.510494 0.671150
O O13 0.423900 0.829314 0.717794
#
# Coordination Sequence:
#
# PCOD9243907 Si02
#       6
#     4   4   4   4   4   4
#     4   9  20  36  59  89 120 155 201 253 301 356
#     4  10  21  40  62  90 125 161 202 251 301 361
#     4   9  19  37  60  84 119 157 197 249 301 357
#     4  10  20  39  61  87 119 157 200 249 302 360
#     4  11  23  41  61  91 126 159 203 254 302 360
#     4  11  24  41  63  91 123 161 201 248 302 360
#
# _framework density 25.286138999999999
#
# number of rings (size 3 to 8) (size 9 to 14) (size 15 to 20)
#    0.000    2.000    0.000    4.500    0.000    4.000 
#    0.000   10.833    0.000    0.000    0.000    0.000 
#    0.000    0.000    0.000    0.000    0.000    0.000 
#
# Total GULP energy -134473.038832 kJ/mol
# GULP energy per Si atom -5603.043285 kJ/mol
# Density = 2.522859 g / cm^3
# Si number density = 25.286139 Si / 1000 Ang^3
#
#
#
# Elastic Constant Matrix: (Units=GPa)
#
#
# Indices 1 2 3 4 5 6 
#
# 1 100.0725 2.6693 27.1207 0.0000 -14.7051 0.0000
# 2 2.6693 37.9892 12.2962 0.0000 3.3163 0.0000
# 3 27.1207 12.2962 56.3686 0.0000 -16.0949 0.0000
# 4 0.0000 0.0000 0.0000 7.6753 0.0000 7.4453
# 5 -14.7051 3.3163 -16.0949 0.0000 29.6610 0.0000
# 6 0.0000 0.0000 0.0000 7.4453 0.0000 57.6555
#
#
#
# Elastic Compliance Matrix: (Units=1/GPa)
#
#
# Indices 1 2 3 4 5 6 
#
# 1 0.011760 0.000475 -0.004866 0.000000 0.003137 0.000000
# 2 0.000475 0.029917 -0.009044 0.000000 -0.008017 0.000000
# 3 -0.004866 -0.009044 0.025624 0.000000 0.012503 0.000000
# 4 0.000000 0.000000 0.000000 0.148946 0.000000 -0.019234
# 5 0.003137 -0.008017 0.012503 0.000000 0.042950 0.000000
# 6 0.000000 0.000000 0.000000 -0.019234 0.000000 0.019828
#
#
# Mechanical properties :
#
#
# Convention : Reuss Voigt Hill
#
# Bulk Modulus (GPa) = 24.73308 30.95586 27.84447
# Shear Modulus (GPa) = 15.65574 29.15464 22.40519
#
# Velocity S-wave (km/s) = 2.49096 3.39925 2.97992
# Velocity P-wave (km/s) = 4.25155 5.26074 4.78284
#
# Compressibility (1/GPa) = 0.04043169
#
# Stress axis : x y z
#
# Youngs Moduli (GPa) = 85.03599 33.42593 39.02543
#
# Poissons Ratio (x) = -0.01587 0.18990
# Poissons Ratio (y) = -0.04038 0.35293
# Poissons Ratio (z) = 0.41378 0.30229
#
# Static dielectric constant tensor:
#      x y z
#    x 1.967450 0.000000 0.045510 
#    y 0.000000 2.000800 0.000000 
#    z 0.045510 0.000000 2.066060 
# 
# From -- ./inp_files/46378.got.cif
#   From: 2010.05.17/outbox.cif.g08.bks.cpg/sg14_24_cif.got.tgz:46378.got - 2010.06.03 17:49:19.
