data_PCOD9243123
_publ_section_title
;
Structure prediction by ZEFSAII (Michael W. Deem and Ramdas Pophale) SiO2 
 PCOD9243123
Probable space group: P 21/C
;
_chemical_formula_sum "Si O2"
_cell_formula_units_Z 32
_cell_length_a 15.968433
_cell_length_b 10.794796
_cell_length_c 13.924349
_cell_angle_alpha 90.000000
_cell_angle_beta 35.018349
_cell_angle_gamma 90.000000
_cell_volume 1377.341092
_symmetry_space_group_name_H-M "P 21/C"
_symmetry_group_IT_number 14
_symmetry_cell_setting 'monoclinic'
loop_
_space_group_symop_operation_xyz
x,y,z
-x,1/2+y,1/2-z
-x,-y,-z
x,1/2-y,1/2+z
loop_
_atom_site_type_symbol
_atom_site_label
_atom_site_fract_x
_atom_site_fract_y
_atom_site_fract_z
Si Si1 0.723714 0.384363 0.451511
Si Si2 0.146722 0.108815 0.077735
Si Si3 0.385230 0.452861 0.794519
Si Si4 0.353225 0.317893 0.234430
Si Si5 0.669558 0.383760 0.973384
Si Si6 0.174606 0.974385 0.331704
Si Si7 0.846895 0.765249 0.732232
Si Si8 0.058282 0.870797 0.905618
O O1 0.850415 0.471741 0.378001
O O2 0.562160 0.449751 0.609631
O O3 0.708439 0.242023 0.498389
O O4 0.775773 0.373748 0.291889
O O5 0.148760 0.212791 0.158848
O O6 0.024176 0.150249 0.118220
O O7 0.284630 0.094797 0.878666
O O8 0.342039 0.313958 0.801807
O O9 0.349710 0.501781 0.934875
O O10 0.275867 0.534337 0.830114
O O11 0.517818 0.351471 0.066717
O O12 0.264731 0.322997 0.218708
O O13 0.780801 0.395486 0.781881
O O14 0.218487 0.103624 0.240474
O O15 0.000000 0.000000 0.500000
O O16 0.002511 0.729781 0.536735
O O17 0.000000 0.000000 0.000000
#
# Coordination Sequence:
#
# PCOD9243123 Si02
#       8
#     4   4   4   4   4   4   4   4
#     4  10  21  40  62  93 133 168 224 285 325 399
#     4  10  21  43  69  92 132 177 228 267 344 401
#     4  10  21  37  64  94 128 175 223 281 334 393
#     4   9  20  42  65  95 130 170 233 279 326 401
#     4  11  23  41  63  97 137 172 226 275 342 398
#     4  10  20  36  64  94 123 168 233 279 333 385
#     4   9  21  41  66  90 127 183 220 277 334 394
#     4  11  26  44  62 100 143 175 216 277 345 411
#
# _framework density 23.233170999999999
#
# number of rings (size 3 to 8) (size 9 to 14) (size 15 to 20)
#    0.000    2.000    1.250    1.125    5.250    2.000 
#    2.250    3.750    0.000    0.000    0.000    0.000 
#    0.000    0.000    0.000    0.000    0.000    0.000 
#
# Total GULP energy -178161.948057 kJ/mol
# GULP energy per Si atom -5567.560877 kJ/mol
# Density = 2.318029 g / cm^3
# Si number density = 23.233171 Si / 1000 Ang^3
#
#
#
# Elastic Constant Matrix: (Units=GPa)
#
#
# Indices 1 2 3 4 5 6 
#
# 1 87.8203 12.3914 37.7593 0.0000 18.7852 0.0000
# 2 12.3914 53.1465 14.5326 0.0000 2.1707 0.0000
# 3 37.7593 14.5326 151.1363 0.0000 -1.7906 0.0000
# 4 0.0000 0.0000 0.0000 29.5403 0.0000 1.3412
# 5 18.7852 2.1707 -1.7906 0.0000 21.7476 0.0000
# 6 0.0000 0.0000 0.0000 1.3412 0.0000 15.3885
#
#
#
# Elastic Compliance Matrix: (Units=1/GPa)
#
#
# Indices 1 2 3 4 5 6 
#
# 1 0.016531 -0.002146 -0.004094 0.000000 -0.014402 0.000000
# 2 -0.002146 0.019698 -0.001360 0.000000 -0.000224 0.000000
# 3 -0.004094 -0.001360 0.007821 0.000000 0.004316 0.000000
# 4 0.000000 0.000000 0.000000 0.033987 0.000000 -0.002962
# 5 -0.014402 -0.000224 0.004316 0.000000 0.058800 0.000000
# 6 0.000000 0.000000 0.000000 -0.002962 0.000000 0.065242
#
#
# Mechanical properties :
#
#
# Convention : Reuss Voigt Hill
#
# Bulk Modulus (GPa) = 34.66510 46.82995 40.74752
# Shear Modulus (GPa) = 22.03653 28.49659 25.26656
#
# Velocity S-wave (km/s) = 3.08310 3.50601 3.30134
# Velocity P-wave (km/s) = 5.25613 6.04894 5.66642
#
# Compressibility (1/GPa) = 0.02884746
#
# Stress axis : x y z
#
# Youngs Moduli (GPa) = 60.49346 50.76777 127.85481
#
# Poissons Ratio (x) = 0.10897 0.52346
# Poissons Ratio (y) = 0.12985 0.17394
# Poissons Ratio (z) = 0.24767 0.06907
#
# Static dielectric constant tensor:
#      x y z
#    x 1.954700 0.000000 -0.063080 
#    y 0.000000 2.004810 0.000000 
#    z -0.063080 0.000000 1.975990 
# 
# From -- ./inp_files/48904.got.cif
#   From: 2010.05.17/outbox.cif.g08.bks.cpg/sg14_25_cif.got.tgz:48904.got - 2010.06.03 17:49:19.
