data_PCOD9243506
_publ_section_title
;
Structure prediction by ZEFSAII (Michael W. Deem and Ramdas Pophale) SiO2 
 PCOD9243506
Probable space group: P 21/C
;
_chemical_formula_sum "Si O2"
_cell_formula_units_Z 26
_cell_length_a 7.058722
_cell_length_b 23.860211
_cell_length_c 11.730926
_cell_angle_alpha 90.000000
_cell_angle_beta 144.274930
_cell_angle_gamma 90.000000
_cell_volume 1153.635242
_symmetry_space_group_name_H-M "P 21/C"
_symmetry_group_IT_number 14
_symmetry_cell_setting 'monoclinic'
loop_
_space_group_symop_operation_xyz
x,y,z
-x,1/2+y,1/2-z
-x,-y,-z
x,1/2-y,1/2+z
loop_
_atom_site_type_symbol
_atom_site_label
_atom_site_fract_x
_atom_site_fract_y
_atom_site_fract_z
Si Si1 0.014733 0.679926 0.651550
Si Si2 0.427951 0.253212 0.190880
Si Si3 0.500000 0.000000 0.000000
Si Si4 0.792948 0.944660 0.366808
Si Si5 0.316143 0.066534 0.075516
Si Si6 0.106286 0.828833 0.459270
Si Si7 0.689446 0.492604 0.209692
O O1 0.749906 0.729383 0.508534
O O2 0.847970 0.625051 0.519487
O O3 0.127874 0.667314 0.834158
O O4 0.305009 0.702454 0.716725
O O5 0.179152 0.285591 0.149190
O O6 0.584288 0.200320 0.332185
O O7 0.623327 0.956079 0.163233
O O8 0.383102 0.945387 0.858287
O O9 0.009898 0.889168 0.463497
O O10 0.499203 0.943390 0.315179
O O11 0.000000 0.000000 0.500000
O O12 0.075970 0.020970 0.887965
O O13 0.327758 0.044157 0.209455
O O14 0.500000 0.500000 0.000000
#
# Coordination Sequence:
#
# PCOD9243506 Si02
#       7
#     4   4   2   4   4   4   4
#     4  11  22  43  67  90 128 169 213 275 326 375
#     4  10  25  42  64  98 124 170 225 267 328 391
#     4  10  20  38  58  90 122 160 202 246 318 376
#     4  11  23  37  63  93 125 164 212 257 322 395
#     4  10  21  37  61  87 122 165 204 252 316 382
#     4  11  23  43  67  94 131 169 220 274 325 388
#     4  10  22  38  56  90 130 162 203 254 314 383
#
# _framework density 22.537451999999998
#
# number of rings (size 3 to 8) (size 9 to 14) (size 15 to 20)
#    0.000    1.538    1.538    2.769    4.308    0.000 
#    0.000    6.154    0.000    0.000    0.000    0.000 
#    0.000    0.000    0.000    0.000    0.000    0.000 
#
# Total GULP energy -144882.639467 kJ/mol
# GULP energy per Si atom -5572.409210 kJ/mol
# Density = 2.248616 g / cm^3
# Si number density = 22.537452 Si / 1000 Ang^3
#
#
#
# Elastic Constant Matrix: (Units=GPa)
#
#
# Indices 1 2 3 4 5 6 
#
# 1 49.3113 18.1450 28.8724 0.0000 -27.3591 0.0000
# 2 18.1450 55.2325 22.8481 0.0000 1.9706 0.0000
# 3 28.8724 22.8481 112.2070 0.0000 -31.1548 0.0000
# 4 0.0000 0.0000 0.0000 36.6783 0.0000 7.6806
# 5 -27.3591 1.9706 -31.1548 0.0000 47.0893 0.0000
# 6 0.0000 0.0000 0.0000 7.6806 0.0000 27.5724
#
#
#
# Elastic Compliance Matrix: (Units=1/GPa)
#
#
# Indices 1 2 3 4 5 6 
#
# 1 0.037591 -0.012676 -0.001078 0.000000 0.021658 0.000000
# 2 -0.012676 0.024774 -0.005042 0.000000 -0.011737 0.000000
# 3 -0.001078 -0.005042 0.012374 0.000000 0.007771 0.000000
# 4 0.000000 0.000000 0.000000 0.028953 0.000000 -0.008065
# 5 0.021658 -0.011737 0.007771 0.000000 0.039452 0.000000
# 6 0.000000 0.000000 0.000000 -0.008065 0.000000 0.038515
#
#
# Mechanical properties :
#
#
# Convention : Reuss Voigt Hill
#
# Bulk Modulus (GPa) = 26.92011 39.60909 33.26460
# Shear Modulus (GPa) = 21.58576 32.06034 26.82305
#
# Velocity S-wave (km/s) = 3.09815 3.77574 3.45360
# Velocity P-wave (km/s) = 4.97680 6.05155 5.54030
#
# Compressibility (1/GPa) = 0.03714695
#
# Stress axis : x y z
#
# Youngs Moduli (GPa) = 26.60187 40.36469 80.81533
#
# Poissons Ratio (x) = 0.51167 0.08713
# Poissons Ratio (y) = 0.33721 0.40745
# Poissons Ratio (z) = 0.02868 0.20351
#
# Static dielectric constant tensor:
#      x y z
#    x 1.403530 0.000000 0.023960 
#    y 0.000000 1.869500 0.000000 
#    z 0.023960 0.000000 1.917470 
# 
# From -- ./inp_files/27062.got.cif
#   From: 2010.05.17/outbox.cif.g08.bks.cpg/sg14_14_cif.got.tgz:27062.got - 2010.06.03 17:49:19.
