data_PCOD9243486
_publ_section_title
;
Structure prediction by ZEFSAII (Michael W. Deem and Ramdas Pophale) SiO2 
 PCOD9243486
Probable space group: P 21/C
;
_chemical_formula_sum "Si O2"
_cell_formula_units_Z 16
_cell_length_a 19.680945
_cell_length_b 5.093762
_cell_length_c 12.556028
_cell_angle_alpha 90.000000
_cell_angle_beta 151.862710
_cell_angle_gamma 90.000000
_cell_volume 593.605181
_symmetry_space_group_name_H-M "P 21/C"
_symmetry_group_IT_number 14
_symmetry_cell_setting 'monoclinic'
loop_
_space_group_symop_operation_xyz
x,y,z
-x,1/2+y,1/2-z
-x,-y,-z
x,1/2-y,1/2+z
loop_
_atom_site_type_symbol
_atom_site_label
_atom_site_fract_x
_atom_site_fract_y
_atom_site_fract_z
Si Si1 0.693798 0.449259 0.148079
Si Si2 0.216072 0.640249 0.032692
Si Si3 0.489836 0.461306 0.612769
Si Si4 0.947695 0.799588 0.517927
O O1 0.717063 0.383726 0.307454
O O2 0.851867 0.561129 0.338839
O O3 0.579800 0.678302 0.968728
O O4 0.620265 0.184680 0.001223
O O5 0.158960 0.450398 0.047148
O O6 0.081351 0.718095 0.775432
O O7 0.340115 0.518639 0.129684
O O8 0.500000 0.500000 0.500000
O O9 0.000000 0.000000 0.500000
#
# Coordination Sequence:
#
# PCOD9243486 Si02
#       4
#     4   4   4   4
#     4  11  21  42  73 105 142 199 250 304 380 450
#     4  11  23  43  73 105 152 202 246 311 389 444
#     4  10  20  37  75 100 138 198 249 302 376 447
#     4  12  26  43  73 114 155 200 255 316 387 471
#
# _framework density 26.953944
#
# number of rings (size 3 to 8) (size 9 to 14) (size 15 to 20)
#    0.000    1.000    7.500    3.000    0.000    1.000 
#    0.000    0.000   11.000    0.000    0.000    0.000 
#    0.000    0.000    0.000    0.000    0.000    0.000 
#
# Total GULP energy -89665.244337 kJ/mol
# GULP energy per Si atom -5604.077771 kJ/mol
# Density = 2.689260 g / cm^3
# Si number density = 26.953944 Si / 1000 Ang^3
#
#
#
# Elastic Constant Matrix: (Units=GPa)
#
#
# Indices 1 2 3 4 5 6 
#
# 1 127.1172 41.2429 46.4856 0.0000 9.3573 0.0000
# 2 41.2429 169.7336 84.3021 0.0000 13.9212 0.0000
# 3 46.4856 84.3021 248.4202 0.0000 28.5077 0.0000
# 4 0.0000 0.0000 0.0000 45.9889 0.0000 16.1704
# 5 9.3573 13.9212 28.5077 0.0000 43.9418 0.0000
# 6 0.0000 0.0000 0.0000 16.1704 0.0000 60.5459
#
#
#
# Elastic Compliance Matrix: (Units=1/GPa)
#
#
# Indices 1 2 3 4 5 6 
#
# 1 0.008806 -0.001568 -0.001035 0.000000 -0.000707 0.000000
# 2 -0.001568 0.007387 -0.002143 0.000000 -0.000616 0.000000
# 3 -0.001035 -0.002143 0.005233 0.000000 -0.002496 0.000000
# 4 0.000000 0.000000 0.000000 0.023998 0.000000 -0.006409
# 5 -0.000707 -0.000616 -0.002496 0.000000 0.024722 0.000000
# 6 0.000000 0.000000 0.000000 -0.006409 0.000000 0.018228
#
#
# Mechanical properties :
#
#
# Convention : Reuss Voigt Hill
#
# Bulk Modulus (GPa) = 83.78486 98.81469 91.29977
# Shear Modulus (GPa) = 49.09514 54.97803 52.03659
#
# Velocity S-wave (km/s) = 4.27247 4.52121 4.39860
# Velocity P-wave (km/s) = 7.44920 7.99970 7.72935
#
# Compressibility (1/GPa) = 0.01193533
#
# Stress axis : x y z
#
# Youngs Moduli (GPa) = 113.56100 135.36601 191.11049
#
# Poissons Ratio (x) = 0.21223 0.19772
# Poissons Ratio (y) = 0.17805 0.40951
# Poissons Ratio (z) = 0.11749 0.29006
#
# Static dielectric constant tensor:
#      x y z
#    x 2.164330 0.000000 -0.074130 
#    y 0.000000 2.144540 0.000000 
#    z -0.074130 0.000000 2.258560 
# 
# From -- ./inp_files/62064.got.cif
#   From: 2010.05.17/outbox.cif.g08.bks.cpg/sg14_32_cif.got.tgz:62064.got - 2010.06.03 17:49:19.
