data_PCOD9243472
_publ_section_title
;
Structure prediction by ZEFSAII (Michael W. Deem and Ramdas Pophale) SiO2 
 PCOD9243472
Probable space group: P 21/C
;
_chemical_formula_sum "Si O2"
_cell_formula_units_Z 28
_cell_length_a 9.568237
_cell_length_b 9.263948
_cell_length_c 13.653186
_cell_angle_alpha 90.000000
_cell_angle_beta 108.874934
_cell_angle_gamma 90.000000
_cell_volume 1145.136783
_symmetry_space_group_name_H-M "P 21/C"
_symmetry_group_IT_number 14
_symmetry_cell_setting 'monoclinic'
loop_
_space_group_symop_operation_xyz
x,y,z
-x,1/2+y,1/2-z
-x,-y,-z
x,1/2-y,1/2+z
loop_
_atom_site_type_symbol
_atom_site_label
_atom_site_fract_x
_atom_site_fract_y
_atom_site_fract_z
Si Si1 0.401690 0.310684 0.154214
Si Si2 0.561948 0.154956 0.032269
Si Si3 0.464184 0.586300 0.096196
Si Si4 0.846569 0.191023 0.651623
Si Si5 0.822293 0.677270 0.744198
Si Si6 0.818999 0.139068 0.333751
Si Si7 0.151506 0.370372 0.934975
O O1 0.502681 0.194905 0.126219
O O2 0.500852 0.455844 0.179616
O O3 0.317403 0.258648 0.230109
O O4 0.264956 0.350252 0.049491
O O5 0.733380 0.201010 0.072458
O O6 0.489901 0.259351 0.935273
O O7 0.500000 0.000000 0.000000
O O8 0.310970 0.633282 0.117308
O O9 0.500000 0.500000 0.000000
O O10 0.821252 0.224828 0.761152
O O11 0.019456 0.222690 0.674272
O O12 0.819948 0.024611 0.613289
O O13 0.810716 0.505221 0.762471
O O14 0.828994 0.739148 0.636886
O O15 0.978393 0.130561 0.422604
#
# Coordination Sequence:
#
# PCOD9243472 Si02
#       7
#     4   4   4   4   4   4   4
#     4  10  21  40  61  91 120 164 209 258 321 383
#     4  11  24  39  56  88 124 161 208 255 315 382
#     4   9  19  39  60  84 119 161 210 250 310 384
#     4  10  21  39  61  89 126 162 205 256 319 380
#     4   9  21  39  64  92 122 158 216 263 315 382
#     4   9  20  37  63  94 121 159 212 265 319 373
#     4  10  20  37  67  92 126 164 212 267 320 385
#
# _framework density 24.451226999999999
#
# number of rings (size 3 to 8) (size 9 to 14) (size 15 to 20)
#    0.000    2.286    1.429    0.000    4.000    2.857 
#    5.143    2.143    0.000    0.000    0.000    0.000 
#    0.000    0.000    0.000    0.000    0.000    0.000 
#
# Total GULP energy -156085.515856 kJ/mol
# GULP energy per Si atom -5574.482709 kJ/mol
# Density = 2.439557 g / cm^3
# Si number density = 24.451227 Si / 1000 Ang^3
#
#
#
# Elastic Constant Matrix: (Units=GPa)
#
#
# Indices 1 2 3 4 5 6 
#
# 1 114.0654 18.3108 19.2713 0.0000 -15.5900 0.0000
# 2 18.3108 111.3693 25.9592 0.0000 -5.9575 0.0000
# 3 19.2713 25.9592 93.4917 0.0000 2.3602 0.0000
# 4 0.0000 0.0000 0.0000 37.5488 0.0000 -7.4802
# 5 -15.5900 -5.9575 2.3602 0.0000 49.7511 0.0000
# 6 0.0000 0.0000 0.0000 -7.4802 0.0000 32.7284
#
#
#
# Elastic Compliance Matrix: (Units=1/GPa)
#
#
# Indices 1 2 3 4 5 6 
#
# 1 0.009638 -0.001010 -0.001782 0.000000 0.002984 0.000000
# 2 -0.001010 0.009788 -0.002534 0.000000 0.000976 0.000000
# 3 -0.001782 -0.002534 0.011803 0.000000 -0.001422 0.000000
# 4 0.000000 0.000000 0.000000 0.027902 0.000000 0.006377
# 5 0.002984 0.000976 -0.001422 0.000000 0.021219 0.000000
# 6 0.000000 0.000000 0.000000 0.006377 0.000000 0.032012
#
#
# Mechanical properties :
#
#
# Convention : Reuss Voigt Hill
#
# Bulk Modulus (GPa) = 48.59650 49.55656 49.07653
# Shear Modulus (GPa) = 38.49915 41.03133 39.76524
#
# Velocity S-wave (km/s) = 3.97234 4.10089 4.03713
# Velocity P-wave (km/s) = 6.39979 6.53717 6.46885
#
# Compressibility (1/GPa) = 0.02057761
#
# Stress axis : x y z
#
# Youngs Moduli (GPa) = 103.75826 102.16516 84.72463
#
# Poissons Ratio (x) = 0.10316 0.15094
# Poissons Ratio (y) = 0.10477 0.21472
# Poissons Ratio (z) = 0.18485 0.25892
#
# Static dielectric constant tensor:
#      x y z
#    x 2.204590 0.000000 0.165760 
#    y 0.000000 1.996840 0.000000 
#    z 0.165760 0.000000 2.069020 
# 
# From -- ./inp_files/54937.got.cif
#   From: 2010.05.17/outbox.cif.g08.bks.cpg/sg14_28_cif.got.tgz:54937.got - 2010.06.03 17:49:19.
