data_PCOD9243496
_publ_section_title
;
Structure prediction by ZEFSAII (Michael W. Deem and Ramdas Pophale) SiO2 
 PCOD9243496
Probable space group: P 21/C
;
_chemical_formula_sum "Si O2"
_cell_formula_units_Z 28
_cell_length_a 12.196721
_cell_length_b 14.748740
_cell_length_c 8.459528
_cell_angle_alpha 90.000000
_cell_angle_beta 54.947282
_cell_angle_gamma 90.000000
_cell_volume 1245.743377
_symmetry_space_group_name_H-M "P 21/C"
_symmetry_group_IT_number 14
_symmetry_cell_setting 'monoclinic'
loop_
_space_group_symop_operation_xyz
x,y,z
-x,1/2+y,1/2-z
-x,-y,-z
x,1/2-y,1/2+z
loop_
_atom_site_type_symbol
_atom_site_label
_atom_site_fract_x
_atom_site_fract_y
_atom_site_fract_z
Si Si1 0.077498 0.726526 0.446007
Si Si2 0.998035 0.384598 0.803882
Si Si3 0.925815 0.558185 0.701258
Si Si4 0.351918 0.016891 0.687608
Si Si5 0.362063 0.678349 0.202825
Si Si6 0.555704 0.784946 0.811800
Si Si7 0.309359 0.364683 0.501730
O O1 0.235851 0.740107 0.346762
O O2 0.019766 0.826727 0.521899
O O3 0.058545 0.681578 0.288938
O O4 0.002859 0.654283 0.625033
O O5 0.155582 0.388471 0.643498
O O6 0.940135 0.486534 0.833977
O O7 0.767013 0.574383 0.796954
O O8 0.000000 0.500000 0.500000
O O9 0.371187 0.055751 0.845929
O O10 0.500000 0.000000 0.500000
O O11 0.292259 0.916759 0.728519
O O12 0.454628 0.716922 0.987531
O O13 0.462423 0.664753 0.264682
O O14 0.623553 0.847253 0.885826
O O15 0.662151 0.725763 0.625419
#
# Coordination Sequence:
#
# PCOD9243496 Si02
#       7
#     4   4   4   4   4   4   4
#     4  11  21  37  64  88 118 161 206 251 305 359
#     4  11  21  37  64  88 118 161 206 251 305 359
#     4  10  20  38  57  89 117 158 203 246 293 379
#     4  12  22  37  64  88 121 163 203 251 311 364
#     4  11  21  39  58  89 120 164 201 250 303 367
#     4  10  24  36  58  88 130 152 206 252 294 374
#     4  11  21  39  58  89 120 164 201 250 303 367
#
# _framework density 22.476537
#
# number of rings (size 3 to 8) (size 9 to 14) (size 15 to 20)
#    0.000    1.143    7.143    1.714    0.000    0.571 
#    0.000    0.714    0.000    1.714    0.000    0.000 
#    0.000    0.000    0.000    0.000    0.000    0.000 
#
# Total GULP energy -156245.030083 kJ/mol
# GULP energy per Si atom -5580.179646 kJ/mol
# Density = 2.242538 g / cm^3
# Si number density = 22.476537 Si / 1000 Ang^3
#
#
#
# Elastic Constant Matrix: (Units=GPa)
#
#
# Indices 1 2 3 4 5 6 
#
# 1 92.1778 -1.5044 27.7428 0.0000 -15.1122 0.0000
# 2 -1.5044 44.7439 -9.6646 0.0000 4.0856 0.0000
# 3 27.7428 -9.6646 46.3090 0.0000 -11.2040 0.0000
# 4 0.0000 0.0000 0.0000 36.7514 0.0000 2.2238
# 5 -15.1122 4.0856 -11.2040 0.0000 27.5855 0.0000
# 6 0.0000 0.0000 0.0000 2.2238 0.0000 36.4193
#
#
#
# Elastic Compliance Matrix: (Units=1/GPa)
#
#
# Indices 1 2 3 4 5 6 
#
# 1 0.013858 -0.001586 -0.007474 0.000000 0.004791 0.000000
# 2 -0.001586 0.023653 0.005355 0.000000 -0.002197 0.000000
# 3 -0.007474 0.005355 0.028841 0.000000 0.006826 0.000000
# 4 0.000000 0.000000 0.000000 0.027311 0.000000 -0.001668
# 5 0.004791 -0.002197 0.006826 0.000000 0.041974 0.000000
# 6 0.000000 0.000000 0.000000 -0.001668 0.000000 0.027560
#
#
# Mechanical properties :
#
#
# Convention : Reuss Voigt Hill
#
# Bulk Modulus (GPa) = 16.96573 24.04204 20.50388
# Shear Modulus (GPa) = 26.28094 31.26170 28.77132
#
# Velocity S-wave (km/s) = 3.42316 3.73347 3.58167
# Velocity P-wave (km/s) = 4.81545 5.41339 5.12315
#
# Compressibility (1/GPa) = 0.05894236
#
# Stress axis : x y z
#
# Youngs Moduli (GPa) = 72.16302 42.27732 34.67344
#
# Poissons Ratio (x) = 0.06704 0.25914
# Poissons Ratio (y) = 0.11444 -0.18567
# Poissons Ratio (z) = 0.53932 -0.22639
#
# Static dielectric constant tensor:
#      x y z
#    x 1.912850 0.000000 -0.011270 
#    y 0.000000 1.887610 0.000000 
#    z -0.011270 0.000000 1.887210 
# 
# From -- ./inp_files/13235.got.cif
#   From: 2010.05.17/outbox.cif.g08.bks.cpg/sg14_7_cif.got.tgz:13235.got - 2010.06.03 17:49:19.
