data_PCOD9243384
_publ_section_title
;
Structure prediction by ZEFSAII (Michael W. Deem and Ramdas Pophale) SiO2 
 PCOD9243384
Probable space group: P 21/C
;
_chemical_formula_sum "Si O2"
_cell_formula_units_Z 28
_cell_length_a 9.116899
_cell_length_b 18.841200
_cell_length_c 9.410963
_cell_angle_alpha 90.000000
_cell_angle_beta 134.810502
_cell_angle_gamma 90.000000
_cell_volume 1146.849425
_symmetry_space_group_name_H-M "P 21/C"
_symmetry_group_IT_number 14
_symmetry_cell_setting 'monoclinic'
loop_
_space_group_symop_operation_xyz
x,y,z
-x,1/2+y,1/2-z
-x,-y,-z
x,1/2-y,1/2+z
loop_
_atom_site_type_symbol
_atom_site_label
_atom_site_fract_x
_atom_site_fract_y
_atom_site_fract_z
Si Si1 0.820040 0.755392 0.160306
Si Si2 0.032251 0.635031 0.143230
Si Si3 0.028413 0.603407 0.704240
Si Si4 0.637528 0.928279 0.753924
Si Si5 0.270574 0.023924 0.501129
Si Si6 0.850346 0.168706 0.985840
Si Si7 0.585016 0.200685 0.257376
O O1 0.895392 0.704775 0.082798
O O2 0.937658 0.830357 0.228861
O O3 0.581120 0.772835 0.973553
O O4 0.925314 0.709124 0.357267
O O5 0.225009 0.657514 0.181144
O O6 0.867946 0.574276 0.995060
O O7 0.137085 0.955107 0.371199
O O8 0.845316 0.569714 0.486351
O O9 0.131653 0.617392 0.366991
O O10 0.181604 0.633725 0.687684
O O11 0.682677 0.936955 0.617412
O O12 0.527989 0.853750 0.715120
O O13 0.487228 0.992201 0.699929
O O14 0.681975 0.229642 0.895267
#
# Coordination Sequence:
#
# PCOD9243384 Si02
#       7
#     4   4   4   4   4   4   4
#     4   9  22  39  59  93 122 155 214 258 300 376
#     4  10  23  40  59  97 124 157 211 258 311 375
#     4  11  20  40  65  85 120 168 212 250 305 368
#     4  10  23  38  63  88 119 167 205 244 312 370
#     4  11  23  41  62  90 128 162 213 256 296 381
#     4  10  20  37  63  89 119 161 207 254 309 363
#     4  11  22  41  65  90 127 165 199 265 321 353
#
# _framework density 24.414712999999999
#
# number of rings (size 3 to 8) (size 9 to 14) (size 15 to 20)
#    0.857    0.857    2.857    1.286    0.000    7.429 
#    0.000    2.857    0.000    0.000    0.000    0.000 
#    0.000    0.000    0.000    0.000    0.000    0.000 
#
# Total GULP energy -156573.632041 kJ/mol
# GULP energy per Si atom -5591.915430 kJ/mol
# Density = 2.435914 g / cm^3
# Si number density = 24.414713 Si / 1000 Ang^3
#
#
#
# Elastic Constant Matrix: (Units=GPa)
#
#
# Indices 1 2 3 4 5 6 
#
# 1 80.9217 30.8869 8.0159 0.0000 19.6877 0.0000
# 2 30.8869 92.5139 18.8298 0.0000 14.9428 0.0000
# 3 8.0159 18.8298 61.8891 0.0000 15.2990 0.0000
# 4 0.0000 0.0000 0.0000 20.7400 0.0000 8.7735
# 5 19.6877 14.9428 15.2990 0.0000 24.7728 0.0000
# 6 0.0000 0.0000 0.0000 8.7735 0.0000 44.4316
#
#
#
# Elastic Compliance Matrix: (Units=1/GPa)
#
#
# Indices 1 2 3 4 5 6 
#
# 1 0.016621 -0.004020 0.002049 0.000000 -0.012050 0.000000
# 2 -0.004020 0.013206 -0.002735 0.000000 -0.003082 0.000000
# 3 0.002049 -0.002735 0.019732 0.000000 -0.012164 0.000000
# 4 0.000000 0.000000 0.000000 0.052611 0.000000 -0.010389
# 5 -0.012050 -0.003082 -0.012164 0.000000 0.059314 0.000000
# 6 0.000000 0.000000 0.000000 -0.010389 0.000000 0.024558
#
#
# Mechanical properties :
#
#
# Convention : Reuss Voigt Hill
#
# Bulk Modulus (GPa) = 24.90928 38.97664 31.94296
# Shear Modulus (GPa) = 23.94234 29.82835 26.88534
#
# Velocity S-wave (km/s) = 3.13493 3.49913 3.32202
# Velocity P-wave (km/s) = 4.82995 5.68544 5.27507
#
# Compressibility (1/GPa) = 0.04014569
#
# Stress axis : x y z
#
# Youngs Moduli (GPa) = 60.16652 75.72465 50.67953
#
# Poissons Ratio (x) = 0.30440 -0.10384
# Poissons Ratio (y) = 0.24186 0.13863
# Poissons Ratio (z) = -0.12328 0.20714
#
# Static dielectric constant tensor:
#      x y z
#    x 1.958780 0.000000 -0.023600 
#    y 0.000000 1.932720 0.000000 
#    z -0.023600 0.000000 1.961150 
# 
# From -- ./inp_files/30584.got.cif
#   From: 2010.05.17/outbox.cif.g08.bks.cpg/sg14_16_cif.got.tgz:30584.got - 2010.06.03 17:49:19.
