data_PCOD9243745
_publ_section_title
;
Structure prediction by ZEFSAII (Michael W. Deem and Ramdas Pophale) SiO2 
 PCOD9243745
Probable space group: P 21/C
;
_chemical_formula_sum "Si O2"
_cell_formula_units_Z 26
_cell_length_a 13.109682
_cell_length_b 14.879046
_cell_length_c 13.962248
_cell_angle_alpha 90.000000
_cell_angle_beta 21.906707
_cell_angle_gamma 90.000000
_cell_volume 1016.116820
_symmetry_space_group_name_H-M "P 21/C"
_symmetry_group_IT_number 14
_symmetry_cell_setting 'monoclinic'
loop_
_space_group_symop_operation_xyz
x,y,z
-x,1/2+y,1/2-z
-x,-y,-z
x,1/2-y,1/2+z
loop_
_atom_site_type_symbol
_atom_site_label
_atom_site_fract_x
_atom_site_fract_y
_atom_site_fract_z
Si Si1 0.858054 0.785632 0.554271
Si Si2 0.172397 0.939214 0.192245
Si Si3 0.500000 0.000000 0.500000
Si Si4 0.231083 0.869894 0.657214
Si Si5 0.523293 0.167410 0.735720
Si Si6 0.651290 0.633883 0.407074
Si Si7 0.808056 0.011017 0.032796
O O1 0.608342 0.748928 0.708142
O O2 0.824251 0.795015 0.697051
O O3 0.928694 0.883633 0.451069
O O4 0.091860 0.712396 0.328538
O O5 0.179668 0.044183 0.213364
O O6 0.434471 0.898268 0.016430
O O7 0.177477 0.927490 0.073381
O O8 0.532701 0.894453 0.429420
O O9 0.637221 0.040242 0.272704
O O10 0.213616 0.854025 0.558819
O O11 0.122557 0.973522 0.777156
O O12 0.333777 0.080130 0.881549
O O13 0.508872 0.172817 0.861768
#
# Coordination Sequence:
#
# PCOD9243745 Si02
#       7
#     4   4   2   4   4   4   4
#     4  11  22  38  60  90 122 159 207 257 312 374
#     4  10  22  39  63  92 123 161 209 260 318 380
#     4  10  20  38  64  92 124 162 204 248 300 366
#     4  10  21  40  61  87 123 165 207 252 307 371
#     4   9  21  40  59  83 122 159 198 252 307 367
#     4  10  22  41  63  90 123 164 208 263 322 380
#     4   9  20  38  62  89 118 158 203 253 306 365
#
# _framework density 25.587609
#
# number of rings (size 3 to 8) (size 9 to 14) (size 15 to 20)
#    0.000    2.154    0.000    1.846    0.000    9.846 
#    0.000   12.308    0.000    0.000    0.000    0.000 
#    0.000    0.000    0.000    0.000    0.000    0.000 
#
# Total GULP energy -144869.663517 kJ/mol
# GULP energy per Si atom -5571.910135 kJ/mol
# Density = 2.552937 g / cm^3
# Si number density = 25.587609 Si / 1000 Ang^3
#
#
#
# Elastic Constant Matrix: (Units=GPa)
#
#
# Indices 1 2 3 4 5 6 
#
# 1 133.8263 43.2983 62.5899 0.0000 60.1419 0.0000
# 2 43.2983 68.1968 48.7398 0.0000 22.1201 0.0000
# 3 62.5899 48.7398 135.9916 0.0000 63.0968 0.0000
# 4 0.0000 0.0000 0.0000 40.6326 0.0000 2.1446
# 5 60.1419 22.1201 63.0968 0.0000 63.6578 0.0000
# 6 0.0000 0.0000 0.0000 2.1446 0.0000 38.0595
#
#
#
# Elastic Compliance Matrix: (Units=1/GPa)
#
#
# Indices 1 2 3 4 5 6 
#
# 1 0.014721 -0.006186 0.001661 0.000000 -0.013405 0.000000
# 2 -0.006186 0.022315 -0.007896 0.000000 0.005916 0.000000
# 3 0.001661 -0.007896 0.016430 0.000000 -0.015111 0.000000
# 4 0.000000 0.000000 0.000000 0.024684 0.000000 -0.001391
# 5 -0.013405 0.005916 -0.015111 0.000000 0.041296 0.000000
# 6 0.000000 0.000000 0.000000 -0.001391 0.000000 0.026353
#
#
# Mechanical properties :
#
#
# Convention : Reuss Voigt Hill
#
# Bulk Modulus (GPa) = 34.93387 71.91897 53.42642
# Shear Modulus (GPa) = 27.75001 40.69577 34.22289
#
# Velocity S-wave (km/s) = 3.29676 3.99237 3.66112
# Velocity P-wave (km/s) = 5.30790 7.02993 6.22872
#
# Compressibility (1/GPa) = 0.02862552
#
# Stress axis : x y z
#
# Youngs Moduli (GPa) = 67.92996 44.81340 60.86572
#
# Poissons Ratio (x) = 0.27720 -0.10112
# Poissons Ratio (y) = 0.42019 0.48057
# Poissons Ratio (z) = -0.11285 0.35383
#
# Static dielectric constant tensor:
#      x y z
#    x -1.773280 0.000000 4.122500 
#    y 0.000000 2.027830 0.000000 
#    z 4.122500 0.000000 -2.429500 
# 
# From -- ./inp_files/30392.got.cif
#   From: 2010.05.17/outbox.cif.g08.bks.cpg/sg14_16_cif.got.tgz:30392.got - 2010.06.03 17:49:19.
