data_PCOD9243780
_publ_section_title
;
Structure prediction by ZEFSAII (Michael W. Deem and Ramdas Pophale) SiO2 
 PCOD9243780
Probable space group: P 21/C
;
_chemical_formula_sum "Si O2"
_cell_formula_units_Z 28
_cell_length_a 18.429164
_cell_length_b 5.132399
_cell_length_c 13.215499
_cell_angle_alpha 90.000000
_cell_angle_beta 64.887737
_cell_angle_gamma 90.000000
_cell_volume 1131.846440
_symmetry_space_group_name_H-M "P 21/C"
_symmetry_group_IT_number 14
_symmetry_cell_setting 'monoclinic'
loop_
_space_group_symop_operation_xyz
x,y,z
-x,1/2+y,1/2-z
-x,-y,-z
x,1/2-y,1/2+z
loop_
_atom_site_type_symbol
_atom_site_label
_atom_site_fract_x
_atom_site_fract_y
_atom_site_fract_z
Si Si1 0.199915 0.766882 0.410340
Si Si2 0.649698 0.091081 0.299400
Si Si3 0.189961 0.101748 0.595091
Si Si4 0.489330 0.250396 0.933178
Si Si5 0.331721 0.090550 0.075563
Si Si6 0.935450 0.945812 0.893258
Si Si7 0.896493 0.256594 0.210595
O O1 0.277717 0.626966 0.320199
O O2 0.129074 0.587832 0.497837
O O3 0.151251 0.909783 0.348144
O O4 0.231422 0.942444 0.482474
O O5 0.561868 0.190794 0.313148
O O6 0.661694 0.299743 0.385227
O O7 0.653106 0.798866 0.341923
O O8 0.243121 0.350664 0.588422
O O9 0.103239 0.163573 0.600069
O O10 0.169686 0.940868 0.706366
O O11 0.398241 0.189757 0.954792
O O12 0.500000 0.500000 0.000000
O O13 0.500000 0.000000 0.000000
O O14 0.026532 0.908352 0.871690
O O15 0.928602 0.077239 0.786218
#
# Coordination Sequence:
#
# PCOD9243780 Si02
#       7
#     4   4   4   4   4   4   4
#     4  11  25  38  62  94 124 164 215 267 326 392
#     4  10  20  38  65  93 129 166 210 264 321 375
#     4  11  24  39  62  89 124 169 212 266 324 390
#     4   8  16  32  60  93 119 161 213 251 308 381
#     4  10  20  38  66  92 125 171 211 260 316 385
#     4  11  24  41  63  88 120 163 216 265 331 391
#     4  11  22  44  61  87 124 166 211 268 330 385
#
# _framework density 24.738340000000001
#
# number of rings (size 3 to 8) (size 9 to 14) (size 15 to 20)
#    0.000    1.714    2.857    1.286    4.000    1.714 
#    0.000    0.000    3.143    0.000    0.000    0.000 
#    0.000    0.000    0.000    0.000    0.000    0.000 
#
# Total GULP energy -156285.367321 kJ/mol
# GULP energy per Si atom -5581.620261 kJ/mol
# Density = 2.468203 g / cm^3
# Si number density = 24.738340 Si / 1000 Ang^3
#
#
#
# Elastic Constant Matrix: (Units=GPa)
#
#
# Indices 1 2 3 4 5 6 
#
# 1 77.1425 -1.4973 29.1503 0.0000 -28.7029 0.0000
# 2 -1.4973 81.9214 5.6095 0.0000 0.3929 0.0000
# 3 29.1503 5.6095 104.3755 0.0000 -24.7445 0.0000
# 4 0.0000 0.0000 0.0000 20.8474 0.0000 -6.0188
# 5 -28.7029 0.3929 -24.7445 0.0000 20.4496 0.0000
# 6 0.0000 0.0000 0.0000 -6.0188 0.0000 37.3773
#
#
#
# Elastic Compliance Matrix: (Units=1/GPa)
#
#
# Indices 1 2 3 4 5 6 
#
# 1 0.027447 0.000165 0.002044 0.000000 0.040995 0.000000
# 2 0.000165 0.012284 -0.000992 0.000000 -0.001205 0.000000
# 3 0.002044 -0.000992 0.013669 0.000000 0.019429 0.000000
# 4 0.000000 0.000000 0.000000 0.050306 0.000000 0.008101
# 5 0.040995 -0.001205 0.019429 0.000000 0.129974 0.000000
# 6 0.000000 0.000000 0.000000 0.008101 0.000000 0.028059
#
#
# Mechanical properties :
#
#
# Convention : Reuss Voigt Hill
#
# Bulk Modulus (GPa) = 17.90991 36.66272 27.28631
# Shear Modulus (GPa) = 17.99113 31.07999 24.53556
#
# Velocity S-wave (km/s) = 2.69970 3.54835 3.15271
# Velocity P-wave (km/s) = 4.11986 5.62495 4.93018
#
# Compressibility (1/GPa) = 0.05583501
#
# Stress axis : x y z
#
# Youngs Moduli (GPa) = 36.43388 81.40982 73.15763
#
# Poissons Ratio (x) = -0.01343 -0.14957
# Poissons Ratio (y) = -0.00601 0.07256
# Poissons Ratio (z) = -0.07449 0.08074
#
# Static dielectric constant tensor:
#      x y z
#    x 2.043640 0.000000 -0.035940 
#    y 0.000000 1.978180 0.000000 
#    z -0.035940 0.000000 2.068520 
# 
# From -- ./inp_files/34771.got.cif
#   From: 2010.05.17/outbox.cif.g08.bks.cpg/sg14_18_cif.got.tgz:34771.got - 2010.06.03 17:49:19.
