data_PCOD9243828
_publ_section_title
;
Structure prediction by ZEFSAII (Michael W. Deem and Ramdas Pophale) SiO2 
 PCOD9243828
Probable space group: P 21/C
;
_chemical_formula_sum "Si O2"
_cell_formula_units_Z 24
_cell_length_a 11.537041
_cell_length_b 11.098684
_cell_length_c 14.229759
_cell_angle_alpha 90.000000
_cell_angle_beta 147.732996
_cell_angle_gamma 90.000000
_cell_volume 972.736720
_symmetry_space_group_name_H-M "P 21/C"
_symmetry_group_IT_number 14
_symmetry_cell_setting 'monoclinic'
loop_
_space_group_symop_operation_xyz
x,y,z
-x,1/2+y,1/2-z
-x,-y,-z
x,1/2-y,1/2+z
loop_
_atom_site_type_symbol
_atom_site_label
_atom_site_fract_x
_atom_site_fract_y
_atom_site_fract_z
Si Si1 0.582424 0.200696 0.983274
Si Si2 0.331588 0.245124 0.575097
Si Si3 0.906432 0.121182 0.820930
Si Si4 0.199939 0.781277 0.057706
Si Si5 0.678237 0.604137 0.126480
Si Si6 0.827417 0.603306 0.853093
O O1 0.731269 0.172820 0.996683
O O2 0.409735 0.311708 0.850571
O O3 0.395601 0.095722 0.862384
O O4 0.751235 0.270402 0.170044
O O5 0.578555 0.287315 0.758629
O O6 0.316301 0.183514 0.462918
O O7 0.266357 0.148317 0.610660
O O8 0.149081 0.343892 0.462126
O O9 0.845999 0.127305 0.889226
O O10 0.879836 0.983354 0.772079
O O11 0.990447 0.696328 0.912305
O O12 0.500000 0.500000 0.000000
O O13 0.000000 0.500000 0.000000
#
# Coordination Sequence:
#
# PCOD9243828 Si02
#       6
#     4   4   4   4   4   4
#     4  10  22  37  66  90 119 170 210 258 316 379
#     4  10  21  41  60  91 126 156 206 270 305 372
#     4  10  22  41  64  91 126 163 211 271 313 377
#     4  10  21  40  59  87 129 157 207 266 311 375
#     4  10  20  38  68  89 119 165 213 252 326 367
#     4  10  24  40  60  89 127 170 205 261 322 377
#
# _framework density 24.672657999999998
#
# number of rings (size 3 to 8) (size 9 to 14) (size 15 to 20)
#    0.000    2.000    3.333    0.000    7.000    0.000 
#    3.000    9.167    0.000    0.000    0.000    0.000 
#    0.000    0.000    0.000    0.000    0.000    0.000 
#
# Total GULP energy -133659.799472 kJ/mol
# GULP energy per Si atom -5569.158311 kJ/mol
# Density = 2.461650 g / cm^3
# Si number density = 24.672658 Si / 1000 Ang^3
#
#
#
# Elastic Constant Matrix: (Units=GPa)
#
#
# Indices 1 2 3 4 5 6 
#
# 1 138.4705 25.0270 53.4324 0.0000 20.5009 0.0000
# 2 25.0270 24.8632 28.3284 0.0000 4.0978 0.0000
# 3 53.4324 28.3284 159.7910 0.0000 27.6408 0.0000
# 4 0.0000 0.0000 0.0000 44.1630 0.0000 6.6710
# 5 20.5009 4.0978 27.6408 0.0000 48.7183 0.0000
# 6 0.0000 0.0000 0.0000 6.6710 0.0000 13.6333
#
#
#
# Elastic Compliance Matrix: (Units=1/GPa)
#
#
# Indices 1 2 3 4 5 6 
#
# 1 0.009507 -0.007557 -0.001394 0.000000 -0.002574 0.000000
# 2 -0.007557 0.056445 -0.007993 0.000000 0.002967 0.000000
# 3 -0.001394 -0.007993 0.008786 0.000000 -0.003726 0.000000
# 4 0.000000 0.000000 0.000000 0.024451 0.000000 -0.011964
# 5 -0.002574 0.002967 -0.003726 0.000000 0.023474 0.000000
# 6 0.000000 0.000000 0.000000 -0.011964 0.000000 0.079204
#
#
# Mechanical properties :
#
#
# Convention : Reuss Voigt Hill
#
# Bulk Modulus (GPa) = 24.48010 59.63336 42.05673
# Shear Modulus (GPa) = 20.05054 35.72536 27.88795
#
# Velocity S-wave (km/s) = 2.85382 3.80935 3.36567
# Velocity P-wave (km/s) = 4.56098 6.60080 5.67332
#
# Compressibility (1/GPa) = 0.04084951
#
# Stress axis : x y z
#
# Youngs Moduli (GPa) = 105.19103 17.71643 113.81923
#
# Poissons Ratio (x) = 0.13388 0.15866
# Poissons Ratio (y) = 0.79490 0.90978
# Poissons Ratio (z) = 0.14663 0.14161
#
# Static dielectric constant tensor:
#      x y z
#    x 1.609970 0.000000 -0.655990 
#    y 0.000000 2.071180 0.000000 
#    z -0.655990 0.000000 1.246300 
# 
# From -- ./inp_files/57755.got.cif
#   From: 2010.05.17/outbox.cif.g08.bks.cpg/sg14_29_cif.got.tgz:57755.got - 2010.06.03 17:49:19.
