data_PCOD9243625
_publ_section_title
;
Structure prediction by ZEFSAII (Michael W. Deem and Ramdas Pophale) SiO2 
 PCOD9243625
Probable space group: P 21/C
;
_chemical_formula_sum "Si O2"
_cell_formula_units_Z 32
_cell_length_a 15.158552
_cell_length_b 11.212079
_cell_length_c 9.690625
_cell_angle_alpha 90.000000
_cell_angle_beta 83.565763
_cell_angle_gamma 90.000000
_cell_volume 1636.633514
_symmetry_space_group_name_H-M "P 21/C"
_symmetry_group_IT_number 14
_symmetry_cell_setting 'monoclinic'
loop_
_space_group_symop_operation_xyz
x,y,z
-x,1/2+y,1/2-z
-x,-y,-z
x,1/2-y,1/2+z
loop_
_atom_site_type_symbol
_atom_site_label
_atom_site_fract_x
_atom_site_fract_y
_atom_site_fract_z
Si Si1 0.930439 0.892179 0.669737
Si Si2 0.788318 0.800382 0.114346
Si Si3 0.768541 0.304273 0.453846
Si Si4 0.127350 0.562914 0.052366
Si Si5 0.265584 0.380718 0.101580
Si Si6 0.900204 0.508069 0.464007
Si Si7 0.587561 0.418950 0.979256
Si Si8 0.649014 0.250860 0.221413
O O1 0.876376 0.778189 0.629028
O O2 0.035881 0.890038 0.632122
O O3 0.896715 0.008919 0.592626
O O4 0.905938 0.908625 0.830745
O O5 0.723706 0.819453 0.253673
O O6 0.738504 0.725062 0.007437
O O7 0.826895 0.928080 0.069151
O O8 0.801806 0.168164 0.459643
O O9 0.857048 0.382059 0.436401
O O10 0.712992 0.318325 0.321490
O O11 0.709493 0.324825 0.602221
O O12 0.170355 0.449142 0.120233
O O13 0.334712 0.482666 0.049627
O O14 0.000000 0.500000 0.500000
O O15 0.594326 0.333088 0.840340
O O16 0.500000 0.500000 0.000000
O O17 0.600298 0.339791 0.118883
#
# Coordination Sequence:
#
# PCOD9243625 Si02
#       8
#     4   4   4   4   4   4   4   4
#     4  10  22  38  53  86 127 174 220 279 324 377
#     4  11  23  40  59  87 129 171 221 267 330 394
#     4  11  22  39  66  90 124 174 231 267 324 391
#     4  10  20  38  62  83 124 173 224 272 330 376
#     4  11  22  42  65  89 127 173 213 275 330 402
#     4  12  24  35  55  89 128 171 231 278 321 377
#     4  11  25  46  73 104 136 166 213 276 345 407
#     4  10  22  44  70  99 127 167 217 267 330 409
#
# _framework density 19.552330000000001
#
# number of rings (size 3 to 8) (size 9 to 14) (size 15 to 20)
#    0.000    1.250    3.750    3.000    3.500    1.000 
#    4.500    2.500    0.000    0.000    0.000    0.000 
#    0.000    0.000    0.000    0.000    0.000    0.000 
#
# Total GULP energy -178370.300408 kJ/mol
# GULP energy per Si atom -5574.071888 kJ/mol
# Density = 1.950783 g / cm^3
# Si number density = 19.552330 Si / 1000 Ang^3
#
#
#
# Elastic Constant Matrix: (Units=GPa)
#
#
# Indices 1 2 3 4 5 6 
#
# 1 71.8431 29.5420 31.5493 0.0000 7.1691 0.0000
# 2 29.5420 84.6703 32.7336 0.0000 6.7271 0.0000
# 3 31.5493 32.7336 135.0852 0.0000 3.4124 0.0000
# 4 0.0000 0.0000 0.0000 21.5509 0.0000 -8.2532
# 5 7.1691 6.7271 3.4124 0.0000 11.2948 0.0000
# 6 0.0000 0.0000 0.0000 -8.2532 0.0000 35.0775
#
#
#
# Elastic Compliance Matrix: (Units=1/GPa)
#
#
# Indices 1 2 3 4 5 6 
#
# 1 0.017799 -0.004482 -0.002875 0.000000 -0.007759 0.000000
# 2 -0.004482 0.014710 -0.002386 0.000000 -0.005195 0.000000
# 3 -0.002875 -0.002386 0.008636 0.000000 0.000637 0.000000
# 4 0.000000 0.000000 0.000000 0.050997 0.000000 0.011999
# 5 -0.007759 -0.005195 0.000637 0.000000 0.096363 0.000000
# 6 0.000000 0.000000 0.000000 0.011999 0.000000 0.031331
#
#
# Mechanical properties :
#
#
# Convention : Reuss Voigt Hill
#
# Bulk Modulus (GPa) = 46.17202 53.24982 49.71092
# Shear Modulus (GPa) = 20.28046 26.76956 23.52501
#
# Velocity S-wave (km/s) = 3.22411 3.70418 3.47245
# Velocity P-wave (km/s) = 6.12583 6.75191 6.44647
#
# Compressibility (1/GPa) = 0.02165814
#
# Stress axis : x y z
#
# Youngs Moduli (GPa) = 56.18251 67.98225 115.78992
#
# Poissons Ratio (x) = 0.30472 0.33288
# Poissons Ratio (y) = 0.25183 0.27631
# Poissons Ratio (z) = 0.16152 0.16223
#
# Static dielectric constant tensor:
#      x y z
#    x 1.801900 0.000000 -0.155030 
#    y 0.000000 1.610350 0.000000 
#    z -0.155030 0.000000 1.983910 
# 
# From -- ./inp_files/15793.got.cif
#   From: 2010.05.17/outbox.cif.g08.bks.cpg/sg14_8_cif.got.tgz:15793.got - 2010.06.03 17:49:19.
