data_PCOD9243877
_publ_section_title
;
Structure prediction by ZEFSAII (Michael W. Deem and Ramdas Pophale) SiO2 
 PCOD9243877
Probable space group: P 21/C
;
_chemical_formula_sum "Si O2"
_cell_formula_units_Z 32
_cell_length_a 22.396898
_cell_length_b 11.430477
_cell_length_c 20.596799
_cell_angle_alpha 90.000000
_cell_angle_beta 18.979340
_cell_angle_gamma 90.000000
_cell_volume 1714.900032
_symmetry_space_group_name_H-M "P 21/C"
_symmetry_group_IT_number 14
_symmetry_cell_setting 'monoclinic'
loop_
_space_group_symop_operation_xyz
x,y,z
-x,1/2+y,1/2-z
-x,-y,-z
x,1/2-y,1/2+z
loop_
_atom_site_type_symbol
_atom_site_label
_atom_site_fract_x
_atom_site_fract_y
_atom_site_fract_z
Si Si1 0.485932 0.970377 0.696652
Si Si2 0.233258 0.262516 0.126857
Si Si3 0.673046 0.989573 0.774343
Si Si4 0.241627 0.744204 0.773552
Si Si5 0.451294 0.586497 0.730517
Si Si6 0.854934 0.749373 0.628624
Si Si7 0.455563 0.396481 0.096413
Si Si8 0.183306 0.699659 0.478255
O O1 0.631791 0.869616 0.528167
O O2 0.538448 0.025365 0.711050
O O3 0.492398 0.062163 0.631104
O O4 0.283119 0.911060 0.908235
O O5 0.197738 0.256134 0.240724
O O6 0.035780 0.280364 0.295134
O O7 0.352779 0.148740 0.985164
O O8 0.789943 0.874323 0.667982
O O9 0.777839 0.109764 0.684100
O O10 0.601048 0.000534 0.774848
O O11 0.500000 0.000000 0.000000
O O12 0.424776 0.784278 0.549284
O O13 0.231843 0.812906 0.851640
O O14 0.070925 0.769557 0.903536
O O15 0.295087 0.687400 0.888747
O O16 0.751402 0.645488 0.699127
O O17 0.500000 0.500000 0.000000
#
# Coordination Sequence:
#
# PCOD9243877 Si02
#       8
#     4   4   4   4   4   4   4   4
#     4  11  23  38  59  84 121 158 192 238 293 355
#     4  10  20  39  60  81 116 157 192 237 302 352
#     4  11  19  39  65  84 114 152 197 251 297 341
#     4  10  21  37  60  92 119 149 200 246 298 346
#     4  10  22  39  58  85 114 152 196 241 294 350
#     4  11  21  36  63  91 116 153 198 255 295 340
#     4  12  21  37  58  87 120 155 197 237 286 353
#     4   9  20  39  60  81 114 158 193 234 295 360
#
# _framework density 18.659980999999998
#
# number of rings (size 3 to 8) (size 9 to 14) (size 15 to 20)
#    0.000    1.500    5.000    1.125    0.000    4.500 
#    0.000    1.250    0.000    0.000    0.000    0.000 
#    0.000    0.000    0.000    0.000    0.000    0.000 
#
# Total GULP energy -178558.352536 kJ/mol
# GULP energy per Si atom -5579.948517 kJ/mol
# Density = 1.861751 g / cm^3
# Si number density = 18.659981 Si / 1000 Ang^3
#
#
#
# Elastic Constant Matrix: (Units=GPa)
#
#
# Indices 1 2 3 4 5 6 
#
# 1 128.6600 42.5755 27.9564 0.0000 -17.5021 0.0000
# 2 42.5755 53.2457 4.8031 0.0000 -12.3625 0.0000
# 3 27.9564 4.8031 72.8074 0.0000 -30.6134 0.0000
# 4 0.0000 0.0000 0.0000 10.8281 0.0000 -1.0650
# 5 -17.5021 -12.3625 -30.6134 0.0000 29.3868 0.0000
# 6 0.0000 0.0000 0.0000 -1.0650 0.0000 30.7128
#
#
#
# Elastic Compliance Matrix: (Units=1/GPa)
#
#
# Indices 1 2 3 4 5 6 
#
# 1 0.011595 -0.009269 -0.004585 0.000000 -0.001770 0.000000
# 2 -0.009269 0.028937 0.007914 0.000000 0.014897 0.000000
# 3 -0.004585 0.007914 0.027092 0.000000 0.028821 0.000000
# 4 0.000000 0.000000 0.000000 0.092668 0.000000 0.003213
# 5 -0.001770 0.014897 0.028821 0.000000 0.069266 0.000000
# 6 0.000000 0.000000 0.000000 0.003213 0.000000 0.032671
#
#
# Mechanical properties :
#
#
# Convention : Reuss Voigt Hill
#
# Bulk Modulus (GPa) = 17.93898 45.04255 31.49076
# Shear Modulus (GPa) = 17.08287 26.14408 21.61348
#
# Velocity S-wave (km/s) = 3.02898 3.74716 3.40704
# Velocity P-wave (km/s) = 4.67626 6.55077 5.69122
#
# Compressibility (1/GPa) = 0.05574453
#
# Stress axis : x y z
#
# Youngs Moduli (GPa) = 86.24316 34.55760 36.91156
#
# Poissons Ratio (x) = 0.32031 0.16924
# Poissons Ratio (y) = 0.79937 -0.29212
# Poissons Ratio (z) = 0.39542 -0.27349
#
# Static dielectric constant tensor:
#      x y z
#    x 1.618440 0.000000 -0.016510 
#    y 0.000000 1.687730 0.000000 
#    z -0.016510 0.000000 1.652240 
# 
# From -- ./inp_files/69909.got.cif
#   From: 2010.05.17/outbox.cif.g08.bks.cpg/sg14_35_cif.got.tgz:69909.got - 2010.06.03 17:49:19.
