data_PCOD9243267
_publ_section_title
;
Structure prediction by ZEFSAII (Michael W. Deem and Ramdas Pophale) SiO2 
 PCOD9243267
Probable space group: P 21/C
;
_chemical_formula_sum "Si O2"
_cell_formula_units_Z 20
_cell_length_a 5.037408
_cell_length_b 16.344883
_cell_length_c 9.174290
_cell_angle_alpha 90.000000
_cell_angle_beta 91.821013
_cell_angle_gamma 90.000000
_cell_volume 754.991430
_symmetry_space_group_name_H-M "P 21/C"
_symmetry_group_IT_number 14
_symmetry_cell_setting 'monoclinic'
loop_
_space_group_symop_operation_xyz
x,y,z
-x,1/2+y,1/2-z
-x,-y,-z
x,1/2-y,1/2+z
loop_
_atom_site_type_symbol
_atom_site_label
_atom_site_fract_x
_atom_site_fract_y
_atom_site_fract_z
Si Si1 0.755074 0.458686 0.076481
Si Si2 0.970346 0.592523 0.632210
Si Si3 0.460865 0.860530 0.985990
Si Si4 0.181559 0.708658 0.061353
Si Si5 0.173359 0.234771 0.204231
O O1 0.856129 0.457172 0.245695
O O2 0.500000 0.500000 0.000000
O O3 0.705029 0.364948 0.029272
O O4 0.000000 0.500000 0.000000
O O5 0.174633 0.598741 0.500148
O O6 0.884469 0.675652 0.722660
O O7 0.682933 0.579613 0.555211
O O8 0.567911 0.818580 0.838454
O O9 0.401698 0.778920 0.086349
O O10 0.017864 0.680163 0.197959
O O11 0.958483 0.748837 0.954274
#
# Coordination Sequence:
#
# PCOD9243267 Si02
#       5
#     4   4   4   4   4
#     4  11  25  43  64  90 128 181 220 256 295 391
#     4  10  23  36  62  91 127 160 213 255 327 365
#     4  11  20  37  60  96 123 158 190 281 330 372
#     4  10  24  37  65  97 127 160 213 261 332 376
#     4  10  20  37  59  98 124 157 198 273 336 370
#
# _framework density 26.490369000000001
#
# number of rings (size 3 to 8) (size 9 to 14) (size 15 to 20)
#    0.000    1.600    4.000    1.200   14.000    0.000 
#    0.000    0.000    0.000    7.200    0.000    0.000 
#    0.000    0.000    0.000    0.000    0.000    0.000 
#
# Total GULP energy -111381.121644 kJ/mol
# GULP energy per Si atom -5569.056082 kJ/mol
# Density = 2.643008 g / cm^3
# Si number density = 26.490369 Si / 1000 Ang^3
#
#
#
# Elastic Constant Matrix: (Units=GPa)
#
#
# Indices 1 2 3 4 5 6 
#
# 1 184.6452 2.5448 25.3611 0.0000 -22.4142 0.0000
# 2 2.5448 43.7149 -4.6948 0.0000 4.1682 0.0000
# 3 25.3611 -4.6948 123.1693 0.0000 -23.6067 0.0000
# 4 0.0000 0.0000 0.0000 39.3255 0.0000 7.2413
# 5 -22.4142 4.1682 -23.6067 0.0000 35.3751 0.0000
# 6 0.0000 0.0000 0.0000 7.2413 0.0000 28.1950
#
#
#
# Elastic Compliance Matrix: (Units=1/GPa)
#
#
# Indices 1 2 3 4 5 6 
#
# 1 0.005925 -0.000737 -0.000587 0.000000 0.003449 0.000000
# 2 -0.000737 0.023245 0.000485 0.000000 -0.002882 0.000000
# 3 -0.000587 0.000485 0.009375 0.000000 0.005827 0.000000
# 4 0.000000 0.000000 0.000000 0.026691 0.000000 -0.006855
# 5 0.003449 -0.002882 0.005827 0.000000 0.034682 0.000000
# 6 0.000000 0.000000 0.000000 -0.006855 0.000000 0.037228
#
#
# Mechanical properties :
#
#
# Convention : Reuss Voigt Hill
#
# Bulk Modulus (GPa) = 27.12321 44.21684 35.67002
# Shear Modulus (GPa) = 33.08772 42.46700 37.77736
#
# Velocity S-wave (km/s) = 3.53802 4.00823 3.78044
# Velocity P-wave (km/s) = 5.19146 6.17650 5.70528
#
# Compressibility (1/GPa) = 0.03686880
#
# Stress axis : x y z
#
# Youngs Moduli (GPa) = 168.76766 43.01937 106.66547
#
# Poissons Ratio (x) = 0.03170 0.06261
# Poissons Ratio (y) = 0.12436 -0.05178
# Poissons Ratio (z) = 0.09907 -0.02088
#
# Static dielectric constant tensor:
#      x y z
#    x 2.139930 0.000000 0.040260 
#    y 0.000000 2.291620 0.000000 
#    z 0.040260 0.000000 2.105680 
# 
# From -- ./inp_files/5455.got.cif
#   From: 2010.05.17/outbox.cif.g08.bks.cpg/sg14_3_cif.got.tgz:5455.got - 2010.06.03 17:49:19.
