data_PCOD9243163
_publ_section_title
;
Structure prediction by ZEFSAII (Michael W. Deem and Ramdas Pophale) SiO2 
 PCOD9243163
Probable space group: P 21/C
;
_chemical_formula_sum "Si O2"
_cell_formula_units_Z 28
_cell_length_a 8.307227
_cell_length_b 17.809208
_cell_length_c 13.304267
_cell_angle_alpha 90.000000
_cell_angle_beta 146.511056
_cell_angle_gamma 90.000000
_cell_volume 1086.061689
_symmetry_space_group_name_H-M "P 21/C"
_symmetry_group_IT_number 14
_symmetry_cell_setting 'monoclinic'
loop_
_space_group_symop_operation_xyz
x,y,z
-x,1/2+y,1/2-z
-x,-y,-z
x,1/2-y,1/2+z
loop_
_atom_site_type_symbol
_atom_site_label
_atom_site_fract_x
_atom_site_fract_y
_atom_site_fract_z
Si Si1 0.664850 0.439202 0.723101
Si Si2 0.124623 0.772359 0.445572
Si Si3 0.406557 0.949457 0.185814
Si Si4 0.683492 0.825615 0.624505
Si Si5 0.781736 0.585975 0.679975
Si Si6 0.162509 0.484249 0.740902
Si Si7 0.186791 0.329614 0.030849
O O1 0.507504 0.455769 0.745113
O O2 0.652007 0.531972 0.701044
O O3 0.470451 0.403988 0.534579
O O4 0.970301 0.400054 0.892913
O O5 0.999037 0.698544 0.329654
O O6 0.943182 0.841017 0.299404
O O7 0.025778 0.777988 0.510945
O O8 0.450749 0.786579 0.577292
O O9 0.559083 0.865548 0.269857
O O10 0.314275 0.951556 0.256229
O O11 0.107458 0.953090 0.966380
O O12 0.658205 0.914591 0.623408
O O13 0.688234 0.800514 0.509811
O O14 0.003226 0.526132 0.749501
#
# Coordination Sequence:
#
# PCOD9243163 Si02
#       7
#     4   4   4   4   4   4   4
#     4  10  20  36  71 105 135 179 222 291 356 422
#     4  12  30  49  72 105 146 196 243 297 359 439
#     4  10  21  38  71 108 137 181 231 297 361 424
#     4  12  30  49  72 104 146 194 240 301 363 431
#     4  10  21  41  70 100 142 181 227 291 361 415
#     4  10  22  43  69 104 145 179 238 302 359 421
#     4  12  25  44  76 102 143 188 243 298 352 431
#
# _framework density 25.781223000000001
#
# number of rings (size 3 to 8) (size 9 to 14) (size 15 to 20)
#    0.000    1.143    2.857    2.143    6.000    2.286 
#    7.714    0.000    0.000    0.000    0.000    0.000 
#    0.000    0.000    0.000    0.000    0.000    0.000 
#
# Total GULP energy -156303.997488 kJ/mol
# GULP energy per Si atom -5582.285625 kJ/mol
# Density = 2.572254 g / cm^3
# Si number density = 25.781223 Si / 1000 Ang^3
#
#
#
# Elastic Constant Matrix: (Units=GPa)
#
#
# Indices 1 2 3 4 5 6 
#
# 1 137.5492 12.5132 -1.8609 0.0000 -11.0506 0.0000
# 2 12.5132 48.4233 7.5912 0.0000 -1.9613 0.0000
# 3 -1.8609 7.5912 67.3735 0.0000 2.9257 0.0000
# 4 0.0000 0.0000 0.0000 40.9356 0.0000 0.3798
# 5 -11.0506 -1.9613 2.9257 0.0000 35.0991 0.0000
# 6 0.0000 0.0000 0.0000 0.3798 0.0000 19.0101
#
#
#
# Elastic Compliance Matrix: (Units=1/GPa)
#
#
# Indices 1 2 3 4 5 6 
#
# 1 0.007633 -0.001932 0.000330 0.000000 0.002268 0.000000
# 2 -0.001932 0.021578 -0.002520 0.000000 0.000807 0.000000
# 3 0.000330 -0.002520 0.015192 0.000000 -0.001303 0.000000
# 4 0.000000 0.000000 0.000000 0.024433 0.000000 -0.000488
# 5 0.002268 0.000807 -0.001303 0.000000 0.029358 0.000000
# 6 0.000000 0.000000 0.000000 -0.000488 0.000000 0.052613
#
#
# Mechanical properties :
#
#
# Convention : Reuss Voigt Hill
#
# Bulk Modulus (GPa) = 27.65547 32.20366 29.92956
# Shear Modulus (GPa) = 29.22186 34.68247 31.95217
#
# Velocity S-wave (km/s) = 3.37033 3.67176 3.52427
# Velocity P-wave (km/s) = 5.08879 5.52214 5.30989
#
# Compressibility (1/GPa) = 0.03615921
#
# Stress axis : x y z
#
# Youngs Moduli (GPa) = 131.01788 46.34292 65.82307
#
# Poissons Ratio (x) = 0.08955 -0.02173
# Poissons Ratio (y) = 0.25316 0.16586
# Poissons Ratio (z) = -0.04324 0.11677
#
# Static dielectric constant tensor:
#      x y z
#    x 2.140600 0.000000 0.033730 
#    y 0.000000 2.063540 0.000000 
#    z 0.033730 0.000000 1.974410 
# 
# From -- ./inp_files/42080.got.cif
#   From: 2010.05.17/outbox.cif.g08.bks.cpg/sg14_22_cif.got.tgz:42080.got - 2010.06.03 17:49:19.
