data_PCOD9243239
_publ_section_title
;
Structure prediction by ZEFSAII (Michael W. Deem and Ramdas Pophale) SiO2 
 PCOD9243239
Probable space group: P 21/C
;
_chemical_formula_sum "Si O2"
_cell_formula_units_Z 24
_cell_length_a 9.461113
_cell_length_b 9.119240
_cell_length_c 15.307547
_cell_angle_alpha 90.000000
_cell_angle_beta 90.267982
_cell_angle_gamma 90.000000
_cell_volume 1320.692545
_symmetry_space_group_name_H-M "P 21/C"
_symmetry_group_IT_number 14
_symmetry_cell_setting 'monoclinic'
loop_
_space_group_symop_operation_xyz
x,y,z
-x,1/2+y,1/2-z
-x,-y,-z
x,1/2-y,1/2+z
loop_
_atom_site_type_symbol
_atom_site_label
_atom_site_fract_x
_atom_site_fract_y
_atom_site_fract_z
Si Si1 0.682597 0.403643 0.922792
Si Si2 0.153768 0.608050 0.590458
Si Si3 0.650727 0.622912 0.076526
Si Si4 0.642654 0.071721 0.748353
Si Si5 0.645641 0.416564 0.723764
Si Si6 0.821886 0.922249 0.082111
O O1 0.785377 0.266682 0.937102
O O2 0.518561 0.353055 0.931677
O O3 0.697395 0.453262 0.822265
O O4 0.701517 0.532724 0.992105
O O5 0.233887 0.567156 0.679888
O O6 0.187474 0.493971 0.513642
O O7 0.985732 0.610324 0.601685
O O8 0.672849 0.522783 0.162177
O O9 0.731816 0.774264 0.085589
O O10 0.619905 0.241866 0.722957
O O11 0.500298 0.004136 0.789172
O O12 0.757314 0.465931 0.652332
#
# Coordination Sequence:
#
# PCOD9243239 Si02
#       6
#     4   4   4   4   4   4
#     4   9  20  39  59  83 110 141 185 231 275 325
#     4  10  23  39  54  79 114 151 186 223 271 327
#     4  10  21  37  61  86 109 143 184 230 280 326
#     4  10  21  37  60  85 110 142 183 231 276 324
#     4  10  20  37  59  84 111 141 183 229 273 326
#     4  11  23  37  55  81 114 150 185 223 273 329
#
# _framework density 18.172283
#
# number of rings (size 3 to 8) (size 9 to 14) (size 15 to 20)
#    0.000    2.000    0.000    4.000    0.000   11.333 
#    0.000    3.333    0.000    0.000    0.000    0.000 
#    0.000    0.000    0.000    0.000    0.000    0.000 
#
# Total GULP energy -134045.150362 kJ/mol
# GULP energy per Si atom -5585.214598 kJ/mol
# Density = 1.813092 g / cm^3
# Si number density = 18.172283 Si / 1000 Ang^3
#
#
#
# Elastic Constant Matrix: (Units=GPa)
#
#
# Indices 1 2 3 4 5 6 
#
# 1 84.2240 66.3165 37.9510 0.0000 6.4786 0.0000
# 2 66.3165 95.6110 32.0761 0.0000 5.9345 0.0000
# 3 37.9510 32.0761 34.3323 0.0000 0.5244 0.0000
# 4 0.0000 0.0000 0.0000 17.1453 0.0000 8.1169
# 5 6.4786 5.9345 0.5244 0.0000 20.0365 0.0000
# 6 0.0000 0.0000 0.0000 8.1169 0.0000 14.4274
#
#
#
# Elastic Compliance Matrix: (Units=1/GPa)
#
#
# Indices 1 2 3 4 5 6 
#
# 1 0.036770 -0.016766 -0.024886 0.000000 -0.006272 0.000000
# 2 -0.016766 0.023230 -0.003149 0.000000 -0.001377 0.000000
# 3 -0.024886 -0.003149 0.059465 0.000000 0.007423 0.000000
# 4 0.000000 0.000000 0.000000 0.079499 0.000000 -0.044726
# 5 -0.006272 -0.001377 0.007423 0.000000 0.052150 0.000000
# 6 0.000000 0.000000 0.000000 -0.044726 0.000000 0.094475
#
#
# Mechanical properties :
#
#
# Convention : Reuss Voigt Hill
#
# Bulk Modulus (GPa) = 33.48634 54.09495 43.79065
# Shear Modulus (GPa) = 11.23222 15.51009 13.37115
#
# Velocity S-wave (km/s) = 2.48885 2.92465 2.71550
# Velocity P-wave (km/s) = 5.16975 6.42162 5.82939
#
# Compressibility (1/GPa) = 0.02986292
#
# Stress axis : x y z
#
# Youngs Moduli (GPa) = 27.19574 43.04765 16.81656
#
# Poissons Ratio (x) = 0.72174 0.41850
# Poissons Ratio (y) = 0.45596 0.05296
# Poissons Ratio (z) = 0.67680 0.13557
#
# Static dielectric constant tensor:
#      x y z
#    x 1.601590 0.000000 -0.002260 
#    y 0.000000 1.601780 0.000000 
#    z -0.002260 0.000000 1.616520 
# 
# From -- ./inp_files/38982.got.cif
#   From: 2010.05.17/outbox.cif.g08.bks.cpg/sg14_20_cif.got.tgz:38982.got - 2010.06.03 17:49:19.
