data_PCOD9243868
_publ_section_title
;
Structure prediction by ZEFSAII (Michael W. Deem and Ramdas Pophale) SiO2 
 PCOD9243868
Probable space group: P 21/C
;
_chemical_formula_sum "Si O2"
_cell_formula_units_Z 32
_cell_length_a 12.063016
_cell_length_b 14.235056
_cell_length_c 9.314638
_cell_angle_alpha 90.000000
_cell_angle_beta 114.233768
_cell_angle_gamma 90.000000
_cell_volume 1458.538767
_symmetry_space_group_name_H-M "P 21/C"
_symmetry_group_IT_number 14
_symmetry_cell_setting 'monoclinic'
loop_
_space_group_symop_operation_xyz
x,y,z
-x,1/2+y,1/2-z
-x,-y,-z
x,1/2-y,1/2+z
loop_
_atom_site_type_symbol
_atom_site_label
_atom_site_fract_x
_atom_site_fract_y
_atom_site_fract_z
Si Si1 0.959340 0.755833 0.061164
Si Si2 0.076671 0.044985 0.916445
Si Si3 0.904581 0.064831 0.365768
Si Si4 0.648515 0.980693 0.905292
Si Si5 0.533916 0.353045 0.205651
Si Si6 0.471227 0.328966 0.847350
Si Si7 0.687238 0.946499 0.248615
Si Si8 0.204809 0.249087 0.279259
O O1 0.986923 0.855042 0.152154
O O2 0.838264 0.724387 0.083814
O O3 0.057212 0.673476 0.107082
O O4 0.909308 0.780604 0.877874
O O5 0.086456 0.971966 0.792185
O O6 0.215721 0.059595 0.041726
O O7 0.000000 0.000000 0.000000
O O8 0.770889 0.032163 0.346199
O O9 0.000000 0.000000 0.500000
O O10 0.552831 0.917547 0.767447
O O11 0.638650 0.083507 0.831728
O O12 0.628020 0.976613 0.065300
O O13 0.530042 0.252265 0.281251
O O14 0.409585 0.405131 0.192129
O O15 0.536484 0.347046 0.034446
O O16 0.335357 0.294947 0.818635
O O17 0.774054 0.859374 0.245830
#
# Coordination Sequence:
#
# PCOD9243868 Si02
#       8
#     4   4   4   4   4   4   4   4
#     4  12  20  36  60  88 123 162 211 257 319 369
#     4  11  24  42  62  92 130 172 213 268 319 387
#     4  11  22  35  59  93 129 160 214 266 319 377
#     4  11  22  43  64  94 130 169 221 262 333 384
#     4  11  24  39  68  95 131 169 213 276 324 387
#     4  11  22  39  64 101 125 162 221 263 323 385
#     4  10  20  39  58  92 130 165 212 268 325 378
#     4  11  18  34  60  89 116 157 207 266 300 367
#
# _framework density 21.939765000000001
#
# number of rings (size 3 to 8) (size 9 to 14) (size 15 to 20)
#    0.000    1.000    5.000    4.500    0.000    0.000 
#    0.000    3.750    0.000    0.000    0.000    0.000 
#    0.000    0.000    0.000    0.000    0.000    0.000 
#
# Total GULP energy -178701.092425 kJ/mol
# GULP energy per Si atom -5584.409138 kJ/mol
# Density = 2.188983 g / cm^3
# Si number density = 21.939765 Si / 1000 Ang^3
#
#
#
# Elastic Constant Matrix: (Units=GPa)
#
#
# Indices 1 2 3 4 5 6 
#
# 1 28.4760 8.1734 -8.1885 0.0000 4.0118 0.0000
# 2 8.1734 97.0769 18.4169 0.0000 9.9146 0.0000
# 3 -8.1885 18.4169 106.5646 0.0000 -3.1683 0.0000
# 4 0.0000 0.0000 0.0000 38.7549 0.0000 9.9505
# 5 4.0118 9.9146 -3.1683 0.0000 8.8180 0.0000
# 6 0.0000 0.0000 0.0000 9.9505 0.0000 25.0360
#
#
#
# Elastic Compliance Matrix: (Units=1/GPa)
#
#
# Indices 1 2 3 4 5 6 
#
# 1 0.038605 -0.002406 0.002972 0.000000 -0.013791 0.000000
# 2 -0.002406 0.012443 -0.002748 0.000000 -0.013883 0.000000
# 3 0.002972 -0.002748 0.010248 0.000000 0.005420 0.000000
# 4 0.000000 0.000000 0.000000 0.028736 0.000000 -0.011421
# 5 -0.013791 -0.013883 0.005420 0.000000 0.137236 0.000000
# 6 0.000000 0.000000 0.000000 -0.011421 0.000000 0.044482
#
#
# Mechanical properties :
#
#
# Convention : Reuss Voigt Hill
#
# Bulk Modulus (GPa) = 17.56434 29.88013 23.72224
# Shear Modulus (GPa) = 16.94392 28.76949 22.85670
#
# Velocity S-wave (km/s) = 2.78203 3.62511 3.23118
# Velocity P-wave (km/s) = 4.28284 5.58306 4.97561
#
# Compressibility (1/GPa) = 0.05693354
#
# Stress axis : x y z
#
# Youngs Moduli (GPa) = 25.90309 80.36687 97.57577
#
# Poissons Ratio (x) = 0.19335 -0.29002
# Poissons Ratio (y) = 0.06232 0.26815
# Poissons Ratio (z) = -0.07699 0.22085
#
# Static dielectric constant tensor:
#      x y z
#    x 1.811120 0.000000 0.001250 
#    y 0.000000 1.882790 0.000000 
#    z 0.001250 0.000000 1.822940 
# 
# From -- ./inp_files/16255.got.cif
#   From: 2010.05.17/outbox.cif.g08.bks.cpg/sg14_9_cif.got.tgz:16255.got - 2010.06.03 17:49:19.
