data_PCOD9243919
_publ_section_title
;
Structure prediction by ZEFSAII (Michael W. Deem and Ramdas Pophale) SiO2 
 PCOD9243919
Probable space group: P 21/C
;
_chemical_formula_sum "Si O2"
_cell_formula_units_Z 28
_cell_length_a 14.452288
_cell_length_b 10.492336
_cell_length_c 12.149428
_cell_angle_alpha 90.000000
_cell_angle_beta 45.082857
_cell_angle_gamma 90.000000
_cell_volume 1304.598181
_symmetry_space_group_name_H-M "P 21/C"
_symmetry_group_IT_number 14
_symmetry_cell_setting 'monoclinic'
loop_
_space_group_symop_operation_xyz
x,y,z
-x,1/2+y,1/2-z
-x,-y,-z
x,1/2-y,1/2+z
loop_
_atom_site_type_symbol
_atom_site_label
_atom_site_fract_x
_atom_site_fract_y
_atom_site_fract_z
Si Si1 0.032547 0.895353 0.752115
Si Si2 0.850674 0.903294 0.499320
Si Si3 0.357787 0.907877 0.239131
Si Si4 0.214020 0.702896 0.488443
Si Si5 0.781350 0.752708 0.868269
Si Si6 0.964487 0.824007 0.041315
Si Si7 0.370609 0.995390 0.990261
O O1 0.156040 0.800781 0.629456
O O2 0.995239 0.912214 0.910392
O O3 0.912296 0.827240 0.793886
O O4 0.059176 0.023901 0.663922
O O5 0.751024 0.825208 0.504580
O O6 0.935090 0.812005 0.505308
O O7 0.770890 0.006680 0.633841
O O8 0.326575 0.776887 0.326545
O O9 0.379968 0.905507 0.089703
O O10 0.485835 0.978550 0.177968
O O11 0.093265 0.682638 0.507167
O O12 0.271006 0.574229 0.492134
O O13 0.831598 0.664241 0.725623
O O14 0.679493 0.864272 0.930265
#
# Coordination Sequence:
#
# PCOD9243919 Si02
#       7
#     4   4   4   4   4   4   4
#     4   9  21  35  61  89 122 160 196 251 313 366
#     4  10  21  40  60  91 123 159 204 248 307 364
#     4  10  23  41  66  85 121 170 201 255 292 360
#     4  10  22  38  64  90 121 157 208 252 301 365
#     4  10  22  34  61  90 124 157 198 253 302 366
#     4  10  20  39  61  94 122 159 194 258 311 355
#     4  11  23  41  63  90 121 165 213 240 304 365
#
# _framework density 21.462547000000001
#
# number of rings (size 3 to 8) (size 9 to 14) (size 15 to 20)
#    0.000    2.000    1.429    0.857   10.000    2.286 
#    2.571    0.000    0.000    2.571    0.000    0.000 
#    0.000    0.000    0.000    0.000    0.000    0.000 
#
# Total GULP energy -156320.263523 kJ/mol
# GULP energy per Si atom -5582.866554 kJ/mol
# Density = 2.141370 g / cm^3
# Si number density = 21.462547 Si / 1000 Ang^3
#
#
#
# Elastic Constant Matrix: (Units=GPa)
#
#
# Indices 1 2 3 4 5 6 
#
# 1 73.7887 9.6428 27.0595 0.0000 3.5072 0.0000
# 2 9.6428 48.4725 19.2339 0.0000 -0.8103 0.0000
# 3 27.0595 19.2339 81.0548 0.0000 2.4757 0.0000
# 4 0.0000 0.0000 0.0000 35.5724 0.0000 0.8943
# 5 3.5072 -0.8103 2.4757 0.0000 26.4570 0.0000
# 6 0.0000 0.0000 0.0000 0.8943 0.0000 26.4469
#
#
#
# Elastic Compliance Matrix: (Units=1/GPa)
#
#
# Indices 1 2 3 4 5 6 
#
# 1 0.015570 -0.001195 -0.004864 0.000000 -0.001645 0.000000
# 2 -0.001195 0.022905 -0.005077 0.000000 0.001335 0.000000
# 3 -0.004864 -0.005077 0.015194 0.000000 -0.000933 0.000000
# 4 0.000000 0.000000 0.000000 0.028136 0.000000 -0.000951
# 5 -0.001645 0.001335 -0.000933 0.000000 0.038143 0.000000
# 6 0.000000 0.000000 0.000000 -0.000951 0.000000 0.037844
#
#
# Mechanical properties :
#
#
# Convention : Reuss Voigt Hill
#
# Bulk Modulus (GPa) = 31.84986 35.02094 33.43540
# Shear Modulus (GPa) = 26.24247 27.52055 26.88151
#
# Velocity S-wave (km/s) = 3.50052 3.58475 3.54289
# Velocity P-wave (km/s) = 5.58660 5.78676 5.68756
#
# Compressibility (1/GPa) = 0.03139731
#
# Stress axis : x y z
#
# Youngs Moduli (GPa) = 64.22456 43.65889 65.81332
#
# Poissons Ratio (x) = 0.05216 0.32013
# Poissons Ratio (y) = 0.07674 0.33414
# Poissons Ratio (z) = 0.31241 0.22166
#
# Static dielectric constant tensor:
#      x y z
#    x 1.756560 0.000000 0.035520 
#    y 0.000000 1.850270 0.000000 
#    z 0.035520 0.000000 1.835890 
# 
# From -- ./inp_files/32168.got.cif
#   From: 2010.05.17/outbox.cif.g08.bks.cpg/sg14_17_cif.got.tgz:32168.got - 2010.06.03 17:49:19.
