data_PCOD9243978
_publ_section_title
;
Structure prediction by ZEFSAII (Michael W. Deem and Ramdas Pophale) SiO2 
 PCOD9243978
Probable space group: P 21/C
;
_chemical_formula_sum "Si O2"
_cell_formula_units_Z 32
_cell_length_a 11.466480
_cell_length_b 11.971018
_cell_length_c 10.701956
_cell_angle_alpha 90.000000
_cell_angle_beta 121.105258
_cell_angle_gamma 90.000000
_cell_volume 1257.794143
_symmetry_space_group_name_H-M "P 21/C"
_symmetry_group_IT_number 14
_symmetry_cell_setting 'monoclinic'
loop_
_space_group_symop_operation_xyz
x,y,z
-x,1/2+y,1/2-z
-x,-y,-z
x,1/2-y,1/2+z
loop_
_atom_site_type_symbol
_atom_site_label
_atom_site_fract_x
_atom_site_fract_y
_atom_site_fract_z
Si Si1 0.833360 0.949431 0.780296
Si Si2 0.963759 0.317575 0.910566
Si Si3 0.498406 0.313477 0.154211
Si Si4 0.133493 0.618437 0.476651
Si Si5 0.633512 0.033134 0.458287
Si Si6 0.810409 0.952234 0.348808
Si Si7 0.337627 0.268857 0.323036
Si Si8 0.269490 0.747073 0.371772
O O1 0.753517 0.990253 0.615367
O O2 0.757369 0.834619 0.768954
O O3 0.993410 0.932044 0.844578
O O4 0.823899 0.037457 0.887388
O O5 0.891540 0.246982 0.758555
O O6 0.118076 0.357384 0.022225
O O7 0.914298 0.240503 0.998251
O O8 0.900193 0.441266 0.868413
O O9 0.494730 0.446963 0.113031
O O10 0.406872 0.259967 0.992961
O O11 0.434175 0.293379 0.255252
O O12 0.644758 0.257721 0.208445
O O13 0.257375 0.637349 0.449903
O O14 0.686037 0.010045 0.349525
O O15 0.648602 0.162474 0.500069
O O16 0.755204 0.877786 0.206786
#
# Coordination Sequence:
#
# PCOD9243978 Si02
#       8
#     4   4   4   4   4   4   4   4
#     4  10  21  40  63  94 129 165 221 265 346 388
#     4  11  22  38  62  93 127 164 205 280 324 408
#     4  10  25  41  68  93 134 179 231 274 330 402
#     4  11  22  38  62  93 127 164 205 280 324 408
#     4  10  20  39  63  90 123 174 218 274 324 397
#     4  10  21  40  63  94 129 165 221 265 346 388
#     4  10  22  44  66  94 130 180 218 282 328 402
#     4  12  24  40  61  97 129 173 221 270 341 395
#
# _framework density 25.441365000000001
#
# number of rings (size 3 to 8) (size 9 to 14) (size 15 to 20)
#    0.000    1.500    3.750    1.125    1.750    1.000 
#    0.000    3.750    0.000    0.000    0.000    0.000 
#    0.000    0.000    0.000    0.000    0.000    0.000 
#
# Total GULP energy -178404.765834 kJ/mol
# GULP energy per Si atom -5575.148932 kJ/mol
# Density = 2.538346 g / cm^3
# Si number density = 25.441365 Si / 1000 Ang^3
#
#
#
# Elastic Constant Matrix: (Units=GPa)
#
#
# Indices 1 2 3 4 5 6 
#
# 1 56.7492 15.7018 12.7501 0.0000 4.8184 0.0000
# 2 15.7018 105.3520 26.7118 0.0000 13.7734 0.0000
# 3 12.7501 26.7118 72.4443 0.0000 11.6978 0.0000
# 4 0.0000 0.0000 0.0000 38.4111 0.0000 2.8132
# 5 4.8184 13.7734 11.6978 0.0000 32.2777 0.0000
# 6 0.0000 0.0000 0.0000 2.8132 0.0000 45.4556
#
#
#
# Elastic Compliance Matrix: (Units=1/GPa)
#
#
# Indices 1 2 3 4 5 6 
#
# 1 0.018817 -0.002062 -0.002379 0.000000 -0.001067 0.000000
# 2 -0.002062 0.011030 -0.003180 0.000000 -0.003246 0.000000
# 3 -0.002379 -0.003180 0.016058 0.000000 -0.004108 0.000000
# 4 0.000000 0.000000 0.000000 0.026153 0.000000 -0.001619
# 5 -0.001067 -0.003246 -0.004108 0.000000 0.034014 0.000000
# 6 0.000000 0.000000 0.000000 -0.001619 0.000000 0.022100
#
#
# Mechanical properties :
#
#
# Convention : Reuss Voigt Hill
#
# Bulk Modulus (GPa) = 32.61226 38.31923 35.46574
# Shear Modulus (GPa) = 32.54468 35.18767 33.86618
#
# Velocity S-wave (km/s) = 3.58048 3.72302 3.65245
# Velocity P-wave (km/s) = 5.47170 5.79445 5.63539
#
# Compressibility (1/GPa) = 0.03066331
#
# Stress axis : x y z
#
# Youngs Moduli (GPa) = 53.14338 90.66210 62.27337
#
# Poissons Ratio (x) = 0.18692 0.14817
# Poissons Ratio (y) = 0.10957 0.19802
# Poissons Ratio (z) = 0.12644 0.28830
#
# Static dielectric constant tensor:
#      x y z
#    x 2.110140 0.000000 -0.006280 
#    y 0.000000 2.079070 0.000000 
#    z -0.006280 0.000000 2.106710 
# 
# From -- ./inp_files/29393.got.cif
#   From: 2010.05.17/outbox.cif.g08.bks.cpg/sg14_15_cif.got.tgz:29393.got - 2010.06.03 17:49:19.
