data_PCOD9243639
_publ_section_title
;
Structure prediction by ZEFSAII (Michael W. Deem and Ramdas Pophale) SiO2 
 PCOD9243639
Probable space group: P 21/C
;
_chemical_formula_sum "Si O2"
_cell_formula_units_Z 28
_cell_length_a 5.977327
_cell_length_b 8.594534
_cell_length_c 23.525762
_cell_angle_alpha 90.000000
_cell_angle_beta 72.670712
_cell_angle_gamma 90.000000
_cell_volume 1153.714685
_symmetry_space_group_name_H-M "P 21/C"
_symmetry_group_IT_number 14
_symmetry_cell_setting 'monoclinic'
loop_
_space_group_symop_operation_xyz
x,y,z
-x,1/2+y,1/2-z
-x,-y,-z
x,1/2-y,1/2+z
loop_
_atom_site_type_symbol
_atom_site_label
_atom_site_fract_x
_atom_site_fract_y
_atom_site_fract_z
Si Si1 0.169195 0.324441 0.429893
Si Si2 0.621269 0.146181 0.778537
Si Si3 0.030320 0.160894 0.651443
Si Si4 0.097450 0.818502 0.654037
Si Si5 0.277916 0.187021 0.228838
Si Si6 0.181810 0.826080 0.936832
Si Si7 0.291277 0.499149 0.968117
O O1 0.280837 0.498354 0.422079
O O2 0.315642 0.167267 0.433937
O O3 0.031218 0.290468 0.381674
O O4 0.974297 0.332834 0.494446
O O5 0.805573 0.158340 0.711410
O O6 0.692892 0.227254 0.831692
O O7 0.393379 0.218509 0.769884
O O8 0.581342 0.966662 0.792840
O O9 0.977828 0.281038 0.605406
O O10 0.236727 0.217042 0.676262
O O11 0.100119 0.988633 0.625120
O O12 0.965395 0.860546 0.723642
O O13 0.328673 0.665246 0.933382
O O14 0.500000 0.500000 0.000000
O O15 0.000000 0.500000 0.000000
#
# Coordination Sequence:
#
# PCOD9243639 Si02
#       7
#     4   4   4   4   4   4   4
#     4  10  21  40  65  94 127 170 220 269 334 398
#     4  10  21  37  58  88 120 160 210 261 321 384
#     4  10  20  38  62  86 122 164 206 264 319 382
#     4  10  20  38  62  86 122 164 206 264 319 382
#     4  10  21  37  58  88 120 160 210 261 321 384
#     4  10  21  40  65  94 127 170 220 269 334 398
#     4  10  22  44  68  96 136 174 222 280 331 396
#
# _framework density 24.269434
#
# number of rings (size 3 to 8) (size 9 to 14) (size 15 to 20)
#    0.000    2.000    1.429    1.714    0.000    4.000 
#   10.286    0.000    0.000    0.000    0.000    0.000 
#    0.000    0.000    0.000    0.000    0.000    0.000 
#
# Total GULP energy -156035.203940 kJ/mol
# GULP energy per Si atom -5572.685855 kJ/mol
# Density = 2.421420 g / cm^3
# Si number density = 24.269434 Si / 1000 Ang^3
#
#
#
# Elastic Constant Matrix: (Units=GPa)
#
#
# Indices 1 2 3 4 5 6 
#
# 1 22.0480 40.0402 46.9758 0.0000 34.0896 0.0000
# 2 40.0402 192.8766 28.4021 0.0000 19.5703 0.0000
# 3 46.9758 28.4021 130.2833 0.0000 9.1963 0.0000
# 4 0.0000 0.0000 0.0000 34.2924 0.0000 20.0743
# 5 34.0896 19.5703 9.1963 0.0000 58.5882 0.0000
# 6 0.0000 0.0000 0.0000 20.0743 0.0000 21.2918
#
#
#
# Elastic Compliance Matrix: (Units=1/GPa)
#
#
# Indices 1 2 3 4 5 6 
#
# 1 -0.073826 0.008333 0.022213 0.000000 0.036686 0.000000
# 2 0.008333 0.004573 -0.003591 0.000000 -0.005812 0.000000
# 3 0.022213 -0.003591 0.001291 0.000000 -0.011928 0.000000
# 4 0.000000 0.000000 0.000000 0.065079 0.000000 -0.061357
# 5 0.036686 -0.005812 -0.011928 0.000000 -0.000464 0.000000
# 6 0.000000 0.000000 0.000000 -0.061357 0.000000 0.104815
#
#
# Mechanical properties :
#
#
# Convention : Reuss Voigt Hill
#
# Bulk Modulus (GPa) = -71.16155 64.00491 -3.57832
# Shear Modulus (GPa) = 116.61687 38.15380 77.38534
#
# Velocity S-wave (km/s) = 6.93940 3.96926 5.65289
# Velocity P-wave (km/s) = 5.90100 6.88743 6.41321
#
# Compressibility (1/GPa) = -0.01405253
#
# Stress axis : x y z
#
# Youngs Moduli (GPa) = -13.54534 218.65404 774.52826
#
# Poissons Ratio (x) = -1.82195 -17.20471
# Poissons Ratio (y) = 0.11287 2.78148
# Poissons Ratio (z) = 0.30088 0.78523
#
# Static dielectric constant tensor:
#      x y z
#    x 2.017360 0.000000 -0.103070 
#    y 0.000000 1.974150 0.000000 
#    z -0.103070 0.000000 1.920720 
# 
# From -- ./inp_files/75685.got.cif
#   From: 2010.05.17/outbox.cif.g08.bks.cpg/sg14_38_cif.got.tgz:75685.got - 2010.06.03 17:49:19.
