data_PCOD9243325
_publ_section_title
;
Structure prediction by ZEFSAII (Michael W. Deem and Ramdas Pophale) SiO2 
 PCOD9243325
Probable space group: P 21/C
;
_chemical_formula_sum "Si O2"
_cell_formula_units_Z 20
_cell_length_a 15.457226
_cell_length_b 9.904817
_cell_length_c 12.209638
_cell_angle_alpha 90.000000
_cell_angle_beta 152.655752
_cell_angle_gamma 90.000000
_cell_volume 858.639722
_symmetry_space_group_name_H-M "P 21/C"
_symmetry_group_IT_number 14
_symmetry_cell_setting 'monoclinic'
loop_
_space_group_symop_operation_xyz
x,y,z
-x,1/2+y,1/2-z
-x,-y,-z
x,1/2-y,1/2+z
loop_
_atom_site_type_symbol
_atom_site_label
_atom_site_fract_x
_atom_site_fract_y
_atom_site_fract_z
Si Si1 0.178690 0.948910 0.302381
Si Si2 0.044470 0.274129 0.599223
Si Si3 0.337145 0.186373 0.785126
Si Si4 0.505103 0.437821 0.674513
Si Si5 0.165021 0.104906 0.931773
O O1 0.347109 0.900389 0.566331
O O2 0.194601 0.100849 0.275077
O O3 0.136171 0.844110 0.157316
O O4 0.990969 0.962001 0.167180
O O5 0.129179 0.170671 0.605280
O O6 0.046801 0.204444 0.718810
O O7 0.304362 0.312048 0.668560
O O8 0.405503 0.064443 0.787028
O O9 0.467700 0.176003 0.040212
O O10 0.306743 0.473032 0.510380
#
# Coordination Sequence:
#
# PCOD9243325 Si02
#       5
#     4   4   4   4   4
#     4  10  20  37  61  87 115 155 196 230 289 349
#     4   9  19  38  60  84 122 150 186 249 283 330
#     4   9  19  38  60  84 122 150 186 249 283 330
#     4  10  20  37  61  87 115 155 196 230 289 349
#     4  10  20  38  60  86 122 150 188 244 280 336
#
# _framework density 23.292656000000001
#
# number of rings (size 3 to 8) (size 9 to 14) (size 15 to 20)
#    0.000    2.400    2.000    0.000    0.000    1.600 
#    3.600   18.000    0.000    0.000    0.000    0.000 
#    0.000    0.000    0.000    0.000    0.000    0.000 
#
# Total GULP energy -111502.804300 kJ/mol
# GULP energy per Si atom -5575.140215 kJ/mol
# Density = 2.323964 g / cm^3
# Si number density = 23.292656 Si / 1000 Ang^3
#
#
#
# Elastic Constant Matrix: (Units=GPa)
#
#
# Indices 1 2 3 4 5 6 
#
# 1 114.7397 35.2897 30.3047 0.0000 -6.2170 0.0000
# 2 35.2897 36.9872 15.2321 0.0000 10.9561 0.0000
# 3 30.3047 15.2321 119.9603 0.0000 -23.9789 0.0000
# 4 0.0000 0.0000 0.0000 4.6297 0.0000 14.8160
# 5 -6.2170 10.9561 -23.9789 0.0000 35.7018 0.0000
# 6 0.0000 0.0000 0.0000 14.8160 0.0000 25.2714
#
#
#
# Elastic Compliance Matrix: (Units=1/GPa)
#
#
# Indices 1 2 3 4 5 6 
#
# 1 0.013794 -0.015141 -0.000177 0.000000 0.006930 0.000000
# 2 -0.015141 0.051449 -0.007382 0.000000 -0.023383 0.000000
# 3 -0.000177 -0.007382 0.011279 0.000000 0.009810 0.000000
# 4 0.000000 0.000000 0.000000 -0.246511 0.000000 0.144524
# 5 0.006930 -0.023383 0.009810 0.000000 0.042981 0.000000
# 6 0.000000 0.000000 0.000000 0.144524 0.000000 -0.045160
#
#
# Mechanical properties :
#
#
# Convention : Reuss Voigt Hill
#
# Bulk Modulus (GPa) = 32.13112 48.14892 40.14002
# Shear Modulus (GPa) = -42.95796 25.84460 -8.55668
#
# Velocity S-wave (km/s) = -4.29916 3.33462 -1.91873
# Velocity P-wave (km/s) = 3.28925 5.96175 3.51591
#
# Compressibility (1/GPa) = 0.03112247
#
# Stress axis : x y z
#
# Youngs Moduli (GPa) = 72.49284 19.43666 88.65965
#
# Poissons Ratio (x) = 0.29429 0.01570
# Poissons Ratio (y) = 1.09762 0.65448
# Poissons Ratio (z) = 0.01284 0.14348
#
# Static dielectric constant tensor:
#      x y z
#    x 1.920440 0.000000 0.000510 
#    y 0.000000 1.906420 0.000000 
#    z 0.000510 0.000000 1.894540 
# 
# From -- ./inp_files/22813.got.cif
#   From: 2010.05.17/outbox.cif.g08.bks.cpg/sg14_12_cif.got.tgz:22813.got - 2010.06.03 17:49:19.
