data_PCOD9243774
_publ_section_title
;
Structure prediction by ZEFSAII (Michael W. Deem and Ramdas Pophale) SiO2 
 PCOD9243774
Probable space group: P 21/C
;
_chemical_formula_sum "Si O2"
_cell_formula_units_Z 32
_cell_length_a 5.689063
_cell_length_b 24.149949
_cell_length_c 9.039001
_cell_angle_alpha 90.000000
_cell_angle_beta 87.393561
_cell_angle_gamma 90.000000
_cell_volume 1240.588841
_symmetry_space_group_name_H-M "P 21/C"
_symmetry_group_IT_number 14
_symmetry_cell_setting 'monoclinic'
loop_
_space_group_symop_operation_xyz
x,y,z
-x,1/2+y,1/2-z
-x,-y,-z
x,1/2-y,1/2+z
loop_
_atom_site_type_symbol
_atom_site_label
_atom_site_fract_x
_atom_site_fract_y
_atom_site_fract_z
Si Si1 0.222100 0.005861 0.823601
Si Si2 0.059623 0.226651 0.994789
Si Si3 0.338489 0.368667 0.802096
Si Si4 0.235618 0.177192 0.703754
Si Si5 0.534290 0.572751 0.936221
Si Si6 0.155958 0.687075 0.205347
Si Si7 0.847271 0.084085 0.749162
Si Si8 0.473854 0.584420 0.477708
O O1 0.328665 0.028280 0.666308
O O2 0.960155 0.029164 0.820689
O O3 0.290622 0.944198 0.866869
O O4 0.352965 0.041774 0.945282
O O5 0.195326 0.270824 0.096722
O O6 0.901202 0.194079 0.118688
O O7 0.238937 0.197879 0.873476
O O8 0.881349 0.257055 0.886780
O O9 0.076069 0.347201 0.842122
O O10 0.360996 0.378494 0.627536
O O11 0.578478 0.333716 0.825873
O O12 0.376991 0.422868 0.901092
O O13 0.427362 0.135366 0.631248
O O14 0.019788 0.133964 0.710781
O O15 0.265531 0.564401 0.901144
O O16 0.674588 0.106337 0.881471
#
# Coordination Sequence:
#
# PCOD9243774 Si02
#       8
#     4   4   4   4   4   4   4   4
#     4   9  21  41  65  94 129 166 227 267 330 395
#     4  10  22  43  64  91 128 172 221 273 325 392
#     4  12  26  43  67  98 139 172 221 272 338 395
#     4  10  20  40  58  88 124 165 214 268 326 386
#     4  10  22  39  62  89 130 177 209 270 331 394
#     4  11  26  45  65  99 132 175 221 275 329 397
#     4  10  20  38  65  89 125 171 216 269 333 389
#     4  10  22  39  65  98 126 170 218 279 323 400
#
# _framework density 25.794201000000001
#
# number of rings (size 3 to 8) (size 9 to 14) (size 15 to 20)
#    0.000    1.750    1.250    1.875    8.750    1.500 
#    9.000    0.625    0.000    0.000    0.000    0.000 
#    0.000    0.000    0.000    0.000    0.000    0.000 
#
# Total GULP energy -178725.121255 kJ/mol
# GULP energy per Si atom -5585.160039 kJ/mol
# Density = 2.573549 g / cm^3
# Si number density = 25.794201 Si / 1000 Ang^3
#
#
#
# Elastic Constant Matrix: (Units=GPa)
#
#
# Indices 1 2 3 4 5 6 
#
# 1 57.5013 13.6038 15.5069 0.0000 3.8210 0.0000
# 2 13.6038 45.3557 24.0252 0.0000 -8.0862 0.0000
# 3 15.5069 24.0252 129.8481 0.0000 -0.3680 0.0000
# 4 0.0000 0.0000 0.0000 47.9883 0.0000 -1.3601
# 5 3.8210 -8.0862 -0.3680 0.0000 23.7159 0.0000
# 6 0.0000 0.0000 0.0000 -1.3601 0.0000 32.4011
#
#
#
# Elastic Compliance Matrix: (Units=1/GPa)
#
#
# Indices 1 2 3 4 5 6 
#
# 1 0.019522 -0.006154 -0.001208 0.000000 -0.005262 0.000000
# 2 -0.006154 0.028118 -0.004438 0.000000 0.010510 0.000000
# 3 -0.001208 -0.004438 0.008663 0.000000 -0.001184 0.000000
# 4 0.000000 0.000000 0.000000 0.020863 0.000000 0.000876
# 5 -0.005262 0.010510 -0.001184 0.000000 0.046579 0.000000
# 6 0.000000 0.000000 0.000000 0.000876 0.000000 0.030900
#
#
# Mechanical properties :
#
#
# Convention : Reuss Voigt Hill
#
# Bulk Modulus (GPa) = 30.57653 37.66409 34.12031
# Shear Modulus (GPa) = 26.43458 32.79234 29.61346
#
# Velocity S-wave (km/s) = 3.20476 3.56941 3.39199
# Velocity P-wave (km/s) = 5.05705 5.62326 5.34765
#
# Compressibility (1/GPa) = 0.03270482
#
# Stress axis : x y z
#
# Youngs Moduli (GPa) = 51.22376 35.56408 115.42944
#
# Poissons Ratio (x) = 0.21886 0.13940
# Poissons Ratio (y) = 0.31522 0.51226
# Poissons Ratio (z) = 0.06186 0.15783
#
# Static dielectric constant tensor:
#      x y z
#    x 2.106370 0.000000 -0.002910 
#    y 0.000000 2.107650 0.000000 
#    z -0.002910 0.000000 2.023620 
# 
# From -- ./inp_files/6972.got.cif
#   From: 2010.05.17/outbox.cif.g08.bks.cpg/sg14_4_cif.got.tgz:6972.got - 2010.06.03 17:49:19.
