data_PCOD9243481
_publ_section_title
;
Structure prediction by ZEFSAII (Michael W. Deem and Ramdas Pophale) SiO2 
 PCOD9243481
Probable space group: P 21/C
;
_chemical_formula_sum "Si O2"
_cell_formula_units_Z 28
_cell_length_a 14.520606
_cell_length_b 18.061070
_cell_length_c 8.838517
_cell_angle_alpha 90.000000
_cell_angle_beta 149.446811
_cell_angle_gamma 90.000000
_cell_volume 1178.311747
_symmetry_space_group_name_H-M "P 21/C"
_symmetry_group_IT_number 14
_symmetry_cell_setting 'monoclinic'
loop_
_space_group_symop_operation_xyz
x,y,z
-x,1/2+y,1/2-z
-x,-y,-z
x,1/2-y,1/2+z
loop_
_atom_site_type_symbol
_atom_site_label
_atom_site_fract_x
_atom_site_fract_y
_atom_site_fract_z
Si Si1 0.004520 0.454996 0.852616
Si Si2 0.162975 0.780231 0.638245
Si Si3 0.712078 0.152395 0.869602
Si Si4 0.458523 0.874842 0.878619
Si Si5 0.213666 0.157162 0.836636
Si Si6 0.308217 0.476291 0.062006
Si Si7 0.633016 0.929774 0.671668
O O1 0.812415 0.426481 0.526897
O O2 0.111757 0.381205 0.052424
O O3 0.129524 0.491822 0.906038
O O4 0.000000 0.500000 0.000000
O O5 0.212163 0.697143 0.664737
O O6 0.234342 0.803082 0.904064
O O7 0.283391 0.832600 0.696415
O O8 0.944725 0.790468 0.322153
O O9 0.501253 0.138710 0.553263
O O10 0.410210 0.944983 0.703894
O O11 0.594098 0.823406 0.970461
O O12 0.562435 0.916911 0.165968
O O13 0.254426 0.096541 0.024701
O O14 0.259392 0.445531 0.829567
O O15 0.500000 0.000000 0.500000
#
# Coordination Sequence:
#
# PCOD9243481 Si02
#       7
#     4   4   4   4   4   4   4
#     4  10  21  43  69  98 131 182 231 290 347 418
#     4  11  25  48  65  95 138 184 233 279 341 431
#     4  11  26  45  68  97 138 185 232 283 351 419
#     4  10  20  41  68  99 128 185 222 280 348 410
#     4  10  23  41  65  95 139 176 225 281 342 409
#     4  10  20  37  69  98 134 172 233 280 349 405
#     4  12  23  42  65 108 139 171 232 297 346 409
#
# _framework density 23.762812
#
# number of rings (size 3 to 8) (size 9 to 14) (size 15 to 20)
#    0.000    1.429    2.857    2.571    4.000    1.143 
#   10.286    2.143    0.000    0.000    0.000    0.000 
#    0.000    0.000    0.000    0.000    0.000    0.000 
#
# Total GULP energy -156428.503376 kJ/mol
# GULP energy per Si atom -5586.732263 kJ/mol
# Density = 2.370873 g / cm^3
# Si number density = 23.762812 Si / 1000 Ang^3
#
#
#
# Elastic Constant Matrix: (Units=GPa)
#
#
# Indices 1 2 3 4 5 6 
#
# 1 127.5380 16.1356 29.9296 0.0000 23.8399 0.0000
# 2 16.1356 51.1235 20.0832 0.0000 9.5649 0.0000
# 3 29.9296 20.0832 101.3354 0.0000 0.1705 0.0000
# 4 0.0000 0.0000 0.0000 20.9763 0.0000 2.1799
# 5 23.8399 9.5649 0.1705 0.0000 26.1085 0.0000
# 6 0.0000 0.0000 0.0000 2.1799 0.0000 37.0620
#
#
#
# Elastic Compliance Matrix: (Units=1/GPa)
#
#
# Indices 1 2 3 4 5 6 
#
# 1 0.010313 -0.000359 -0.002959 0.000000 -0.009266 0.000000
# 2 -0.000359 0.022915 -0.004422 0.000000 -0.008038 0.000000
# 3 -0.002959 -0.004422 0.011611 0.000000 0.004246 0.000000
# 4 0.000000 0.000000 0.000000 0.047966 0.000000 -0.002821
# 5 -0.009266 -0.008038 0.004246 0.000000 0.049679 0.000000
# 6 0.000000 0.000000 0.000000 -0.002821 0.000000 0.027148
#
#
# Mechanical properties :
#
#
# Convention : Reuss Voigt Hill
#
# Bulk Modulus (GPa) = 34.06102 45.81042 39.93572
# Shear Modulus (GPa) = 25.65444 31.08593 28.37019
#
# Velocity S-wave (km/s) = 3.28930 3.62079 3.45902
# Velocity P-wave (km/s) = 5.36571 6.06632 5.72674
#
# Compressibility (1/GPa) = 0.02935907
#
# Stress axis : x y z
#
# Youngs Moduli (GPa) = 96.96860 43.64008 86.12217
#
# Poissons Ratio (x) = 0.01566 0.25485
# Poissons Ratio (y) = 0.03480 0.38082
# Poissons Ratio (z) = 0.28694 0.19297
#
# Static dielectric constant tensor:
#      x y z
#    x 2.000030 0.000000 -0.102850 
#    y 0.000000 1.926610 0.000000 
#    z -0.102850 0.000000 2.242660 
# 
# From -- ./inp_files/16899.got.cif
#   From: 2010.05.17/outbox.cif.g08.bks.cpg/sg14_9_cif.got.tgz:16899.got - 2010.06.03 17:49:19.
