data_PCOD9243303
_publ_section_title
;
Structure prediction by ZEFSAII (Michael W. Deem and Ramdas Pophale) SiO2 
 PCOD9243303
Probable space group: P 21/C
;
_chemical_formula_sum "Si O2"
_cell_formula_units_Z 28
_cell_length_a 26.824598
_cell_length_b 5.342846
_cell_length_c 19.729753
_cell_angle_alpha 90.000000
_cell_angle_beta 27.015183
_cell_angle_gamma 90.000000
_cell_volume 1284.399374
_symmetry_space_group_name_H-M "P 21/C"
_symmetry_group_IT_number 14
_symmetry_cell_setting 'monoclinic'
loop_
_space_group_symop_operation_xyz
x,y,z
-x,1/2+y,1/2-z
-x,-y,-z
x,1/2-y,1/2+z
loop_
_atom_site_type_symbol
_atom_site_label
_atom_site_fract_x
_atom_site_fract_y
_atom_site_fract_z
Si Si1 0.621159 0.070200 0.649668
Si Si2 0.623875 0.567751 0.556379
Si Si3 0.049153 0.001346 0.825881
Si Si4 0.794317 0.960018 0.107227
Si Si5 0.859175 0.999311 0.716082
Si Si6 0.809911 0.458375 0.127147
Si Si7 0.162041 0.403937 0.047353
O O1 0.633788 0.837255 0.581569
O O2 0.497772 0.052815 0.827696
O O3 0.721457 0.031153 0.578698
O O4 0.629683 0.338247 0.602839
O O5 0.727696 0.526358 0.383244
O O6 0.092715 0.238166 0.815341
O O7 0.087355 0.050345 0.702172
O O8 0.100358 0.742589 0.791743
O O9 0.918052 0.981528 0.986958
O O10 0.740638 0.211714 0.197404
O O11 0.742923 0.714796 0.202873
O O12 0.811592 0.882682 0.007560
O O13 0.876794 0.040144 0.615004
O O14 0.882559 0.481730 0.969436
#
# Coordination Sequence:
#
# PCOD9243303 Si02
#       7
#     4   4   4   4   4   4   4
#     4  10  20  37  64  87 120 152 198 255 310 345
#     4  10  20  37  60  95 115 149 204 257 294 364
#     4  12  25  37  68  85 119 162 214 249 289 354
#     4  10  25  40  59  88 121 162 207 242 301 360
#     4  12  23  41  61  94 120 159 204 251 300 357
#     4  10  25  40  60  83 135 158 195 249 307 363
#     4  10  24  40  61  89 120 160 199 253 302 355
#
# _framework density 21.800072
#
# number of rings (size 3 to 8) (size 9 to 14) (size 15 to 20)
#    0.857    0.571    2.857    1.714    6.000    3.429 
#    0.000    0.714    0.000    0.857    0.000    0.000 
#    0.000    0.000    0.000    0.000    0.000    0.000 
#
# Total GULP energy -156178.978324 kJ/mol
# GULP energy per Si atom -5577.820654 kJ/mol
# Density = 2.175045 g / cm^3
# Si number density = 21.800072 Si / 1000 Ang^3
#
#
#
# Elastic Constant Matrix: (Units=GPa)
#
#
# Indices 1 2 3 4 5 6 
#
# 1 88.0984 19.1735 25.3502 0.0000 19.4622 0.0000
# 2 19.1735 154.3359 -2.8922 0.0000 10.0972 0.0000
# 3 25.3502 -2.8922 80.9427 0.0000 -13.3652 0.0000
# 4 0.0000 0.0000 0.0000 16.3755 0.0000 -4.7627
# 5 19.4622 10.0972 -13.3652 0.0000 25.5162 0.0000
# 6 0.0000 0.0000 0.0000 -4.7627 0.0000 37.9172
#
#
#
# Elastic Compliance Matrix: (Units=1/GPa)
#
#
# Indices 1 2 3 4 5 6 
#
# 1 0.018031 -0.001238 -0.008628 0.000000 -0.017782 0.000000
# 2 -0.001238 0.006740 0.000377 0.000000 -0.001525 0.000000
# 3 -0.008628 0.000377 0.017659 0.000000 0.015681 0.000000
# 4 0.000000 0.000000 0.000000 0.063382 0.000000 0.007961
# 5 -0.017782 -0.001525 0.015681 0.000000 0.061571 0.000000
# 6 0.000000 0.000000 0.000000 0.007961 0.000000 0.027373
#
#
# Mechanical properties :
#
#
# Convention : Reuss Voigt Hill
#
# Bulk Modulus (GPa) = 42.63969 45.18221 43.91095
# Shear Modulus (GPa) = 22.56793 34.74483 28.65638
#
# Velocity S-wave (km/s) = 3.22098 3.99657 3.62955
# Velocity P-wave (km/s) = 5.78229 6.48594 6.14419
#
# Compressibility (1/GPa) = 0.02345233
#
# Stress axis : x y z
#
# Youngs Moduli (GPa) = 55.45880 148.36648 56.62768
#
# Poissons Ratio (x) = 0.18374 0.48856
# Poissons Ratio (y) = 0.06868 -0.02134
# Poissons Ratio (z) = 0.47848 -0.05591
#
# Static dielectric constant tensor:
#      x y z
#    x 1.815180 0.000000 0.014900 
#    y 0.000000 1.948490 0.000000 
#    z 0.014900 0.000000 1.780410 
# 
# From -- ./inp_files/70330.got.cif
#   From: 2010.05.17/outbox.cif.g08.bks.cpg/sg14_36_cif.got.tgz:70330.got - 2010.06.03 17:49:19.
