data_PCOD9243302
_publ_section_title
;
Structure prediction by ZEFSAII (Michael W. Deem and Ramdas Pophale) SiO2 
 PCOD9243302
Probable space group: P 21/C
;
_chemical_formula_sum "Si O2"
_cell_formula_units_Z 24
_cell_length_a 10.234763
_cell_length_b 8.543125
_cell_length_c 23.960742
_cell_angle_alpha 90.000000
_cell_angle_beta 149.361795
_cell_angle_gamma 90.000000
_cell_volume 1067.670463
_symmetry_space_group_name_H-M "P 21/C"
_symmetry_group_IT_number 14
_symmetry_cell_setting 'monoclinic'
loop_
_space_group_symop_operation_xyz
x,y,z
-x,1/2+y,1/2-z
-x,-y,-z
x,1/2-y,1/2+z
loop_
_atom_site_type_symbol
_atom_site_label
_atom_site_fract_x
_atom_site_fract_y
_atom_site_fract_z
Si Si1 0.134644 0.838540 0.561744
Si Si2 0.579475 0.529128 0.743460
Si Si3 0.952285 0.118016 0.893427
Si Si4 0.186620 0.669576 0.262947
Si Si5 0.054456 0.763392 0.916787
Si Si6 0.250758 0.917658 0.382548
O O1 0.921502 0.727691 0.513035
O O2 0.218543 0.776428 0.532515
O O3 0.338644 0.895939 0.682175
O O4 0.000000 0.000000 0.500000
O O5 0.303838 0.583332 0.663302
O O6 0.616776 0.448719 0.696507
O O7 0.782354 0.672328 0.823104
O O8 0.924920 0.224170 0.828665
O O9 0.045619 0.949144 0.911106
O O10 0.287278 0.798210 0.344140
O O11 0.964586 0.554113 0.206017
O O12 0.159513 0.692000 0.899262
O O13 0.500000 0.000000 0.500000
#
# Coordination Sequence:
#
# PCOD9243302 Si02
#       6
#     4   4   4   4   4   4
#     4   9  19  35  56  88 128 162 203 262 322 397
#     4   9  20  38  63  93 127 169 205 274 355 385
#     4  11  20  38  65  98 129 169 207 279 353 395
#     4  10  23  45  67  96 138 170 237 278 325 420
#     4  10  20  37  60  94 128 163 223 268 329 409
#     4  11  25  47  70  95 133 193 226 283 339 395
#
# _framework density 22.478843999999999
#
# number of rings (size 3 to 8) (size 9 to 14) (size 15 to 20)
#    0.000    2.000    0.000    4.500    2.333    0.000 
#   18.000    1.667    0.000    0.000    0.000    0.000 
#    0.000    0.000    0.000    0.000    0.000    0.000 
#
# Total GULP energy -133777.960739 kJ/mol
# GULP energy per Si atom -5574.081697 kJ/mol
# Density = 2.242768 g / cm^3
# Si number density = 22.478844 Si / 1000 Ang^3
#
#
#
# Elastic Constant Matrix: (Units=GPa)
#
#
# Indices 1 2 3 4 5 6 
#
# 1 69.4509 33.7556 29.6437 0.0000 -18.5762 0.0000
# 2 33.7556 174.0647 23.8845 0.0000 -9.6825 0.0000
# 3 29.6437 23.8845 41.6133 0.0000 -9.9162 0.0000
# 4 0.0000 0.0000 0.0000 33.6776 0.0000 -20.5642
# 5 -18.5762 -9.6825 -9.9162 0.0000 34.8300 0.0000
# 6 0.0000 0.0000 0.0000 -20.5642 0.0000 48.9277
#
#
#
# Elastic Compliance Matrix: (Units=1/GPa)
#
#
# Indices 1 2 3 4 5 6 
#
# 1 0.023374 -0.002241 -0.013455 0.000000 0.008013 0.000000
# 2 -0.002241 0.006470 -0.002117 0.000000 0.000001 0.000000
# 3 -0.013455 -0.002117 0.035381 0.000000 0.002308 0.000000
# 4 0.000000 0.000000 0.000000 0.039945 0.000000 0.016789
# 5 0.008013 0.000001 0.002308 0.000000 0.033642 0.000000
# 6 0.000000 0.000000 0.000000 0.016789 0.000000 0.027495
#
#
# Mechanical properties :
#
#
# Convention : Reuss Voigt Hill
#
# Bulk Modulus (GPa) = 33.78527 51.07738 42.43132
# Shear Modulus (GPa) = 23.60733 36.67675 30.14204
#
# Velocity S-wave (km/s) = 3.24420 4.04370 3.66581
# Velocity P-wave (km/s) = 5.39403 6.67636 6.06916
#
# Compressibility (1/GPa) = 0.02959870
#
# Stress axis : x y z
#
# Youngs Moduli (GPa) = 42.78260 154.55736 28.26384
#
# Poissons Ratio (x) = 0.34634 0.38029
# Poissons Ratio (y) = 0.09587 0.05984
# Poissons Ratio (z) = 0.57565 0.32722
#
# Static dielectric constant tensor:
#      x y z
#    x 1.923400 0.000000 -0.026300 
#    y 0.000000 1.479640 0.000000 
#    z -0.026300 0.000000 1.991440 
# 
# From -- ./inp_files/77057.got.cif
#   From: 2010.05.17/outbox.cif.g08.bks.cpg/sg14_39_cif.got.tgz:77057.got - 2010.06.03 17:49:19.
