data_PCOD9243517
_publ_section_title
;
Structure prediction by ZEFSAII (Michael W. Deem and Ramdas Pophale) SiO2 
 PCOD9243517
Probable space group: P 21/C
;
_chemical_formula_sum "Si O2"
_cell_formula_units_Z 26
_cell_length_a 6.087639
_cell_length_b 15.000397
_cell_length_c 13.236900
_cell_angle_alpha 90.000000
_cell_angle_beta 106.526157
_cell_angle_gamma 90.000000
_cell_volume 1158.820362
_symmetry_space_group_name_H-M "P 21/C"
_symmetry_group_IT_number 14
_symmetry_cell_setting 'monoclinic'
loop_
_space_group_symop_operation_xyz
x,y,z
-x,1/2+y,1/2-z
-x,-y,-z
x,1/2-y,1/2+z
loop_
_atom_site_type_symbol
_atom_site_label
_atom_site_fract_x
_atom_site_fract_y
_atom_site_fract_z
Si Si1 0.178085 0.176458 0.372778
Si Si2 0.209030 0.529734 0.155226
Si Si3 0.850665 0.090649 0.689833
Si Si4 0.597198 0.257925 0.042806
Si Si5 0.194250 0.689283 0.626986
Si Si6 0.500000 0.000000 0.500000
Si Si7 0.539137 0.829608 0.778694
O O1 0.420828 0.170558 0.465459
O O2 0.236446 0.171806 0.261831
O O3 0.992321 0.103364 0.375166
O O4 0.056159 0.267689 0.389341
O O5 0.406279 0.577778 0.246528
O O6 0.102124 0.443094 0.193976
O O7 0.286651 0.513477 0.051970
O O8 0.787182 0.183530 0.625453
O O9 0.810742 0.102291 0.804100
O O10 0.665701 0.024423 0.618829
O O11 0.453464 0.202162 0.105453
O O12 0.719527 0.195388 0.976464
O O13 0.376507 0.755645 0.704139
#
# Coordination Sequence:
#
# PCOD9243517 Si02
#       7
#     4   4   4   4   4   2   4
#     4  10  20  38  59  85 118 153 194 239 287 343
#     4  11  23  37  56  87 120 151 189 238 296 346
#     4  11  22  37  61  89 119 151 189 240 292 344
#     4  10  21  38  61  86 114 154 198 240 287 342
#     4   9  21  38  57  86 117 150 194 238 288 344
#     4  12  24  36  58  86 114 146 184 234 288 340
#     4   9  20  37  56  81 118 154 193 241 287 342
#
# _framework density 22.436610999999999
#
# number of rings (size 3 to 8) (size 9 to 14) (size 15 to 20)
#    0.000    1.846    0.000    5.077    0.000   11.077 
#    0.000    0.769    0.000    4.615    0.000    0.000 
#    0.000    0.000    0.000    0.000    0.000    0.000 
#
# Total GULP energy -144818.722975 kJ/mol
# GULP energy per Si atom -5569.950884 kJ/mol
# Density = 2.238554 g / cm^3
# Si number density = 22.436611 Si / 1000 Ang^3
#
#
#
# Elastic Constant Matrix: (Units=GPa)
#
#
# Indices 1 2 3 4 5 6 
#
# 1 109.1580 31.6620 54.1424 0.0000 -45.8228 0.0000
# 2 31.6620 33.5142 35.3908 0.0000 -23.3896 0.0000
# 3 54.1424 35.3908 130.7910 0.0000 -54.1355 0.0000
# 4 0.0000 0.0000 0.0000 44.0723 0.0000 -2.7345
# 5 -45.8228 -23.3896 -54.1355 0.0000 48.3391 0.0000
# 6 0.0000 0.0000 0.0000 -2.7345 0.0000 23.3581
#
#
#
# Elastic Compliance Matrix: (Units=1/GPa)
#
#
# Indices 1 2 3 4 5 6 
#
# 1 0.016222 -0.007048 0.000271 0.000000 0.012270 0.000000
# 2 -0.007048 0.050700 -0.006362 0.000000 0.010727 0.000000
# 3 0.000271 -0.006362 0.015075 0.000000 0.014061 0.000000
# 4 0.000000 0.000000 0.000000 0.022856 0.000000 0.002676
# 5 0.012270 0.010727 0.014061 0.000000 0.053257 0.000000
# 6 0.000000 0.000000 0.000000 0.002676 0.000000 0.043125
#
#
# Mechanical properties :
#
#
# Convention : Reuss Voigt Hill
#
# Bulk Modulus (GPa) = 17.94677 57.31706 37.63191
# Shear Modulus (GPa) = 20.31810 33.30509 26.81160
#
# Velocity S-wave (km/s) = 3.01255 3.85698 3.46062
# Velocity P-wave (km/s) = 4.48518 6.74068 5.72510
#
# Compressibility (1/GPa) = 0.05572034
#
# Stress axis : x y z
#
# Youngs Moduli (GPa) = 61.64479 19.72373 66.33393
#
# Poissons Ratio (x) = 0.13900 -0.01795
# Poissons Ratio (y) = 0.43445 0.42199
# Poissons Ratio (z) = -0.01668 0.12547
#
# Static dielectric constant tensor:
#      x y z
#    x 1.920760 0.000000 0.038890 
#    y 0.000000 1.204430 0.000000 
#    z 0.038890 0.000000 1.842210 
# 
# From -- ./inp_files/21256.got.cif
#   From: 2010.05.17/outbox.cif.g08.bks.cpg/sg14_11_cif.got.tgz:21256.got - 2010.06.03 17:49:19.
