data_PCOD9243189
_publ_section_title
;
Structure prediction by ZEFSAII (Michael W. Deem and Ramdas Pophale) SiO2 
 PCOD9243189
Probable space group: P 21/C
;
_chemical_formula_sum "Si O2"
_cell_formula_units_Z 24
_cell_length_a 13.664409
_cell_length_b 8.895930
_cell_length_c 8.968472
_cell_angle_alpha 90.000000
_cell_angle_beta 79.898359
_cell_angle_gamma 90.000000
_cell_volume 1073.286270
_symmetry_space_group_name_H-M "P 21/C"
_symmetry_group_IT_number 14
_symmetry_cell_setting 'monoclinic'
loop_
_space_group_symop_operation_xyz
x,y,z
-x,1/2+y,1/2-z
-x,-y,-z
x,1/2-y,1/2+z
loop_
_atom_site_type_symbol
_atom_site_label
_atom_site_fract_x
_atom_site_fract_y
_atom_site_fract_z
Si Si1 0.183885 0.196198 0.203977
Si Si2 0.394277 0.127762 0.608940
Si Si3 0.551078 0.614683 0.599925
Si Si4 0.254509 0.852852 0.651110
Si Si5 0.105831 0.055497 0.527171
Si Si6 0.754249 0.057320 0.014162
O O1 0.296007 0.266765 0.171243
O O2 0.160012 0.138397 0.374934
O O3 0.111542 0.326790 0.162898
O O4 0.173750 0.056023 0.092595
O O5 0.475077 0.120238 0.719778
O O6 0.444543 0.216755 0.461388
O O7 0.346352 0.965420 0.596861
O O8 0.500000 0.500000 0.500000
O O9 0.661694 0.547766 0.578122
O O10 0.277069 0.684803 0.594971
O O11 0.220384 0.870626 0.832425
O O12 0.167666 0.913499 0.568150
O O13 0.000000 0.000000 0.500000
#
# Coordination Sequence:
#
# PCOD9243189 Si02
#       6
#     4   4   4   4   4   4
#     4  10  20  40  61  80 112 153 189 227 282 347
#     4   9  19  38  59  78 110 151 186 224 280 343
#     4  10  21  36  56  84 112 145 188 235 282 327
#     4  10  20  37  57  84 112 149 191 229 278 343
#     4  11  23  38  59  86 113 147 189 237 285 329
#     4  10  21  37  60  84 113 151 191 228 277 345
#
# _framework density 22.361229999999999
#
# number of rings (size 3 to 8) (size 9 to 14) (size 15 to 20)
#    0.000    2.000    0.000    6.000    0.000    6.667 
#    0.000    4.167    0.000    0.000    0.000    0.000 
#    0.000    0.000    0.000    0.000    0.000    0.000 
#
# Total GULP energy -133997.448438 kJ/mol
# GULP energy per Si atom -5583.227018 kJ/mol
# Density = 2.231034 g / cm^3
# Si number density = 22.361230 Si / 1000 Ang^3
#
#
#
# Elastic Constant Matrix: (Units=GPa)
#
#
# Indices 1 2 3 4 5 6 
#
# 1 34.7199 -4.5242 23.5503 0.0000 11.1275 0.0000
# 2 -4.5242 104.6554 28.6855 0.0000 -2.9142 0.0000
# 3 23.5503 28.6855 82.1152 0.0000 27.1910 0.0000
# 4 0.0000 0.0000 0.0000 48.6419 0.0000 5.9026
# 5 11.1275 -2.9142 27.1910 0.0000 20.6491 0.0000
# 6 0.0000 0.0000 0.0000 5.9026 0.0000 24.9949
#
#
#
# Elastic Compliance Matrix: (Units=1/GPa)
#
#
# Indices 1 2 3 4 5 6 
#
# 1 0.038501 0.004352 -0.010454 0.000000 -0.006367 0.000000
# 2 0.004352 0.012777 -0.009809 0.000000 0.012374 0.000000
# 3 -0.010454 -0.009809 0.030491 0.000000 -0.035902 0.000000
# 4 0.000000 0.000000 0.000000 0.021165 0.000000 -0.004998
# 5 -0.006367 0.012374 -0.035902 0.000000 0.100882 0.000000
# 6 0.000000 0.000000 0.000000 -0.004998 0.000000 0.041188
#
#
# Mechanical properties :
#
#
# Convention : Reuss Voigt Hill
#
# Bulk Modulus (GPa) = 20.02116 35.21263 27.61689
# Shear Modulus (GPa) = 17.03734 30.44244 23.73989
#
# Velocity S-wave (km/s) = 2.76327 3.69371 3.26184
# Velocity P-wave (km/s) = 4.37651 5.82861 5.15396
#
# Compressibility (1/GPa) = 0.04994716
#
# Stress axis : x y z
#
# Youngs Moduli (GPa) = 25.97364 78.26868 32.79665
#
# Poissons Ratio (x) = -0.34065 0.34285
# Poissons Ratio (y) = -0.11305 0.32170
# Poissons Ratio (z) = 0.27152 0.76774
#
# Static dielectric constant tensor:
#      x y z
#    x 1.831920 0.000000 -0.006720 
#    y 0.000000 1.822490 0.000000 
#    z -0.006720 0.000000 1.926700 
# 
# From -- ./inp_files/15020.got.cif
#   From: 2010.05.17/outbox.cif.g08.bks.cpg/sg14_8_cif.got.tgz:15020.got - 2010.06.03 17:49:19.
