data_PCOD9243109
_publ_section_title
;
Structure prediction by ZEFSAII (Michael W. Deem and Ramdas Pophale) SiO2 
 PCOD9243109
Probable space group: P 21/C
;
_chemical_formula_sum "Si O2"
_cell_formula_units_Z 30
_cell_length_a 5.471015
_cell_length_b 21.734551
_cell_length_c 10.423191
_cell_angle_alpha 90.000000
_cell_angle_beta 118.093396
_cell_angle_gamma 90.000000
_cell_volume 1093.394910
_symmetry_space_group_name_H-M "P 21/C"
_symmetry_group_IT_number 14
_symmetry_cell_setting 'monoclinic'
loop_
_space_group_symop_operation_xyz
x,y,z
-x,1/2+y,1/2-z
-x,-y,-z
x,1/2-y,1/2+z
loop_
_atom_site_type_symbol
_atom_site_label
_atom_site_fract_x
_atom_site_fract_y
_atom_site_fract_z
Si Si1 0.680455 0.392710 0.793281
Si Si2 0.226043 0.412203 0.505603
Si Si3 0.595058 0.772393 0.204995
Si Si4 0.898474 0.500526 0.293067
Si Si5 0.582303 0.594373 0.795508
Si Si6 0.938733 0.727825 0.539453
Si Si7 0.000000 0.500000 0.000000
Si Si8 0.723472 0.613096 0.099857
O O1 0.547163 0.403635 0.621863
O O2 0.442253 0.362777 0.820113
O O3 0.733367 0.455816 0.884134
O O4 0.972780 0.360810 0.848242
O O5 0.105035 0.445897 0.602883
O O6 0.082613 0.346654 0.461006
O O7 0.175309 0.460514 0.378887
O O8 0.599438 0.847485 0.209155
O O9 0.780825 0.751468 0.372800
O O10 0.266518 0.756922 0.127448
O O11 0.669428 0.452066 0.281901
O O12 0.816459 0.537675 0.140706
O O13 0.870956 0.559707 0.890339
O O14 0.536028 0.619932 0.930029
O O15 0.749594 0.747119 0.613533
#
# Coordination Sequence:
#
# PCOD9243109 Si02
#       8
#     4   4   4   4   4   4   2   4
#     4  10  22  36  60  96 139 198 240 300 364 443
#     4  10  22  43  72 106 151 204 248 319 384 485
#     4  12  30  55  87 118 156 218 269 362 394 503
#     4  10  20  41  68 108 157 200 244 304 391 467
#     4  11  22  42  72 109 153 199 256 307 397 455
#     4  12  29  56  85 117 160 206 288 332 430 466
#     4  10  20  36  64 102 158 190 248 300 372 474
#     4  10  22  37  61  96 144 191 241 295 354 459
#
# _framework density 27.437480999999998
#
# number of rings (size 3 to 8) (size 9 to 14) (size 15 to 20)
#    0.000    1.333    4.000    1.200    1.867   11.200 
#    0.000    0.000    0.000    0.000    0.000    0.000 
#    0.000    0.000    0.000    0.000    0.000    0.000 
#
# Total GULP energy -167648.568590 kJ/mol
# GULP energy per Si atom -5588.285620 kJ/mol
# Density = 2.737503 g / cm^3
# Si number density = 27.437481 Si / 1000 Ang^3
#
#
#
# Elastic Constant Matrix: (Units=GPa)
#
#
# Indices 1 2 3 4 5 6 
#
# 1 174.7833 43.5020 72.7520 0.0000 23.3130 0.0000
# 2 43.5020 129.6055 26.8379 0.0000 14.8708 0.0000
# 3 72.7520 26.8379 156.5932 0.0000 8.4622 0.0000
# 4 0.0000 0.0000 0.0000 43.6688 0.0000 2.3792
# 5 23.3130 14.8708 8.4622 0.0000 43.6157 0.0000
# 6 0.0000 0.0000 0.0000 2.3792 0.0000 46.1532
#
#
#
# Elastic Compliance Matrix: (Units=1/GPa)
#
#
# Indices 1 2 3 4 5 6 
#
# 1 0.007868 -0.001628 -0.003213 0.000000 -0.003027 0.000000
# 2 -0.001628 0.008613 -0.000614 0.000000 -0.001947 0.000000
# 3 -0.003213 -0.000614 0.007963 0.000000 0.000382 0.000000
# 4 0.000000 0.000000 0.000000 0.022964 0.000000 -0.001184
# 5 -0.003027 -0.001947 0.000382 0.000000 0.025135 0.000000
# 6 0.000000 0.000000 0.000000 -0.001184 0.000000 0.021728
#
#
# Mechanical properties :
#
#
# Convention : Reuss Voigt Hill
#
# Bulk Modulus (GPa) = 73.89268 83.01841 78.45554
# Shear Modulus (GPa) = 45.58196 47.88021 46.73108
#
# Velocity S-wave (km/s) = 4.08033 4.18193 4.13144
# Velocity P-wave (km/s) = 7.01345 7.32400 7.17041
#
# Compressibility (1/GPa) = 0.01353314
#
# Stress axis : x y z
#
# Youngs Moduli (GPa) = 127.10437 116.10537 125.57765
#
# Poissons Ratio (x) = 0.18904 0.40343
# Poissons Ratio (y) = 0.20695 0.07716
# Poissons Ratio (z) = 0.40833 0.07134
#
# Static dielectric constant tensor:
#      x y z
#    x 1.968830 0.000000 0.040980 
#    y 0.000000 2.101150 0.000000 
#    z 0.040980 0.000000 2.118340 
# 
# From -- ./inp_files/26434.got.cif
#   From: 2010.05.17/outbox.cif.g08.bks.cpg/sg14_14_cif.got.tgz:26434.got - 2010.06.03 17:49:19.
