data_PCOD9243509
_publ_section_title
;
Structure prediction by ZEFSAII (Michael W. Deem and Ramdas Pophale) SiO2 
 PCOD9243509
Probable space group: P 21/C
;
_chemical_formula_sum "Si O2"
_cell_formula_units_Z 30
_cell_length_a 14.105310
_cell_length_b 11.359233
_cell_length_c 9.352750
_cell_angle_alpha 90.000000
_cell_angle_beta 61.552270
_cell_angle_gamma 90.000000
_cell_volume 1317.602345
_symmetry_space_group_name_H-M "P 21/C"
_symmetry_group_IT_number 14
_symmetry_cell_setting 'monoclinic'
loop_
_space_group_symop_operation_xyz
x,y,z
-x,1/2+y,1/2-z
-x,-y,-z
x,1/2-y,1/2+z
loop_
_atom_site_type_symbol
_atom_site_label
_atom_site_fract_x
_atom_site_fract_y
_atom_site_fract_z
Si Si1 0.336970 0.105511 0.091922
Si Si2 0.226569 0.013115 0.680550
Si Si3 0.991831 0.271436 0.101404
Si Si4 0.147699 0.795148 0.549527
Si Si5 0.346798 0.655726 0.271289
Si Si6 0.754654 0.711248 0.049177
Si Si7 0.000000 0.000000 0.000000
Si Si8 0.418877 0.640635 0.521367
O O1 0.295631 0.172405 0.263675
O O2 0.330852 0.963319 0.110745
O O3 0.279552 0.164292 0.996427
O O4 0.466075 0.118391 0.989085
O O5 0.274605 0.116606 0.551111
O O6 0.200217 0.903710 0.594193
O O7 0.312958 0.968763 0.733211
O O8 0.115482 0.043919 0.840467
O O9 0.922244 0.287308 0.294585
O O10 0.116291 0.298837 0.029820
O O11 0.980763 0.132841 0.075512
O O12 0.934782 0.338594 0.012617
O O13 0.239832 0.716352 0.412969
O O14 0.429516 0.649015 0.342590
O O15 0.380898 0.738568 0.117450
#
# Coordination Sequence:
#
# PCOD9243509 Si02
#       8
#     4   4   4   4   4   4   2   4
#     4  11  27  48  70 101 138 175 233 288 353 411
#     4  11  24  39  68  99 140 181 228 275 336 408
#     4  11  23  38  64  95 138 180 222 270 330 405
#     4  11  20  40  63  99 135 174 225 270 322 402
#     4  12  22  44  72 100 133 176 230 286 343 402
#     4  12  26  46  68 103 141 184 228 282 346 415
#     4  10  20  38  58  96 132 178 222 258 326 400
#     4  11  26  47  74 101 131 177 231 297 349 410
#
# _framework density 22.768628
#
# number of rings (size 3 to 8) (size 9 to 14) (size 15 to 20)
#    0.000    0.800    4.000    4.000    3.733    0.533 
#    0.000    1.333    0.000    0.000    0.000    0.000 
#    0.000    0.000    0.000    0.000    0.000    0.000 
#
# Total GULP energy -167320.279191 kJ/mol
# GULP energy per Si atom -5577.342640 kJ/mol
# Density = 2.271681 g / cm^3
# Si number density = 22.768628 Si / 1000 Ang^3
#
#
#
# Elastic Constant Matrix: (Units=GPa)
#
#
# Indices 1 2 3 4 5 6 
#
# 1 61.9309 -12.0431 -15.6888 0.0000 20.3550 0.0000
# 2 -12.0431 33.0884 3.5994 0.0000 4.7875 0.0000
# 3 -15.6888 3.5994 53.1373 0.0000 15.0467 0.0000
# 4 0.0000 0.0000 0.0000 39.9572 0.0000 7.2528
# 5 20.3550 4.7875 15.0467 0.0000 35.2361 0.0000
# 6 0.0000 0.0000 0.0000 7.2528 0.0000 27.8729
#
#
#
# Elastic Compliance Matrix: (Units=1/GPa)
#
#
# Indices 1 2 3 4 5 6 
#
# 1 0.031850 0.013765 0.016165 0.000000 -0.027172 0.000000
# 2 0.013765 0.036826 0.005959 0.000000 -0.015500 0.000000
# 3 0.016165 0.005959 0.029647 0.000000 -0.022808 0.000000
# 4 0.000000 0.000000 0.000000 0.026267 0.000000 -0.006835
# 5 -0.027172 -0.015500 -0.022808 0.000000 0.055922 0.000000
# 6 0.000000 0.000000 0.000000 -0.006835 0.000000 0.037656
#
#
# Mechanical properties :
#
#
# Convention : Reuss Voigt Hill
#
# Bulk Modulus (GPa) = 5.87887 11.09909 8.48898
# Shear Modulus (GPa) = 24.61962 32.09918 28.35940
#
# Velocity S-wave (km/s) = 3.29187 3.75880 3.53306
# Velocity P-wave (km/s) = 4.12749 4.87067 4.51440
#
# Compressibility (1/GPa) = 0.17010058
#
# Stress axis : x y z
#
# Youngs Moduli (GPa) = 31.39766 27.15436 33.73057
#
# Poissons Ratio (x) = -0.37378 -0.54526
# Poissons Ratio (y) = -0.43219 -0.20099
# Poissons Ratio (z) = -0.50755 -0.16180
#
# Static dielectric constant tensor:
#      x y z
#    x 1.838970 0.000000 0.026550 
#    y 0.000000 1.881720 0.000000 
#    z 0.026550 0.000000 1.850110 
# 
# From -- ./inp_files/15543.got.cif
#   From: 2010.05.17/outbox.cif.g08.bks.cpg/sg14_8_cif.got.tgz:15543.got - 2010.06.03 17:49:19.
