data_PCOD9243970
_publ_section_title
;
Structure prediction by ZEFSAII (Michael W. Deem and Ramdas Pophale) SiO2 
 PCOD9243970
Probable space group: P 21/C
;
_chemical_formula_sum "Si O2"
_cell_formula_units_Z 24
_cell_length_a 8.856038
_cell_length_b 13.182281
_cell_length_c 8.473567
_cell_angle_alpha 90.000000
_cell_angle_beta 92.713931
_cell_angle_gamma 90.000000
_cell_volume 988.118255
_symmetry_space_group_name_H-M "P 21/C"
_symmetry_group_IT_number 14
_symmetry_cell_setting 'monoclinic'
loop_
_space_group_symop_operation_xyz
x,y,z
-x,1/2+y,1/2-z
-x,-y,-z
x,1/2-y,1/2+z
loop_
_atom_site_type_symbol
_atom_site_label
_atom_site_fract_x
_atom_site_fract_y
_atom_site_fract_z
Si Si1 0.885110 0.171456 0.569124
Si Si2 0.637211 0.443349 0.590313
Si Si3 0.547564 0.240019 0.538531
Si Si4 0.339656 0.151611 0.769968
Si Si5 0.123391 0.521973 0.640748
Si Si6 0.078547 0.185167 0.269770
O O1 0.707062 0.183238 0.522853
O O2 0.990867 0.153411 0.423342
O O3 0.948814 0.276323 0.645008
O O4 0.910899 0.088701 0.707739
O O5 0.500000 0.500000 0.500000
O O6 0.588147 0.335942 0.656656
O O7 0.698755 0.533317 0.704204
O O8 0.747867 0.422007 0.450276
O O9 0.419565 0.168241 0.606161
O O10 0.464443 0.300617 0.394455
O O11 0.192808 0.220871 0.790078
O O12 0.167835 0.410168 0.703494
O O13 0.000000 0.500000 0.500000
#
# Coordination Sequence:
#
# PCOD9243970 Si02
#       6
#     4   4   4   4   4   4
#     4  12  24  42  66  98 133 172 220 274 328 391
#     4  10  20  39  63  89 122 167 212 258 318 383
#     4  11  23  41  65  94 129 171 216 266 325 391
#     4  11  23  41  65  94 129 171 216 266 325 391
#     4  12  25  43  67  93 127 173 222 274 331 389
#     4  12  24  42  66  98 133 172 220 274 328 391
#
# _framework density 24.288589999999999
#
# number of rings (size 3 to 8) (size 9 to 14) (size 15 to 20)
#    0.000    0.667    0.000   11.500    0.000    0.000 
#    0.000    6.667    0.000    0.000    0.000    0.000 
#    0.000    0.000    0.000    0.000    0.000    0.000 
#
# Total GULP energy -134189.958587 kJ/mol
# GULP energy per Si atom -5591.248274 kJ/mol
# Density = 2.423331 g / cm^3
# Si number density = 24.288590 Si / 1000 Ang^3
#
#
#
# Elastic Constant Matrix: (Units=GPa)
#
#
# Indices 1 2 3 4 5 6 
#
# 1 106.4313 -15.5265 5.6667 0.0000 -0.0029 0.0000
# 2 -15.5265 90.6101 -0.0960 0.0000 -11.3093 0.0000
# 3 5.6667 -0.0960 47.9625 0.0000 -3.2064 0.0000
# 4 0.0000 0.0000 0.0000 40.6221 0.0000 -3.3961
# 5 -0.0029 -11.3093 -3.2064 0.0000 35.8337 0.0000
# 6 0.0000 0.0000 0.0000 -3.3961 0.0000 32.3250
#
#
#
# Elastic Compliance Matrix: (Units=1/GPa)
#
#
# Indices 1 2 3 4 5 6 
#
# 1 0.009706 0.001717 -0.001114 0.000000 0.000443 0.000000
# 2 0.001717 0.011796 0.000070 0.000000 0.003729 0.000000
# 3 -0.001114 0.000070 0.021109 0.000000 0.001911 0.000000
# 4 0.000000 0.000000 0.000000 0.024835 0.000000 0.002609
# 5 0.000443 0.003729 0.001911 0.000000 0.029255 0.000000
# 6 0.000000 0.000000 0.000000 0.002609 0.000000 0.031210
#
#
# Mechanical properties :
#
#
# Convention : Reuss Voigt Hill
#
# Bulk Modulus (GPa) = 22.74899 25.01024 23.87961
# Shear Modulus (GPa) = 35.40675 38.75349 37.08012
#
# Velocity S-wave (km/s) = 3.82219 3.99876 3.91147
# Velocity P-wave (km/s) = 5.37265 5.62491 5.50022
#
# Compressibility (1/GPa) = 0.04395800
#
# Stress axis : x y z
#
# Youngs Moduli (GPa) = 103.03387 84.77381 47.37295
#
# Poissons Ratio (x) = -0.14558 0.05276
# Poissons Ratio (y) = -0.17693 -0.00332
# Poissons Ratio (z) = 0.11474 -0.00594
#
# Static dielectric constant tensor:
#      x y z
#    x 2.043380 0.000000 0.015470 
#    y 0.000000 2.049920 0.000000 
#    z 0.015470 0.000000 1.969460 
# 
# From -- ./inp_files/8511.got.cif
#   From: 2010.05.17/outbox.cif.g08.bks.cpg/sg14_5_cif.got.tgz:8511.got - 2010.06.03 17:49:19.
