data_PCOD9243349
_publ_section_title
;
Structure prediction by ZEFSAII (Michael W. Deem and Ramdas Pophale) SiO2 
 PCOD9243349
Probable space group: P 21/C
;
_chemical_formula_sum "Si O2"
_cell_formula_units_Z 24
_cell_length_a 26.732145
_cell_length_b 7.828965
_cell_length_c 11.559274
_cell_angle_alpha 90.000000
_cell_angle_beta 30.137172
_cell_angle_gamma 90.000000
_cell_volume 1214.603840
_symmetry_space_group_name_H-M "P 21/C"
_symmetry_group_IT_number 14
_symmetry_cell_setting 'monoclinic'
loop_
_space_group_symop_operation_xyz
x,y,z
-x,1/2+y,1/2-z
-x,-y,-z
x,1/2-y,1/2+z
loop_
_atom_site_type_symbol
_atom_site_label
_atom_site_fract_x
_atom_site_fract_y
_atom_site_fract_z
Si Si1 0.552743 0.844159 0.549881
Si Si2 0.947256 0.655841 0.260858
Si Si3 0.360582 0.647454 0.268187
Si Si4 0.446567 0.532428 0.485142
Si Si5 0.946567 0.032426 0.228590
Si Si6 0.139417 0.852545 0.210516
O O1 0.446722 0.842366 0.692851
O O2 0.594891 0.652139 0.468834
O O3 0.526516 0.910115 0.729572
O O4 0.619819 0.977084 0.345568
O O5 0.973484 0.589886 0.335638
O O6 0.905108 0.847861 0.348404
O O7 0.880180 0.522914 0.324849
O O8 0.053276 0.657631 0.979741
O O9 0.249999 0.647605 0.539458
O O10 0.374307 0.809526 0.155387
O O11 0.500000 0.500000 0.500000
O O12 0.874307 0.190474 0.347388
O O13 0.000000 0.000000 0.000000
#
# Coordination Sequence:
#
# PCOD9243349 Si02
#       6
#     4   4   4   4   4   4
#     4  10  20  39  62  85 122 159 195 254 305 349
#     4  10  20  39  62  85 122 159 195 254 305 349
#     4  10  22  38  60  88 117 159 207 247 299 360
#     4  10  20  37  62  85 116 159 198 243 302 354
#     4  10  20  37  62  85 116 159 198 243 302 354
#     4  10  22  38  60  88 117 159 207 247 299 360
#
# _framework density 19.759529000000001
#
# number of rings (size 3 to 8) (size 9 to 14) (size 15 to 20)
#    0.000    2.000    3.333    0.000    0.000    2.667 
#    0.000    0.000    0.000    0.000    0.000    0.000 
#    0.000    0.000    0.000    0.000    0.000    0.000 
#
# Total GULP energy -133859.398195 kJ/mol
# GULP energy per Si atom -5577.474925 kJ/mol
# Density = 1.971456 g / cm^3
# Si number density = 19.759529 Si / 1000 Ang^3
#
#
#
# Elastic Constant Matrix: (Units=GPa)
#
#
# Indices 1 2 3 4 5 6 
#
# 1 50.1018 8.6721 10.6431 0.0000 20.3537 0.0000
# 2 8.6721 155.1342 6.2275 0.0000 1.9125 0.0000
# 3 10.6431 6.2275 39.5037 0.0000 -12.0655 0.0000
# 4 0.0000 0.0000 0.0000 10.5369 0.0000 7.3934
# 5 20.3537 1.9125 -12.0655 0.0000 32.0904 0.0000
# 6 0.0000 0.0000 0.0000 7.3934 0.0000 19.9846
#
#
#
# Elastic Compliance Matrix: (Units=1/GPa)
#
#
# Indices 1 2 3 4 5 6 
#
# 1 0.036332 -0.000904 -0.018830 0.000000 -0.030070 0.000000
# 2 -0.000904 0.006531 -0.000824 0.000000 -0.000126 0.000000
# 3 -0.018830 -0.000824 0.038614 0.000000 0.026511 0.000000
# 4 0.000000 0.000000 0.000000 0.128178 0.000000 -0.047420
# 5 -0.030070 -0.000126 0.026511 0.000000 0.060209 0.000000
# 6 0.000000 0.000000 0.000000 -0.047420 0.000000 0.067582
#
#
# Mechanical properties :
#
#
# Convention : Reuss Voigt Hill
#
# Bulk Modulus (GPa) = 24.77713 32.86945 28.82329
# Shear Modulus (GPa) = 12.75453 27.13551 19.94502
#
# Velocity S-wave (km/s) = 2.54340 3.70981 3.18053
# Velocity P-wave (km/s) = 4.60345 5.91786 5.30155
#
# Compressibility (1/GPa) = 0.04035980
#
# Stress axis : x y z
#
# Youngs Moduli (GPa) = 27.52414 153.11061 25.89707
#
# Poissons Ratio (x) = 0.13847 0.48764
# Poissons Ratio (y) = 0.02489 0.02135
# Poissons Ratio (z) = 0.51828 0.12621
#
# Static dielectric constant tensor:
#      x y z
#    x 1.683600 0.000000 -0.003230 
#    y 0.000000 1.748370 0.000000 
#    z -0.003230 0.000000 1.687700 
# 
# From -- ./inp_files/36081.got.cif
#   From: 2010.05.17/outbox.cif.g08.bks.cpg/sg14_19_cif.got.tgz:36081.got - 2010.06.03 17:49:19.
