data_PCOD9243635
_publ_section_title
;
Structure prediction by ZEFSAII (Michael W. Deem and Ramdas Pophale) SiO2 
 PCOD9243635
Probable space group: P 21/C
;
_chemical_formula_sum "Si O2"
_cell_formula_units_Z 32
_cell_length_a 8.942148
_cell_length_b 23.898596
_cell_length_c 14.111433
_cell_angle_alpha 90.000000
_cell_angle_beta 146.662374
_cell_angle_gamma 90.000000
_cell_volume 1657.332394
_symmetry_space_group_name_H-M "P 21/C"
_symmetry_group_IT_number 14
_symmetry_cell_setting 'monoclinic'
loop_
_space_group_symop_operation_xyz
x,y,z
-x,1/2+y,1/2-z
-x,-y,-z
x,1/2-y,1/2+z
loop_
_atom_site_type_symbol
_atom_site_label
_atom_site_fract_x
_atom_site_fract_y
_atom_site_fract_z
Si Si1 0.577882 0.870594 0.832253
Si Si2 0.473885 0.374703 0.102934
Si Si3 0.953810 0.296248 0.331849
Si Si4 0.986923 0.679439 0.032803
Si Si5 0.500069 0.413766 0.904497
Si Si6 0.334559 0.449995 0.460902
Si Si7 0.173570 0.520671 0.682911
Si Si8 0.074968 0.354755 0.207032
O O1 0.643738 0.882203 0.758251
O O2 0.303576 0.835562 0.694166
O O3 0.832691 0.839608 0.011300
O O4 0.532329 0.926078 0.871754
O O5 0.191740 0.365456 0.005304
O O6 0.667755 0.421664 0.251745
O O7 0.650653 0.317582 0.195415
O O8 0.426828 0.393511 0.970069
O O9 0.023190 0.237103 0.414472
O O10 0.996274 0.307154 0.242222
O O11 0.871869 0.675364 0.864576
O O12 0.403706 0.476830 0.836925
O O13 0.815165 0.396373 0.057660
O O14 0.500000 0.500000 0.500000
O O15 0.298130 0.396884 0.370381
O O16 0.038688 0.469854 0.342986
O O17 0.000000 0.500000 0.500000
#
# Coordination Sequence:
#
# PCOD9243635 Si02
#       8
#     4   4   4   4   4   4   4   4
#     4  10  21  42  58  88 127 155 201 258 307 363
#     4  11  23  39  62  92 120 157 212 253 293 381
#     4  10  20  45  61  82 122 164 201 255 311 354
#     4  11  24  37  65  91 116 159 209 257 308 362
#     4  10  20  38  62  85 122 161 193 250 310 359
#     4  11  23  39  61  88 127 167 197 250 310 371
#     4  12  22  39  62  90 124 170 205 248 309 373
#     4   9  22  42  60  87 127 156 200 260 306 364
#
# _framework density 19.308136000000001
#
# number of rings (size 3 to 8) (size 9 to 14) (size 15 to 20)
#    0.000    1.500    5.000    1.125    3.500    1.000 
#    0.000   10.000    0.000    0.000    0.000    0.000 
#    0.000    0.000    0.000    0.000    0.000    0.000 
#
# Total GULP energy -178391.495523 kJ/mol
# GULP energy per Si atom -5574.734235 kJ/mol
# Density = 1.926419 g / cm^3
# Si number density = 19.308136 Si / 1000 Ang^3
#
#
#
# Elastic Constant Matrix: (Units=GPa)
#
#
# Indices 1 2 3 4 5 6 
#
# 1 43.4518 32.6973 17.7222 0.0000 -14.6411 0.0000
# 2 32.6973 93.0020 20.6811 0.0000 -8.1188 0.0000
# 3 17.7222 20.6811 53.2467 0.0000 -22.4035 0.0000
# 4 0.0000 0.0000 0.0000 35.4893 0.0000 -0.3954
# 5 -14.6411 -8.1188 -22.4035 0.0000 33.1766 0.0000
# 6 0.0000 0.0000 0.0000 -0.3954 0.0000 21.4110
#
#
#
# Elastic Compliance Matrix: (Units=1/GPa)
#
#
# Indices 1 2 3 4 5 6 
#
# 1 0.036458 -0.011154 -0.003047 0.000000 0.011302 0.000000
# 2 -0.011154 0.015183 -0.003761 0.000000 -0.003747 0.000000
# 3 -0.003047 -0.003761 0.028360 0.000000 0.016886 0.000000
# 4 0.000000 0.000000 0.000000 0.028183 0.000000 0.000520
# 5 0.011302 -0.003747 0.016886 0.000000 0.045616 0.000000
# 6 0.000000 0.000000 0.000000 0.000520 0.000000 0.046715
#
#
# Mechanical properties :
#
#
# Convention : Reuss Voigt Hill
#
# Bulk Modulus (GPa) = 22.68706 36.87795 29.78250
# Shear Modulus (GPa) = 19.90994 25.92204 22.91599
#
# Velocity S-wave (km/s) = 3.21466 3.66805 3.44882
# Velocity P-wave (km/s) = 5.05512 6.08939 5.59620
#
# Compressibility (1/GPa) = 0.04407799
#
# Stress axis : x y z
#
# Youngs Moduli (GPa) = 27.42884 65.86261 35.26060
#
# Poissons Ratio (x) = 0.73460 0.10744
# Poissons Ratio (y) = 0.30593 0.13262
# Poissons Ratio (z) = 0.08357 0.24772
#
# Static dielectric constant tensor:
#      x y z
#    x 1.680830 0.000000 -0.023420 
#    y 0.000000 1.705700 0.000000 
#    z -0.023420 0.000000 1.685690 
# 
# From -- ./inp_files/42199.got.cif
#   From: 2010.05.17/outbox.cif.g08.bks.cpg/sg14_22_cif.got.tgz:42199.got - 2010.06.03 17:49:19.
