data_PCOD9243382
_publ_section_title
;
Structure prediction by ZEFSAII (Michael W. Deem and Ramdas Pophale) SiO2 
 PCOD9243382
Probable space group: P 21/C
;
_chemical_formula_sum "Si O2"
_cell_formula_units_Z 32
_cell_length_a 12.411649
_cell_length_b 19.451592
_cell_length_c 8.991979
_cell_angle_alpha 90.000000
_cell_angle_beta 130.211567
_cell_angle_gamma 90.000000
_cell_volume 1657.842273
_symmetry_space_group_name_H-M "P 21/C"
_symmetry_group_IT_number 14
_symmetry_cell_setting 'monoclinic'
loop_
_space_group_symop_operation_xyz
x,y,z
-x,1/2+y,1/2-z
-x,-y,-z
x,1/2-y,1/2+z
loop_
_atom_site_type_symbol
_atom_site_label
_atom_site_fract_x
_atom_site_fract_y
_atom_site_fract_z
Si Si1 0.733789 0.056649 0.950543
Si Si2 0.232132 0.376185 0.000744
Si Si3 0.683451 0.221409 0.558453
Si Si4 0.530409 0.173588 0.722698
Si Si5 0.335609 0.016694 0.832353
Si Si6 0.926891 0.166614 0.290409
Si Si7 0.862988 0.493899 0.278192
Si Si8 0.186433 0.603958 0.018453
O O1 0.590522 0.100358 0.830966
O O2 0.749493 0.033007 0.795650
O O3 0.732161 0.993809 0.064632
O O4 0.853485 0.110819 0.113273
O O5 0.186739 0.437243 0.847871
O O6 0.092086 0.330857 0.901779
O O7 0.364204 0.334359 0.053619
O O8 0.286824 0.415197 0.200245
O O9 0.621834 0.194836 0.659488
O O10 0.569328 0.271834 0.383789
O O11 0.829140 0.265406 0.699667
O O12 0.716258 0.159796 0.475156
O O13 0.277847 0.953078 0.684089
O O14 0.500000 0.000000 0.000000
O O15 0.909614 0.137729 0.441681
O O16 0.000000 0.500000 0.500000
O O17 0.893266 0.437046 0.180619
#
# Coordination Sequence:
#
# PCOD9243382 Si02
#       8
#     4   4   4   4   4   4   4   4
#     4  10  20  37  63  88 125 169 198 246 317 376
#     4  11  24  40  62  97 130 159 209 262 316 366
#     4  11  22  43  65  84 120 169 220 250 305 372
#     4  11  23  41  63  91 122 164 211 262 304 371
#     4  10  21  37  63  93 131 160 196 251 320 381
#     4  10  22  41  62  88 125 168 210 254 303 375
#     4  11  22  37  62  97 129 155 203 262 317 369
#     4  10  22  38  66  89 116 173 212 240 309 382
#
# _framework density 19.302195999999999
#
# number of rings (size 3 to 8) (size 9 to 14) (size 15 to 20)
#    0.000    1.500    5.000    0.000    1.750    3.000 
#    2.250    0.000    0.000    0.000    0.000    0.000 
#    0.000    0.000    0.000    0.000    0.000    0.000 
#
# Total GULP energy -178539.477276 kJ/mol
# GULP energy per Si atom -5579.358665 kJ/mol
# Density = 1.925826 g / cm^3
# Si number density = 19.302196 Si / 1000 Ang^3
#
#
#
# Elastic Constant Matrix: (Units=GPa)
#
#
# Indices 1 2 3 4 5 6 
#
# 1 88.7373 26.5300 31.9907 0.0000 8.4751 0.0000
# 2 26.5300 39.7615 -3.7541 0.0000 -4.5192 0.0000
# 3 31.9907 -3.7541 55.3936 0.0000 -0.7086 0.0000
# 4 0.0000 0.0000 0.0000 9.8003 0.0000 -6.3395
# 5 8.4751 -4.5192 -0.7086 0.0000 46.2978 0.0000
# 6 0.0000 0.0000 0.0000 -6.3395 0.0000 23.2935
#
#
#
# Elastic Compliance Matrix: (Units=1/GPa)
#
#
# Indices 1 2 3 4 5 6 
#
# 1 0.021663 -0.016404 -0.013696 0.000000 -0.005776 0.000000
# 2 -0.016404 0.038025 0.012139 0.000000 0.006900 0.000000
# 3 -0.013696 0.012139 0.026838 0.000000 0.004103 0.000000
# 4 0.000000 0.000000 0.000000 0.123839 0.000000 0.033704
# 5 -0.005776 0.006900 0.004103 0.000000 0.023393 0.000000
# 6 0.000000 0.000000 0.000000 0.033704 0.000000 0.052103
#
#
# Mechanical properties :
#
#
# Convention : Reuss Voigt Hill
#
# Bulk Modulus (GPa) = 19.76161 32.60288 26.18224
# Shear Modulus (GPa) = 14.76446 24.48672 19.62559
#
# Velocity S-wave (km/s) = 2.76870 3.56560 3.19212
# Velocity P-wave (km/s) = 4.52561 5.82055 5.21344
#
# Compressibility (1/GPa) = 0.05060316
#
# Stress axis : x y z
#
# Youngs Moduli (GPa) = 46.16215 26.29829 37.26129
#
# Poissons Ratio (x) = 0.43139 0.51034
# Poissons Ratio (y) = 0.75723 -0.45230
# Poissons Ratio (z) = 0.63225 -0.31923
#
# Static dielectric constant tensor:
#      x y z
#    x 1.736620 0.000000 -0.004830 
#    y 0.000000 1.692730 0.000000 
#    z -0.004830 0.000000 1.688060 
# 
# From -- ./inp_files/14326.got.cif
#   From: 2010.05.17/outbox.cif.g08.bks.cpg/sg14_8_cif.got.tgz:14326.got - 2010.06.03 17:49:19.
