data_PCOD9243959
_publ_section_title
;
Structure prediction by ZEFSAII (Michael W. Deem and Ramdas Pophale) SiO2 
 PCOD9243959
Probable space group: P 21/C
;
_chemical_formula_sum "Si O2"
_cell_formula_units_Z 32
_cell_length_a 12.262180
_cell_length_b 11.829385
_cell_length_c 13.962447
_cell_angle_alpha 90.000000
_cell_angle_beta 136.932099
_cell_angle_gamma 90.000000
_cell_volume 1383.012145
_symmetry_space_group_name_H-M "P 21/C"
_symmetry_group_IT_number 14
_symmetry_cell_setting 'monoclinic'
loop_
_space_group_symop_operation_xyz
x,y,z
-x,1/2+y,1/2-z
-x,-y,-z
x,1/2-y,1/2+z
loop_
_atom_site_type_symbol
_atom_site_label
_atom_site_fract_x
_atom_site_fract_y
_atom_site_fract_z
Si Si1 0.030577 0.568787 0.721094
Si Si2 0.243825 0.090594 0.096265
Si Si3 0.497742 0.660152 0.398514
Si Si4 0.273958 0.493089 0.152888
Si Si5 0.874362 0.664702 0.287882
Si Si6 0.808495 0.204536 0.523582
Si Si7 0.233020 0.109000 0.809189
Si Si8 0.577307 0.140254 0.768419
O O1 0.932302 0.597181 0.562422
O O2 0.884690 0.536250 0.700615
O O3 0.126287 0.455434 0.762345
O O4 0.140467 0.667110 0.836523
O O5 0.371232 0.135749 0.101266
O O6 0.234878 0.157385 0.188856
O O7 0.298476 0.963115 0.155191
O O8 0.352582 0.577713 0.281383
O O9 0.579858 0.616247 0.548005
O O10 0.442603 0.787770 0.342026
O O11 0.193371 0.581566 0.029577
O O12 0.183688 0.410166 0.167757
O O13 0.410373 0.418746 0.189616
O O14 0.808992 0.764608 0.181332
O O15 0.052948 0.710388 0.423037
O O16 0.645730 0.269719 0.391244
#
# Coordination Sequence:
#
# PCOD9243959 Si02
#       8
#     4   4   4   4   4   4   4   4
#     4  10  22  39  60  86 125 153 200 257 294 364
#     4  10  20  40  64  85 121 164 198 251 307 345
#     4   9  20  38  60  88 119 162 197 246 299 356
#     4  10  21  40  64  84 125 157 203 246 295 369
#     4  11  22  40  61  89 123 153 206 252 297 365
#     4  10  23  41  60  95 119 161 202 244 313 354
#     4  10  22  40  57  92 118 160 201 248 305 352
#     4  10  20  39  63  86 122 162 198 248 297 360
#
# _framework density 23.137903000000001
#
# number of rings (size 3 to 8) (size 9 to 14) (size 15 to 20)
#    0.000    2.000    1.250    1.500    1.750    2.000 
#   11.250    0.625    0.000    0.000    0.000    0.000 
#    0.000    0.000    0.000    0.000    0.000    0.000 
#
# Total GULP energy -178342.915407 kJ/mol
# GULP energy per Si atom -5573.216106 kJ/mol
# Density = 2.308524 g / cm^3
# Si number density = 23.137903 Si / 1000 Ang^3
#
#
#
# Elastic Constant Matrix: (Units=GPa)
#
#
# Indices 1 2 3 4 5 6 
#
# 1 35.6103 18.1892 -3.8182 0.0000 -5.7683 0.0000
# 2 18.1892 83.1295 15.6422 0.0000 -4.8443 0.0000
# 3 -3.8182 15.6422 40.1808 0.0000 5.5424 0.0000
# 4 0.0000 0.0000 0.0000 34.3178 0.0000 0.4515
# 5 -5.7683 -4.8443 5.5424 0.0000 21.7307 0.0000
# 6 0.0000 0.0000 0.0000 0.4515 0.0000 25.5774
#
#
#
# Elastic Compliance Matrix: (Units=1/GPa)
#
#
# Indices 1 2 3 4 5 6 
#
# 1 0.033743 -0.008097 0.005568 0.000000 0.005732 0.000000
# 2 -0.008097 0.015329 -0.007164 0.000000 0.003095 0.000000
# 3 0.005568 -0.007164 0.029251 0.000000 -0.007580 0.000000
# 4 0.000000 0.000000 0.000000 0.029146 0.000000 -0.000514
# 5 0.005732 0.003095 -0.007580 0.000000 0.050162 0.000000
# 6 0.000000 0.000000 0.000000 -0.000514 0.000000 0.039106
#
#
# Mechanical properties :
#
#
# Convention : Reuss Voigt Hill
#
# Bulk Modulus (GPa) = 16.96711 24.32743 20.64727
# Shear Modulus (GPa) = 21.20710 24.91901 23.06306
#
# Velocity S-wave (km/s) = 3.03075 3.28529 3.16058
# Velocity P-wave (km/s) = 4.42676 4.99278 4.71826
#
# Compressibility (1/GPa) = 0.05893755
#
# Stress axis : x y z
#
# Youngs Moduli (GPa) = 29.63578 65.23387 34.18683
#
# Poissons Ratio (x) = 0.52819 -0.19035
# Poissons Ratio (y) = 0.23996 0.24492
# Poissons Ratio (z) = -0.16501 0.46734
#
# Static dielectric constant tensor:
#      x y z
#    x 1.929580 0.000000 0.047750 
#    y 0.000000 1.905180 0.000000 
#    z 0.047750 0.000000 1.947860 
# 
# From -- ./inp_files/47170.got.cif
#   From: 2010.05.17/outbox.cif.g08.bks.cpg/sg14_24_cif.got.tgz:47170.got - 2010.06.03 17:49:19.
