data_PCOD9243468
_publ_section_title
;
Structure prediction by ZEFSAII (Michael W. Deem and Ramdas Pophale) SiO2 
 PCOD9243468
Probable space group: P 21/C
;
_chemical_formula_sum "Si O2"
_cell_formula_units_Z 32
_cell_length_a 12.626018
_cell_length_b 11.233224
_cell_length_c 22.668684
_cell_angle_alpha 90.000000
_cell_angle_beta 20.894589
_cell_angle_gamma 90.000000
_cell_volume 1146.671668
_symmetry_space_group_name_H-M "P 21/C"
_symmetry_group_IT_number 14
_symmetry_cell_setting 'monoclinic'
loop_
_space_group_symop_operation_xyz
x,y,z
-x,1/2+y,1/2-z
-x,-y,-z
x,1/2-y,1/2+z
loop_
_atom_site_type_symbol
_atom_site_label
_atom_site_fract_x
_atom_site_fract_y
_atom_site_fract_z
Si Si1 0.094732 0.312353 0.795145
Si Si2 0.549766 0.818485 0.220404
Si Si3 0.382255 0.575692 0.146453
Si Si4 0.749225 0.504310 0.048167
Si Si5 0.616361 0.016184 0.026940
Si Si6 0.119583 0.869087 0.997887
Si Si7 0.110249 0.111799 0.702938
Si Si8 0.767036 0.188617 0.733526
O O1 0.420896 0.365012 0.625142
O O2 0.056975 0.215588 0.865406
O O3 0.029237 0.241710 0.769505
O O4 0.884896 0.417272 0.927306
O O5 0.879978 0.863656 0.067906
O O6 0.475286 0.791995 0.191714
O O7 0.420282 0.700148 0.320750
O O8 0.324042 0.925385 0.357355
O O9 0.316614 0.458416 0.143002
O O10 0.174023 0.691158 0.260551
O O11 0.431051 0.537518 0.187929
O O12 0.697405 0.620637 0.955639
O O13 0.963000 0.617807 0.937969
O O14 0.774970 0.028286 0.009775
O O15 0.832390 0.024725 0.858494
O O16 0.400495 0.904868 0.137628
#
# Coordination Sequence:
#
# PCOD9243468 Si02
#       8
#     4   4   4   4   4   4   4   4
#     4   9  19  40  68  98 119 169 231 286 333 415
#     4  11  23  40  70 102 140 188 232 287 355 406
#     4  11  26  44  62  99 136 178 222 289 356 419
#     4  10  23  44  67  95 136 182 228 287 349 417
#     4  10  21  41  67  96 129 173 234 285 341 421
#     4  10  20  37  67 103 133 175 236 282 335 421
#     4  10  24  42  70  93 130 176 228 286 359 416
#     4  11  27  42  65  99 144 181 230 291 347 431
#
# _framework density 27.906855
#
# number of rings (size 3 to 8) (size 9 to 14) (size 15 to 20)
#    0.000    1.750    1.250    1.875    7.000    3.500 
#    0.000    2.500    0.000    2.250    0.000    0.000 
#    0.000    0.000    0.000    0.000    0.000    0.000 
#
# Total GULP energy -178898.348433 kJ/mol
# GULP energy per Si atom -5590.573389 kJ/mol
# Density = 2.784334 g / cm^3
# Si number density = 27.906855 Si / 1000 Ang^3
#
#
#
# Elastic Constant Matrix: (Units=GPa)
#
#
# Indices 1 2 3 4 5 6 
#
# 1 120.5004 16.5443 -6.2111 0.0000 -1.9768 0.0000
# 2 16.5443 107.8584 11.6503 0.0000 2.8638 0.0000
# 3 -6.2111 11.6503 95.0991 0.0000 -1.0690 0.0000
# 4 0.0000 0.0000 0.0000 39.0890 0.0000 -9.2403
# 5 -1.9768 2.8638 -1.0690 0.0000 38.4913 0.0000
# 6 0.0000 0.0000 0.0000 -9.2403 0.0000 21.2376
#
#
#
# Elastic Compliance Matrix: (Units=1/GPa)
#
#
# Indices 1 2 3 4 5 6 
#
# 1 0.008539 -0.001404 0.000736 0.000000 0.000563 0.000000
# 2 -0.001404 0.009647 -0.001283 0.000000 -0.000826 0.000000
# 3 0.000736 -0.001283 0.010725 0.000000 0.000431 0.000000
# 4 0.000000 0.000000 0.000000 0.028516 0.000000 0.012407
# 5 0.000563 -0.000826 0.000431 0.000000 0.026082 0.000000
# 6 0.000000 0.000000 0.000000 0.012407 0.000000 0.052485
#
#
# Mechanical properties :
#
#
# Convention : Reuss Voigt Hill
#
# Bulk Modulus (GPa) = 39.98502 40.82500 40.40501
# Shear Modulus (GPa) = 33.73088 39.86187 36.79638
#
# Velocity S-wave (km/s) = 3.48040 3.78350 3.63511
# Velocity P-wave (km/s) = 5.52359 5.80924 5.66822
#
# Compressibility (1/GPa) = 0.02500937
#
# Stress axis : x y z
#
# Youngs Moduli (GPa) = 117.11380 103.65606 93.23644
#
# Poissons Ratio (x) = 0.14555 -0.06863
# Poissons Ratio (y) = 0.16445 0.11961
# Poissons Ratio (z) = -0.08620 0.13298
#
# Static dielectric constant tensor:
#      x y z
#    x 2.207000 0.000000 -0.093540 
#    y 0.000000 2.199760 0.000000 
#    z -0.093540 0.000000 2.204340 
# 
# From -- ./inp_files/77582.got.cif
#   From: 2010.05.17/outbox.cif.g08.bks.cpg/sg14_39_cif.got.tgz:77582.got - 2010.06.03 17:49:19.
