data_PCOD9243209
_publ_section_title
;
Structure prediction by ZEFSAII (Michael W. Deem and Ramdas Pophale) SiO2 
 PCOD9243209
Probable space group: P 21/C
;
_chemical_formula_sum "Si O2"
_cell_formula_units_Z 32
_cell_length_a 11.886899
_cell_length_b 17.811412
_cell_length_c 15.990576
_cell_angle_alpha 90.000000
_cell_angle_beta 148.101710
_cell_angle_gamma 90.000000
_cell_volume 1788.976027
_symmetry_space_group_name_H-M "P 21/C"
_symmetry_group_IT_number 14
_symmetry_cell_setting 'monoclinic'
loop_
_space_group_symop_operation_xyz
x,y,z
-x,1/2+y,1/2-z
-x,-y,-z
x,1/2-y,1/2+z
loop_
_atom_site_type_symbol
_atom_site_label
_atom_site_fract_x
_atom_site_fract_y
_atom_site_fract_z
Si Si1 0.521308 0.311868 0.015109
Si Si2 0.003115 0.169845 0.021747
Si Si3 0.902226 0.915116 0.526584
Si Si4 0.444010 0.418626 0.814512
Si Si5 0.452689 0.595979 0.803449
Si Si6 0.027954 0.761117 0.666864
Si Si7 0.111368 0.915660 0.476609
Si Si8 0.115314 0.274713 0.241857
O O1 0.468451 0.354665 0.068020
O O2 0.738320 0.269382 0.168464
O O3 0.529359 0.377331 0.951354
O O4 0.357635 0.249319 0.878972
O O5 0.209568 0.115520 0.150742
O O6 0.995955 0.216023 0.104406
O O7 0.035598 0.225828 0.963049
O O8 0.777616 0.127486 0.868661
O O9 0.647680 0.899563 0.360565
O O10 0.006314 0.850179 0.646840
O O11 0.020239 0.912699 0.512522
O O12 0.921909 0.998959 0.575247
O O13 0.428328 0.508433 0.811973
O O14 0.633976 0.401410 0.868062
O O15 0.904821 0.735346 0.671598
O O16 0.977679 0.855152 0.340689
#
# Coordination Sequence:
#
# PCOD9243209 Si02
#       8
#     4   4   4   4   4   4   4   4
#     4  10  21  34  59  86 116 152 194 246 295 342
#     4  10  23  36  59  88 116 154 196 252 293 342
#     4  10  21  38  60  84 117 158 195 237 291 351
#     4  10  20  37  58  86 118 153 194 241 296 352
#     4  10  20  37  58  86 118 153 194 241 296 352
#     4  11  21  38  57  88 117 152 196 242 293 349
#     4  10  21  38  60  84 117 158 195 237 291 351
#     4  11  21  38  57  88 117 152 196 242 293 349
#
# _framework density 17.887326999999999
#
# number of rings (size 3 to 8) (size 9 to 14) (size 15 to 20)
#    0.000    1.750    3.750    0.750    0.000    3.000 
#    0.000    1.875    0.000    0.000    0.000    0.000 
#    0.000    0.000    0.000    0.000    0.000    0.000 
#
# Total GULP energy -178201.957370 kJ/mol
# GULP energy per Si atom -5568.811168 kJ/mol
# Density = 1.784661 g / cm^3
# Si number density = 17.887327 Si / 1000 Ang^3
#
#
#
# Elastic Constant Matrix: (Units=GPa)
#
#
# Indices 1 2 3 4 5 6 
#
# 1 57.5046 -3.0875 6.9032 0.0000 17.9201 0.0000
# 2 -3.0875 58.9096 24.8441 0.0000 14.3156 0.0000
# 3 6.9032 24.8441 66.5602 0.0000 13.6034 0.0000
# 4 0.0000 0.0000 0.0000 24.3698 0.0000 3.7685
# 5 17.9201 14.3156 13.6034 0.0000 17.6188 0.0000
# 6 0.0000 0.0000 0.0000 3.7685 0.0000 17.4734
#
#
#
# Elastic Compliance Matrix: (Units=1/GPa)
#
#
# Indices 1 2 3 4 5 6 
#
# 1 0.030647 0.011133 0.001051 0.000000 -0.041029 0.000000
# 2 0.011133 0.026831 -0.005224 0.000000 -0.029091 0.000000
# 3 0.001051 -0.005224 0.019254 0.000000 -0.011691 0.000000
# 4 0.000000 0.000000 0.000000 0.042450 0.000000 -0.009155
# 5 -0.041029 -0.029091 -0.011691 0.000000 0.131151 0.000000
# 6 0.000000 0.000000 0.000000 -0.009155 0.000000 0.059205
#
#
# Mechanical properties :
#
#
# Convention : Reuss Voigt Hill
#
# Bulk Modulus (GPa) = 11.03097 26.69933 18.86515
# Shear Modulus (GPa) = 15.34516 22.18005 18.76261
#
# Velocity S-wave (km/s) = 2.93213 3.52516 3.24224
# Velocity P-wave (km/s) = 4.20042 5.61497 4.95840
#
# Compressibility (1/GPa) = 0.09065384
#
# Stress axis : x y z
#
# Youngs Moduli (GPa) = 32.62931 37.26998 51.93678
#
# Poissons Ratio (x) = -0.41494 -0.05460
# Poissons Ratio (y) = -0.36327 0.27132
# Poissons Ratio (z) = -0.03430 0.19470
#
# Static dielectric constant tensor:
#      x y z
#    x 1.664400 0.000000 0.008810 
#    y 0.000000 1.621930 0.000000 
#    z 0.008810 0.000000 1.595590 
# 
# From -- ./inp_files/45457.got.cif
#   From: 2010.05.17/outbox.cif.g08.bks.cpg/sg14_23_cif.got.tgz:45457.got - 2010.06.03 17:49:19.
