data_PCOD9243825
_publ_section_title
;
Structure prediction by ZEFSAII (Michael W. Deem and Ramdas Pophale) SiO2 
 PCOD9243825
Probable space group: P 21/C
;
_chemical_formula_sum "Si O2"
_cell_formula_units_Z 30
_cell_length_a 5.184670
_cell_length_b 31.692995
_cell_length_c 7.011838
_cell_angle_alpha 90.000000
_cell_angle_beta 106.220598
_cell_angle_gamma 90.000000
_cell_volume 1106.305210
_symmetry_space_group_name_H-M "P 21/C"
_symmetry_group_IT_number 14
_symmetry_cell_setting 'monoclinic'
loop_
_space_group_symop_operation_xyz
x,y,z
-x,1/2+y,1/2-z
-x,-y,-z
x,1/2-y,1/2+z
loop_
_atom_site_type_symbol
_atom_site_label
_atom_site_fract_x
_atom_site_fract_y
_atom_site_fract_z
Si Si1 0.726362 0.084667 0.513643
Si Si2 0.000000 0.000000 0.500000
Si Si3 0.696384 0.557330 0.368313
Si Si4 0.568904 0.472817 0.302754
Si Si5 0.580907 0.288802 0.405761
Si Si6 0.103386 0.282794 0.779687
Si Si7 0.144385 0.678949 0.893030
Si Si8 0.248224 0.351544 0.518738
O O1 0.947898 0.051984 0.484426
O O2 0.463499 0.076196 0.338064
O O3 0.671025 0.067591 0.713118
O O4 0.778728 0.133431 0.512040
O O5 0.305769 0.008417 0.647713
O O6 0.794776 0.510452 0.320315
O O7 0.503674 0.541800 0.500721
O O8 0.830192 0.599606 0.475377
O O9 0.332006 0.254257 0.353150
O O10 0.634124 0.298501 0.193980
O O11 0.529731 0.335408 0.489382
O O12 0.843889 0.274836 0.584860
O O13 0.231417 0.323853 0.706264
O O14 0.982167 0.203271 0.455761
O O15 0.935359 0.667688 0.683848
#
# Coordination Sequence:
#
# PCOD9243825 Si02
#       8
#     4   2   4   4   4   4   4   4
#     4  11  23  43  70 109 151 204 258 323 403 479
#     4  10  20  38  68 104 144 198 256 310 386 472
#     4  10  21  42  68 104 149 200 255 320 388 468
#     4  10  22  41  69 102 152 202 257 324 387 483
#     4  11  28  56  81 121 159 210 281 337 422 501
#     4  11  29  54  84 120 157 216 270 345 417 502
#     4  11  27  51  82 115 162 215 266 344 416 493
#     4  11  26  49  75 114 159 206 270 336 402 494
#
# _framework density 27.117293
#
# number of rings (size 3 to 8) (size 9 to 14) (size 15 to 20)
#    0.000    1.333    0.000    4.000    1.867   10.667 
#    4.800   19.333    0.000    0.000    0.000    0.000 
#    0.000    0.000    0.000    0.000    0.000    0.000 
#
# Total GULP energy -167229.384273 kJ/mol
# GULP energy per Si atom -5574.312809 kJ/mol
# Density = 2.705557 g / cm^3
# Si number density = 27.117293 Si / 1000 Ang^3
#
#
#
# Elastic Constant Matrix: (Units=GPa)
#
#
# Indices 1 2 3 4 5 6 
#
# 1 92.6176 53.3814 40.6041 0.0000 2.5810 0.0000
# 2 53.3814 160.3426 54.4915 0.0000 16.1524 0.0000
# 3 40.6041 54.4915 116.3548 0.0000 1.0913 0.0000
# 4 0.0000 0.0000 0.0000 -66.7361 0.0000 14.7290
# 5 2.5810 16.1524 1.0913 0.0000 45.3263 0.0000
# 6 0.0000 0.0000 0.0000 14.7290 0.0000 33.8083
#
#
#
# Elastic Compliance Matrix: (Units=1/GPa)
#
#
# Indices 1 2 3 4 5 6 
#
# 1 0.014365 -0.003730 -0.003272 0.000000 0.000590 0.000000
# 2 -0.003730 0.008695 -0.002744 0.000000 -0.002820 0.000000
# 3 -0.003272 -0.002744 0.011013 0.000000 0.000899 0.000000
# 4 0.000000 0.000000 0.000000 -0.013670 0.000000 0.005955
# 5 0.000590 -0.002820 0.000899 0.000000 0.023012 0.000000
# 6 0.000000 0.000000 0.000000 0.005955 0.000000 0.026984
#
#
# Mechanical properties :
#
#
# Convention : Reuss Voigt Hill
#
# Bulk Modulus (GPa) = 68.58003 74.02987 71.30495
# Shear Modulus (GPa) = 52.77052 17.20222 34.98637
#
# Velocity S-wave (km/s) = 4.41615 2.52139 3.59581
# Velocity P-wave (km/s) = 7.16576 5.98629 6.60242
#
# Compressibility (1/GPa) = 0.01458150
#
# Stress axis : x y z
#
# Youngs Moduli (GPa) = 69.61505 115.00815 90.80420
#
# Poissons Ratio (x) = 0.42897 0.29707
# Poissons Ratio (y) = 0.25966 0.24917
# Poissons Ratio (z) = 0.22775 0.31558
#
# Static dielectric constant tensor:
#      x y z
#    x 2.321270 0.000000 0.022080 
#    y 0.000000 1.693580 0.000000 
#    z 0.022080 0.000000 2.067880 
# 
# From -- ./inp_files/6994.got.cif
#   From: 2010.05.17/outbox.cif.g08.bks.cpg/sg14_4_cif.got.tgz:6994.got - 2010.06.03 17:49:19.
