data_PCOD9243860
_publ_section_title
;
Structure prediction by ZEFSAII (Michael W. Deem and Ramdas Pophale) SiO2 
 PCOD9243860
Probable space group: P 21/C
;
_chemical_formula_sum "Si O2"
_cell_formula_units_Z 20
_cell_length_a 12.692469
_cell_length_b 8.854591
_cell_length_c 13.574061
_cell_angle_alpha 90.000000
_cell_angle_beta 31.306574
_cell_angle_gamma 90.000000
_cell_volume 792.698229
_symmetry_space_group_name_H-M "P 21/C"
_symmetry_group_IT_number 14
_symmetry_cell_setting 'monoclinic'
loop_
_space_group_symop_operation_xyz
x,y,z
-x,1/2+y,1/2-z
-x,-y,-z
x,1/2-y,1/2+z
loop_
_atom_site_type_symbol
_atom_site_label
_atom_site_fract_x
_atom_site_fract_y
_atom_site_fract_z
Si Si1 0.928738 0.775733 0.200500
Si Si2 0.330288 0.360669 0.742668
Si Si3 0.717939 0.312987 0.291992
Si Si4 0.435597 0.142940 0.386859
Si Si5 0.136824 0.910007 0.679996
O O1 0.837357 0.755448 0.165506
O O2 0.735031 0.748295 0.428591
O O3 0.080296 0.650094 0.118045
O O4 0.989284 0.946418 0.179762
O O5 0.530556 0.337583 0.516888
O O6 0.240946 0.524877 0.786343
O O7 0.400561 0.354069 0.799030
O O8 0.645840 0.199067 0.263322
O O9 0.876512 0.228449 0.234783
O O10 0.363178 0.981969 0.489589
#
# Coordination Sequence:
#
# PCOD9243860 Si02
#       5
#     4   4   4   4   4
#     4   9  21  37  58  80 115 151 183 234 274 329
#     4  10  21  38  59  88 113 144 191 227 283 335
#     4  10  21  37  61  85 116 144 183 241 274 332
#     4   9  22  35  62  82 112 152 184 228 282 336
#     4  10  20  39  58  79 117 150 184 231 284 321
#
# _framework density 25.230283
#
# number of rings (size 3 to 8) (size 9 to 14) (size 15 to 20)
#    1.200    1.200    0.000    1.800    2.800    0.800 
#    0.000    1.000    0.000    0.000    0.000    0.000 
#    0.000    0.000    0.000    0.000    0.000    0.000 
#
# Total GULP energy -111727.027347 kJ/mol
# GULP energy per Si atom -5586.351367 kJ/mol
# Density = 2.517286 g / cm^3
# Si number density = 25.230283 Si / 1000 Ang^3
#
#
#
# Elastic Constant Matrix: (Units=GPa)
#
#
# Indices 1 2 3 4 5 6 
#
# 1 118.8061 13.1171 22.7236 0.0000 37.4232 0.0000
# 2 13.1171 68.7221 9.2613 0.0000 11.4662 0.0000
# 3 22.7236 9.2613 66.0228 0.0000 31.0645 0.0000
# 4 0.0000 0.0000 0.0000 11.8184 0.0000 -5.5694
# 5 37.4232 11.4662 31.0645 0.0000 40.5172 0.0000
# 6 0.0000 0.0000 0.0000 -5.5694 0.0000 49.7672
#
#
#
# Elastic Compliance Matrix: (Units=1/GPa)
#
#
# Indices 1 2 3 4 5 6 
#
# 1 0.012006 -0.000475 0.001703 0.000000 -0.012260 0.000000
# 2 -0.000475 0.015293 -0.000238 0.000000 -0.003706 0.000000
# 3 0.001703 -0.000238 0.023937 0.000000 -0.019858 0.000000
# 4 0.000000 0.000000 0.000000 0.089325 0.000000 0.009996
# 5 -0.012260 -0.003706 -0.019858 0.000000 0.052279 0.000000
# 6 0.000000 0.000000 0.000000 0.009996 0.000000 0.021212
#
#
# Mechanical properties :
#
#
# Convention : Reuss Voigt Hill
#
# Bulk Modulus (GPa) = 18.79161 38.19501 28.49331
# Shear Modulus (GPa) = 21.75714 34.31716 28.03715
#
# Velocity S-wave (km/s) = 2.93975 3.69203 3.33716
# Velocity P-wave (km/s) = 4.35741 5.77462 5.11533
#
# Compressibility (1/GPa) = 0.05321524
#
# Stress axis : x y z
#
# Youngs Moduli (GPa) = 83.29375 65.39143 41.77640
#
# Poissons Ratio (x) = 0.03109 -0.07115
# Poissons Ratio (y) = 0.03961 0.00993
# Poissons Ratio (z) = -0.14186 0.01554
#
# Static dielectric constant tensor:
#      x y z
#    x 1.946240 0.000000 -0.052030 
#    y 0.000000 1.977550 0.000000 
#    z -0.052030 0.000000 2.097040 
# 
# From -- ./inp_files/42729.got.cif
#   From: 2010.05.17/outbox.cif.g08.bks.cpg/sg14_22_cif.got.tgz:42729.got - 2010.06.03 17:49:19.
