data_PCOD9243670
_publ_section_title
;
Structure prediction by ZEFSAII (Michael W. Deem and Ramdas Pophale) SiO2 
 PCOD9243670
Probable space group: P 21/C
;
_chemical_formula_sum "Si O2"
_cell_formula_units_Z 32
_cell_length_a 9.144753
_cell_length_b 12.435067
_cell_length_c 22.797518
_cell_angle_alpha 90.000000
_cell_angle_beta 145.619024
_cell_angle_gamma 90.000000
_cell_volume 1463.929247
_symmetry_space_group_name_H-M "P 21/C"
_symmetry_group_IT_number 14
_symmetry_cell_setting 'monoclinic'
loop_
_space_group_symop_operation_xyz
x,y,z
-x,1/2+y,1/2-z
-x,-y,-z
x,1/2-y,1/2+z
loop_
_atom_site_type_symbol
_atom_site_label
_atom_site_fract_x
_atom_site_fract_y
_atom_site_fract_z
Si Si1 0.547054 0.368658 0.903327
Si Si2 0.431786 0.439695 0.630855
Si Si3 0.872874 0.852697 0.373096
Si Si4 0.678787 0.427738 0.305151
Si Si5 0.266062 0.827753 0.665237
Si Si6 0.266880 0.274810 0.049975
Si Si7 0.764608 0.425986 0.205637
Si Si8 0.266967 0.151796 0.805119
O O1 0.591122 0.366032 0.847040
O O2 0.351040 0.462582 0.857027
O O3 0.436444 0.251644 0.883965
O O4 0.832831 0.389892 0.023504
O O5 0.246253 0.495169 0.617432
O O6 0.628841 0.371824 0.738309
O O7 0.306880 0.350150 0.547860
O O8 0.570376 0.541047 0.646629
O O9 0.638137 0.937070 0.305977
O O10 0.825351 0.772908 0.412014
O O11 0.824799 0.815496 0.291085
O O12 0.706953 0.302046 0.328078
O O13 0.820987 0.450808 0.292315
O O14 0.958142 0.840459 0.556767
O O15 0.531398 0.339659 0.129899
O O16 0.011679 0.376559 0.256582
#
# Coordination Sequence:
#
# PCOD9243670 Si02
#       8
#     4   4   4   4   4   4   4   4
#     4  11  22  39  65  90 119 162 203 256 306 362
#     4  11  20  40  65  87 125 159 203 254 301 361
#     4   9  20  40  61  89 117 153 207 249 296 357
#     4  10  20  38  62  93 119 162 201 249 306 352
#     4  11  20  39  65  94 121 152 207 262 299 357
#     4  10  23  38  63  98 118 155 207 254 305 357
#     4  11  24  38  61  88 125 160 203 251 304 362
#     4  11  25  42  58  90 128 165 201 246 312 367
#
# _framework density 21.858979999999999
#
# number of rings (size 3 to 8) (size 9 to 14) (size 15 to 20)
#    0.000    1.500    6.250    0.000    5.250    2.500 
#    2.250    0.000    0.000    1.500    0.000    0.000 
#    0.000    0.000    0.000    0.000    0.000    0.000 
#
# Total GULP energy -178571.419717 kJ/mol
# GULP energy per Si atom -5580.356866 kJ/mol
# Density = 2.180923 g / cm^3
# Si number density = 21.858980 Si / 1000 Ang^3
#
#
#
# Elastic Constant Matrix: (Units=GPa)
#
#
# Indices 1 2 3 4 5 6 
#
# 1 84.7222 16.5792 29.1331 0.0000 26.2932 0.0000
# 2 16.5792 126.5522 19.0428 0.0000 16.8901 0.0000
# 3 29.1331 19.0428 69.1110 0.0000 12.7774 0.0000
# 4 0.0000 0.0000 0.0000 12.2510 0.0000 4.8464
# 5 26.2932 16.8901 12.7774 0.0000 17.8895 0.0000
# 6 0.0000 0.0000 0.0000 4.8464 0.0000 21.8935
#
#
#
# Elastic Compliance Matrix: (Units=1/GPa)
#
#
# Indices 1 2 3 4 5 6 
#
# 1 0.023001 0.001980 -0.004200 0.000000 -0.032674 0.000000
# 2 0.001980 0.009278 -0.001421 0.000000 -0.010654 0.000000
# 3 -0.004200 -0.001421 0.017561 0.000000 -0.005028 0.000000
# 4 0.000000 0.000000 0.000000 0.089460 0.000000 -0.019803
# 5 -0.032674 -0.010654 -0.005028 0.000000 0.117572 0.000000
# 6 0.000000 0.000000 0.000000 -0.019803 0.000000 0.050059
#
#
# Mechanical properties :
#
#
# Convention : Reuss Voigt Hill
#
# Bulk Modulus (GPa) = 23.49822 45.54395 34.52109
# Shear Modulus (GPa) = 15.22530 24.78216 20.00373
#
# Velocity S-wave (km/s) = 2.64204 3.37074 3.02839
# Velocity P-wave (km/s) = 4.48112 6.00248 5.29671
#
# Compressibility (1/GPa) = 0.04255642
#
# Stress axis : x y z
#
# Youngs Moduli (GPa) = 43.47724 107.77760 56.94373
#
# Poissons Ratio (x) = -0.21336 0.23918
# Poissons Ratio (y) = -0.08607 0.08093
# Poissons Ratio (z) = 0.18261 0.15318
#
# Static dielectric constant tensor:
#      x y z
#    x 1.774860 0.000000 -0.000700 
#    y 0.000000 1.871310 0.000000 
#    z -0.000700 0.000000 1.896590 
# 
# From -- ./inp_files/40337.got.cif
#   From: 2010.05.17/outbox.cif.g08.bks.cpg/sg14_21_cif.got.tgz:40337.got - 2010.06.03 17:49:19.
