data_PCOD9243458
_publ_section_title
;
Structure prediction by ZEFSAII (Michael W. Deem and Ramdas Pophale) SiO2 
 PCOD9243458
Probable space group: P 21/C
;
_chemical_formula_sum "Si O2"
_cell_formula_units_Z 24
_cell_length_a 9.650313
_cell_length_b 8.094654
_cell_length_c 13.907161
_cell_angle_alpha 90.000000
_cell_angle_beta 63.597687
_cell_angle_gamma 90.000000
_cell_volume 973.055798
_symmetry_space_group_name_H-M "P 21/C"
_symmetry_group_IT_number 14
_symmetry_cell_setting 'monoclinic'
loop_
_space_group_symop_operation_xyz
x,y,z
-x,1/2+y,1/2-z
-x,-y,-z
x,1/2-y,1/2+z
loop_
_atom_site_type_symbol
_atom_site_label
_atom_site_fract_x
_atom_site_fract_y
_atom_site_fract_z
Si Si1 0.650808 0.650187 0.149940
Si Si2 0.847733 0.969926 0.301010
Si Si3 0.299286 0.846952 0.816191
Si Si4 0.348620 0.189392 0.040164
Si Si5 0.322764 0.824283 0.491977
Si Si6 0.202651 0.521067 0.729505
O O1 0.485172 0.653688 0.252834
O O2 0.650327 0.488429 0.081347
O O3 0.776987 0.616966 0.192785
O O4 0.666165 0.800846 0.070307
O O5 0.770153 0.001131 0.221645
O O6 0.788787 0.117451 0.389088
O O7 0.031035 0.971606 0.242071
O O8 0.783774 0.806992 0.373145
O O9 0.255475 0.811126 0.939501
O O10 0.755971 0.187888 0.727680
O O11 0.511576 0.270707 0.018326
O O12 0.321276 0.021178 0.106891
#
# Coordination Sequence:
#
# PCOD9243458 Si02
#       6
#     4   4   4   4   4   4
#     4  10  20  38  61  85 113 155 203 232 282 355
#     4  11  22  41  60  87 121 154 197 240 291 349
#     4  11  21  38  62  88 115 154 199 243 288 343
#     4  11  20  39  64  83 116 162 194 235 290 353
#     4  10  20  37  66  85 110 161 203 231 281 358
#     4  11  25  36  59  94 121 147 194 253 295 332
#
# _framework density 24.664570000000001
#
# number of rings (size 3 to 8) (size 9 to 14) (size 15 to 20)
#    0.000    1.333    5.000    2.000    0.000    8.000 
#    0.000    0.000    0.000    4.000    0.000    0.000 
#    0.000    0.000    0.000    0.000    0.000    0.000 
#
# Total GULP energy -134483.425269 kJ/mol
# GULP energy per Si atom -5603.476053 kJ/mol
# Density = 2.460843 g / cm^3
# Si number density = 24.664570 Si / 1000 Ang^3
#
#
#
# Elastic Constant Matrix: (Units=GPa)
#
#
# Indices 1 2 3 4 5 6 
#
# 1 65.5382 2.6381 13.9674 0.0000 5.7926 0.0000
# 2 2.6381 56.6007 16.9539 0.0000 3.8253 0.0000
# 3 13.9674 16.9539 84.5004 0.0000 33.2523 0.0000
# 4 0.0000 0.0000 0.0000 47.9012 0.0000 3.0496
# 5 5.7926 3.8253 33.2523 0.0000 42.0683 0.0000
# 6 0.0000 0.0000 0.0000 3.0496 0.0000 18.8920
#
#
#
# Elastic Compliance Matrix: (Units=1/GPa)
#
#
# Indices 1 2 3 4 5 6 
#
# 1 0.015816 0.000040 -0.002560 0.000000 -0.000158 0.000000
# 2 0.000040 0.018897 -0.004528 0.000000 0.001855 0.000000
# 3 -0.002560 -0.004528 0.018674 0.000000 -0.013996 0.000000
# 4 0.000000 0.000000 0.000000 0.021093 0.000000 -0.003405
# 5 -0.000158 0.001855 -0.013996 0.000000 0.034687 0.000000
# 6 0.000000 0.000000 0.000000 -0.003405 0.000000 0.053482
#
#
# Mechanical properties :
#
#
# Convention : Reuss Voigt Hill
#
# Bulk Modulus (GPa) = 25.45158 30.41756 27.93457
# Shear Modulus (GPa) = 26.33771 33.31095 29.82433
#
# Velocity S-wave (km/s) = 3.27132 3.67898 3.48112
# Velocity P-wave (km/s) = 4.96087 5.51415 5.24481
#
# Compressibility (1/GPa) = 0.03929029
#
# Stress axis : x y z
#
# Youngs Moduli (GPa) = 63.22610 52.91930 53.55133
#
# Poissons Ratio (x) = -0.00214 0.13711
# Poissons Ratio (y) = -0.00255 0.24249
# Poissons Ratio (z) = 0.16188 0.23963
#
# Static dielectric constant tensor:
#      x y z
#    x 1.857650 0.000000 0.050240 
#    y 0.000000 2.096290 0.000000 
#    z 0.050240 0.000000 1.917550 
# 
# From -- ./inp_files/24816.got.cif
#   From: 2010.05.17/outbox.cif.g08.bks.cpg/sg14_13_cif.got.tgz:24816.got - 2010.06.03 17:49:19.
