data_PCOD9243365
_publ_section_title
;
Structure prediction by ZEFSAII (Michael W. Deem and Ramdas Pophale) SiO2 
 PCOD9243365
Probable space group: P 21/C
;
_chemical_formula_sum "Si O2"
_cell_formula_units_Z 32
_cell_length_a 8.833100
_cell_length_b 12.376385
_cell_length_c 14.713883
_cell_angle_alpha 90.000000
_cell_angle_beta 103.828156
_cell_angle_gamma 90.000000
_cell_volume 1561.928194
_symmetry_space_group_name_H-M "P 21/C"
_symmetry_group_IT_number 14
_symmetry_cell_setting 'monoclinic'
loop_
_space_group_symop_operation_xyz
x,y,z
-x,1/2+y,1/2-z
-x,-y,-z
x,1/2-y,1/2+z
loop_
_atom_site_type_symbol
_atom_site_label
_atom_site_fract_x
_atom_site_fract_y
_atom_site_fract_z
Si Si1 0.699288 0.486565 0.263864
Si Si2 0.650954 0.672454 0.674518
Si Si3 0.520854 0.035830 0.105374
Si Si4 0.532626 0.236130 0.524319
Si Si5 0.600341 0.583883 0.856971
Si Si6 0.158720 0.677624 0.843275
Si Si7 0.939135 0.005203 0.390386
Si Si8 0.931843 0.667874 0.228748
O O1 0.625380 0.501463 0.352685
O O2 0.546889 0.495192 0.177312
O O3 0.767881 0.371996 0.239348
O O4 0.824972 0.577969 0.261872
O O5 0.659798 0.542919 0.657857
O O6 0.530828 0.723303 0.582653
O O7 0.596391 0.670258 0.772058
O O8 0.812762 0.735080 0.688507
O O9 0.538229 0.163349 0.096863
O O10 0.500000 0.000000 0.000000
O O11 0.416794 0.147854 0.551476
O O12 0.706560 0.187858 0.561100
O O13 0.756995 0.517862 0.868783
O O14 0.028021 0.591968 0.852684
O O15 0.069700 0.788158 0.811545
O O16 0.000000 0.000000 0.500000
O O17 0.990624 0.113842 0.347724
#
# Coordination Sequence:
#
# PCOD9243365 Si02
#       8
#     4   4   4   4   4   4   4   4
#     4   9  21  38  62  90 119 167 217 255 321 392
#     4  10  20  37  62  89 122 164 216 253 319 392
#     4   9  19  35  59  91 121 153 214 261 309 373
#     4  10  21  38  64  88 124 164 214 266 321 383
#     4  10  20  40  64  91 125 163 224 266 314 398
#     4  10  23  40  60  94 128 164 216 270 326 401
#     4  11  24  42  60  95 134 167 219 277 333 383
#     4  11  22  40  65  88 129 174 208 267 338 380
#
# _framework density 20.487499
#
# number of rings (size 3 to 8) (size 9 to 14) (size 15 to 20)
#    0.000    2.000    1.250    1.500    3.500    1.000 
#    9.000    3.750    0.000    8.250    0.000    0.000 
#    0.000    0.000    0.000    0.000    0.000    0.000 
#
# Total GULP energy -178358.101794 kJ/mol
# GULP energy per Si atom -5573.690681 kJ/mol
# Density = 2.044087 g / cm^3
# Si number density = 20.487499 Si / 1000 Ang^3
#
#
#
# Elastic Constant Matrix: (Units=GPa)
#
#
# Indices 1 2 3 4 5 6 
#
# 1 105.9383 35.2351 13.0448 0.0000 11.2287 0.0000
# 2 35.2351 47.9297 5.9200 0.0000 0.6107 0.0000
# 3 13.0448 5.9200 67.4057 0.0000 4.9798 0.0000
# 4 0.0000 0.0000 0.0000 28.2127 0.0000 6.1116
# 5 11.2287 0.6107 4.9798 0.0000 27.8940 0.0000
# 6 0.0000 0.0000 0.0000 6.1116 0.0000 45.0536
#
#
#
# Elastic Compliance Matrix: (Units=1/GPa)
#
#
# Indices 1 2 3 4 5 6 
#
# 1 0.013304 -0.009548 -0.001374 0.000000 -0.004901 0.000000
# 2 -0.009548 0.027946 -0.000857 0.000000 0.003385 0.000000
# 3 -0.001374 -0.000857 0.015337 0.000000 -0.002166 0.000000
# 4 0.000000 0.000000 0.000000 0.036518 0.000000 -0.004954
# 5 -0.004901 0.003385 -0.002166 0.000000 0.038135 0.000000
# 6 0.000000 0.000000 0.000000 -0.004954 0.000000 0.022868
#
#
# Mechanical properties :
#
#
# Convention : Reuss Voigt Hill
#
# Bulk Modulus (GPa) = 30.27644 36.63038 33.45341
# Shear Modulus (GPa) = 26.50065 31.37032 28.93548
#
# Velocity S-wave (km/s) = 3.60043 3.91729 3.76220
# Velocity P-wave (km/s) = 5.66518 6.19503 5.93602
#
# Compressibility (1/GPa) = 0.03302898
#
# Stress axis : x y z
#
# Youngs Moduli (GPa) = 75.16640 35.78360 65.20303
#
# Poissons Ratio (x) = 0.34166 0.08959
# Poissons Ratio (y) = 0.71769 0.05585
# Poissons Ratio (z) = 0.10328 0.03065
#
# Static dielectric constant tensor:
#      x y z
#    x 1.247920 0.000000 -0.247820 
#    y 0.000000 1.774620 0.000000 
#    z -0.247820 0.000000 1.618320 
# 
# From -- ./inp_files/40998.got.cif
#   From: 2010.05.17/outbox.cif.g08.bks.cpg/sg14_21_cif.got.tgz:40998.got - 2010.06.03 17:49:19.
