data_PCOD9243394
_publ_section_title
;
Structure prediction by ZEFSAII (Michael W. Deem and Ramdas Pophale) SiO2 
 PCOD9243394
Probable space group: P 21/C
;
_chemical_formula_sum "Si O2"
_cell_formula_units_Z 32
_cell_length_a 9.328584
_cell_length_b 8.657874
_cell_length_c 23.045980
_cell_angle_alpha 90.000000
_cell_angle_beta 128.340115
_cell_angle_gamma 90.000000
_cell_volume 1459.915691
_symmetry_space_group_name_H-M "P 21/C"
_symmetry_group_IT_number 14
_symmetry_cell_setting 'monoclinic'
loop_
_space_group_symop_operation_xyz
x,y,z
-x,1/2+y,1/2-z
-x,-y,-z
x,1/2-y,1/2+z
loop_
_atom_site_type_symbol
_atom_site_label
_atom_site_fract_x
_atom_site_fract_y
_atom_site_fract_z
Si Si1 0.889666 0.391748 0.515950
Si Si2 0.613377 0.531857 0.969958
Si Si3 0.053152 0.634842 0.888611
Si Si4 0.226722 0.319390 0.451279
Si Si5 0.125826 0.692097 0.294470
Si Si6 0.590567 0.294283 0.868264
Si Si7 0.750319 0.840238 0.171436
Si Si8 0.835680 0.168902 0.321609
O O1 0.007784 0.279615 0.587269
O O2 0.777390 0.505920 0.529309
O O3 0.751299 0.291713 0.443507
O O4 0.000000 0.500000 0.500000
O O5 0.809186 0.458833 0.036091
O O6 0.658968 0.712691 0.976356
O O7 0.500000 0.500000 0.000000
O O8 0.545626 0.447011 0.895218
O O9 0.159529 0.702922 0.859285
O O10 0.904438 0.508935 0.832337
O O11 0.313316 0.298966 0.409583
O O12 0.015039 0.262363 0.390253
O O13 0.172243 0.513183 0.315416
O O14 0.212883 0.733854 0.254155
O O15 0.910833 0.722732 0.229150
O O16 0.415492 0.184117 0.826718
O O17 0.672325 0.326116 0.825952
#
# Coordination Sequence:
#
# PCOD9243394 Si02
#       8
#     4   4   4   4   4   4   4   4
#     4  11  22  37  62 100 133 165 204 268 334 383
#     4  10  21  37  61  95 128 162 204 260 326 394
#     4  10  22  38  67  89 119 175 215 253 321 389
#     4  10  20  37  63  91 126 172 208 252 328 386
#     4  11  22  43  67  88 120 172 232 260 322 381
#     4  11  24  40  63  98 139 160 213 270 331 387
#     4  11  23  41  67  93 123 171 218 278 312 388
#     4  10  22  41  62  91 128 172 210 263 321 389
#
# _framework density 21.919073000000001
#
# number of rings (size 3 to 8) (size 9 to 14) (size 15 to 20)
#    0.000    1.500    5.000    0.000    1.750    3.000 
#    0.000    5.000    0.000    0.000    0.000    0.000 
#    0.000    0.000    0.000    0.000    0.000    0.000 
#
# Total GULP energy -178639.522213 kJ/mol
# GULP energy per Si atom -5582.485069 kJ/mol
# Density = 2.186918 g / cm^3
# Si number density = 21.919073 Si / 1000 Ang^3
#
#
#
# Elastic Constant Matrix: (Units=GPa)
#
#
# Indices 1 2 3 4 5 6 
#
# 1 100.8075 16.2599 3.3204 0.0000 -25.5620 0.0000
# 2 16.2599 80.7658 14.7414 0.0000 -7.9560 0.0000
# 3 3.3204 14.7414 40.5170 0.0000 -16.9449 0.0000
# 4 0.0000 0.0000 0.0000 23.7789 0.0000 -9.2665
# 5 -25.5620 -7.9560 -16.9449 0.0000 23.9654 0.0000
# 6 0.0000 0.0000 0.0000 -9.2665 0.0000 26.0035
#
#
#
# Elastic Compliance Matrix: (Units=1/GPa)
#
#
# Indices 1 2 3 4 5 6 
#
# 1 0.015664 -0.002601 0.008929 0.000000 0.022157 0.000000
# 2 -0.002601 0.013727 -0.005730 0.000000 -0.002268 0.000000
# 3 0.008929 -0.005730 0.041490 0.000000 0.036958 0.000000
# 4 0.000000 0.000000 0.000000 0.048836 0.000000 0.017403
# 5 0.022157 -0.002268 0.036958 0.000000 0.090739 0.000000
# 6 0.000000 0.000000 0.000000 0.017403 0.000000 0.044658
#
#
# Mechanical properties :
#
#
# Convention : Reuss Voigt Hill
#
# Bulk Modulus (GPa) = 13.87365 32.30372 23.08869
# Shear Modulus (GPa) = 17.98927 27.26746 22.62837
#
# Velocity S-wave (km/s) = 2.86792 3.53087 3.21652
# Velocity P-wave (km/s) = 4.16051 5.60290 4.93469
#
# Compressibility (1/GPa) = 0.07207908
#
# Stress axis : x y z
#
# Youngs Moduli (GPa) = 63.84173 72.84691 24.10193
#
# Poissons Ratio (x) = 0.18944 -0.21521
# Poissons Ratio (y) = 0.16602 0.13810
# Poissons Ratio (z) = -0.57005 0.41740
#
# Static dielectric constant tensor:
#      x y z
#    x 1.809180 0.000000 -0.022440 
#    y 0.000000 1.844530 0.000000 
#    z -0.022440 0.000000 1.842850 
# 
# From -- ./inp_files/70520.got.cif
#   From: 2010.05.17/outbox.cif.g08.bks.cpg/sg14_36_cif.got.tgz:70520.got - 2010.06.03 17:49:19.
