data_PCOD9243995
_publ_section_title
;
Structure prediction by ZEFSAII (Michael W. Deem and Ramdas Pophale) SiO2 
 PCOD9243995
Probable space group: P 21/C
;
_chemical_formula_sum "Si O2"
_cell_formula_units_Z 28
_cell_length_a 10.876114
_cell_length_b 7.698624
_cell_length_c 17.938703
_cell_angle_alpha 90.000000
_cell_angle_beta 69.848354
_cell_angle_gamma 90.000000
_cell_volume 1410.079584
_symmetry_space_group_name_H-M "P 21/C"
_symmetry_group_IT_number 14
_symmetry_cell_setting 'monoclinic'
loop_
_space_group_symop_operation_xyz
x,y,z
-x,1/2+y,1/2-z
-x,-y,-z
x,1/2-y,1/2+z
loop_
_atom_site_type_symbol
_atom_site_label
_atom_site_fract_x
_atom_site_fract_y
_atom_site_fract_z
Si Si1 0.855727 0.148706 0.756647
Si Si2 0.150942 0.267385 0.670342
Si Si3 0.361368 0.880070 0.314687
Si Si4 0.440084 0.268226 0.840655
Si Si5 0.308731 0.930845 0.630620
Si Si6 0.672631 0.623778 0.486769
Si Si7 0.404314 0.756976 0.473050
O O1 0.765736 0.183332 0.703005
O O2 0.798737 0.284103 0.828737
O O3 0.005905 0.192789 0.709646
O O4 0.836858 0.950269 0.788628
O O5 0.193606 0.307713 0.576194
O O6 0.250344 0.112042 0.671043
O O7 0.487779 0.846601 0.236006
O O8 0.382234 0.794576 0.391009
O O9 0.348109 0.086232 0.325881
O O10 0.558989 0.374510 0.854991
O O11 0.364624 0.168156 0.920973
O O12 0.349614 0.914610 0.535051
O O13 0.554352 0.706033 0.461604
O O14 0.668382 0.416323 0.483916
#
# Coordination Sequence:
#
# PCOD9243995 Si02
#       7
#     4   4   4   4   4   4   4
#     4  11  25  41  62  94 121 167 219 257 306 365
#     4  12  22  42  68  85 121 170 219 258 298 377
#     4  11  23  38  59  93 137 156 201 268 320 370
#     4  10  22  37  58  97 126 162 201 257 328 372
#     4  10  21  40  66  90 121 165 211 254 308 379
#     4  10  21  37  68  93 123 171 211 250 314 381
#     4  10  20  39  63  97 129 157 206 267 314 380
#
# _framework density 19.857035
#
# number of rings (size 3 to 8) (size 9 to 14) (size 15 to 20)
#    0.000    1.429    2.857    2.571    6.000    2.286 
#    0.000    3.571    0.000    0.000    0.000    0.000 
#    0.000    0.000    0.000    0.000    0.000    0.000 
#
# Total GULP energy -156330.027854 kJ/mol
# GULP energy per Si atom -5583.215281 kJ/mol
# Density = 1.981184 g / cm^3
# Si number density = 19.857035 Si / 1000 Ang^3
#
#
#
# Elastic Constant Matrix: (Units=GPa)
#
#
# Indices 1 2 3 4 5 6 
#
# 1 19.2582 9.8929 43.5255 0.0000 -8.8954 0.0000
# 2 9.8929 110.3374 34.2221 0.0000 -12.1997 0.0000
# 3 43.5255 34.2221 129.7670 0.0000 -3.2573 0.0000
# 4 0.0000 0.0000 0.0000 37.3776 0.0000 -10.1525
# 5 -8.8954 -12.1997 -3.2573 0.0000 32.9785 0.0000
# 6 0.0000 0.0000 0.0000 -10.1525 0.0000 26.6697
#
#
#
# Elastic Compliance Matrix: (Units=1/GPa)
#
#
# Indices 1 2 3 4 5 6 
#
# 1 0.381567 0.016749 -0.129983 0.000000 0.096279 0.000000
# 2 0.016749 0.011002 -0.008324 0.000000 0.007765 0.000000
# 3 -0.129983 -0.008324 0.052673 0.000000 -0.032938 0.000000
# 4 0.000000 0.000000 0.000000 0.029839 0.000000 0.011359
# 5 0.096279 0.007765 -0.032938 0.000000 0.055912 0.000000
# 6 0.000000 0.000000 0.000000 0.011359 0.000000 0.041820
#
#
# Mechanical properties :
#
#
# Convention : Reuss Voigt Hill
#
# Bulk Modulus (GPa) = 4.94742 48.29374 26.62058
# Shear Modulus (GPa) = 5.66057 30.85330 18.25693
#
# Velocity S-wave (km/s) = 1.69022 3.94607 3.03548
# Velocity P-wave (km/s) = 2.51119 6.71829 5.07156
#
# Compressibility (1/GPa) = 0.20212539
#
# Stress axis : x y z
#
# Youngs Moduli (GPa) = 2.62077 90.89375 18.98523
#
# Poissons Ratio (x) = -1.52239 2.46775
# Poissons Ratio (y) = -0.04390 0.15804
# Poissons Ratio (z) = 0.34066 0.75663
#
# Static dielectric constant tensor:
#      x y z
#    x 1.677910 0.000000 0.002260 
#    y 0.000000 1.748210 0.000000 
#    z 0.002260 0.000000 1.710710 
# 
# From -- ./inp_files/43611.got.cif
#   From: 2010.05.17/outbox.cif.g08.bks.cpg/sg14_22_cif.got.tgz:43611.got - 2010.06.03 17:49:19.
