data_PCOD9243336
_publ_section_title
;
Structure prediction by ZEFSAII (Michael W. Deem and Ramdas Pophale) SiO2 
 PCOD9243336
Probable space group: P 21/C
;
_chemical_formula_sum "Si O2"
_cell_formula_units_Z 30
_cell_length_a 7.152184
_cell_length_b 21.903752
_cell_length_c 10.805933
_cell_angle_alpha 90.000000
_cell_angle_beta 47.262044
_cell_angle_gamma 90.000000
_cell_volume 1243.342204
_symmetry_space_group_name_H-M "P 21/C"
_symmetry_group_IT_number 14
_symmetry_cell_setting 'monoclinic'
loop_
_space_group_symop_operation_xyz
x,y,z
-x,1/2+y,1/2-z
-x,-y,-z
x,1/2-y,1/2+z
loop_
_atom_site_type_symbol
_atom_site_label
_atom_site_fract_x
_atom_site_fract_y
_atom_site_fract_z
Si Si1 0.033440 0.175126 0.218635
Si Si2 0.269041 0.120855 0.497561
Si Si3 0.029891 0.802931 0.180144
Si Si4 0.500000 0.500000 0.000000
Si Si5 0.262268 0.942486 0.334446
Si Si6 0.487126 0.820944 0.169223
Si Si7 0.980825 0.035596 0.309180
Si Si8 0.365346 0.804542 0.804834
O O1 0.038084 0.231976 0.309988
O O2 0.047868 0.104899 0.252031
O O3 0.769810 0.185143 0.265845
O O4 0.255586 0.188837 0.020734
O O5 0.454560 0.068317 0.459235
O O6 0.383465 0.156459 0.328794
O O7 0.198858 0.163285 0.646781
O O8 0.006886 0.091457 0.565138
O O9 0.258174 0.812087 0.175472
O O10 0.161513 0.826477 0.996602
O O11 0.191758 0.497609 0.206639
O O12 0.470168 0.890795 0.222080
O O13 0.257274 0.964845 0.479407
O O14 0.219641 0.999262 0.260698
O O15 0.438148 0.766671 0.288565
#
# Coordination Sequence:
#
# PCOD9243336 Si02
#       8
#     4   4   4   2   4   4   4   4
#     4  11  22  37  58  91 121 152 209 253 298 372
#     4  10  20  41  61  90 122 160 202 254 295 373
#     4  10  23  39  60  90 123 160 200 251 311 360
#     4  10  20  38  66  82 132 158 200 260 304 350
#     4   9  21  38  61  85 118 164 206 239 309 360
#     4  10  22  39  58  88 124 156 202 256 297 369
#     4  10  20  37  61  89 115 166 204 250 304 363
#     4  11  22  39  61  90 122 160 197 252 314 356
#
# _framework density 24.128515
#
# number of rings (size 3 to 8) (size 9 to 14) (size 15 to 20)
#    0.000    1.867    2.667    0.800    1.867    2.667 
#    0.000    0.667    0.000    0.000    0.000    0.000 
#    0.000    0.000    0.000    0.000    0.000    0.000 
#
# Total GULP energy -167086.756701 kJ/mol
# GULP energy per Si atom -5569.558557 kJ/mol
# Density = 2.407360 g / cm^3
# Si number density = 24.128515 Si / 1000 Ang^3
#
#
#
# Elastic Constant Matrix: (Units=GPa)
#
#
# Indices 1 2 3 4 5 6 
#
# 1 62.6681 5.5718 -11.6464 0.0000 -3.0991 0.0000
# 2 5.5718 127.0491 35.9661 0.0000 5.4768 0.0000
# 3 -11.6464 35.9661 98.6263 0.0000 -4.9439 0.0000
# 4 0.0000 0.0000 0.0000 34.9044 0.0000 6.6786
# 5 -3.0991 5.4768 -4.9439 0.0000 18.2469 0.0000
# 6 0.0000 0.0000 0.0000 6.6786 0.0000 25.5417
#
#
#
# Elastic Compliance Matrix: (Units=1/GPa)
#
#
# Indices 1 2 3 4 5 6 
#
# 1 0.016839 -0.001716 0.002822 0.000000 0.004139 0.000000
# 2 -0.001716 0.009185 -0.003756 0.000000 -0.004066 0.000000
# 3 0.002822 -0.003756 0.012087 0.000000 0.004881 0.000000
# 4 0.000000 0.000000 0.000000 0.030159 0.000000 -0.007886
# 5 0.004139 -0.004066 0.004881 0.000000 0.058050 0.000000
# 6 0.000000 0.000000 0.000000 -0.007886 0.000000 0.041214
#
#
# Mechanical properties :
#
#
# Convention : Reuss Voigt Hill
#
# Bulk Modulus (GPa) = 30.47815 38.68072 34.57943
# Shear Modulus (GPa) = 27.20814 32.96873 30.08844
#
# Velocity S-wave (km/s) = 3.36167 3.70047 3.53513
# Velocity P-wave (km/s) = 5.26562 5.85866 5.57004
#
# Compressibility (1/GPa) = 0.03281039
#
# Stress axis : x y z
#
# Youngs Moduli (GPa) = 59.38706 108.87668 82.73498
#
# Poissons Ratio (x) = 0.18680 -0.23344
# Poissons Ratio (y) = 0.10189 0.31074
# Poissons Ratio (z) = -0.16756 0.40892
#
# Static dielectric constant tensor:
#      x y z
#    x 4.006550 0.000000 0.218470 
#    y 0.000000 2.180310 0.000000 
#    z 0.218470 0.000000 2.002890 
# 
# From -- ./inp_files/27013.got.cif
#   From: 2010.05.17/outbox.cif.g08.bks.cpg/sg14_14_cif.got.tgz:27013.got - 2010.06.03 17:49:19.
