data_PCOD9243732
_publ_section_title
;
Structure prediction by ZEFSAII (Michael W. Deem and Ramdas Pophale) SiO2 
 PCOD9243732
Probable space group: P 21/C
;
_chemical_formula_sum "Si O2"
_cell_formula_units_Z 28
_cell_length_a 9.335821
_cell_length_b 8.720564
_cell_length_c 23.866305
_cell_angle_alpha 90.000000
_cell_angle_beta 35.512988
_cell_angle_gamma 90.000000
_cell_volume 1128.689014
_symmetry_space_group_name_H-M "P 21/C"
_symmetry_group_IT_number 14
_symmetry_cell_setting 'monoclinic'
loop_
_space_group_symop_operation_xyz
x,y,z
-x,1/2+y,1/2-z
-x,-y,-z
x,1/2-y,1/2+z
loop_
_atom_site_type_symbol
_atom_site_label
_atom_site_fract_x
_atom_site_fract_y
_atom_site_fract_z
Si Si1 0.783815 0.532620 0.303023
Si Si2 0.681597 0.892295 0.517697
Si Si3 0.531954 0.196600 0.626955
Si Si4 0.779281 0.267854 0.882485
Si Si5 0.524913 0.684523 0.671064
Si Si6 0.137334 0.786215 0.876187
Si Si7 0.107740 0.395582 0.352849
O O1 0.600002 0.675553 0.369315
O O2 0.791827 0.397929 0.346614
O O3 0.658321 0.449197 0.289832
O O4 0.048202 0.609377 0.205654
O O5 0.491625 0.838884 0.530604
O O6 0.614334 0.774372 0.588954
O O7 0.965843 0.858099 0.416365
O O8 0.627864 0.056164 0.560381
O O9 0.747391 0.265764 0.598593
O O10 0.317243 0.130541 0.737796
O O11 0.905942 0.229012 0.900770
O O12 0.374096 0.792217 0.760687
O O13 0.754619 0.627569 0.632723
O O14 0.993183 0.936674 0.900310
#
# Coordination Sequence:
#
# PCOD9243732 Si02
#       7
#     4   4   4   4   4   4   4
#     4  10  20  38  66  89 121 170 213 253 321 379
#     4  11  23  41  65  93 130 166 210 263 325 379
#     4  10  20  39  63  94 121 169 214 266 310 377
#     4  10  22  37  62  95 126 170 209 259 323 385
#     4  10  22  41  67  93 120 169 211 265 314 372
#     4  11  22  38  67  97 124 163 218 267 314 376
#     4  10  20  38  64  90 126 160 213 263 310 380
#
# _framework density 24.807542000000002
#
# number of rings (size 3 to 8) (size 9 to 14) (size 15 to 20)
#    0.000    1.714    2.857    2.143    2.000    1.143 
#    0.000    0.714    0.000    0.000    0.000    0.000 
#    0.000    0.000    0.000    0.000    0.000    0.000 
#
# Total GULP energy -156617.054431 kJ/mol
# GULP energy per Si atom -5593.466230 kJ/mol
# Density = 2.475108 g / cm^3
# Si number density = 24.807542 Si / 1000 Ang^3
#
#
#
# Elastic Constant Matrix: (Units=GPa)
#
#
# Indices 1 2 3 4 5 6 
#
# 1 94.5418 29.8254 26.5874 0.0000 -12.0705 0.0000
# 2 29.8254 121.5027 28.0526 0.0000 13.9395 0.0000
# 3 26.5874 28.0526 67.0855 0.0000 -3.1855 0.0000
# 4 0.0000 0.0000 0.0000 34.6437 0.0000 -1.0870
# 5 -12.0705 13.9395 -3.1855 0.0000 20.6587 0.0000
# 6 0.0000 0.0000 0.0000 -1.0870 0.0000 34.4977
#
#
#
# Elastic Compliance Matrix: (Units=1/GPa)
#
#
# Indices 1 2 3 4 5 6 
#
# 1 0.014078 -0.003828 -0.003491 0.000000 0.010270 0.000000
# 2 -0.003828 0.011203 -0.003660 0.000000 -0.010360 0.000000
# 3 -0.003491 -0.003660 0.017972 0.000000 0.003201 0.000000
# 4 0.000000 0.000000 0.000000 0.028894 0.000000 0.000910
# 5 0.010270 -0.010360 0.003201 0.000000 0.061891 0.000000
# 6 0.000000 0.000000 0.000000 0.000910 0.000000 0.029016
#
#
# Mechanical properties :
#
#
# Convention : Reuss Voigt Hill
#
# Bulk Modulus (GPa) = 46.95655 50.22898 48.59276
# Shear Modulus (GPa) = 26.02671 31.20434 28.61553
#
# Velocity S-wave (km/s) = 3.24256 3.55048 3.40001
# Velocity P-wave (km/s) = 5.74355 6.09092 5.91978
#
# Compressibility (1/GPa) = 0.02129628
#
# Stress axis : x y z
#
# Youngs Moduli (GPa) = 71.03324 89.25783 55.64137
#
# Poissons Ratio (x) = 0.34168 0.19424
# Poissons Ratio (y) = 0.27191 0.20363
# Poissons Ratio (z) = 0.24798 0.32666
#
# Static dielectric constant tensor:
#      x y z
#    x 1.994790 0.000000 0.000810 
#    y 0.000000 1.977290 0.000000 
#    z 0.000810 0.000000 1.986410 
# 
# From -- ./inp_files/50215.got.cif
#   From: 2010.05.17/outbox.cif.g08.bks.cpg/sg14_26_cif.got.tgz:50215.got - 2010.06.03 17:49:19.
