data_PCOD9243453
_publ_section_title
;
Structure prediction by ZEFSAII (Michael W. Deem and Ramdas Pophale) SiO2 
 PCOD9243453
Probable space group: P 21/C
;
_chemical_formula_sum "Si O2"
_cell_formula_units_Z 16
_cell_length_a 12.032919
_cell_length_b 4.715591
_cell_length_c 13.444089
_cell_angle_alpha 90.000000
_cell_angle_beta 131.311474
_cell_angle_gamma 90.000000
_cell_volume 573.000150
_symmetry_space_group_name_H-M "P 21/C"
_symmetry_group_IT_number 14
_symmetry_cell_setting 'monoclinic'
loop_
_space_group_symop_operation_xyz
x,y,z
-x,1/2+y,1/2-z
-x,-y,-z
x,1/2-y,1/2+z
loop_
_atom_site_type_symbol
_atom_site_label
_atom_site_fract_x
_atom_site_fract_y
_atom_site_fract_z
Si Si1 0.579500 0.327010 0.136575
Si Si2 0.084725 0.720039 0.476864
Si Si3 0.224174 0.280457 0.283784
Si Si4 0.731796 0.792680 0.472080
O O1 0.704155 0.545353 0.247914
O O2 0.445602 0.274471 0.133634
O O3 0.500000 0.500000 0.000000
O O4 0.337386 0.955793 0.850026
O O5 0.055372 0.143536 0.662613
O O6 0.192843 0.512419 0.482952
O O7 0.000000 0.500000 0.500000
O O8 0.192915 0.988241 0.560386
O O9 0.223813 0.115285 0.389187
#
# Coordination Sequence:
#
# PCOD9243453 Si02
#       4
#     4   4   4   4
#     4  10  20  37  65  97 124 156 213 280 330 386
#     4  12  25  40  59  90 132 174 214 263 320 390
#     4  11  21  39  65  95 125 165 217 273 328 394
#     4  11  21  40  64  90 122 167 215 268 326 388
#
# _framework density 27.923200000000001
#
# number of rings (size 3 to 8) (size 9 to 14) (size 15 to 20)
#    0.000    1.000    0.000   11.250    0.000    0.000 
#    0.000    5.000    0.000    0.000    0.000    0.000 
#    0.000    0.000    0.000    0.000    0.000    0.000 
#
# Total GULP energy -89520.541555 kJ/mol
# GULP energy per Si atom -5595.033847 kJ/mol
# Density = 2.785965 g / cm^3
# Si number density = 27.923200 Si / 1000 Ang^3
#
#
#
# Elastic Constant Matrix: (Units=GPa)
#
#
# Indices 1 2 3 4 5 6 
#
# 1 167.5785 90.1777 60.2025 0.0000 48.8590 0.0000
# 2 90.1777 207.3413 15.1513 0.0000 24.6887 0.0000
# 3 60.2025 15.1513 69.2020 0.0000 22.5474 0.0000
# 4 0.0000 0.0000 0.0000 38.4408 0.0000 15.1037
# 5 48.8590 24.6887 22.5474 0.0000 47.6195 0.0000
# 6 0.0000 0.0000 0.0000 15.1037 0.0000 81.1488
#
#
#
# Elastic Compliance Matrix: (Units=1/GPa)
#
#
# Indices 1 2 3 4 5 6 
#
# 1 0.013556 -0.004370 -0.008327 0.000000 -0.007700 0.000000
# 2 -0.004370 0.006555 0.002380 0.000000 -0.000041 0.000000
# 3 -0.008327 0.002380 0.022220 0.000000 -0.003211 0.000000
# 4 0.000000 0.000000 0.000000 0.028066 0.000000 -0.005224
# 5 -0.007700 -0.000041 -0.003211 0.000000 0.030442 0.000000
# 6 0.000000 0.000000 0.000000 -0.005224 0.000000 0.013295
#
#
# Mechanical properties :
#
#
# Convention : Reuss Voigt Hill
#
# Bulk Modulus (GPa) = 46.09192 86.13165 66.11179
# Shear Modulus (GPa) = 35.21134 52.01450 43.61292
#
# Velocity S-wave (km/s) = 3.55492 4.32066 3.95636
# Velocity P-wave (km/s) = 5.77862 7.47019 6.67818
#
# Compressibility (1/GPa) = 0.02169578
#
# Stress axis : x y z
#
# Youngs Moduli (GPa) = 73.77050 152.56231 45.00508
#
# Poissons Ratio (x) = 0.66674 0.37476
# Poissons Ratio (y) = 0.32240 -0.10713
# Poissons Ratio (z) = 0.61430 -0.36315
#
# Static dielectric constant tensor:
#      x y z
#    x 2.273200 0.000000 -0.155220 
#    y 0.000000 2.177840 0.000000 
#    z -0.155220 0.000000 2.343020 
# 
# From -- ./inp_files/42365.got.cif
#   From: 2010.05.17/outbox.cif.g08.bks.cpg/sg14_22_cif.got.tgz:42365.got - 2010.06.03 17:49:19.
