data_PCOD9243292
_publ_section_title
;
Structure prediction by ZEFSAII (Michael W. Deem and Ramdas Pophale) SiO2 
 PCOD9243292
Probable space group: P 21/C
;
_chemical_formula_sum "Si O2"
_cell_formula_units_Z 28
_cell_length_a 15.812253
_cell_length_b 10.039490
_cell_length_c 17.546575
_cell_angle_alpha 90.000000
_cell_angle_beta 33.186646
_cell_angle_gamma 90.000000
_cell_volume 1524.675117
_symmetry_space_group_name_H-M "P 21/C"
_symmetry_group_IT_number 14
_symmetry_cell_setting 'monoclinic'
loop_
_space_group_symop_operation_xyz
x,y,z
-x,1/2+y,1/2-z
-x,-y,-z
x,1/2-y,1/2+z
loop_
_atom_site_type_symbol
_atom_site_label
_atom_site_fract_x
_atom_site_fract_y
_atom_site_fract_z
Si Si1 0.508523 0.985458 0.683288
Si Si2 0.562386 0.768200 0.036940
Si Si3 0.704252 0.012504 0.754841
Si Si4 0.536419 0.737856 0.880600
Si Si5 0.178179 0.610002 0.985814
Si Si6 0.849206 0.948998 0.804601
Si Si7 0.278406 0.625255 0.476836
O O1 0.529879 0.847074 0.622110
O O2 0.396263 0.963335 0.839299
O O3 0.437489 0.100356 0.683223
O O4 0.674845 0.034949 0.587819
O O5 0.447678 0.893978 0.135211
O O6 0.530338 0.716921 0.975536
O O7 0.737460 0.823398 0.906671
O O8 0.820661 0.064376 0.602739
O O9 0.657804 0.858301 0.775682
O O10 0.769015 0.018125 0.791553
O O11 0.378457 0.795428 0.964365
O O12 0.208547 0.766748 0.972411
O O13 0.021219 0.581482 0.148582
O O14 0.842552 0.039793 0.884415
#
# Coordination Sequence:
#
# PCOD9243292 Si02
#       7
#     4   4   4   4   4   4   4
#     4  11  23  37  63  86 119 153 195 246 291 342
#     4  11  20  39  64  85 114 158 200 239 286 345
#     4  11  19  41  63  84 112 161 201 236 279 353
#     4  10  20  37  60  89 111 149 203 239 277 343
#     4  11  24  37  60  88 120 151 195 243 299 344
#     4  11  23  37  61  86 121 154 192 245 293 348
#     4  11  21  39  58  88 117 152 199 242 284 348
#
# _framework density 18.364568999999999
#
# number of rings (size 3 to 8) (size 9 to 14) (size 15 to 20)
#    0.000    1.143    5.714    1.714    4.000    0.000 
#    0.000    0.000    0.000    3.429    0.000    0.000 
#    0.000    0.000    0.000    0.000    0.000    0.000 
#
# Total GULP energy -156312.362550 kJ/mol
# GULP energy per Si atom -5582.584377 kJ/mol
# Density = 1.832277 g / cm^3
# Si number density = 18.364569 Si / 1000 Ang^3
#
#
#
# Elastic Constant Matrix: (Units=GPa)
#
#
# Indices 1 2 3 4 5 6 
#
# 1 37.4028 31.2449 23.7673 0.0000 15.3770 0.0000
# 2 31.2449 88.8598 48.5895 0.0000 4.7431 0.0000
# 3 23.7673 48.5895 144.7860 0.0000 1.2168 0.0000
# 4 0.0000 0.0000 0.0000 24.1441 0.0000 7.1172
# 5 15.3770 4.7431 1.2168 0.0000 28.4786 0.0000
# 6 0.0000 0.0000 0.0000 7.1172 0.0000 6.5759
#
#
#
# Elastic Compliance Matrix: (Units=1/GPa)
#
#
# Indices 1 2 3 4 5 6 
#
# 1 0.051812 -0.015104 -0.003224 0.000000 -0.025323 0.000000
# 2 -0.015104 0.018312 -0.003710 0.000000 0.005264 0.000000
# 3 -0.003224 -0.003710 0.008664 0.000000 0.001988 0.000000
# 4 0.000000 0.000000 0.000000 0.060823 0.000000 -0.065830
# 5 -0.025323 0.005264 0.001988 0.000000 0.047825 0.000000
# 6 0.000000 0.000000 0.000000 -0.065830 0.000000 0.223319
#
#
# Mechanical properties :
#
#
# Convention : Reuss Voigt Hill
#
# Bulk Modulus (GPa) = 28.80745 53.13912 40.97329
# Shear Modulus (GPa) = 10.72033 23.00286 16.86160
#
# Velocity S-wave (km/s) = 2.41871 3.54300 3.03340
# Velocity P-wave (km/s) = 4.84982 6.76281 5.88457
#
# Compressibility (1/GPa) = 0.03471324
#
# Stress axis : x y z
#
# Youngs Moduli (GPa) = 19.30047 54.60771 115.41455
#
# Poissons Ratio (x) = 0.82479 0.37205
# Poissons Ratio (y) = 0.29151 0.42824
# Poissons Ratio (z) = 0.06222 0.20262
#
# Static dielectric constant tensor:
#      x y z
#    x 1.634710 0.000000 0.005120 
#    y 0.000000 1.635100 0.000000 
#    z 0.005120 0.000000 1.613690 
# 
# From -- ./inp_files/60296.got.cif
#   From: 2010.05.17/outbox.cif.g08.bks.cpg/sg14_31_cif.got.tgz:60296.got - 2010.06.03 17:49:19.
