data_PCOD9243435
_publ_section_title
;
Structure prediction by ZEFSAII (Michael W. Deem and Ramdas Pophale) SiO2 
 PCOD9243435
Probable space group: P 21/C
;
_chemical_formula_sum "Si O2"
_cell_formula_units_Z 28
_cell_length_a 15.530854
_cell_length_b 6.975770
_cell_length_c 16.065745
_cell_angle_alpha 90.000000
_cell_angle_beta 35.164206
_cell_angle_gamma 90.000000
_cell_volume 1002.424824
_symmetry_space_group_name_H-M "P 21/C"
_symmetry_group_IT_number 14
_symmetry_cell_setting 'monoclinic'
loop_
_space_group_symop_operation_xyz
x,y,z
-x,1/2+y,1/2-z
-x,-y,-z
x,1/2-y,1/2+z
loop_
_atom_site_type_symbol
_atom_site_label
_atom_site_fract_x
_atom_site_fract_y
_atom_site_fract_z
Si Si1 0.544619 0.212804 0.856254
Si Si2 0.866770 0.634462 0.490634
Si Si3 0.279142 0.332770 0.160200
Si Si4 0.090274 0.479389 0.732544
Si Si5 0.219168 0.629694 0.061244
Si Si6 0.463161 0.415402 0.257950
Si Si7 0.851297 0.173973 0.126979
O O1 0.542232 0.401577 0.798553
O O2 0.467832 0.061361 0.854962
O O3 0.717986 0.175248 0.735441
O O4 0.450440 0.261355 0.013705
O O5 0.897913 0.620178 0.368334
O O6 0.693028 0.695267 0.636153
O O7 0.881562 0.411565 0.511596
O O8 0.999718 0.727473 0.440324
O O9 0.178345 0.146913 0.228977
O O10 0.251425 0.463220 0.101481
O O11 0.223600 0.480015 0.273460
O O12 0.165312 0.683168 0.654156
O O13 0.913772 0.458902 0.889584
O O14 0.373683 0.667003 0.892545
#
# Coordination Sequence:
#
# PCOD9243435 Si02
#       7
#     4   4   4   4   4   4   4
#     4  10  21  37  65  93 131 169 223 269 331 388
#     4  10  20  38  66  90 130 168 219 268 329 390
#     4  11  22  38  64  95 132 174 220 270 330 391
#     4  12  21  40  65  97 131 173 221 274 322 390
#     4  11  22  35  62  96 129 165 223 271 320 390
#     4  10  21  37  61  98 122 168 221 269 314 396
#     4  10  20  37  64  95 126 175 214 270 337 392
#
# _framework density 27.932269999999999
#
# number of rings (size 3 to 8) (size 9 to 14) (size 15 to 20)
#    0.000    1.429    4.286    2.143    0.000    1.143 
#    0.000    0.000    6.286    6.857    0.000    0.000 
#    0.000    0.000    0.000    0.000    0.000    0.000 
#
# Total GULP energy -156674.463092 kJ/mol
# GULP energy per Si atom -5595.516539 kJ/mol
# Density = 2.786869 g / cm^3
# Si number density = 27.932270 Si / 1000 Ang^3
#
#
#
# Elastic Constant Matrix: (Units=GPa)
#
#
# Indices 1 2 3 4 5 6 
#
# 1 116.9456 27.8681 46.9086 0.0000 -31.4603 0.0000
# 2 27.8681 83.6143 24.6227 0.0000 -12.5317 0.0000
# 3 46.9086 24.6227 155.3453 0.0000 -40.1679 0.0000
# 4 0.0000 0.0000 0.0000 28.9645 0.0000 0.3034
# 5 -31.4603 -12.5317 -40.1679 0.0000 61.6771 0.0000
# 6 0.0000 0.0000 0.0000 0.3034 0.0000 43.2244
#
#
#
# Elastic Compliance Matrix: (Units=1/GPa)
#
#
# Indices 1 2 3 4 5 6 
#
# 1 0.010948 -0.002511 -0.001919 0.000000 0.003824 0.000000
# 2 -0.002511 0.013239 -0.001173 0.000000 0.000645 0.000000
# 3 -0.001919 -0.001173 0.008283 0.000000 0.004177 0.000000
# 4 0.000000 0.000000 0.000000 0.034528 0.000000 -0.000242
# 5 0.003824 0.000645 0.004177 0.000000 0.021016 0.000000
# 6 0.000000 0.000000 0.000000 -0.000242 0.000000 0.023137
#
#
# Mechanical properties :
#
#
# Convention : Reuss Voigt Hill
#
# Bulk Modulus (GPa) = 47.02971 61.63377 54.33174
# Shear Modulus (GPa) = 38.62703 43.87359 41.25031
#
# Velocity S-wave (km/s) = 3.72275 3.96752 3.84708
# Velocity P-wave (km/s) = 5.94576 6.56518 6.26313
#
# Compressibility (1/GPa) = 0.02126316
#
# Stress axis : x y z
#
# Youngs Moduli (GPa) = 91.34237 75.53631 120.73209
#
# Poissons Ratio (x) = 0.18964 0.23169
# Poissons Ratio (y) = 0.22932 0.14168
# Poissons Ratio (z) = 0.17529 0.08864
#
# Static dielectric constant tensor:
#      x y z
#    x 2.179510 0.000000 0.014200 
#    y 0.000000 2.261020 0.000000 
#    z 0.014200 0.000000 2.293840 
# 
# From -- ./inp_files/59051.got.cif
#   From: 2010.05.17/outbox.cif.g08.bks.cpg/sg14_30_cif.got.tgz:59051.got - 2010.06.03 17:49:19.
