data_PCOD9243620
_publ_section_title
;
Structure prediction by ZEFSAII (Michael W. Deem and Ramdas Pophale) SiO2 
 PCOD9243620
Probable space group: P 21/C
;
_chemical_formula_sum "Si O2"
_cell_formula_units_Z 32
_cell_length_a 11.822405
_cell_length_b 10.142918
_cell_length_c 17.567849
_cell_angle_alpha 90.000000
_cell_angle_beta 137.134473
_cell_angle_gamma 90.000000
_cell_volume 1433.095194
_symmetry_space_group_name_H-M "P 21/C"
_symmetry_group_IT_number 14
_symmetry_cell_setting 'monoclinic'
loop_
_space_group_symop_operation_xyz
x,y,z
-x,1/2+y,1/2-z
-x,-y,-z
x,1/2-y,1/2+z
loop_
_atom_site_type_symbol
_atom_site_label
_atom_site_fract_x
_atom_site_fract_y
_atom_site_fract_z
Si Si1 0.388819 0.078727 0.829967
Si Si2 0.408224 0.541521 0.170374
Si Si3 0.991666 0.344367 0.319699
Si Si4 0.109246 0.123871 0.469443
Si Si5 0.221922 0.986361 0.160515
Si Si6 0.868611 0.429468 0.720369
Si Si7 0.074774 0.268622 0.117711
Si Si8 0.718466 0.307089 0.449707
O O1 0.232773 0.180701 0.744570
O O2 0.569394 0.144791 0.930738
O O3 0.402305 0.009784 0.753842
O O4 0.319197 0.972831 0.855167
O O5 0.587907 0.513852 0.225126
O O6 0.366348 0.695070 0.144411
O O7 0.273909 0.460458 0.056489
O O8 0.864371 0.390831 0.321756
O O9 0.904260 0.226246 0.228717
O O10 0.132453 0.261928 0.435413
O O11 0.055550 0.470555 0.304512
O O12 0.053670 0.151107 0.528322
O O13 0.970064 0.050581 0.350491
O O14 0.228070 0.924938 0.079632
O O15 0.128928 0.123974 0.117145
O O16 0.892199 0.253463 0.063708
#
# Coordination Sequence:
#
# PCOD9243620 Si02
#       8
#     4   4   4   4   4   4   4   4
#     4  10  21  35  60  92 124 163 207 265 320 382
#     4  10  20  38  61  96 129 161 208 268 330 391
#     4  10  23  41  66  90 124 177 217 260 316 386
#     4   9  21  40  63  94 122 167 213 265 325 380
#     4  11  22  37  60  99 132 168 208 265 337 377
#     4  10  22  42  63  90 126 173 222 258 314 381
#     4  11  20  36  63  95 136 159 207 272 330 385
#     4  11  20  33  58  94 127 163 205 261 328 389
#
# _framework density 22.329291000000001
#
# number of rings (size 3 to 8) (size 9 to 14) (size 15 to 20)
#    0.750    1.000    2.500    2.625    1.750    2.000 
#    0.000    0.625    2.750    1.500    0.000    0.000 
#    0.000    0.000    0.000    0.000    0.000    0.000 
#
# Total GULP energy -178652.230492 kJ/mol
# GULP energy per Si atom -5582.882203 kJ/mol
# Density = 2.227847 g / cm^3
# Si number density = 22.329291 Si / 1000 Ang^3
#
#
#
# Elastic Constant Matrix: (Units=GPa)
#
#
# Indices 1 2 3 4 5 6 
#
# 1 76.0335 13.9214 55.2353 0.0000 24.9731 0.0000
# 2 13.9214 87.1475 17.6999 0.0000 10.0824 0.0000
# 3 55.2353 17.6999 71.3724 0.0000 18.0969 0.0000
# 4 0.0000 0.0000 0.0000 -6.6335 0.0000 6.2337
# 5 24.9731 10.0824 18.0969 0.0000 40.5527 0.0000
# 6 0.0000 0.0000 0.0000 6.2337 0.0000 31.9770
#
#
#
# Elastic Compliance Matrix: (Units=1/GPa)
#
#
# Indices 1 2 3 4 5 6 
#
# 1 0.033428 0.000605 -0.023411 0.000000 -0.010289 0.000000
# 2 0.000605 0.012223 -0.002971 0.000000 -0.002086 0.000000
# 3 -0.023411 -0.002971 0.032726 0.000000 0.000552 0.000000
# 4 0.000000 0.000000 0.000000 -0.127410 0.000000 0.024838
# 5 -0.010289 -0.002086 0.000552 0.000000 0.031268 0.000000
# 6 0.000000 0.000000 0.000000 0.024838 0.000000 0.026431
#
#
# Mechanical properties :
#
#
# Convention : Reuss Voigt Hill
#
# Bulk Modulus (GPa) = 37.28118 45.36295 41.32207
# Shear Modulus (GPa) = 72.29643 23.02571 47.66107
#
# Velocity S-wave (km/s) = 5.69629 3.21470 4.62504
# Velocity P-wave (km/s) = 7.74570 5.84282 6.86056
#
# Compressibility (1/GPa) = 0.02682318
#
# Stress axis : x y z
#
# Youngs Moduli (GPa) = 29.91511 81.81431 30.55674
#
# Poissons Ratio (x) = -0.04952 0.71537
# Poissons Ratio (y) = -0.01811 0.09077
# Poissons Ratio (z) = 0.70035 0.24305
#
# Static dielectric constant tensor:
#      x y z
#    x 1.802740 0.000000 -0.009810 
#    y 0.000000 1.884020 0.000000 
#    z -0.009810 0.000000 1.852920 
# 
# From -- ./inp_files/67268.got.cif
#   From: 2010.05.17/outbox.cif.g08.bks.cpg/sg14_34_cif.got.tgz:67268.got - 2010.06.03 17:49:19.
