data_PCOD9243585
_publ_section_title
;
Structure prediction by ZEFSAII (Michael W. Deem and Ramdas Pophale) SiO2 
 PCOD9243585
Probable space group: P 21/C
;
_chemical_formula_sum "Si O2"
_cell_formula_units_Z 32
_cell_length_a 5.210847
_cell_length_b 21.486711
_cell_length_c 11.538946
_cell_angle_alpha 90.000000
_cell_angle_beta 91.910455
_cell_angle_gamma 90.000000
_cell_volume 1291.228000
_symmetry_space_group_name_H-M "P 21/C"
_symmetry_group_IT_number 14
_symmetry_cell_setting 'monoclinic'
loop_
_space_group_symop_operation_xyz
x,y,z
-x,1/2+y,1/2-z
-x,-y,-z
x,1/2-y,1/2+z
loop_
_atom_site_type_symbol
_atom_site_label
_atom_site_fract_x
_atom_site_fract_y
_atom_site_fract_z
Si Si1 0.759447 0.462319 0.036056
Si Si2 0.426392 0.185777 0.592044
Si Si3 0.269095 0.023542 0.250818
Si Si4 0.091815 0.642296 0.604514
Si Si5 0.080894 0.874052 0.833362
Si Si6 0.400313 0.082776 0.784133
Si Si7 0.052974 0.758079 0.291704
Si Si8 0.538765 0.369881 0.868511
O O1 0.817110 0.464385 0.174008
O O2 0.500000 0.500000 0.000000
O O3 0.745951 0.400372 0.960593
O O4 0.000000 0.500000 0.000000
O O5 0.411108 0.116739 0.656245
O O6 0.156439 0.212451 0.627452
O O7 0.445973 0.183986 0.452599
O O8 0.665287 0.225138 0.649645
O O9 0.065694 0.059631 0.170026
O O10 0.321202 0.079026 0.342405
O O11 0.532231 0.991350 0.210384
O O12 0.102299 0.644255 0.467055
O O13 0.857260 0.600721 0.650949
O O14 0.055042 0.707988 0.667981
O O15 0.365451 0.615005 0.645293
O O16 0.951644 0.812421 0.777187
O O17 0.335657 0.869607 0.757178
#
# Coordination Sequence:
#
# PCOD9243585 Si02
#       8
#     4   4   4   4   4   4   4   4
#     4  10  20  38  60  95 143 170 212 275 339 401
#     4  10  23  46  74 100 135 185 237 288 351 407
#     4  11  25  41  69 108 144 183 228 285 358 414
#     4  10  26  48  70  96 139 188 239 282 343 420
#     4  12  28  44  70 105 143 182 236 293 350 415
#     4  10  23  47  73  97 138 192 232 279 347 425
#     4  10  26  48  71  98 133 190 236 290 348 411
#     4  11  25  41  71 111 138 179 226 296 350 412
#
# _framework density 24.782609999999998
#
# number of rings (size 3 to 8) (size 9 to 14) (size 15 to 20)
#    0.000    1.500    2.500    0.000    8.750    1.000 
#    2.250    0.000    0.000    0.000    0.000    0.000 
#    0.000    0.000    0.000    0.000    0.000    0.000 
#
# Total GULP energy -178307.341201 kJ/mol
# GULP energy per Si atom -5572.104413 kJ/mol
# Density = 2.472620 g / cm^3
# Si number density = 24.782610 Si / 1000 Ang^3
#
#
#
# Elastic Constant Matrix: (Units=GPa)
#
#
# Indices 1 2 3 4 5 6 
#
# 1 103.6981 12.6796 42.2158 0.0000 -13.8139 0.0000
# 2 12.6796 79.6669 17.3979 0.0000 -0.3157 0.0000
# 3 42.2158 17.3979 138.5202 0.0000 -24.8488 0.0000
# 4 0.0000 0.0000 0.0000 13.9133 0.0000 1.9321
# 5 -13.8139 -0.3157 -24.8488 0.0000 24.8472 0.0000
# 6 0.0000 0.0000 0.0000 1.9321 0.0000 27.7203
#
#
#
# Elastic Compliance Matrix: (Units=1/GPa)
#
#
# Indices 1 2 3 4 5 6 
#
# 1 0.011358 -0.001213 -0.002656 0.000000 0.003643 0.000000
# 2 -0.001213 0.013100 -0.001666 0.000000 -0.002174 0.000000
# 3 -0.002656 -0.001666 0.009711 0.000000 0.008214 0.000000
# 4 0.000000 0.000000 0.000000 0.072576 0.000000 -0.005059
# 5 0.003643 -0.002174 0.008214 0.000000 0.050459 0.000000
# 6 0.000000 0.000000 0.000000 -0.005059 0.000000 0.036427
#
#
# Mechanical properties :
#
#
# Convention : Reuss Voigt Hill
#
# Bulk Modulus (GPa) = 43.28835 51.83018 47.55927
# Shear Modulus (GPa) = 23.54036 29.93564 26.73800
#
# Velocity S-wave (km/s) = 3.08535 3.47930 3.28823
# Velocity P-wave (km/s) = 5.49524 6.09098 5.80076
#
# Compressibility (1/GPa) = 0.02310090
#
# Stress axis : x y z
#
# Youngs Moduli (GPa) = 88.04229 76.33297 102.97367
#
# Poissons Ratio (x) = 0.09262 0.27345
# Poissons Ratio (y) = 0.10683 0.17151
# Poissons Ratio (z) = 0.23380 0.12714
#
# Static dielectric constant tensor:
#      x y z
#    x 2.075700 0.000000 -0.019790 
#    y 0.000000 2.373860 0.000000 
#    z -0.019790 0.000000 2.044400 
# 
# From -- ./inp_files/22095.got.cif
#   From: 2010.05.17/outbox.cif.g08.bks.cpg/sg14_12_cif.got.tgz:22095.got - 2010.06.03 17:49:19.
