data_PCOD9243231
_publ_section_title
;
Structure prediction by ZEFSAII (Michael W. Deem and Ramdas Pophale) SiO2 
 PCOD9243231
Probable space group: P 21/C
;
_chemical_formula_sum "Si O2"
_cell_formula_units_Z 28
_cell_length_a 8.564303
_cell_length_b 5.103151
_cell_length_c 22.015373
_cell_angle_alpha 90.000000
_cell_angle_beta 85.474961
_cell_angle_gamma 90.000000
_cell_volume 959.181204
_symmetry_space_group_name_H-M "P 21/C"
_symmetry_group_IT_number 14
_symmetry_cell_setting 'monoclinic'
loop_
_space_group_symop_operation_xyz
x,y,z
-x,1/2+y,1/2-z
-x,-y,-z
x,1/2-y,1/2+z
loop_
_atom_site_type_symbol
_atom_site_label
_atom_site_fract_x
_atom_site_fract_y
_atom_site_fract_z
Si Si1 0.825968 0.028027 0.579058
Si Si2 0.702371 0.751336 0.748944
Si Si3 0.594005 0.252553 0.676237
Si Si4 0.900535 0.664620 0.419978
Si Si5 0.440755 0.248641 0.965048
Si Si6 0.724159 0.325191 0.889760
Si Si7 0.001839 0.305676 0.320398
O O1 0.740517 0.802060 0.543004
O O2 0.916227 0.877306 0.630590
O O3 0.682215 0.201428 0.610291
O O4 0.957042 0.215672 0.545877
O O5 0.649882 0.519981 0.705172
O O6 0.595399 0.737174 0.812500
O O7 0.890404 0.730606 0.741071
O O8 0.652619 0.019191 0.717927
O O9 0.193901 0.604795 0.569020
O O10 0.993643 0.584789 0.354437
O O11 0.776681 0.894173 0.412303
O O12 0.542099 0.261080 0.899369
O O13 0.500000 0.500000 0.000000
O O14 0.500000 0.000000 0.000000
O O15 0.818771 0.275075 0.824345
#
# Coordination Sequence:
#
# PCOD9243231 Si02
#       7
#     4   4   4   4   4   4   4
#     4  10  20  37  59  82 110 147 185 232 280 328
#     4   9  15  25  46  84 112 133 170 217 264 317
#     4   9  16  26  46  79 114 136 167 220 272 311
#     4   9  17  34  60  80 104 143 183 216 266 339
#     4  12  28  42  57  80 111 145 189 239 286 338
#     4   9  19  38  56  79 107 144 181 216 287 333
#     4   8  17  32  59  81 109 138 181 215 272 325
#
# _framework density 29.191562999999999
#
# number of rings (size 3 to 8) (size 9 to 14) (size 15 to 20)
#    0.857    1.714    1.429    0.857    2.000    0.000 
#    0.000   10.000    0.000    0.000    3.714    0.000 
#    0.000    0.000    0.000    0.000    0.000    0.000 
#
# Total GULP energy -156809.362980 kJ/mol
# GULP energy per Si atom -5600.334392 kJ/mol
# Density = 2.912512 g / cm^3
# Si number density = 29.191563 Si / 1000 Ang^3
#
#
#
# Elastic Constant Matrix: (Units=GPa)
#
#
# Indices 1 2 3 4 5 6 
#
# 1 154.1763 29.0577 50.6767 0.0000 -28.6746 0.0000
# 2 29.0577 191.0291 10.7234 0.0000 24.0172 0.0000
# 3 50.6767 10.7234 79.0012 0.0000 -14.2530 0.0000
# 4 0.0000 0.0000 0.0000 36.1842 0.0000 -2.8443
# 5 -28.6746 24.0172 -14.2530 0.0000 65.4769 0.0000
# 6 0.0000 0.0000 0.0000 -2.8443 0.0000 33.1462
#
#
#
# Elastic Compliance Matrix: (Units=1/GPa)
#
#
# Indices 1 2 3 4 5 6 
#
# 1 0.009050 -0.001530 -0.004977 0.000000 0.003441 0.000000
# 2 -0.001530 0.005849 -0.000334 0.000000 -0.002888 0.000000
# 3 -0.004977 -0.000334 0.016159 0.000000 0.001460 0.000000
# 4 0.000000 0.000000 0.000000 0.027824 0.000000 0.002388
# 5 0.003441 -0.002888 0.001460 0.000000 0.018157 0.000000
# 6 0.000000 0.000000 0.000000 0.002388 0.000000 0.030374
#
#
# Mechanical properties :
#
#
# Convention : Reuss Voigt Hill
#
# Bulk Modulus (GPa) = 57.54414 67.23578 62.38996
# Shear Modulus (GPa) = 39.40479 49.21138 44.30808
#
# Velocity S-wave (km/s) = 3.67804 4.11031 3.90017
# Velocity P-wave (km/s) = 6.14758 6.75343 6.45761
#
# Compressibility (1/GPa) = 0.01737796
#
# Stress axis : x y z
#
# Youngs Moduli (GPa) = 110.49290 170.95833 61.88363
#
# Poissons Ratio (x) = 0.26156 0.30799
# Poissons Ratio (y) = 0.16905 0.02065
# Poissons Ratio (z) = 0.54992 0.05704
#
# Static dielectric constant tensor:
#      x y z
#    x 2.290650 0.000000 -0.118350 
#    y 0.000000 2.293740 0.000000 
#    z -0.118350 0.000000 2.355810 
# 
# From -- ./inp_files/79013.got.cif
#   From: 2010.05.17/outbox.cif.g08.bks.cpg/sg14_40_cif.got.tgz:79013.got - 2010.06.03 17:49:19.
