data_PCOD9243757
_publ_section_title
;
Structure prediction by ZEFSAII (Michael W. Deem and Ramdas Pophale) SiO2 
 PCOD9243757
Probable space group: P 21/C
;
_chemical_formula_sum "Si O2"
_cell_formula_units_Z 30
_cell_length_a 29.011425
_cell_length_b 4.948861
_cell_length_c 8.439987
_cell_angle_alpha 90.000000
_cell_angle_beta 63.077988
_cell_angle_gamma 90.000000
_cell_volume 1080.432582
_symmetry_space_group_name_H-M "P 21/C"
_symmetry_group_IT_number 14
_symmetry_cell_setting 'monoclinic'
loop_
_space_group_symop_operation_xyz
x,y,z
-x,1/2+y,1/2-z
-x,-y,-z
x,1/2-y,1/2+z
loop_
_atom_site_type_symbol
_atom_site_label
_atom_site_fract_x
_atom_site_fract_y
_atom_site_fract_z
Si Si1 0.210241 0.463745 0.496850
Si Si2 0.699011 0.623270 0.217715
Si Si3 0.926715 0.894798 0.317843
Si Si4 0.855249 0.569635 0.671582
Si Si5 0.534650 0.544455 0.185480
Si Si6 0.306773 0.744011 0.010882
Si Si7 0.000000 0.000000 0.500000
Si Si8 0.396325 0.067829 0.705759
O O1 0.246439 0.255773 0.344257
O O2 0.176180 0.288212 0.673189
O O3 0.179482 0.603492 0.397864
O O4 0.252800 0.638048 0.523615
O O5 0.695124 0.336808 0.307358
O O6 0.695959 0.565119 0.034243
O O7 0.647412 0.782440 0.328763
O O8 0.889287 0.724408 0.488274
O O9 0.892230 0.073052 0.246251
O O10 0.958237 0.708125 0.144997
O O11 0.965067 0.029774 0.384507
O O12 0.506390 0.280047 0.296382
O O13 0.572312 0.707635 0.244542
O O14 0.565235 0.446357 0.983050
O O15 0.361428 0.865261 0.863876
#
# Coordination Sequence:
#
# PCOD9243757 Si02
#       8
#     4   4   4   4   4   4   2   4
#     4  10  20  40  64  88 134 174 218 270 336 428
#     4  11  25  40  67  97 130 175 224 279 339 403
#     4   9  20  37  68  90 130 176 221 288 349 408
#     4   9  18  36  66  85 126 181 215 259 352 423
#     4  12  28  47  72 101 140 184 233 296 374 430
#     4  11  25  40  67  97 130 175 224 279 339 403
#     4  10  20  38  64  96 124 170 232 278 340 410
#     4  11  26  45  68  98 134 178 231 280 343 430
#
# _framework density 27.766658
#
# number of rings (size 3 to 8) (size 9 to 14) (size 15 to 20)
#    0.000    1.600    2.667    0.800    7.467    2.133 
#    0.000    0.000   44.000    0.000    0.000    0.000 
#    0.000    0.000    0.000    0.000    0.000    0.000 
#
# Total GULP energy -167293.113389 kJ/mol
# GULP energy per Si atom -5576.437113 kJ/mol
# Density = 2.770346 g / cm^3
# Si number density = 27.766658 Si / 1000 Ang^3
#
#
#
# Elastic Constant Matrix: (Units=GPa)
#
#
# Indices 1 2 3 4 5 6 
#
# 1 169.5208 29.0077 53.1796 0.0000 38.1146 0.0000
# 2 29.0077 42.4148 16.6228 0.0000 -4.8473 0.0000
# 3 53.1796 16.6228 132.8778 0.0000 -5.2070 0.0000
# 4 0.0000 0.0000 0.0000 30.2147 0.0000 9.0382
# 5 38.1146 -4.8473 -5.2070 0.0000 50.9494 0.0000
# 6 0.0000 0.0000 0.0000 9.0382 0.0000 26.3108
#
#
#
# Elastic Compliance Matrix: (Units=1/GPa)
#
#
# Indices 1 2 3 4 5 6 
#
# 1 0.010010 -0.006428 -0.003533 0.000000 -0.008461 0.000000
# 2 -0.006428 0.029135 -0.000778 0.000000 0.007501 0.000000
# 3 -0.003533 -0.000778 0.009175 0.000000 0.003507 0.000000
# 4 0.000000 0.000000 0.000000 0.036887 0.000000 -0.012671
# 5 -0.008461 0.007501 0.003507 0.000000 0.027029 0.000000
# 6 0.000000 0.000000 0.000000 -0.012671 0.000000 0.042360
#
#
# Mechanical properties :
#
#
# Convention : Reuss Voigt Hill
#
# Bulk Modulus (GPa) = 37.25758 60.27038 48.76398
# Shear Modulus (GPa) = 27.02404 37.89521 32.45963
#
# Velocity S-wave (km/s) = 3.12309 3.69829 3.42279
# Velocity P-wave (km/s) = 5.14316 6.32374 5.76376
#
# Compressibility (1/GPa) = 0.02684017
#
# Stress axis : x y z
#
# Youngs Moduli (GPa) = 99.90388 34.32305 108.99610
#
# Poissons Ratio (x) = 0.22062 0.38513
# Poissons Ratio (y) = 0.64216 0.08483
# Poissons Ratio (z) = 0.35300 0.02671
#
# Static dielectric constant tensor:
#      x y z
#    x 2.212310 0.000000 0.013460 
#    y 0.000000 2.110830 0.000000 
#    z 0.013460 0.000000 2.080720 
# 
# From -- ./inp_files/19879.got.cif
#   From: 2010.05.17/outbox.cif.g08.bks.cpg/sg14_10_cif.got.tgz:19879.got - 2010.06.03 17:49:19.
