data_PCOD9243415
_publ_section_title
;
Structure prediction by ZEFSAII (Michael W. Deem and Ramdas Pophale) SiO2 
 PCOD9243415
Probable space group: P 21/C
;
_chemical_formula_sum "Si O2"
_cell_formula_units_Z 20
_cell_length_a 12.543597
_cell_length_b 7.377538
_cell_length_c 12.956251
_cell_angle_alpha 90.000000
_cell_angle_beta 138.206614
_cell_angle_gamma 90.000000
_cell_volume 799.057688
_symmetry_space_group_name_H-M "P 21/C"
_symmetry_group_IT_number 14
_symmetry_cell_setting 'monoclinic'
loop_
_space_group_symop_operation_xyz
x,y,z
-x,1/2+y,1/2-z
-x,-y,-z
x,1/2-y,1/2+z
loop_
_atom_site_type_symbol
_atom_site_label
_atom_site_fract_x
_atom_site_fract_y
_atom_site_fract_z
Si Si1 0.067442 0.258513 0.497060
Si Si2 0.181584 0.874919 0.518198
Si Si3 0.309438 0.313152 0.338850
Si Si4 0.494655 0.107608 0.150492
Si Si5 0.842329 0.022825 0.093922
O O1 0.202350 0.297691 0.682219
O O2 0.041151 0.423242 0.400907
O O3 0.911005 0.196225 0.446421
O O4 0.136706 0.086634 0.481016
O O5 0.370302 0.845969 0.671290
O O6 0.135128 0.736561 0.394391
O O7 0.419192 0.446355 0.350659
O O8 0.427657 0.247934 0.516548
O O9 0.181444 0.437259 0.310539
O O10 0.331447 0.031676 0.078959
#
# Coordination Sequence:
#
# PCOD9243415 Si02
#       5
#     4   4   4   4   4
#     4  10  21  40  59  85 120 148 192 239 283 340
#     4  10  21  37  59  85 114 151 191 239 282 339
#     4   8  18  38  55  85 122 144 186 249 277 329
#     4   8  18  34  60  81 115 152 185 234 288 325
#     4  10  20  37  64  81 116 161 187 224 302 339
#
# _framework density 25.029482999999999
#
# number of rings (size 3 to 8) (size 9 to 14) (size 15 to 20)
#    1.200    1.600    0.000    0.600    5.600    0.000 
#   10.800    5.000    0.000    0.000    0.000    0.000 
#    0.000    0.000    0.000    0.000    0.000    0.000 
#
# Total GULP energy -111477.989452 kJ/mol
# GULP energy per Si atom -5573.899473 kJ/mol
# Density = 2.497252 g / cm^3
# Si number density = 25.029483 Si / 1000 Ang^3
#
#
#
# Elastic Constant Matrix: (Units=GPa)
#
#
# Indices 1 2 3 4 5 6 
#
# 1 75.4055 16.5157 -1.0292 0.0000 5.1170 0.0000
# 2 16.5157 66.9484 29.0063 0.0000 -15.6426 0.0000
# 3 -1.0292 29.0063 98.2608 0.0000 15.0106 0.0000
# 4 0.0000 0.0000 0.0000 7.3554 0.0000 -3.7303
# 5 5.1170 -15.6426 15.0106 0.0000 29.6534 0.0000
# 6 0.0000 0.0000 0.0000 -3.7303 0.0000 24.6134
#
#
#
# Elastic Compliance Matrix: (Units=1/GPa)
#
#
# Indices 1 2 3 4 5 6 
#
# 1 0.015486 -0.007339 0.003607 0.000000 -0.008369 0.000000
# 2 -0.007339 0.026383 -0.011038 0.000000 0.020771 0.000000
# 3 0.003607 -0.011038 0.015669 0.000000 -0.014377 0.000000
# 4 0.000000 0.000000 0.000000 0.147274 0.000000 0.022320
# 5 -0.008369 0.020771 -0.014377 0.000000 0.053402 0.000000
# 6 0.000000 0.000000 0.000000 0.022320 0.000000 0.044011
#
#
# Mechanical properties :
#
#
# Convention : Reuss Voigt Hill
#
# Bulk Modulus (GPa) = 35.71530 36.62226 36.16878
# Shear Modulus (GPa) = 14.65852 25.39924 20.02888
#
# Velocity S-wave (km/s) = 2.42265 3.18901 2.83187
# Velocity P-wave (km/s) = 4.70382 5.31254 5.01742
#
# Compressibility (1/GPa) = 0.02799920
#
# Stress axis : x y z
#
# Youngs Moduli (GPa) = 64.57374 37.90334 63.81830
#
# Poissons Ratio (x) = 0.27816 -0.23020
# Poissons Ratio (y) = 0.47389 0.70443
# Poissons Ratio (z) = -0.23292 0.41838
#
# Static dielectric constant tensor:
#      x y z
#    x 1.917450 0.000000 0.032800 
#    y 0.000000 1.994020 0.000000 
#    z 0.032800 0.000000 2.111200 
# 
# From -- ./inp_files/46207.got.cif
#   From: 2010.05.17/outbox.cif.g08.bks.cpg/sg14_24_cif.got.tgz:46207.got - 2010.06.03 17:49:19.
