data_PCOD9243259
_publ_section_title
;
Structure prediction by ZEFSAII (Michael W. Deem and Ramdas Pophale) SiO2 
 PCOD9243259
Probable space group: P 21/C
;
_chemical_formula_sum "Si O2"
_cell_formula_units_Z 32
_cell_length_a 18.047500
_cell_length_b 14.185122
_cell_length_c 13.809620
_cell_angle_alpha 90.000000
_cell_angle_beta 22.392362
_cell_angle_gamma 90.000000
_cell_volume 1346.779672
_symmetry_space_group_name_H-M "P 21/C"
_symmetry_group_IT_number 14
_symmetry_cell_setting 'monoclinic'
loop_
_space_group_symop_operation_xyz
x,y,z
-x,1/2+y,1/2-z
-x,-y,-z
x,1/2-y,1/2+z
loop_
_atom_site_type_symbol
_atom_site_label
_atom_site_fract_x
_atom_site_fract_y
_atom_site_fract_z
Si Si1 0.011477 0.887931 0.755174
Si Si2 0.422229 0.487514 0.450932
Si Si3 0.395721 0.388332 0.920445
Si Si4 0.769695 0.985313 0.191478
Si Si5 0.572214 0.195068 0.715476
Si Si6 0.543709 0.349020 0.022358
Si Si7 0.827617 0.981665 0.582864
Si Si8 0.753061 0.794211 0.595585
O O1 0.221982 0.840997 0.497423
O O2 0.009380 0.957277 0.666271
O O3 0.969747 0.953414 0.899501
O O4 0.870424 0.799799 0.930866
O O5 0.462903 0.535986 0.300088
O O6 0.412238 0.375958 0.450013
O O7 0.235067 0.518756 0.736771
O O8 0.620937 0.508987 0.272194
O O9 0.524744 0.301151 0.800317
O O10 0.282380 0.342656 0.966156
O O11 0.270954 0.434393 0.156509
O O12 0.612167 0.933106 0.311269
O O13 0.730058 0.097196 0.250929
O O14 0.578896 0.174116 0.592278
O O15 0.442454 0.248750 0.116822
O O16 0.862041 0.870137 0.530311
#
# Coordination Sequence:
#
# PCOD9243259 Si02
#       8
#     4   4   4   4   4   4   4   4
#     4  10  22  40  56  92 129 154 199 255 313 360
#     4   9  18  36  61  82 113 156 208 244 289 369
#     4  10  20  38  62  89 114 162 203 246 304 363
#     4  10  20  38  61  86 122 159 196 257 310 357
#     4  10  20  37  59  89 118 154 206 251 297 369
#     4   9  19  37  60  86 115 157 202 245 299 366
#     4   9  19  38  60  83 116 165 196 247 303 358
#     4   9  20  40  60  87 124 158 204 244 306 367
#
# _framework density 23.760383000000001
#
# number of rings (size 3 to 8) (size 9 to 14) (size 15 to 20)
#    0.000    2.500    1.250    0.000    3.500    0.500 
#   11.250    0.000    0.000    7.500    0.000    0.000 
#    0.000    0.000    0.000    0.000    0.000    0.000 
#
# Total GULP energy -178461.519942 kJ/mol
# GULP energy per Si atom -5576.922498 kJ/mol
# Density = 2.370630 g / cm^3
# Si number density = 23.760383 Si / 1000 Ang^3
#
#
#
# Elastic Constant Matrix: (Units=GPa)
#
#
# Indices 1 2 3 4 5 6 
#
# 1 44.5326 15.2933 11.7948 0.0000 19.7905 0.0000
# 2 15.2933 110.8080 35.4217 0.0000 18.2118 0.0000
# 3 11.7948 35.4217 91.2852 0.0000 35.9698 0.0000
# 4 0.0000 0.0000 0.0000 19.9071 0.0000 0.0455
# 5 19.7905 18.2118 35.9698 0.0000 37.1835 0.0000
# 6 0.0000 0.0000 0.0000 0.0455 0.0000 29.2945
#
#
#
# Elastic Compliance Matrix: (Units=1/GPa)
#
#
# Indices 1 2 3 4 5 6 
#
# 1 0.030872 -0.002539 0.004817 0.000000 -0.019847 0.000000
# 2 -0.002539 0.010595 -0.003670 0.000000 -0.000288 0.000000
# 3 0.004817 -0.003670 0.019486 0.000000 -0.019616 0.000000
# 4 0.000000 0.000000 0.000000 0.050234 0.000000 -0.000078
# 5 -0.019847 -0.000288 -0.019616 0.000000 0.056574 0.000000
# 6 0.000000 0.000000 0.000000 -0.000078 0.000000 0.034136
#
#
# Mechanical properties :
#
#
# Convention : Reuss Voigt Hill
#
# Bulk Modulus (GPa) = 17.19108 41.29393 29.24251
# Shear Modulus (GPa) = 22.31450 29.55143 25.93297
#
# Velocity S-wave (km/s) = 3.06788 3.53048 3.30727
# Velocity P-wave (km/s) = 4.44972 5.83404 5.18826
#
# Compressibility (1/GPa) = 0.05816969
#
# Stress axis : x y z
#
# Youngs Moduli (GPa) = 32.39213 94.37993 51.31972
#
# Poissons Ratio (x) = 0.23959 -0.24719
# Poissons Ratio (y) = 0.08223 0.18833
# Poissons Ratio (z) = -0.15602 0.34635
#
# Static dielectric constant tensor:
#      x y z
#    x 2.000990 0.000000 -0.053620 
#    y 0.000000 1.916000 0.000000 
#    z -0.053620 0.000000 2.011220 
# 
# From -- ./inp_files/50688.got.cif
#   From: 2010.05.17/outbox.cif.g08.bks.cpg/sg14_26_cif.got.tgz:50688.got - 2010.06.03 17:49:19.
