data_PCOD9243061
_publ_section_title
;
Structure prediction by ZEFSAII (Michael W. Deem and Ramdas Pophale) SiO2 
 PCOD9243061
Probable space group: P 21/C
;
_chemical_formula_sum "Si O2"
_cell_formula_units_Z 32
_cell_length_a 15.108300
_cell_length_b 7.337653
_cell_length_c 18.651912
_cell_angle_alpha 90.000000
_cell_angle_beta 47.289954
_cell_angle_gamma 90.000000
_cell_volume 1519.367110
_symmetry_space_group_name_H-M "P 21/C"
_symmetry_group_IT_number 14
_symmetry_cell_setting 'monoclinic'
loop_
_space_group_symop_operation_xyz
x,y,z
-x,1/2+y,1/2-z
-x,-y,-z
x,1/2-y,1/2+z
loop_
_atom_site_type_symbol
_atom_site_label
_atom_site_fract_x
_atom_site_fract_y
_atom_site_fract_z
Si Si1 0.519043 0.243744 0.327362
Si Si2 0.698689 0.010525 0.023149
Si Si3 0.912209 0.048068 0.260694
Si Si4 0.632167 0.390956 0.117915
Si Si5 0.156822 0.360873 0.693005
Si Si6 0.933359 0.464481 0.462984
Si Si7 0.122161 0.600261 0.952981
Si Si8 0.766037 0.167762 0.758918
O O1 0.419416 0.393092 0.400832
O O2 0.570470 0.290862 0.219992
O O3 0.630345 0.269360 0.320162
O O4 0.456681 0.045847 0.362070
O O5 0.666582 0.225326 0.045733
O O6 0.796536 0.967167 0.031991
O O7 0.766623 0.946004 0.914274
O O8 0.843519 0.858071 0.309989
O O9 0.989415 0.031253 0.145406
O O10 0.825213 0.215308 0.290325
O O11 0.015626 0.083838 0.262501
O O12 0.756501 0.483815 0.079233
O O13 0.213308 0.456242 0.731812
O O14 0.918557 0.248511 0.466959
O O15 0.000000 0.500000 0.500000
O O16 0.167972 0.692663 0.853892
O O17 0.000000 0.500000 0.000000
#
# Coordination Sequence:
#
# PCOD9243061 Si02
#       8
#     4   4   4   4   4   4   4   4
#     4  11  23  42  67  92 130 170 214 262 325 385
#     4  10  24  42  63  92 127 172 213 268 313 388
#     4  11  22  41  66  90 132 172 206 274 330 379
#     4  10  22  41  65  94 129 169 209 268 329 381
#     4  11  24  43  65  93 130 174 217 259 326 385
#     4  10  20  36  61  95 125 156 210 268 324 382
#     4  10  21  37  60  97 129 156 212 271 324 389
#     4  11  24  41  63  96 126 170 223 260 316 398
#
# _framework density 21.061401
#
# number of rings (size 3 to 8) (size 9 to 14) (size 15 to 20)
#    0.000    1.500    3.750    0.750    1.750    2.500 
#    2.250    1.250    0.000    0.000    0.000    0.000 
#    0.000    0.000    0.000    0.000    0.000    0.000 
#
# Total GULP energy -178591.551916 kJ/mol
# GULP energy per Si atom -5580.985997 kJ/mol
# Density = 2.101346 g / cm^3
# Si number density = 21.061401 Si / 1000 Ang^3
#
#
#
# Elastic Constant Matrix: (Units=GPa)
#
#
# Indices 1 2 3 4 5 6 
#
# 1 84.7517 21.3705 43.2246 0.0000 -25.6256 0.0000
# 2 21.3705 84.1529 28.6343 0.0000 -19.4188 0.0000
# 3 43.2246 28.6343 74.8310 0.0000 -28.5866 0.0000
# 4 0.0000 0.0000 0.0000 22.7752 0.0000 -0.3120
# 5 -25.6256 -19.4188 -28.5866 0.0000 32.1741 0.0000
# 6 0.0000 0.0000 0.0000 -0.3120 0.0000 33.6577
#
#
#
# Elastic Compliance Matrix: (Units=1/GPa)
#
#
# Indices 1 2 3 4 5 6 
#
# 1 0.017903 -0.000306 -0.007338 0.000000 0.007554 0.000000
# 2 -0.000306 0.014329 -0.003172 0.000000 0.005586 0.000000
# 3 -0.007338 -0.003172 0.023997 0.000000 0.013562 0.000000
# 4 0.000000 0.000000 0.000000 0.043913 0.000000 0.000407
# 5 0.007554 0.005586 0.013562 0.000000 0.052519 0.000000
# 6 0.000000 0.000000 0.000000 0.000407 0.000000 0.029715
#
#
# Mechanical properties :
#
#
# Convention : Reuss Voigt Hill
#
# Bulk Modulus (GPa) = 28.90524 47.79939 38.35232
# Shear Modulus (GPa) = 23.19732 27.75513 25.47623
#
# Velocity S-wave (km/s) = 3.32236 3.63412 3.48173
# Velocity P-wave (km/s) = 5.33587 6.35245 5.86622
#
# Compressibility (1/GPa) = 0.03459580
#
# Stress axis : x y z
#
# Youngs Moduli (GPa) = 55.85588 69.78690 41.67181
#
# Poissons Ratio (x) = 0.02138 0.30580
# Poissons Ratio (y) = 0.01711 0.13219
# Poissons Ratio (z) = 0.40989 0.22138
#
# Static dielectric constant tensor:
#      x y z
#    x 1.795990 0.000000 -0.000060 
#    y 0.000000 1.786200 0.000000 
#    z -0.000060 0.000000 1.760580 
# 
# From -- ./inp_files/68206.got.cif
#   From: 2010.05.17/outbox.cif.g08.bks.cpg/sg14_35_cif.got.tgz:68206.got - 2010.06.03 17:49:19.
