data_PCOD9243460
_publ_section_title
;
Structure prediction by ZEFSAII (Michael W. Deem and Ramdas Pophale) SiO2 
 PCOD9243460
Probable space group: P 21/C
;
_chemical_formula_sum "Si O2"
_cell_formula_units_Z 32
_cell_length_a 8.531524
_cell_length_b 14.867581
_cell_length_c 21.305465
_cell_angle_alpha 90.000000
_cell_angle_beta 32.365048
_cell_angle_gamma 90.000000
_cell_volume 1446.653852
_symmetry_space_group_name_H-M "P 21/C"
_symmetry_group_IT_number 14
_symmetry_cell_setting 'monoclinic'
loop_
_space_group_symop_operation_xyz
x,y,z
-x,1/2+y,1/2-z
-x,-y,-z
x,1/2-y,1/2+z
loop_
_atom_site_type_symbol
_atom_site_label
_atom_site_fract_x
_atom_site_fract_y
_atom_site_fract_z
Si Si1 0.360962 0.776508 0.206464
Si Si2 0.223431 0.239045 0.216755
Si Si3 0.217275 0.827903 0.440118
Si Si4 0.800803 0.594391 0.375451
Si Si5 0.863840 0.768887 0.953250
Si Si6 0.651494 0.870424 0.699549
Si Si7 0.108952 0.906962 0.118968
Si Si8 0.410721 0.432323 0.290887
O O1 0.466813 0.695222 0.216469
O O2 0.511320 0.870371 0.176373
O O3 0.023018 0.787946 0.343494
O O4 0.525678 0.751770 0.086078
O O5 0.545679 0.281781 0.094045
O O6 0.104179 0.167427 0.207584
O O7 0.282778 0.185826 0.260689
O O8 0.005280 0.320531 0.305348
O O9 0.399545 0.889808 0.330678
O O10 0.046963 0.754888 0.454006
O O11 0.965492 0.883051 0.559974
O O12 0.868043 0.632093 0.422059
O O13 0.939193 0.496696 0.323274
O O14 0.450451 0.592289 0.488174
O O15 0.495696 0.963937 0.767427
O O16 0.919906 0.916587 0.119782
#
# Coordination Sequence:
#
# PCOD9243460 Si02
#       8
#     4   4   4   4   4   4   4   4
#     4  10  21  39  62  99 126 165 218 276 326 376
#     4  11  22  41  66  89 130 170 218 264 332 397
#     4   9  20  39  62  96 122 165 215 276 327 379
#     4  11  25  40  64  90 131 180 211 263 329 393
#     4  10  21  39  64  95 131 164 217 267 325 384
#     4  11  19  36  65  92 125 163 216 268 334 382
#     4  10  23  43  60  91 131 171 213 268 332 385
#     4  10  20  37  66  92 126 164 211 277 327 392
#
# _framework density 22.120010000000001
#
# number of rings (size 3 to 8) (size 9 to 14) (size 15 to 20)
#    0.000    1.750    3.750    1.875    3.500    2.000 
#    2.250    1.875    0.000    2.250    0.000    0.000 
#    0.000    0.000    0.000    0.000    0.000    0.000 
#
# Total GULP energy -178555.978224 kJ/mol
# GULP energy per Si atom -5579.874319 kJ/mol
# Density = 2.206966 g / cm^3
# Si number density = 22.120010 Si / 1000 Ang^3
#
#
#
# Elastic Constant Matrix: (Units=GPa)
#
#
# Indices 1 2 3 4 5 6 
#
# 1 42.5483 28.7592 26.1592 0.0000 -9.8136 0.0000
# 2 28.7592 146.4845 19.9534 0.0000 -2.8357 0.0000
# 3 26.1592 19.9534 103.7619 0.0000 -4.2077 0.0000
# 4 0.0000 0.0000 0.0000 17.3625 0.0000 -17.1786
# 5 -9.8136 -2.8357 -4.2077 0.0000 27.6154 0.0000
# 6 0.0000 0.0000 0.0000 -17.1786 0.0000 21.3120
#
#
#
# Elastic Compliance Matrix: (Units=1/GPa)
#
#
# Indices 1 2 3 4 5 6 
#
# 1 0.033987 -0.005505 -0.007087 0.000000 0.010433 0.000000
# 2 -0.005505 0.007909 -0.000181 0.000000 -0.001172 0.000000
# 3 -0.007087 -0.000181 0.011427 0.000000 -0.000796 0.000000
# 4 0.000000 0.000000 0.000000 0.284449 0.000000 0.229282
# 5 0.010433 -0.001172 -0.000796 0.000000 0.039678 0.000000
# 6 0.000000 0.000000 0.000000 0.229282 0.000000 0.231736
#
#
# Mechanical properties :
#
#
# Convention : Reuss Voigt Hill
#
# Bulk Modulus (GPa) = 35.99987 49.17094 42.58541
# Shear Modulus (GPa) = 7.76409 27.78616 17.77512
#
# Velocity S-wave (km/s) = 1.87553 3.54807 2.83782
# Velocity P-wave (km/s) = 4.58261 6.25000 5.48009
#
# Compressibility (1/GPa) = 0.02777788
#
# Stress axis : x y z
#
# Youngs Moduli (GPa) = 29.42279 126.43114 87.51580
#
# Poissons Ratio (x) = 0.69606 0.62020
# Poissons Ratio (y) = 0.16198 0.01580
# Poissons Ratio (z) = 0.20851 0.02283
#
# Static dielectric constant tensor:
#      x y z
#    x 1.861130 0.000000 -0.038760 
#    y 0.000000 1.807920 0.000000 
#    z -0.038760 0.000000 1.875560 
# 
# From -- ./inp_files/72479.got.cif
#   From: 2010.05.17/outbox.cif.g08.bks.cpg/sg14_37_cif.got.tgz:72479.got - 2010.06.03 17:49:19.
