data_PCOD9243199
_publ_section_title
;
Structure prediction by ZEFSAII (Michael W. Deem and Ramdas Pophale) SiO2 
 PCOD9243199
Probable space group: P 21/C
;
_chemical_formula_sum "Si O2"
_cell_formula_units_Z 28
_cell_length_a 4.900101
_cell_length_b 35.430351
_cell_length_c 7.168334
_cell_angle_alpha 90.000000
_cell_angle_beta 105.940357
_cell_angle_gamma 90.000000
_cell_volume 1196.657136
_symmetry_space_group_name_H-M "P 21/C"
_symmetry_group_IT_number 14
_symmetry_cell_setting 'monoclinic'
loop_
_space_group_symop_operation_xyz
x,y,z
-x,1/2+y,1/2-z
-x,-y,-z
x,1/2-y,1/2+z
loop_
_atom_site_type_symbol
_atom_site_label
_atom_site_fract_x
_atom_site_fract_y
_atom_site_fract_z
Si Si1 0.398506 0.273463 0.887185
Si Si2 0.816427 0.146737 0.884316
Si Si3 0.196448 0.712742 0.355030
Si Si4 0.144091 0.416908 0.992184
Si Si5 0.193066 0.491528 0.857590
Si Si6 0.214144 0.162143 0.625579
Si Si7 0.752031 0.067642 0.755719
O O1 0.478882 0.151064 0.804971
O O2 0.616686 0.295251 0.792725
O O3 0.583289 0.237490 0.982725
O O4 0.303430 0.300357 0.037065
O O5 0.870793 0.101854 0.902870
O O6 0.950318 0.162426 0.716636
O O7 0.903878 0.174710 0.063768
O O8 0.906844 0.735651 0.261809
O O9 0.175302 0.372286 0.971541
O O10 0.412152 0.428729 0.174598
O O11 0.867746 0.422541 0.069078
O O12 0.153138 0.446671 0.823958
O O13 0.156350 0.524257 0.696381
O O14 0.500000 0.500000 0.000000
O O15 0.000000 0.500000 0.000000
#
# Coordination Sequence:
#
# PCOD9243199 Si02
#       7
#     4   4   4   4   4   4   4
#     4  12  26  43  62  85 112 146 187 236 287 342
#     4  10  20  37  58  82 111 145 183 228 278 330
#     4  12  26  43  62  85 112 146 187 236 287 342
#     4   8  14  24  43  70 103 137 172 216 265 311
#     4   8  12  20  36  66 102 134 168 212 261 306
#     4  10  20  37  58  82 111 145 183 228 278 330
#     4   8  14  24  43  70 103 137 172 216 265 311
#
# _framework density 23.398516000000001
#
# number of rings (size 3 to 8) (size 9 to 14) (size 15 to 20)
#    0.000    2.286    0.000    3.429    0.000    2.286 
#    0.000    0.000    0.000    0.000    0.000    2.000 
#    0.000    0.000    0.000    0.000    0.000    1.000 
#
# Total GULP energy -156145.128846 kJ/mol
# GULP energy per Si atom -5576.611745 kJ/mol
# Density = 2.334526 g / cm^3
# Si number density = 23.398516 Si / 1000 Ang^3
#
#
#
# Elastic Constant Matrix: (Units=GPa)
#
#
# Indices 1 2 3 4 5 6 
#
# 1 119.1012 5.7374 15.7334 0.0000 -4.8013 0.0000
# 2 5.7374 67.9022 32.8141 0.0000 8.9290 0.0000
# 3 15.7334 32.8141 36.8105 0.0000 1.6565 0.0000
# 4 0.0000 0.0000 0.0000 13.5743 0.0000 -5.4441
# 5 -4.8013 8.9290 1.6565 0.0000 25.3455 0.0000
# 6 0.0000 0.0000 0.0000 -5.4441 0.0000 28.3366
#
#
#
# Elastic Compliance Matrix: (Units=1/GPa)
#
#
# Indices 1 2 3 4 5 6 
#
# 1 0.009094 0.001662 -0.005436 0.000000 0.001492 0.000000
# 2 0.001662 0.027736 -0.025084 0.000000 -0.007817 0.000000
# 3 -0.005436 -0.025084 0.051651 0.000000 0.004431 0.000000
# 4 0.000000 0.000000 0.000000 0.079819 0.000000 0.015335
# 5 0.001492 -0.007817 0.004431 0.000000 0.042202 0.000000
# 6 0.000000 0.000000 0.000000 0.015335 0.000000 0.038236
#
#
# Mechanical properties :
#
#
# Convention : Reuss Voigt Hill
#
# Bulk Modulus (GPa) = 32.50306 36.93151 34.71729
# Shear Modulus (GPa) = 15.78735 24.75322 20.27028
#
# Velocity S-wave (km/s) = 2.60035 3.25606 2.94650
# Velocity P-wave (km/s) = 4.78926 5.47301 5.14251
#
# Compressibility (1/GPa) = 0.03076634
#
# Stress axis : x y z
#
# Youngs Moduli (GPa) = 109.95745 36.05365 19.36076
#
# Poissons Ratio (x) = -0.05993 0.10525
# Poissons Ratio (y) = -0.18279 0.48564
# Poissons Ratio (z) = 0.59774 0.90437
#
# Static dielectric constant tensor:
#      x y z
#    x 1.820550 0.000000 0.050130 
#    y 0.000000 2.011170 0.000000 
#    z 0.050130 0.000000 1.934500 
# 
# From -- ./inp_files/22221.got.cif
#   From: 2010.05.17/outbox.cif.g08.bks.cpg/sg14_12_cif.got.tgz:22221.got - 2010.06.03 17:49:19.
