data_PCOD9243587
_publ_section_title
;
Structure prediction by ZEFSAII (Michael W. Deem and Ramdas Pophale) SiO2 
 PCOD9243587
Probable space group: P 21/C
;
_chemical_formula_sum "Si O2"
_cell_formula_units_Z 24
_cell_length_a 8.278890
_cell_length_b 16.389184
_cell_length_c 8.953527
_cell_angle_alpha 90.000000
_cell_angle_beta 86.792789
_cell_angle_gamma 90.000000
_cell_volume 1212.949823
_symmetry_space_group_name_H-M "P 21/C"
_symmetry_group_IT_number 14
_symmetry_cell_setting 'monoclinic'
loop_
_space_group_symop_operation_xyz
x,y,z
-x,1/2+y,1/2-z
-x,-y,-z
x,1/2-y,1/2+z
loop_
_atom_site_type_symbol
_atom_site_label
_atom_site_fract_x
_atom_site_fract_y
_atom_site_fract_z
Si Si1 0.699732 0.179661 0.261990
Si Si2 0.176845 0.995989 0.690943
Si Si3 0.124837 0.096228 0.408667
Si Si4 0.803500 0.656005 0.636527
Si Si5 0.098716 0.751538 0.506429
Si Si6 0.339885 0.202618 0.175274
O O1 0.738294 0.225335 0.414135
O O2 0.528857 0.199886 0.199720
O O3 0.715072 0.083228 0.287388
O O4 0.846894 0.211011 0.150060
O O5 0.206980 0.042494 0.532900
O O6 0.196269 0.061881 0.819760
O O7 0.994604 0.961323 0.680945
O O8 0.248364 0.141839 0.294297
O O9 0.007789 0.165206 0.490426
O O10 0.706678 0.678387 0.490468
O O11 0.728384 0.708821 0.775367
O O12 0.985178 0.687433 0.597740
#
# Coordination Sequence:
#
# PCOD9243587 Si02
#       6
#     4   4   4   4   4   4
#     4  11  23  38  58  88 118 150 188 241 295 342
#     4  10  21  37  60  86 114 147 197 245 283 332
#     4   9  20  40  60  84 114 154 197 237 282 340
#     4  11  21  39  62  84 113 156 200 238 279 344
#     4  10  20  38  61  81 111 155 200 229 277 350
#     4  11  23  38  59  85 120 155 188 233 296 350
#
# _framework density 19.786473999999998
#
# number of rings (size 3 to 8) (size 9 to 14) (size 15 to 20)
#    0.000    1.667    0.000    7.000    0.000    4.000 
#    0.000    5.000    0.000    0.000    0.000    0.000 
#    0.000    0.000    0.000    0.000    0.000    0.000 
#
# Total GULP energy -134082.990094 kJ/mol
# GULP energy per Si atom -5586.791254 kJ/mol
# Density = 1.974144 g / cm^3
# Si number density = 19.786474 Si / 1000 Ang^3
#
#
#
# Elastic Constant Matrix: (Units=GPa)
#
#
# Indices 1 2 3 4 5 6 
#
# 1 69.2710 8.8578 27.8236 0.0000 16.4012 0.0000
# 2 8.8578 66.6816 29.5261 0.0000 10.4113 0.0000
# 3 27.8236 29.5261 71.8460 0.0000 18.3936 0.0000
# 4 0.0000 0.0000 0.0000 39.7999 0.0000 7.1993
# 5 16.4012 10.4113 18.3936 0.0000 20.1507 0.0000
# 6 0.0000 0.0000 0.0000 7.1993 0.0000 16.2454
#
#
#
# Elastic Compliance Matrix: (Units=1/GPa)
#
#
# Indices 1 2 3 4 5 6 
#
# 1 0.019018 0.001510 -0.004989 0.000000 -0.011706 0.000000
# 2 0.001510 0.018631 -0.007128 0.000000 -0.004349 0.000000
# 3 -0.004989 -0.007128 0.021920 0.000000 -0.012265 0.000000
# 4 0.000000 0.000000 0.000000 0.027315 0.000000 -0.012105
# 5 -0.011706 -0.004349 -0.012265 0.000000 0.072597 0.000000
# 6 0.000000 0.000000 0.000000 -0.012105 0.000000 0.066920
#
#
# Mechanical properties :
#
#
# Convention : Reuss Voigt Hill
#
# Bulk Modulus (GPa) = 26.07140 37.80151 31.93646
# Shear Modulus (GPa) = 19.20111 24.67860 21.93986
#
# Velocity S-wave (km/s) = 3.11853 3.53547 3.33352
# Velocity P-wave (km/s) = 5.11585 5.98433 5.56705
#
# Compressibility (1/GPa) = 0.03835620
#
# Stress axis : x y z
#
# Youngs Moduli (GPa) = 52.58051 53.67275 45.61980
#
# Poissons Ratio (x) = -0.08107 0.22760
# Poissons Ratio (y) = -0.07942 0.32520
# Poissons Ratio (z) = 0.26233 0.38260
#
# Static dielectric constant tensor:
#      x y z
#    x 1.674700 0.000000 0.025050 
#    y 0.000000 1.679630 0.000000 
#    z 0.025050 0.000000 1.718800 
# 
# From -- ./inp_files/8430.got.cif
#   From: 2010.05.17/outbox.cif.g08.bks.cpg/sg14_5_cif.got.tgz:8430.got - 2010.06.03 17:49:19.
