data_PCOD9243867
_publ_section_title
;
Structure prediction by ZEFSAII (Michael W. Deem and Ramdas Pophale) SiO2 
 PCOD9243867
Probable space group: P 21/C
;
_chemical_formula_sum "Si O2"
_cell_formula_units_Z 24
_cell_length_a 9.933074
_cell_length_b 14.093313
_cell_length_c 16.476702
_cell_angle_alpha 90.000000
_cell_angle_beta 27.523738
_cell_angle_gamma 90.000000
_cell_volume 1065.904080
_symmetry_space_group_name_H-M "P 21/C"
_symmetry_group_IT_number 14
_symmetry_cell_setting 'monoclinic'
loop_
_space_group_symop_operation_xyz
x,y,z
-x,1/2+y,1/2-z
-x,-y,-z
x,1/2-y,1/2+z
loop_
_atom_site_type_symbol
_atom_site_label
_atom_site_fract_x
_atom_site_fract_y
_atom_site_fract_z
Si Si1 0.598855 0.231479 0.984159
Si Si2 0.102256 0.124324 0.173110
Si Si3 0.198564 0.851458 0.381945
Si Si4 0.153955 0.018619 0.314731
Si Si5 0.232505 0.312335 0.335707
Si Si6 0.193866 0.557065 0.522039
O O1 0.778500 0.141746 0.924981
O O2 0.814545 0.312527 0.837055
O O3 0.377018 0.194664 0.034340
O O4 0.405421 0.271968 0.163696
O O5 0.144125 0.058399 0.230344
O O6 0.105742 0.046495 0.101109
O O7 0.135346 0.905729 0.332499
O O8 0.529038 0.828037 0.223151
O O9 0.998574 0.763056 0.508317
O O10 0.101625 0.929661 0.500600
O O11 0.467757 0.047413 0.185343
O O12 0.046174 0.403944 0.410910
#
# Coordination Sequence:
#
# PCOD9243867 Si02
#       6
#     4   4   4   4   4   4
#     4  11  18  38  59  92 121 159 208 246 316 371
#     4  11  22  39  65  94 125 167 207 258 314 378
#     4  11  21  36  67  83 120 158 215 255 300 379
#     4  10  20  39  58  91 116 160 206 261 307 360
#     4  12  19  39  64  91 117 169 208 252 314 368
#     4  11  22  39  65  90 130 163 210 257 315 380
#
# _framework density 22.516098
#
# number of rings (size 3 to 8) (size 9 to 14) (size 15 to 20)
#    0.000    1.000    8.333    2.000    0.000    1.333 
#    0.000    3.333    0.000    0.000    0.000    0.000 
#    0.000    0.000    0.000    0.000    0.000    0.000 
#
# Total GULP energy -134204.477255 kJ/mol
# GULP energy per Si atom -5591.853219 kJ/mol
# Density = 2.246485 g / cm^3
# Si number density = 22.516098 Si / 1000 Ang^3
#
#
#
# Elastic Constant Matrix: (Units=GPa)
#
#
# Indices 1 2 3 4 5 6 
#
# 1 48.7218 57.9813 45.4365 0.0000 -19.2173 0.0000
# 2 57.9813 150.5220 79.9314 0.0000 -16.1204 0.0000
# 3 45.4365 79.9314 111.4959 0.0000 -20.6700 0.0000
# 4 0.0000 0.0000 0.0000 34.3698 0.0000 9.8619
# 5 -19.2173 -16.1204 -20.6700 0.0000 24.6725 0.0000
# 6 0.0000 0.0000 0.0000 9.8619 0.0000 43.1536
#
#
#
# Elastic Compliance Matrix: (Units=1/GPa)
#
#
# Indices 1 2 3 4 5 6 
#
# 1 0.055411 -0.014715 -0.006882 0.000000 0.027779 0.000000
# 2 -0.014715 0.014644 -0.005745 0.000000 -0.006706 0.000000
# 3 -0.006882 -0.005745 0.016814 0.000000 0.004972 0.000000
# 4 0.000000 0.000000 0.000000 0.031137 0.000000 -0.007116
# 5 0.027779 -0.006706 0.004972 0.000000 0.061952 0.000000
# 6 0.000000 0.000000 0.000000 -0.007116 0.000000 0.024799
#
#
# Mechanical properties :
#
#
# Convention : Reuss Voigt Hill
#
# Bulk Modulus (GPa) = 31.07004 75.27090 53.17047
# Shear Modulus (GPa) = 18.50686 28.93186 23.71936
#
# Velocity S-wave (km/s) = 2.87006 3.58850 3.24920
# Velocity P-wave (km/s) = 4.98116 7.11844 6.14346
#
# Compressibility (1/GPa) = 0.03218535
#
# Stress axis : x y z
#
# Youngs Moduli (GPa) = 18.04702 68.28542 59.47407
#
# Poissons Ratio (x) = 1.00481 0.40929
# Poissons Ratio (y) = 0.26556 0.34170
# Poissons Ratio (z) = 0.12420 0.39232
#
# Static dielectric constant tensor:
#      x y z
#    x 1.859050 0.000000 0.040560 
#    y 0.000000 1.851320 0.000000 
#    z 0.040560 0.000000 1.829650 
# 
# From -- ./inp_files/12516.got.cif
#   From: 2010.05.17/outbox.cif.g08.bks.cpg/sg14_7_cif.got.tgz:12516.got - 2010.06.03 17:49:19.
