data_PCOD9243004
_publ_section_title
;
Structure prediction by ZEFSAII (Michael W. Deem and Ramdas Pophale) SiO2 
 PCOD9243004
Probable space group: P 21/C
;
_chemical_formula_sum "Si O2"
_cell_formula_units_Z 28
_cell_length_a 8.779720
_cell_length_b 18.862486
_cell_length_c 15.450935
_cell_angle_alpha 90.000000
_cell_angle_beta 29.274747
_cell_angle_gamma 90.000000
_cell_volume 1251.242483
_symmetry_space_group_name_H-M "P 21/C"
_symmetry_group_IT_number 14
_symmetry_cell_setting 'monoclinic'
loop_
_space_group_symop_operation_xyz
x,y,z
-x,1/2+y,1/2-z
-x,-y,-z
x,1/2-y,1/2+z
loop_
_atom_site_type_symbol
_atom_site_label
_atom_site_fract_x
_atom_site_fract_y
_atom_site_fract_z
Si Si1 0.800816 0.811375 0.656726
Si Si2 0.189296 0.707544 0.368432
Si Si3 0.214109 0.484793 0.526748
Si Si4 0.453987 0.316032 0.100426
Si Si5 0.859716 0.223857 0.794572
Si Si6 0.264149 0.081558 0.833923
Si Si7 0.366789 0.393293 0.600510
O O1 0.539711 0.819195 0.711203
O O2 0.662192 0.747711 0.782132
O O3 0.791875 0.874494 0.729299
O O4 0.109001 0.778456 0.463529
O O5 0.130003 0.737827 0.302622
O O6 0.968343 0.643831 0.513452
O O7 0.408463 0.450019 0.350582
O O8 0.156260 0.426333 0.629155
O O9 0.384141 0.548211 0.491741
O O10 0.921212 0.519241 0.623730
O O11 0.460082 0.383247 0.159823
O O12 0.175743 0.316299 0.166287
O O13 0.771635 0.289509 0.900767
O O14 0.571556 0.169765 0.954728
#
# Coordination Sequence:
#
# PCOD9243004 Si02
#       7
#     4   4   4   4   4   4   4
#     4  10  20  37  57  89 118 148 190 246 297 345
#     4  11  22  36  61  92 119 149 193 248 306 347
#     4  10  20  36  60  82 116 162 206 232 282 366
#     4  10  20  37  57  89 118 148 190 246 297 345
#     4  11  22  36  61  92 119 149 193 248 306 347
#     4  10  20  37  59  86 114 156 202 237 292 349
#     4  10  20  37  59  86 114 156 202 237 292 349
#
# _framework density 22.377756000000002
#
# number of rings (size 3 to 8) (size 9 to 14) (size 15 to 20)
#    0.000    1.714    2.857    3.429    8.000    0.000 
#    0.000    0.000    0.000   10.286    0.000    0.000 
#    0.000    0.000    0.000    0.000    0.000    0.000 
#
# Total GULP energy -156069.328706 kJ/mol
# GULP energy per Si atom -5573.904597 kJ/mol
# Density = 2.232682 g / cm^3
# Si number density = 22.377756 Si / 1000 Ang^3
#
#
#
# Elastic Constant Matrix: (Units=GPa)
#
#
# Indices 1 2 3 4 5 6 
#
# 1 96.7007 16.8108 23.7197 0.0000 17.2915 0.0000
# 2 16.8108 69.4060 7.8425 0.0000 7.1527 0.0000
# 3 23.7197 7.8425 52.2592 0.0000 2.3997 0.0000
# 4 0.0000 0.0000 0.0000 30.7015 0.0000 19.3084
# 5 17.2915 7.1527 2.3997 0.0000 33.5492 0.0000
# 6 0.0000 0.0000 0.0000 19.3084 0.0000 44.2407
#
#
#
# Elastic Compliance Matrix: (Units=1/GPa)
#
#
# Indices 1 2 3 4 5 6 
#
# 1 0.013055 -0.001945 -0.005361 0.000000 -0.005930 0.000000
# 2 -0.001945 0.015249 -0.001307 0.000000 -0.002155 0.000000
# 3 -0.005361 -0.001307 0.021696 0.000000 0.001490 0.000000
# 4 0.000000 0.000000 0.000000 0.044894 0.000000 -0.019594
# 5 -0.005930 -0.002155 0.001490 0.000000 0.033216 0.000000
# 6 0.000000 0.000000 0.000000 -0.019594 0.000000 0.031155
#
#
# Mechanical properties :
#
#
# Convention : Reuss Voigt Hill
#
# Bulk Modulus (GPa) = 30.51161 35.01244 32.76202
# Shear Modulus (GPa) = 26.67857 33.03113 29.85485
#
# Velocity S-wave (km/s) = 3.45656 3.84613 3.65654
# Velocity P-wave (km/s) = 5.44011 5.95010 5.70081
#
# Compressibility (1/GPa) = 0.03277441
#
# Stress axis : x y z
#
# Youngs Moduli (GPa) = 76.60016 65.57884 46.09057
#
# Poissons Ratio (x) = 0.12755 0.24710
# Poissons Ratio (y) = 0.14899 0.06022
# Poissons Ratio (z) = 0.41067 0.08568
#
# Static dielectric constant tensor:
#      x y z
#    x 1.965240 0.000000 -0.025420 
#    y 0.000000 1.881200 0.000000 
#    z -0.025420 0.000000 1.891350 
# 
# From -- ./inp_files/42033.got.cif
#   From: 2010.05.17/outbox.cif.g08.bks.cpg/sg14_22_cif.got.tgz:42033.got - 2010.06.03 17:49:19.
