data_PCOD9243232
_publ_section_title
;
Structure prediction by ZEFSAII (Michael W. Deem and Ramdas Pophale) SiO2 
 PCOD9243232
Probable space group: P 21/C
;
_chemical_formula_sum "Si O2"
_cell_formula_units_Z 32
_cell_length_a 14.935878
_cell_length_b 14.699624
_cell_length_c 20.556814
_cell_angle_alpha 90.000000
_cell_angle_beta 159.233007
_cell_angle_gamma 90.000000
_cell_volume 1600.268214
_symmetry_space_group_name_H-M "P 21/C"
_symmetry_group_IT_number 14
_symmetry_cell_setting 'monoclinic'
loop_
_space_group_symop_operation_xyz
x,y,z
-x,1/2+y,1/2-z
-x,-y,-z
x,1/2-y,1/2+z
loop_
_atom_site_type_symbol
_atom_site_label
_atom_site_fract_x
_atom_site_fract_y
_atom_site_fract_z
Si Si1 0.395429 0.397856 0.415901
Si Si2 0.138883 0.199153 0.087197
Si Si3 0.340973 0.060848 0.124072
Si Si4 0.072705 0.525659 0.975578
Si Si5 0.663213 0.261336 0.506191
Si Si6 0.746305 0.151517 0.930488
Si Si7 0.825419 0.671960 0.002558
Si Si8 0.859318 0.819326 0.129818
O O1 0.500000 0.500000 0.500000
O O2 0.601755 0.337252 0.518587
O O3 0.304493 0.344828 0.418550
O O4 0.146103 0.411449 0.201941
O O5 0.218287 0.108590 0.102836
O O6 0.391066 0.231810 0.294889
O O7 0.045144 0.268965 0.967219
O O8 0.933175 0.182589 0.001803
O O9 0.646170 0.067465 0.334156
O O10 0.233729 0.112174 0.988635
O O11 0.263809 0.956466 0.068453
O O12 0.086457 0.431779 0.943617
O O13 0.000000 0.500000 0.000000
O O14 0.801949 0.304326 0.537904
O O15 0.842018 0.179615 0.651313
O O16 0.465674 0.177470 0.717107
O O17 0.836991 0.720097 0.080340
#
# Coordination Sequence:
#
# PCOD9243232 Si02
#       8
#     4   4   4   4   4   4   4   4
#     4  12  24  39  63  91 122 162 201 248 307 364
#     4  10  20  37  59  82 112 153 194 240 298 358
#     4  10  22  38  59  87 115 153 200 244 293 357
#     4  11  21  39  64  91 121 157 206 260 303 355
#     4  11  23  38  56  85 118 154 195 242 303 362
#     4  10  20  39  60  82 112 148 196 248 294 353
#     4   9  22  37  59  88 116 151 197 248 302 359
#     4  11  23  39  56  84 124 156 192 246 303 364
#
# _framework density 19.996649000000001
#
# number of rings (size 3 to 8) (size 9 to 14) (size 15 to 20)
#    0.000    1.500    0.000    6.375    0.000    8.000 
#    0.000    0.625    0.000    0.000    0.000    0.000 
#    0.000    0.000    0.000    0.000    0.000    0.000 
#
# Total GULP energy -178814.983571 kJ/mol
# GULP energy per Si atom -5587.968237 kJ/mol
# Density = 1.995114 g / cm^3
# Si number density = 19.996649 Si / 1000 Ang^3
#
#
#
# Elastic Constant Matrix: (Units=GPa)
#
#
# Indices 1 2 3 4 5 6 
#
# 1 167.5428 43.7237 40.6694 0.0000 15.1463 0.0000
# 2 43.7237 47.0674 41.6262 0.0000 4.2540 0.0000
# 3 40.6694 41.6262 56.8550 0.0000 4.3513 0.0000
# 4 0.0000 0.0000 0.0000 20.1346 0.0000 -2.2286
# 5 15.1463 4.2540 4.3513 0.0000 31.3688 0.0000
# 6 0.0000 0.0000 0.0000 -2.2286 0.0000 25.7614
#
#
#
# Elastic Compliance Matrix: (Units=1/GPa)
#
#
# Indices 1 2 3 4 5 6 
#
# 1 0.008149 -0.006662 -0.000727 0.000000 -0.002930 0.000000
# 2 -0.006662 0.065854 -0.043473 0.000000 0.000316 0.000000
# 3 -0.000727 -0.043473 0.049990 0.000000 -0.000688 0.000000
# 4 0.000000 0.000000 0.000000 0.050146 0.000000 0.004338
# 5 -0.002930 0.000316 -0.000688 0.000000 0.033346 0.000000
# 6 0.000000 0.000000 0.000000 0.004338 0.000000 0.039193
#
#
# Mechanical properties :
#
#
# Convention : Reuss Voigt Hill
#
# Bulk Modulus (GPa) = 44.90792 58.16709 51.53751
# Shear Modulus (GPa) = 14.05185 25.14934 19.60060
#
# Velocity S-wave (km/s) = 2.65374 3.55022 3.13420
# Velocity P-wave (km/s) = 5.64768 6.77916 6.23912
#
# Compressibility (1/GPa) = 0.02226779
#
# Stress axis : x y z
#
# Youngs Moduli (GPa) = 122.72131 15.18520 20.00386
#
# Poissons Ratio (x) = 0.10116 0.01455
# Poissons Ratio (y) = 0.81752 0.86964
# Poissons Ratio (z) = 0.08925 0.66015
#
# Static dielectric constant tensor:
#      x y z
#    x 1.696760 0.000000 -0.022720 
#    y 0.000000 1.723520 0.000000 
#    z -0.022720 0.000000 1.716270 
# 
# From -- ./inp_files/68720.got.cif
#   From: 2010.05.17/outbox.cif.g08.bks.cpg/sg14_35_cif.got.tgz:68720.got - 2010.06.03 17:49:19.
