data_PCOD9243645
_publ_section_title
;
Structure prediction by ZEFSAII (Michael W. Deem and Ramdas Pophale) SiO2 
 PCOD9243645
Probable space group: P 21/C
;
_chemical_formula_sum "Si O2"
_cell_formula_units_Z 30
_cell_length_a 5.779880
_cell_length_b 13.973894
_cell_length_c 16.624085
_cell_angle_alpha 90.000000
_cell_angle_beta 63.522112
_cell_angle_gamma 90.000000
_cell_volume 1201.845732
_symmetry_space_group_name_H-M "P 21/C"
_symmetry_group_IT_number 14
_symmetry_cell_setting 'monoclinic'
loop_
_space_group_symop_operation_xyz
x,y,z
-x,1/2+y,1/2-z
-x,-y,-z
x,1/2-y,1/2+z
loop_
_atom_site_type_symbol
_atom_site_label
_atom_site_fract_x
_atom_site_fract_y
_atom_site_fract_z
Si Si1 0.654125 0.119169 0.932379
Si Si2 0.186056 0.755034 0.730131
Si Si3 0.284795 0.905270 0.468189
Si Si4 0.449221 0.960938 0.835759
Si Si5 0.000000 0.500000 0.500000
Si Si6 0.635787 0.718162 0.394845
Si Si7 0.805737 0.078974 0.686174
Si Si8 0.260665 0.544988 0.145809
O O1 0.798167 0.199627 0.857793
O O2 0.826519 0.081128 0.978655
O O3 0.560415 0.034081 0.888268
O O4 0.394452 0.161920 0.015083
O O5 0.330288 0.676898 0.762993
O O6 0.269822 0.863298 0.702029
O O7 0.916358 0.756094 0.819448
O O8 0.459924 0.810815 0.434648
O O9 0.100717 0.904696 0.419217
O O10 0.162328 0.912635 0.574487
O O11 0.473579 0.994540 0.420164
O O12 0.534292 0.854879 0.843091
O O13 0.581658 0.001380 0.735692
O O14 0.145992 0.973207 0.892003
O O15 0.046925 0.035989 0.699243
#
# Coordination Sequence:
#
# PCOD9243645 Si02
#       8
#     4   4   4   4   2   4   4   4
#     4  10  23  44  63  96 132 170 218 272 332 398
#     4  11  23  43  70  95 132 175 216 278 335 383
#     4  11  25  42  68  97 132 179 226 265 336 402
#     4  10  23  41  65  91 134 169 217 272 330 389
#     4  10  20  38  62  88 122 172 204 264 324 374
#     4  11  20  41  65  95 129 166 220 270 322 397
#     4  11  24  43  67 100 130 170 230 273 324 406
#     4  11  23  48  67  91 139 180 212 280 337 388
#
# _framework density 24.961604000000001
#
# number of rings (size 3 to 8) (size 9 to 14) (size 15 to 20)
#    0.000    1.333    4.000    2.000    1.867    1.067 
#   12.000    0.000    0.000    0.000    0.000    0.000 
#    0.000    0.000    0.000    0.000    0.000    0.000 
#
# Total GULP energy -167117.861310 kJ/mol
# GULP energy per Si atom -5570.595377 kJ/mol
# Density = 2.490479 g / cm^3
# Si number density = 24.961604 Si / 1000 Ang^3
#
#
#
# Elastic Constant Matrix: (Units=GPa)
#
#
# Indices 1 2 3 4 5 6 
#
# 1 16.1825 22.7917 8.1353 0.0000 -3.5011 0.0000
# 2 22.7917 148.7402 20.7256 0.0000 1.4226 0.0000
# 3 8.1353 20.7256 119.4393 0.0000 -2.4425 0.0000
# 4 0.0000 0.0000 0.0000 47.2110 0.0000 -7.6966
# 5 -3.5011 1.4226 -2.4425 0.0000 39.3117 0.0000
# 6 0.0000 0.0000 0.0000 -7.6966 0.0000 29.9607
#
#
#
# Elastic Compliance Matrix: (Units=1/GPa)
#
#
# Indices 1 2 3 4 5 6 
#
# 1 0.082321 -0.012222 -0.003331 0.000000 0.007567 0.000000
# 2 -0.012222 0.008709 -0.000708 0.000000 -0.001448 0.000000
# 3 -0.003331 -0.000708 0.008728 0.000000 0.000271 0.000000
# 4 0.000000 0.000000 0.000000 0.022107 0.000000 0.005679
# 5 0.007567 -0.001448 0.000271 0.000000 0.026181 0.000000
# 6 0.000000 0.000000 0.000000 0.005679 0.000000 0.034836
#
#
# Mechanical properties :
#
#
# Convention : Reuss Voigt Hill
#
# Bulk Modulus (GPa) = 14.87358 43.07412 28.97385
# Shear Modulus (GPa) = 21.02459 38.81067 29.91763
#
# Velocity S-wave (km/s) = 2.90535 3.94739 3.46576
# Velocity P-wave (km/s) = 4.15045 6.17005 5.25812
#
# Compressibility (1/GPa) = 0.06723332
#
# Stress axis : x y z
#
# Youngs Moduli (GPa) = 12.14755 114.83023 114.57623
#
# Poissons Ratio (x) = 1.40349 0.38171
# Poissons Ratio (y) = 0.14847 0.08115
# Poissons Ratio (z) = 0.04047 0.08133
#
# Static dielectric constant tensor:
#      x y z
#    x 1.644230 0.000000 0.151810 
#    y 0.000000 2.026420 0.000000 
#    z 0.151810 0.000000 2.063600 
# 
# From -- ./inp_files/53442.got.cif
#   From: 2010.05.17/outbox.cif.g08.bks.cpg/sg14_27_cif.got.tgz:53442.got - 2010.06.03 17:49:19.
