data_PCOD9243111
_publ_section_title
;
Structure prediction by ZEFSAII (Michael W. Deem and Ramdas Pophale) SiO2 
 PCOD9243111
Probable space group: P 21/C
;
_chemical_formula_sum "Si O2"
_cell_formula_units_Z 24
_cell_length_a 7.505090
_cell_length_b 13.742668
_cell_length_c 9.111203
_cell_angle_alpha 90.000000
_cell_angle_beta 92.994104
_cell_angle_gamma 90.000000
_cell_volume 938.446305
_symmetry_space_group_name_H-M "P 21/C"
_symmetry_group_IT_number 14
_symmetry_cell_setting 'monoclinic'
loop_
_space_group_symop_operation_xyz
x,y,z
-x,1/2+y,1/2-z
-x,-y,-z
x,1/2-y,1/2+z
loop_
_atom_site_type_symbol
_atom_site_label
_atom_site_fract_x
_atom_site_fract_y
_atom_site_fract_z
Si Si1 0.256037 0.015684 0.802338
Si Si2 0.455977 0.135232 0.198301
Si Si3 0.102001 0.747790 0.609881
Si Si4 0.052467 0.382328 0.635207
Si Si5 0.322962 0.583852 0.021798
Si Si6 0.459442 0.844784 0.250372
O O1 0.389454 0.930343 0.865576
O O2 0.066980 0.979253 0.852238
O O3 0.246223 0.000558 0.623258
O O4 0.371245 0.112702 0.829713
O O5 0.517497 0.128519 0.371528
O O6 0.474802 0.248450 0.161389
O O7 0.259795 0.097544 0.163356
O O8 0.014912 0.806134 0.741722
O O9 0.978137 0.674833 0.517144
O O10 0.171188 0.834094 0.507157
O O11 0.280238 0.689163 0.662573
O O12 0.398437 0.572415 0.863622
#
# Coordination Sequence:
#
# PCOD9243111 Si02
#       6
#     4   4   4   4   4   4
#     4   9  21  38  60  87 121 152 196 245 283 351
#     4   9  22  36  59  86 121 152 195 245 289 346
#     4  10  20  36  64  81 120 152 200 235 293 350
#     4  11  21  41  56  90 115 156 193 247 290 342
#     4   8  17  37  57  88 114 153 192 246 280 345
#     4  11  18  39  64  87 114 164 194 233 302 341
#
# _framework density 25.574186000000001
#
# number of rings (size 3 to 8) (size 9 to 14) (size 15 to 20)
#    1.000    1.333    3.333    0.500    2.333    0.667 
#    3.000    1.667    0.000    0.000    0.000    0.000 
#    0.000    0.000    0.000    0.000    0.000    0.000 
#
# Total GULP energy -134088.963612 kJ/mol
# GULP energy per Si atom -5587.040150 kJ/mol
# Density = 2.551598 g / cm^3
# Si number density = 25.574186 Si / 1000 Ang^3
#
#
#
# Elastic Constant Matrix: (Units=GPa)
#
#
# Indices 1 2 3 4 5 6 
#
# 1 128.4960 9.0311 27.6066 0.0000 7.7509 0.0000
# 2 9.0311 77.1872 5.9592 0.0000 -6.4154 0.0000
# 3 27.6066 5.9592 45.7214 0.0000 -10.3630 0.0000
# 4 0.0000 0.0000 0.0000 13.8494 0.0000 -3.8463
# 5 7.7509 -6.4154 -10.3630 0.0000 40.8757 0.0000
# 6 0.0000 0.0000 0.0000 -3.8463 0.0000 39.8403
#
#
#
# Elastic Compliance Matrix: (Units=1/GPa)
#
#
# Indices 1 2 3 4 5 6 
#
# 1 0.009431 -0.000906 -0.006380 0.000000 -0.003548 0.000000
# 2 -0.000906 0.013289 -0.000715 0.000000 0.002076 0.000000
# 3 -0.006380 -0.000715 0.027655 0.000000 0.008109 0.000000
# 4 0.000000 0.000000 0.000000 0.074195 0.000000 0.007163
# 5 -0.003548 0.002076 0.008109 0.000000 0.027519 0.000000
# 6 0.000000 0.000000 0.000000 0.007163 0.000000 0.025792
#
#
# Mechanical properties :
#
#
# Convention : Reuss Voigt Hill
#
# Bulk Modulus (GPa) = 29.09205 37.39984 33.24594
# Shear Modulus (GPa) = 24.34983 32.83360 28.59171
#
# Velocity S-wave (km/s) = 3.08900 3.58698 3.34726
# Velocity P-wave (km/s) = 4.91150 5.64013 5.28838
#
# Compressibility (1/GPa) = 0.03437366
#
# Stress axis : x y z
#
# Youngs Moduli (GPa) = 106.03531 75.24896 36.15956
#
# Poissons Ratio (x) = 0.06815 0.23071
# Poissons Ratio (y) = 0.09604 0.02584
# Poissons Ratio (z) = 0.67655 0.05377
#
# Static dielectric constant tensor:
#      x y z
#    x 1.966320 0.000000 -0.047780 
#    y 0.000000 2.069120 0.000000 
#    z -0.047780 0.000000 2.067710 
# 
# From -- ./inp_files/25020.got.cif
#   From: 2010.05.17/outbox.cif.g08.bks.cpg/sg14_13_cif.got.tgz:25020.got - 2010.06.03 17:49:19.
