data_PCOD9243761
_publ_section_title
;
Structure prediction by ZEFSAII (Michael W. Deem and Ramdas Pophale) SiO2 
 PCOD9243761
Probable space group: P 21/C
;
_chemical_formula_sum "Si O2"
_cell_formula_units_Z 26
_cell_length_a 6.896605
_cell_length_b 15.095372
_cell_length_c 10.217938
_cell_angle_alpha 90.000000
_cell_angle_beta 117.319953
_cell_angle_gamma 90.000000
_cell_volume 945.102849
_symmetry_space_group_name_H-M "P 21/C"
_symmetry_group_IT_number 14
_symmetry_cell_setting 'monoclinic'
loop_
_space_group_symop_operation_xyz
x,y,z
-x,1/2+y,1/2-z
-x,-y,-z
x,1/2-y,1/2+z
loop_
_atom_site_type_symbol
_atom_site_label
_atom_site_fract_x
_atom_site_fract_y
_atom_site_fract_z
Si Si1 0.237195 0.154606 0.744772
Si Si2 0.645716 0.903648 0.794376
Si Si3 0.258692 0.267439 0.002151
Si Si4 0.265811 0.645410 0.553315
Si Si5 0.500000 0.500000 0.500000
Si Si6 0.956353 0.459176 0.288659
Si Si7 0.303114 0.663704 0.992296
O O1 0.162281 0.157300 0.569948
O O2 0.497112 0.162434 0.808649
O O3 0.207105 0.062303 0.820921
O O4 0.167437 0.227781 0.834908
O O5 0.711672 0.813984 0.887877
O O6 0.426067 0.887475 0.645543
O O7 0.840917 0.946068 0.765586
O O8 0.601739 0.977669 0.887511
O O9 0.492828 0.302837 0.029982
O O10 0.342173 0.593664 0.448915
O O11 0.097550 0.594372 0.595194
O O12 0.189022 0.744825 0.499763
O O13 0.841600 0.401635 0.139332
#
# Coordination Sequence:
#
# PCOD9243761 Si02
#       7
#     4   4   4   4   2   4   4
#     4  11  23  42  65  94 130 174 220 270 327 392
#     4  11  21  40  67  98 130 178 216 277 329 388
#     4  11  21  43  70  88 132 179 219 268 337 388
#     4  10  21  40  65  90 129 169 217 267 331 384
#     4  10  20  38  64  98 124 166 222 266 320 388
#     4  11  25  38  64  99 131 166 223 277 327 388
#     4  11  20  41  67  92 130 182 216 266 331 397
#
# _framework density 27.510235000000002
#
# number of rings (size 3 to 8) (size 9 to 14) (size 15 to 20)
#    0.000    1.231    7.692    0.462    2.154    0.615 
#    0.000    0.769    0.000    0.000    0.000    0.000 
#    0.000    0.000    0.000    0.000    0.000    0.000 
#
# Total GULP energy -145039.115952 kJ/mol
# GULP energy per Si atom -5578.427537 kJ/mol
# Density = 2.744762 g / cm^3
# Si number density = 27.510235 Si / 1000 Ang^3
#
#
#
# Elastic Constant Matrix: (Units=GPa)
#
#
# Indices 1 2 3 4 5 6 
#
# 1 85.1494 2.7348 -5.1538 0.0000 -18.7855 0.0000
# 2 2.7348 83.2155 23.5993 0.0000 -8.0396 0.0000
# 3 -5.1538 23.5993 130.4559 0.0000 -10.3737 0.0000
# 4 0.0000 0.0000 0.0000 37.7143 0.0000 -12.2241
# 5 -18.7855 -8.0396 -10.3737 0.0000 40.2254 0.0000
# 6 0.0000 0.0000 0.0000 -12.2241 0.0000 46.0251
#
#
#
# Elastic Compliance Matrix: (Units=1/GPa)
#
#
# Indices 1 2 3 4 5 6 
#
# 1 0.013230 -0.000113 0.001054 0.000000 0.006428 0.000000
# 2 -0.000113 0.012824 -0.002169 0.000000 0.001951 0.000000
# 3 0.001054 -0.002169 0.008274 0.000000 0.002192 0.000000
# 4 0.000000 0.000000 0.000000 0.029013 0.000000 0.007706
# 5 0.006428 0.001951 0.002192 0.000000 0.028817 0.000000
# 6 0.000000 0.000000 0.000000 0.007706 0.000000 0.023774
#
#
# Mechanical properties :
#
#
# Convention : Reuss Voigt Hill
#
# Bulk Modulus (GPa) = 31.37542 37.90907 34.64224
# Shear Modulus (GPa) = 38.75638 43.30231 41.02935
#
# Velocity S-wave (km/s) = 3.75747 3.97173 3.86608
# Velocity P-wave (km/s) = 5.50041 5.90277 5.70514
#
# Compressibility (1/GPa) = 0.03187208
#
# Stress axis : x y z
#
# Youngs Moduli (GPa) = 75.58845 77.97654 120.86310
#
# Poissons Ratio (x) = 0.00879 -0.12741
# Poissons Ratio (y) = 0.00852 0.26218
# Poissons Ratio (z) = -0.07968 0.16915
#
# Static dielectric constant tensor:
#      x y z
#    x 2.318020 0.000000 0.089170 
#    y 0.000000 2.213610 0.000000 
#    z 0.089170 0.000000 2.079110 
# 
# From -- ./inp_files/24960.got.cif
#   From: 2010.05.17/outbox.cif.g08.bks.cpg/sg14_13_cif.got.tgz:24960.got - 2010.06.03 17:49:19.
