data_PCOD9243740
_publ_section_title
;
Structure prediction by ZEFSAII (Michael W. Deem and Ramdas Pophale) SiO2 
 PCOD9243740
Probable space group: P 21/C
;
_chemical_formula_sum "Si O2"
_cell_formula_units_Z 28
_cell_length_a 9.045857
_cell_length_b 13.330479
_cell_length_c 21.434466
_cell_angle_alpha 90.000000
_cell_angle_beta 29.677627
_cell_angle_gamma 90.000000
_cell_volume 1279.729333
_symmetry_space_group_name_H-M "P 21/C"
_symmetry_group_IT_number 14
_symmetry_cell_setting 'monoclinic'
loop_
_space_group_symop_operation_xyz
x,y,z
-x,1/2+y,1/2-z
-x,-y,-z
x,1/2-y,1/2+z
loop_
_atom_site_type_symbol
_atom_site_label
_atom_site_fract_x
_atom_site_fract_y
_atom_site_fract_z
Si Si1 0.107348 0.504234 0.270160
Si Si2 0.466900 0.727138 0.639913
Si Si3 0.079584 0.109400 0.660000
Si Si4 0.264079 0.665927 0.108326
Si Si5 0.237294 0.084006 0.272062
Si Si6 0.780864 0.516986 0.522005
Si Si7 0.694433 0.936370 0.611684
O O1 0.012181 0.418907 0.256670
O O2 0.128070 0.601049 0.216280
O O3 0.443914 0.493932 0.172409
O O4 0.916766 0.514992 0.402816
O O5 0.409428 0.739147 0.587552
O O6 0.645721 0.626370 0.585403
O O7 0.642259 0.826792 0.598380
O O8 0.127048 0.701555 0.787846
O O9 0.435772 0.115866 0.527536
O O10 0.973416 0.014402 0.658085
O O11 0.989289 0.673265 0.162009
O O12 0.364957 0.087402 0.294210
O O13 0.513012 0.064044 0.125140
O O14 0.000000 0.500000 0.500000
O O15 0.000000 0.000000 0.500000
#
# Coordination Sequence:
#
# PCOD9243740 Si02
#       7
#     4   4   4   4   4   4   4
#     4  10  21  40  68  92 126 179 219 275 350 399
#     4  10  25  40  66  98 134 182 227 283 342 404
#     4  10  21  41  64  95 129 169 232 279 333 408
#     4  10  21  39  64  94 129 165 222 280 332 406
#     4  10  20  38  64  91 125 173 216 274 334 389
#     4  11  23  44  66  95 142 178 226 283 345 412
#     4  11  21  41  68  98 132 181 227 278 340 406
#
# _framework density 21.879626999999999
#
# number of rings (size 3 to 8) (size 9 to 14) (size 15 to 20)
#    0.000    1.714    1.429    4.286    4.000    5.143 
#    2.571    1.429    0.000    0.000    0.000    0.000 
#    0.000    0.000    0.000    0.000    0.000    0.000 
#
# Total GULP energy -155933.649339 kJ/mol
# GULP energy per Si atom -5569.058905 kJ/mol
# Density = 2.182983 g / cm^3
# Si number density = 21.879627 Si / 1000 Ang^3
#
#
#
# Elastic Constant Matrix: (Units=GPa)
#
#
# Indices 1 2 3 4 5 6 
#
# 1 116.4763 39.0218 24.2767 0.0000 -5.2372 0.0000
# 2 39.0218 69.3170 32.5115 0.0000 -15.5288 0.0000
# 3 24.2767 32.5115 106.8006 0.0000 -0.0035 0.0000
# 4 0.0000 0.0000 0.0000 19.9624 0.0000 -11.0240
# 5 -5.2372 -15.5288 -0.0035 0.0000 41.7892 0.0000
# 6 0.0000 0.0000 0.0000 -11.0240 0.0000 39.6829
#
#
#
# Elastic Compliance Matrix: (Units=1/GPa)
#
#
# Indices 1 2 3 4 5 6 
#
# 1 0.010652 -0.005894 -0.000627 0.000000 -0.000855 0.000000
# 2 -0.005894 0.021901 -0.005327 0.000000 0.007399 0.000000
# 3 -0.000627 -0.005327 0.011127 0.000000 -0.002057 0.000000
# 4 0.000000 0.000000 0.000000 0.059172 0.000000 0.016438
# 5 -0.000855 0.007399 -0.002057 0.000000 0.026572 0.000000
# 6 0.000000 0.000000 0.000000 0.016438 0.000000 0.029766
#
#
# Mechanical properties :
#
#
# Convention : Reuss Voigt Hill
#
# Bulk Modulus (GPa) = 50.04004 53.80154 51.92079
# Shear Modulus (GPa) = 26.37859 33.40583 29.89221
#
# Velocity S-wave (km/s) = 3.47598 3.91167 3.70024
# Velocity P-wave (km/s) = 6.24741 6.71154 6.48363
#
# Compressibility (1/GPa) = 0.01998400
#
# Stress axis : x y z
#
# Youngs Moduli (GPa) = 93.87597 45.66093 89.86928
#
# Poissons Ratio (x) = 0.26913 0.05636
# Poissons Ratio (y) = 0.55332 0.47871
# Poissons Ratio (z) = 0.05887 0.24323
#
# Static dielectric constant tensor:
#      x y z
#    x 1.802900 0.000000 0.001980 
#    y 0.000000 1.913270 0.000000 
#    z 0.001980 0.000000 1.900700 
# 
# From -- ./inp_files/65806.got.cif
#   From: 2010.05.17/outbox.cif.g08.bks.cpg/sg14_33_cif.got.tgz:65806.got - 2010.06.03 17:49:19.
