data_PCOD9243706
_publ_section_title
;
Structure prediction by ZEFSAII (Michael W. Deem and Ramdas Pophale) SiO2 
 PCOD9243706
Probable space group: P 21/C
;
_chemical_formula_sum "Si O2"
_cell_formula_units_Z 32
_cell_length_a 8.124117
_cell_length_b 11.583305
_cell_length_c 15.541084
_cell_angle_alpha 90.000000
_cell_angle_beta 88.355026
_cell_angle_gamma 90.000000
_cell_volume 1461.877410
_symmetry_space_group_name_H-M "P 21/C"
_symmetry_group_IT_number 14
_symmetry_cell_setting 'monoclinic'
loop_
_space_group_symop_operation_xyz
x,y,z
-x,1/2+y,1/2-z
-x,-y,-z
x,1/2-y,1/2+z
loop_
_atom_site_type_symbol
_atom_site_label
_atom_site_fract_x
_atom_site_fract_y
_atom_site_fract_z
Si Si1 0.287343 0.191086 0.599231
Si Si2 0.607081 0.602473 0.723706
Si Si3 0.267094 0.641876 0.819163
Si Si4 0.018720 0.822605 0.846827
Si Si5 0.105562 0.558807 0.654822
Si Si6 0.885517 0.739946 0.160387
Si Si7 0.181236 0.469000 0.960386
Si Si8 0.446064 0.443710 0.592007
O O1 0.295346 0.114956 0.687060
O O2 0.298897 0.094815 0.526324
O O3 0.408161 0.304527 0.594429
O O4 0.107169 0.251190 0.591558
O O5 0.430697 0.647695 0.760194
O O6 0.716756 0.686809 0.663881
O O7 0.562924 0.488894 0.668752
O O8 0.194615 0.765165 0.843119
O O9 0.136943 0.580688 0.755920
O O10 0.271698 0.570494 0.906923
O O11 0.934277 0.801434 0.755168
O O12 0.024139 0.958000 0.861252
O O13 0.272144 0.507391 0.614278
O O14 0.031887 0.678650 0.623552
O O15 0.858038 0.627751 0.107919
O O16 0.000000 0.500000 0.000000
O O17 0.500000 0.500000 0.500000
#
# Coordination Sequence:
#
# PCOD9243706 Si02
#       8
#     4   4   4   4   4   4   4   4
#     4  10  22  40  64  93 130 179 217 274 340 400
#     4  10  23  40  64  94 127 176 221 270 340 399
#     4  10  20  38  63  95 128 173 218 272 326 403
#     4   9  17  37  63  90 123 168 223 264 319 392
#     4   9  19  38  66  94 125 170 228 266 328 396
#     4  10  21  38  65  95 128 173 216 276 333 393
#     4  12  23  41  67  96 138 174 224 277 341 395
#     4  10  21  43  66  95 136 171 219 284 341 402
#
# _framework density 21.889658000000001
#
# number of rings (size 3 to 8) (size 9 to 14) (size 15 to 20)
#    0.000    2.000    2.500    0.750    1.750    1.500 
#    2.250    8.125    0.000    0.000    0.000    0.000 
#    0.000    0.000    0.000    0.000    0.000    0.000 
#
# Total GULP energy -178372.871851 kJ/mol
# GULP energy per Si atom -5574.152245 kJ/mol
# Density = 2.183984 g / cm^3
# Si number density = 21.889658 Si / 1000 Ang^3
#
#
#
# Elastic Constant Matrix: (Units=GPa)
#
#
# Indices 1 2 3 4 5 6 
#
# 1 60.0783 17.2560 4.6175 0.0000 -10.0740 0.0000
# 2 17.2560 58.1371 21.1811 0.0000 -5.8457 0.0000
# 3 4.6175 21.1811 68.0018 0.0000 -3.8170 0.0000
# 4 0.0000 0.0000 0.0000 13.7135 0.0000 12.2388
# 5 -10.0740 -5.8457 -3.8170 0.0000 15.6610 0.0000
# 6 0.0000 0.0000 0.0000 12.2388 0.0000 27.7059
#
#
#
# Elastic Compliance Matrix: (Units=1/GPa)
#
#
# Indices 1 2 3 4 5 6 
#
# 1 0.019908 -0.005106 0.000862 0.000000 0.011110 0.000000
# 2 -0.005106 0.021255 -0.006096 0.000000 0.003164 0.000000
# 3 0.000862 -0.006096 0.016677 0.000000 0.002344 0.000000
# 4 0.000000 0.000000 0.000000 0.120378 0.000000 -0.053176
# 5 0.011110 0.003164 0.002344 0.000000 0.072752 0.000000
# 6 0.000000 0.000000 0.000000 -0.053176 0.000000 0.059583
#
#
# Mechanical properties :
#
#
# Convention : Reuss Voigt Hill
#
# Bulk Modulus (GPa) = 26.91006 30.25848 28.58427
# Shear Modulus (GPa) = 14.55089 20.96025 17.75557
#
# Velocity S-wave (km/s) = 2.58105 3.09777 2.85114
# Velocity P-wave (km/s) = 4.60463 5.16218 4.89136
#
# Compressibility (1/GPa) = 0.03716082
#
# Stress axis : x y z
#
# Youngs Moduli (GPa) = 50.23032 47.04674 59.96148
#
# Poissons Ratio (x) = 0.24022 -0.05170
# Poissons Ratio (y) = 0.25648 0.36554
# Poissons Ratio (z) = -0.04331 0.28681
#
# Static dielectric constant tensor:
#      x y z
#    x 1.881190 0.000000 -0.021670 
#    y 0.000000 1.798880 0.000000 
#    z -0.021670 0.000000 1.852530 
# 
# From -- ./inp_files/55443.got.cif
#   From: 2010.05.17/outbox.cif.g08.bks.cpg/sg14_28_cif.got.tgz:55443.got - 2010.06.03 17:49:19.
