data_PCOD9243638
_publ_section_title
;
Structure prediction by ZEFSAII (Michael W. Deem and Ramdas Pophale) SiO2 
 PCOD9243638
Probable space group: P 21/C
;
_chemical_formula_sum "Si O2"
_cell_formula_units_Z 24
_cell_length_a 11.923994
_cell_length_b 12.039733
_cell_length_c 13.818571
_cell_angle_alpha 90.000000
_cell_angle_beta 31.885453
_cell_angle_gamma 90.000000
_cell_volume 1047.897627
_symmetry_space_group_name_H-M "P 21/C"
_symmetry_group_IT_number 14
_symmetry_cell_setting 'monoclinic'
loop_
_space_group_symop_operation_xyz
x,y,z
-x,1/2+y,1/2-z
-x,-y,-z
x,1/2-y,1/2+z
loop_
_atom_site_type_symbol
_atom_site_label
_atom_site_fract_x
_atom_site_fract_y
_atom_site_fract_z
Si Si1 0.330364 0.657737 0.387361
Si Si2 0.844509 0.402106 0.997198
Si Si3 0.559422 0.004384 0.845375
Si Si4 0.655491 0.597894 0.002802
Si Si5 0.940578 0.995616 0.154625
Si Si6 0.830364 0.657737 0.387361
O O1 0.277800 0.786463 0.430685
O O2 0.506993 0.613108 0.333003
O O3 0.116066 0.590803 0.567830
O O4 0.420589 0.623333 0.215097
O O5 0.784242 0.443912 0.148819
O O6 0.750000 0.500000 0.000000
O O7 0.079411 0.376667 0.784903
O O8 0.383934 0.090803 0.932170
O O9 0.500000 0.000000 0.000000
O O10 0.777800 0.713537 0.930685
O O11 0.715758 0.556088 0.851181
O O12 0.993007 0.113108 0.166997
O O13 0.000000 0.000000 0.000000
#
# Coordination Sequence:
#
# PCOD9243638 Si02
#       6
#     4   4   4   4   4   4
#     4  10  20  40  61  82 123 154 191 243 294 347
#     4  10  20  38  62  86 117 160 192 236 299 347
#     4  10  22  40  60  89 115 153 201 244 289 346
#     4  10  20  38  62  86 117 160 192 236 299 347
#     4  10  22  40  60  89 115 153 201 244 289 346
#     4  10  20  40  61  82 123 154 191 243 294 347
#
# _framework density 22.903001
#
# number of rings (size 3 to 8) (size 9 to 14) (size 15 to 20)
#    0.000    2.000    3.333    0.000    0.000    1.333 
#   12.000    0.000    0.000    0.000    0.000    0.000 
#    0.000    0.000    0.000    0.000    0.000    0.000 
#
# Total GULP energy -133876.288037 kJ/mol
# GULP energy per Si atom -5578.178668 kJ/mol
# Density = 2.285087 g / cm^3
# Si number density = 22.903001 Si / 1000 Ang^3
#
#
#
# Elastic Constant Matrix: (Units=GPa)
#
#
# Indices 1 2 3 4 5 6 
#
# 1 21.5612 10.8472 9.8095 0.0000 12.2336 0.0000
# 2 10.8472 144.2263 32.8567 0.0000 -6.9127 0.0000
# 3 9.8095 32.8567 162.9496 0.0000 2.0803 0.0000
# 4 0.0000 0.0000 0.0000 56.5726 0.0000 -0.6788
# 5 12.2336 -6.9127 2.0803 0.0000 42.8639 0.0000
# 6 0.0000 0.0000 0.0000 -0.6788 0.0000 10.6105
#
#
#
# Elastic Compliance Matrix: (Units=1/GPa)
#
#
# Indices 1 2 3 4 5 6 
#
# 1 0.059988 -0.004814 -0.002414 0.000000 -0.017780 0.000000
# 2 -0.004814 0.007721 -0.001301 0.000000 0.002682 0.000000
# 3 -0.002414 -0.001301 0.006542 0.000000 0.000161 0.000000
# 4 0.000000 0.000000 0.000000 0.017690 0.000000 0.001132
# 5 -0.017780 0.002682 0.000161 0.000000 0.028829 0.000000
# 6 0.000000 0.000000 0.000000 0.001132 0.000000 0.094318
#
#
# Mechanical properties :
#
#
# Convention : Reuss Voigt Hill
#
# Bulk Modulus (GPa) = 17.48457 48.41821 32.95139
# Shear Modulus (GPa) = 19.90367 40.35767 30.13067
#
# Velocity S-wave (km/s) = 2.95115 4.20231 3.63102
# Velocity P-wave (km/s) = 4.38898 6.68822 5.65665
#
# Compressibility (1/GPa) = 0.05719328
#
# Stress axis : x y z
#
# Youngs Moduli (GPa) = 16.67008 129.52375 152.84743
#
# Poissons Ratio (x) = 0.62353 0.36891
# Poissons Ratio (y) = 0.08025 0.19889
# Poissons Ratio (z) = 0.04023 0.16854
#
# Static dielectric constant tensor:
#      x y z
#    x 1.897020 0.000000 0.016670 
#    y 0.000000 1.807270 0.000000 
#    z 0.016670 0.000000 1.930530 
# 
# From -- ./inp_files/18832.got.cif
#   From: 2010.05.17/outbox.cif.g08.bks.cpg/sg14_10_cif.got.tgz:18832.got - 2010.06.03 17:49:19.
