data_PCOD9243427
_publ_section_title
;
Structure prediction by ZEFSAII (Michael W. Deem and Ramdas Pophale) SiO2 
 PCOD9243427
Probable space group: P 21/C
;
_chemical_formula_sum "Si O2"
_cell_formula_units_Z 28
_cell_length_a 9.029026
_cell_length_b 8.826496
_cell_length_c 29.182240
_cell_angle_alpha 90.000000
_cell_angle_beta 141.098849
_cell_angle_gamma 90.000000
_cell_volume 1460.470418
_symmetry_space_group_name_H-M "P 21/C"
_symmetry_group_IT_number 14
_symmetry_cell_setting 'monoclinic'
loop_
_space_group_symop_operation_xyz
x,y,z
-x,1/2+y,1/2-z
-x,-y,-z
x,1/2-y,1/2+z
loop_
_atom_site_type_symbol
_atom_site_label
_atom_site_fract_x
_atom_site_fract_y
_atom_site_fract_z
Si Si1 0.701935 0.068720 0.582189
Si Si2 0.542329 0.245976 0.311636
Si Si3 0.438887 0.327368 0.480724
Si Si4 0.782377 0.937329 0.334358
Si Si5 0.962428 0.605848 0.551844
Si Si6 0.515173 0.657218 0.101924
Si Si7 0.996226 0.737448 0.463682
O O1 0.643796 0.242469 0.558689
O O2 0.963037 0.031657 0.627884
O O3 0.500000 0.000000 0.500000
O O4 0.634331 0.999788 0.614947
O O5 0.368716 0.333626 0.236193
O O6 0.764192 0.355168 0.375579
O O7 0.425095 0.206978 0.332502
O O8 0.647198 0.091236 0.315275
O O9 0.500000 0.500000 0.500000
O O10 0.416819 0.270319 0.423309
O O11 0.190076 0.312425 0.446362
O O12 0.834578 0.838037 0.392344
O O13 0.888823 0.680549 0.485677
O O14 0.932046 0.423710 0.542433
O O15 0.229534 0.662436 0.030249
#
# Coordination Sequence:
#
# PCOD9243427 Si02
#       7
#     4   4   4   4   4   4   4
#     4  10  20  38  65  91 123 159 208 261 314 370
#     4  11  26  40  64  85 129 166 213 255 316 382
#     4  11  19  35  63  94 124 160 200 264 308 366
#     4  12  23  44  61  89 126 171 209 263 315 377
#     4  10  21  37  63  97 122 164 202 263 314 369
#     4  10  21  40  60  97 120 159 209 259 309 373
#     4  10  20  37  64  92 126 155 216 258 303 374
#
# _framework density 19.171904999999999
#
# number of rings (size 3 to 8) (size 9 to 14) (size 15 to 20)
#    0.000    1.429    4.286    2.571    2.000    1.143 
#    0.000    5.714    0.000    0.000    0.000    0.000 
#    0.000    0.000    0.000    0.000    0.000    0.000 
#
# Total GULP energy -156191.966152 kJ/mol
# GULP energy per Si atom -5578.284505 kJ/mol
# Density = 1.912827 g / cm^3
# Si number density = 19.171905 Si / 1000 Ang^3
#
#
#
# Elastic Constant Matrix: (Units=GPa)
#
#
# Indices 1 2 3 4 5 6 
#
# 1 90.7439 38.5797 23.6835 0.0000 1.5984 0.0000
# 2 38.5797 114.0318 35.2122 0.0000 -6.5146 0.0000
# 3 23.6835 35.2122 92.2289 0.0000 -8.6388 0.0000
# 4 0.0000 0.0000 0.0000 29.9851 0.0000 0.6855
# 5 1.5984 -6.5146 -8.6388 0.0000 19.2812 0.0000
# 6 0.0000 0.0000 0.0000 0.6855 0.0000 25.1243
#
#
#
# Elastic Compliance Matrix: (Units=1/GPa)
#
#
# Indices 1 2 3 4 5 6 
#
# 1 0.013377 -0.004039 -0.002218 0.000000 -0.003467 0.000000
# 2 -0.004039 0.011217 -0.002984 0.000000 0.002788 0.000000
# 3 -0.002218 -0.002984 0.013021 0.000000 0.005009 0.000000
# 4 0.000000 0.000000 0.000000 0.033371 0.000000 -0.000910
# 5 -0.003467 0.002788 0.005009 0.000000 0.055338 0.000000
# 6 0.000000 0.000000 0.000000 -0.000910 0.000000 0.039827
#
#
# Mechanical properties :
#
#
# Convention : Reuss Voigt Hill
#
# Bulk Modulus (GPa) = 52.26717 54.66171 53.46444
# Shear Modulus (GPa) = 26.17670 28.18007 27.17839
#
# Velocity S-wave (km/s) = 3.69910 3.83804 3.76921
# Velocity P-wave (km/s) = 6.75026 6.94363 6.84763
#
# Compressibility (1/GPa) = 0.01913247
#
# Stress axis : x y z
#
# Youngs Moduli (GPa) = 74.75442 89.15254 76.80109
#
# Poissons Ratio (x) = 0.36009 0.17033
# Poissons Ratio (y) = 0.30194 0.22919
# Poissons Ratio (z) = 0.16579 0.26605
#
# Static dielectric constant tensor:
#      x y z
#    x 1.727110 0.000000 -0.007930 
#    y 0.000000 1.763890 0.000000 
#    z -0.007930 0.000000 1.645620 
# 
# From -- ./inp_files/76502.got.cif
#   From: 2010.05.17/outbox.cif.g08.bks.cpg/sg14_39_cif.got.tgz:76502.got - 2010.06.03 17:49:19.
