data_PCOD9243858
_publ_section_title
;
Structure prediction by ZEFSAII (Michael W. Deem and Ramdas Pophale) SiO2 
 PCOD9243858
Probable space group: P 21/C
;
_chemical_formula_sum "Si O2"
_cell_formula_units_Z 32
_cell_length_a 13.732638
_cell_length_b 9.330740
_cell_length_c 11.598946
_cell_angle_alpha 90.000000
_cell_angle_beta 111.587388
_cell_angle_gamma 90.000000
_cell_volume 1381.990261
_symmetry_space_group_name_H-M "P 21/C"
_symmetry_group_IT_number 14
_symmetry_cell_setting 'monoclinic'
loop_
_space_group_symop_operation_xyz
x,y,z
-x,1/2+y,1/2-z
-x,-y,-z
x,1/2-y,1/2+z
loop_
_atom_site_type_symbol
_atom_site_label
_atom_site_fract_x
_atom_site_fract_y
_atom_site_fract_z
Si Si1 0.138608 0.490258 0.639586
Si Si2 0.558056 0.071226 0.296234
Si Si3 0.716241 0.888169 0.459741
Si Si4 0.407982 0.699715 0.509464
Si Si5 0.009283 0.751023 0.503221
Si Si6 0.059673 0.484759 0.869314
Si Si7 0.396133 0.119018 0.023885
Si Si8 0.642436 0.041270 0.659282
O O1 0.098065 0.629575 0.553424
O O2 0.084962 0.490936 0.744804
O O3 0.262191 0.503227 0.715204
O O4 0.094703 0.346109 0.560890
O O5 0.604430 0.211995 0.377983
O O6 0.490295 0.108890 0.157049
O O7 0.469490 0.999191 0.338820
O O8 0.651232 0.956635 0.326703
O O9 0.833245 0.943909 0.516607
O O10 0.692756 0.722029 0.467703
O O11 0.664047 0.954224 0.552131
O O12 0.534399 0.680957 0.550900
O O13 0.360251 0.542278 0.488031
O O14 0.360097 0.796520 0.387630
O O15 0.011222 0.851971 0.618150
O O16 0.021475 0.863805 0.403758
#
# Coordination Sequence:
#
# PCOD9243858 Si02
#       8
#     4   4   4   4   4   4   4   4
#     4  10  22  41  65  91 119 160 200 256 312 374
#     4  11  20  37  57  81 122 167 191 238 297 356
#     4  10  20  39  57  85 121 161 198 245 300 357
#     4  10  21  37  54  82 123 159 205 246 289 347
#     4  10  22  43  65  91 118 154 208 258 317 376
#     4  10  22  41  66  90 123 157 200 260 317 366
#     4  11  21  34  56  85 117 164 205 245 284 349
#     4  10  20  39  58  81 121 164 193 241 303 360
#
# _framework density 23.155010000000001
#
# number of rings (size 3 to 8) (size 9 to 14) (size 15 to 20)
#    0.000    1.750    2.500    2.250    1.750    1.000 
#    4.500    6.250    0.000    0.000    0.000    0.000 
#    0.000    0.000    0.000    0.000    0.000    0.000 
#
# Total GULP energy -178836.355779 kJ/mol
# GULP energy per Si atom -5588.636118 kJ/mol
# Density = 2.310231 g / cm^3
# Si number density = 23.155010 Si / 1000 Ang^3
#
#
#
# Elastic Constant Matrix: (Units=GPa)
#
#
# Indices 1 2 3 4 5 6 
#
# 1 35.8140 22.3521 -3.0829 0.0000 10.1745 0.0000
# 2 22.3521 182.2229 22.4102 0.0000 8.8371 0.0000
# 3 -3.0829 22.4102 59.4205 0.0000 13.0008 0.0000
# 4 0.0000 0.0000 0.0000 21.5066 0.0000 3.4430
# 5 10.1745 8.8371 13.0008 0.0000 37.7587 0.0000
# 6 0.0000 0.0000 0.0000 3.4430 0.0000 4.2468
#
#
#
# Elastic Compliance Matrix: (Units=1/GPa)
#
#
# Indices 1 2 3 4 5 6 
#
# 1 0.033995 -0.004372 0.005616 0.000000 -0.010071 0.000000
# 2 -0.004372 0.006332 -0.002756 0.000000 0.000645 0.000000
# 3 0.005616 -0.002756 0.019845 0.000000 -0.007701 0.000000
# 4 0.000000 0.000000 0.000000 0.053432 0.000000 -0.043319
# 5 -0.010071 0.000645 -0.007701 0.000000 0.031698 0.000000
# 6 0.000000 0.000000 0.000000 -0.043319 0.000000 0.270594
#
#
# Mechanical properties :
#
#
# Convention : Reuss Voigt Hill
#
# Bulk Modulus (GPa) = 17.49847 40.09069 28.79458
# Shear Modulus (GPa) = 11.41632 28.42097 19.91865
#
# Velocity S-wave (km/s) = 2.22286 3.50726 2.93615
# Velocity P-wave (km/s) = 3.76319 5.80971 4.89461
#
# Compressibility (1/GPa) = 0.05714786
#
# Stress axis : x y z
#
# Youngs Moduli (GPa) = 29.41582 157.93416 50.39061
#
# Poissons Ratio (x) = 0.69053 -0.28300
# Poissons Ratio (y) = 0.12861 0.13888
# Poissons Ratio (z) = -0.16521 0.43527
#
# Static dielectric constant tensor:
#      x y z
#    x 1.893330 0.000000 -0.059010 
#    y 0.000000 1.922800 0.000000 
#    z -0.059010 0.000000 1.913660 
# 
# From -- ./inp_files/46516.got.cif
#   From: 2010.05.17/outbox.cif.g08.bks.cpg/sg14_24_cif.got.tgz:46516.got - 2010.06.03 17:49:19.
