data_PCOD9243386
_publ_section_title
;
Structure prediction by ZEFSAII (Michael W. Deem and Ramdas Pophale) SiO2 
 PCOD9243386
Probable space group: P 21/C
;
_chemical_formula_sum "Si O2"
_cell_formula_units_Z 32
_cell_length_a 5.298894
_cell_length_b 9.012377
_cell_length_c 26.669240
_cell_angle_alpha 90.000000
_cell_angle_beta 106.465545
_cell_angle_gamma 90.000000
_cell_volume 1221.376224
_symmetry_space_group_name_H-M "P 21/C"
_symmetry_group_IT_number 14
_symmetry_cell_setting 'monoclinic'
loop_
_space_group_symop_operation_xyz
x,y,z
-x,1/2+y,1/2-z
-x,-y,-z
x,1/2-y,1/2+z
loop_
_atom_site_type_symbol
_atom_site_label
_atom_site_fract_x
_atom_site_fract_y
_atom_site_fract_z
Si Si1 0.843990 0.078856 0.659976
Si Si2 0.930757 0.294490 0.462192
Si Si3 0.659631 0.779740 0.839131
Si Si4 0.971670 0.918873 0.225609
Si Si5 0.532787 0.281344 0.776024
Si Si6 0.511082 0.159040 0.385414
Si Si7 0.665018 0.905029 0.945733
Si Si8 0.197574 0.454707 0.386953
O O1 0.594314 0.183817 0.657934
O O2 0.932226 0.004684 0.718073
O O3 0.092661 0.171948 0.655680
O O4 0.727137 0.952646 0.617665
O O5 0.746391 0.156278 0.438652
O O6 0.760747 0.435523 0.472176
O O7 0.183548 0.284861 0.512307
O O8 0.022487 0.356941 0.413595
O O9 0.561850 0.856302 0.781609
O O10 0.730973 0.881014 0.890707
O O11 0.203362 0.807453 0.222346
O O12 0.711223 0.828660 0.226469
O O13 0.914812 0.010535 0.172128
O O14 0.585803 0.366882 0.831067
O O15 0.409395 0.328364 0.382264
O O16 0.350858 0.918122 0.925563
#
# Coordination Sequence:
#
# PCOD9243386 Si02
#       8
#     4   4   4   4   4   4   4   4
#     4  10  23  40  63  90 133 170 208 256 322 391
#     4  10  21  40  65  90 123 158 222 270 326 369
#     4  10  23  43  60  92 130 170 212 256 321 395
#     4   9  18  36  56  89 123 159 202 253 312 388
#     4   9  18  36  58  85 124 159 204 253 308 376
#     4  10  21  38  61  94 122 167 208 265 317 383
#     4  10  23  40  62  92 121 168 212 273 321 375
#     4  10  20  37  63  90 124 157 217 268 329 375
#
# _framework density 26.199954000000002
#
# number of rings (size 3 to 8) (size 9 to 14) (size 15 to 20)
#    0.000    2.250    1.250    0.375    3.500    1.000 
#   15.750    1.250    0.000    0.000    0.000    0.000 
#    0.000    0.000    0.000    0.000    0.000    0.000 
#
# Total GULP energy -178956.358634 kJ/mol
# GULP energy per Si atom -5592.386207 kJ/mol
# Density = 2.614032 g / cm^3
# Si number density = 26.199954 Si / 1000 Ang^3
#
#
#
# Elastic Constant Matrix: (Units=GPa)
#
#
# Indices 1 2 3 4 5 6 
#
# 1 133.6067 30.9382 26.0957 0.0000 6.9088 0.0000
# 2 30.9382 60.2723 27.2446 0.0000 3.9174 0.0000
# 3 26.0957 27.2446 129.7099 0.0000 -1.6187 0.0000
# 4 0.0000 0.0000 0.0000 21.7619 0.0000 10.9678
# 5 6.9088 3.9174 -1.6187 0.0000 38.0721 0.0000
# 6 0.0000 0.0000 0.0000 10.9678 0.0000 38.5288
#
#
#
# Elastic Compliance Matrix: (Units=1/GPa)
#
#
# Indices 1 2 3 4 5 6 
#
# 1 0.008640 -0.003938 -0.000926 0.000000 -0.001202 0.000000
# 2 -0.003938 0.020288 -0.003488 0.000000 -0.001521 0.000000
# 3 -0.000926 -0.003488 0.008640 0.000000 0.000894 0.000000
# 4 0.000000 0.000000 0.000000 0.053649 0.000000 -0.015272
# 5 -0.001202 -0.001521 0.000894 0.000000 0.026679 0.000000
# 6 0.000000 0.000000 0.000000 -0.015272 0.000000 0.030302
#
#
# Mechanical properties :
#
#
# Convention : Reuss Voigt Hill
#
# Bulk Modulus (GPa) = 47.93122 54.68289 51.30706
# Shear Modulus (GPa) = 29.09413 35.62658 32.36035
#
# Velocity S-wave (km/s) = 3.33598 3.69154 3.51825
# Velocity P-wave (km/s) = 5.75955 6.25193 6.01079
#
# Compressibility (1/GPa) = 0.02086323
#
# Stress axis : x y z
#
# Youngs Moduli (GPa) = 115.74637 49.28920 115.74579
#
# Poissons Ratio (x) = 0.19410 0.10718
# Poissons Ratio (y) = 0.45582 0.40374
# Poissons Ratio (z) = 0.10718 0.17193
#
# Static dielectric constant tensor:
#      x y z
#    x 2.162990 0.000000 0.026810 
#    y 0.000000 2.024900 0.000000 
#    z 0.026810 0.000000 2.106740 
# 
# From -- ./inp_files/75796.got.cif
#   From: 2010.05.17/outbox.cif.g08.bks.cpg/sg14_38_cif.got.tgz:75796.got - 2010.06.03 17:49:19.
