data_PCOD9243949
_publ_section_title
;
Structure prediction by ZEFSAII (Michael W. Deem and Ramdas Pophale) SiO2 
 PCOD9243949
Probable space group: P 21/C
;
_chemical_formula_sum "Si O2"
_cell_formula_units_Z 20
_cell_length_a 8.308908
_cell_length_b 9.033578
_cell_length_c 22.459506
_cell_angle_alpha 90.000000
_cell_angle_beta 147.248681
_cell_angle_gamma 90.000000
_cell_volume 912.002992
_symmetry_space_group_name_H-M "P 21/C"
_symmetry_group_IT_number 14
_symmetry_cell_setting 'monoclinic'
loop_
_space_group_symop_operation_xyz
x,y,z
-x,1/2+y,1/2-z
-x,-y,-z
x,1/2-y,1/2+z
loop_
_atom_site_type_symbol
_atom_site_label
_atom_site_fract_x
_atom_site_fract_y
_atom_site_fract_z
Si Si1 0.711476 0.539299 0.778062
Si Si2 0.725746 0.205198 0.192378
Si Si3 0.314140 0.389496 0.356312
Si Si4 0.650873 0.962171 0.390056
Si Si5 0.624662 0.373306 0.995407
O O1 0.790589 0.377516 0.775607
O O2 0.564095 0.615421 0.674543
O O3 0.544822 0.528065 0.788846
O O4 0.021134 0.621610 0.887854
O O5 0.429088 0.300508 0.109463
O O6 0.986189 0.317503 0.256180
O O7 0.704624 0.066062 0.141533
O O8 0.501516 0.291750 0.460057
O O9 0.518373 0.074357 0.396811
O O10 0.000000 0.000000 0.500000
O O11 0.500000 0.500000 0.000000
#
# Coordination Sequence:
#
# PCOD9243949 Si02
#       5
#     4   4   4   4   4
#     4   9  22  36  62  91 133 169 221 268 339 389
#     4  10  20  39  62  94 126 172 225 265 338 389
#     4  10  21  37  67  93 129 174 223 279 321 401
#     4  10  22  39  63  90 133 174 218 277 334 398
#     4  11  19  40  66  92 132 175 221 272 337 391
#
# _framework density 21.929753000000002
#
# number of rings (size 3 to 8) (size 9 to 14) (size 15 to 20)
#    1.200    0.800    2.000    2.400    2.800    0.000 
#    0.000    8.000    4.400    0.000    0.000    0.000 
#    0.000    0.000    0.000    0.000    0.000    0.000 
#
# Total GULP energy -111341.615760 kJ/mol
# GULP energy per Si atom -5567.080788 kJ/mol
# Density = 2.187984 g / cm^3
# Si number density = 21.929753 Si / 1000 Ang^3
#
#
#
# Elastic Constant Matrix: (Units=GPa)
#
#
# Indices 1 2 3 4 5 6 
#
# 1 98.4463 46.7715 12.9462 0.0000 -28.2808 0.0000
# 2 46.7715 148.7113 42.0916 0.0000 -2.1373 0.0000
# 3 12.9462 42.0916 47.4583 0.0000 -4.7702 0.0000
# 4 0.0000 0.0000 0.0000 42.1992 0.0000 -2.7121
# 5 -28.2808 -2.1373 -4.7702 0.0000 32.8547 0.0000
# 6 0.0000 0.0000 0.0000 -2.7121 0.0000 24.7313
#
#
#
# Elastic Compliance Matrix: (Units=1/GPa)
#
#
# Indices 1 2 3 4 5 6 
#
# 1 0.016638 -0.005539 0.001803 0.000000 0.014223 0.000000
# 2 -0.005539 0.010833 -0.008632 0.000000 -0.005316 0.000000
# 3 0.001803 -0.008632 0.028754 0.000000 0.005166 0.000000
# 4 0.000000 0.000000 0.000000 0.023865 0.000000 0.002617
# 5 0.014223 -0.005316 0.005166 0.000000 0.043084 0.000000
# 6 0.000000 0.000000 0.000000 0.002617 0.000000 0.040722
#
#
# Mechanical properties :
#
#
# Convention : Reuss Voigt Hill
#
# Bulk Modulus (GPa) = 31.75489 55.35937 43.55713
# Shear Modulus (GPa) = 25.10954 32.81083 28.96018
#
# Velocity S-wave (km/s) = 3.38745 3.87224 3.63793
# Velocity P-wave (km/s) = 5.45999 6.72987 6.12791
#
# Compressibility (1/GPa) = 0.03149122
#
# Stress axis : x y z
#
# Youngs Moduli (GPa) = 60.10282 92.30896 34.77797
#
# Poissons Ratio (x) = 0.51129 -0.06272
# Poissons Ratio (y) = 0.33291 0.30019
# Poissons Ratio (z) = -0.10840 0.79677
#
# Static dielectric constant tensor:
#      x y z
#    x 1.876540 0.000000 -0.048410 
#    y 0.000000 1.853120 0.000000 
#    z -0.048410 0.000000 1.826280 
# 
# From -- ./inp_files/68286.got.cif
#   From: 2010.05.17/outbox.cif.g08.bks.cpg/sg14_35_cif.got.tgz:68286.got - 2010.06.03 17:49:19.
