data_PCOD9243541
_publ_section_title
;
Structure prediction by ZEFSAII (Michael W. Deem and Ramdas Pophale) SiO2 
 PCOD9243541
Probable space group: P 21/C
;
_chemical_formula_sum "Si O2"
_cell_formula_units_Z 32
_cell_length_a 8.314174
_cell_length_b 17.433411
_cell_length_c 13.226620
_cell_angle_alpha 90.000000
_cell_angle_beta 62.095793
_cell_angle_gamma 90.000000
_cell_volume 1694.223014
_symmetry_space_group_name_H-M "P 21/C"
_symmetry_group_IT_number 14
_symmetry_cell_setting 'monoclinic'
loop_
_space_group_symop_operation_xyz
x,y,z
-x,1/2+y,1/2-z
-x,-y,-z
x,1/2-y,1/2+z
loop_
_atom_site_type_symbol
_atom_site_label
_atom_site_fract_x
_atom_site_fract_y
_atom_site_fract_z
Si Si1 0.933711 0.248512 0.393176
Si Si2 0.580768 0.243301 0.633675
Si Si3 0.056366 0.424043 0.111062
Si Si4 0.615468 0.558595 0.580370
Si Si5 0.413214 0.405273 0.625180
Si Si6 0.895592 0.588399 0.128660
Si Si7 0.716561 0.329879 0.279714
Si Si8 0.750668 0.866732 0.242168
O O1 0.781225 0.240864 0.525187
O O2 0.821795 0.286066 0.335522
O O3 0.010680 0.163877 0.354467
O O4 0.111095 0.303582 0.346798
O O5 0.488345 0.320573 0.621472
O O6 0.617028 0.234187 0.742016
O O7 0.434490 0.174307 0.663082
O O8 0.158693 0.404902 0.185494
O O9 0.021255 0.514327 0.108196
O O10 0.864370 0.379017 0.174000
O O11 0.143704 0.398764 0.978782
O O12 0.571828 0.469039 0.579635
O O13 0.695762 0.586391 0.448962
O O14 0.429780 0.608789 0.638441
O O15 0.709509 0.577238 0.659517
O O16 0.285776 0.426160 0.755841
#
# Coordination Sequence:
#
# PCOD9243541 Si02
#       8
#     4   4   4   4   4   4   4   4
#     4  11  22  38  60  91 121 157 203 249 302 358
#     4  11  22  38  60  91 121 157 203 249 302 358
#     4  10  22  40  62  87 123 161 200 251 307 356
#     4  10  22  40  62  87 123 161 200 251 307 356
#     4  11  22  39  63  91 120 163 205 247 302 370
#     4  11  22  39  63  91 120 163 205 247 302 370
#     4  10  20  38  60  84 124 158 196 252 304 354
#     4  10  24  40  62  90 124 162 200 258 306 356
#
# _framework density 18.887715
#
# number of rings (size 3 to 8) (size 9 to 14) (size 15 to 20)
#    0.000    1.500    5.000    0.000    0.000    4.000 
#    0.000    2.500    0.000    0.000    0.000    0.000 
#    0.000    0.000    0.000    0.000    0.000    0.000 
#
# Total GULP energy -178271.214027 kJ/mol
# GULP energy per Si atom -5570.975438 kJ/mol
# Density = 1.884473 g / cm^3
# Si number density = 18.887715 Si / 1000 Ang^3
#
#
#
# Elastic Constant Matrix: (Units=GPa)
#
#
# Indices 1 2 3 4 5 6 
#
# 1 44.7284 3.4887 17.1857 0.0000 13.0542 0.0000
# 2 3.4887 53.4178 2.0169 0.0000 20.9750 0.0000
# 3 17.1857 2.0169 83.5145 0.0000 7.9943 0.0000
# 4 0.0000 0.0000 0.0000 26.5780 0.0000 5.8243
# 5 13.0542 20.9750 7.9943 0.0000 25.5252 0.0000
# 6 0.0000 0.0000 0.0000 5.8243 0.0000 11.5047
#
#
#
# Elastic Compliance Matrix: (Units=1/GPa)
#
#
# Indices 1 2 3 4 5 6 
#
# 1 0.028770 0.005207 -0.004359 0.000000 -0.017628 0.000000
# 2 0.005207 0.028777 0.000775 0.000000 -0.026553 0.000000
# 3 -0.004359 0.000775 0.013092 0.000000 -0.002508 0.000000
# 4 0.000000 0.000000 0.000000 0.042320 0.000000 -0.021424
# 5 -0.017628 -0.026553 -0.002508 0.000000 0.070798 0.000000
# 6 0.000000 0.000000 0.000000 -0.021424 0.000000 0.097767
#
#
# Mechanical properties :
#
#
# Convention : Reuss Voigt Hill
#
# Bulk Modulus (GPa) = 13.53406 25.22703 19.38055
# Shear Modulus (GPa) = 16.50674 23.31955 19.91314
#
# Velocity S-wave (km/s) = 2.95946 3.51756 3.25051
# Velocity P-wave (km/s) = 4.34269 5.46653 4.93669
#
# Compressibility (1/GPa) = 0.07388765
#
# Stress axis : x y z
#
# Youngs Moduli (GPa) = 34.75788 34.74945 76.38080
#
# Poissons Ratio (x) = -0.18095 0.33293
# Poissons Ratio (y) = -0.18099 -0.05921
# Poissons Ratio (z) = 0.15150 -0.02694
#
# Static dielectric constant tensor:
#      x y z
#    x 1.672410 0.000000 -0.017170 
#    y 0.000000 1.643780 0.000000 
#    z -0.017170 0.000000 1.706900 
# 
# From -- ./inp_files/25529.got.cif
#   From: 2010.05.17/outbox.cif.g08.bks.cpg/sg14_13_cif.got.tgz:25529.got - 2010.06.03 17:49:19.
