data_PCOD9243613
_publ_section_title
;
Structure prediction by ZEFSAII (Michael W. Deem and Ramdas Pophale) SiO2 
 PCOD9243613
Probable space group: P 21/C
;
_chemical_formula_sum "Si O2"
_cell_formula_units_Z 32
_cell_length_a 18.543976
_cell_length_b 15.571317
_cell_length_c 13.151109
_cell_angle_alpha 90.000000
_cell_angle_beta 22.511946
_cell_angle_gamma 90.000000
_cell_volume 1453.947688
_symmetry_space_group_name_H-M "P 21/C"
_symmetry_group_IT_number 14
_symmetry_cell_setting 'monoclinic'
loop_
_space_group_symop_operation_xyz
x,y,z
-x,1/2+y,1/2-z
-x,-y,-z
x,1/2-y,1/2+z
loop_
_atom_site_type_symbol
_atom_site_label
_atom_site_fract_x
_atom_site_fract_y
_atom_site_fract_z
Si Si1 0.976140 0.647613 0.548056
Si Si2 0.823300 0.939821 0.608017
Si Si3 0.321026 0.858650 0.439032
Si Si4 0.267837 0.253140 0.788312
Si Si5 0.485003 0.777144 0.857653
Si Si6 0.271221 0.450284 0.993349
Si Si7 0.857712 0.105821 0.657891
Si Si8 0.052638 0.779388 0.625180
O O1 0.811303 0.700070 0.703002
O O2 0.871392 0.564274 0.728291
O O3 0.145790 0.637728 0.247718
O O4 0.051116 0.698913 0.550053
O O5 0.709824 0.852577 0.771497
O O6 0.841913 0.954783 0.464799
O O7 0.022025 0.923078 0.403138
O O8 0.743748 0.025563 0.762054
O O9 0.476675 0.795862 0.283582
O O10 0.235164 0.813394 0.449681
O O11 0.377454 0.958529 0.357762
O O12 0.449236 0.234813 0.621563
O O13 0.101568 0.242834 0.089168
O O14 0.609200 0.861652 0.670106
O O15 0.278238 0.817221 0.136704
O O16 0.991282 0.141113 0.393699
#
# Coordination Sequence:
#
# PCOD9243613 Si02
#       8
#     4   4   4   4   4   4   4   4
#     4  11  21  42  69  88 124 171 216 257 305 382
#     4  10  20  38  61  90 126 155 219 254 303 380
#     4  11  24  43  66  94 125 170 218 256 319 387
#     4  10  22  39  61  91 127 165 208 251 321 376
#     4  11  24  41  61  93 135 162 206 265 325 381
#     4  11  24  43  62  97 128 167 211 268 319 373
#     4  11  21  38  62  96 122 165 209 263 308 373
#     4  11  19  39  67  88 120 170 211 255 309 369
#
# _framework density 22.009045
#
# number of rings (size 3 to 8) (size 9 to 14) (size 15 to 20)
#    0.000    1.250    6.250    1.125    0.000    3.000 
#    6.750    0.625    0.000    0.000    0.000    0.000 
#    0.000    0.000    0.000    0.000    0.000    0.000 
#
# Total GULP energy -178553.069142 kJ/mol
# GULP energy per Si atom -5579.783411 kJ/mol
# Density = 2.195895 g / cm^3
# Si number density = 22.009045 Si / 1000 Ang^3
#
#
#
# Elastic Constant Matrix: (Units=GPa)
#
#
# Indices 1 2 3 4 5 6 
#
# 1 106.2928 50.7403 6.4413 0.0000 12.9838 0.0000
# 2 50.7403 125.8889 14.3099 0.0000 0.1039 0.0000
# 3 6.4413 14.3099 48.1632 0.0000 11.1621 0.0000
# 4 0.0000 0.0000 0.0000 22.0031 0.0000 -6.0475
# 5 12.9838 0.1039 11.1621 0.0000 21.1084 0.0000
# 6 0.0000 0.0000 0.0000 -6.0475 0.0000 29.9490
#
#
#
# Elastic Compliance Matrix: (Units=1/GPa)
#
#
# Indices 1 2 3 4 5 6 
#
# 1 0.012992 -0.005453 0.001970 0.000000 -0.009006 0.000000
# 2 -0.005453 0.010548 -0.003613 0.000000 0.005212 0.000000
# 3 0.001970 -0.003613 0.024901 0.000000 -0.014361 0.000000
# 4 0.000000 0.000000 0.000000 0.048119 0.000000 0.009716
# 5 -0.009006 0.005212 -0.014361 0.000000 0.060483 0.000000
# 6 0.000000 0.000000 0.000000 0.009716 0.000000 0.035352
#
#
# Mechanical properties :
#
#
# Convention : Reuss Voigt Hill
#
# Bulk Modulus (GPa) = 29.19793 47.03643 38.11718
# Shear Modulus (GPa) = 22.93563 28.53567 25.73565
#
# Velocity S-wave (km/s) = 3.23166 3.60466 3.42324
# Velocity P-wave (km/s) = 5.21728 6.22435 5.74293
#
# Compressibility (1/GPa) = 0.03424900
#
# Stress axis : x y z
#
# Youngs Moduli (GPa) = 76.97228 94.80774 40.15910
#
# Poissons Ratio (x) = 0.51697 -0.07911
# Poissons Ratio (y) = 0.41972 0.14508
# Poissons Ratio (z) = -0.15162 0.34250
#
# Static dielectric constant tensor:
#      x y z
#    x 1.806980 0.000000 -0.000980 
#    y 0.000000 1.842550 0.000000 
#    z -0.000980 0.000000 1.871400 
# 
# From -- ./inp_files/34160.got.cif
#   From: 2010.05.17/outbox.cif.g08.bks.cpg/sg14_18_cif.got.tgz:34160.got - 2010.06.03 17:49:19.
