data_PCOD9243918
_publ_section_title
;
Structure prediction by ZEFSAII (Michael W. Deem and Ramdas Pophale) SiO2 
 PCOD9243918
Probable space group: P 21/C
;
_chemical_formula_sum "Si O2"
_cell_formula_units_Z 32
_cell_length_a 22.055920
_cell_length_b 8.557990
_cell_length_c 28.306141
_cell_angle_alpha 90.000000
_cell_angle_beta 14.816670
_cell_angle_gamma 90.000000
_cell_volume 1366.325808
_symmetry_space_group_name_H-M "P 21/C"
_symmetry_group_IT_number 14
_symmetry_cell_setting 'monoclinic'
loop_
_space_group_symop_operation_xyz
x,y,z
-x,1/2+y,1/2-z
-x,-y,-z
x,1/2-y,1/2+z
loop_
_atom_site_type_symbol
_atom_site_label
_atom_site_fract_x
_atom_site_fract_y
_atom_site_fract_z
Si Si1 0.882975 0.443442 0.472631
Si Si2 0.924792 0.071256 0.607001
Si Si3 0.174725 0.401184 0.094081
Si Si4 0.431176 0.224084 0.974033
Si Si5 0.120326 0.856313 0.720279
Si Si6 0.393074 0.427108 0.137466
Si Si7 0.814887 0.889833 0.111026
Si Si8 0.048991 0.881836 0.608713
O O1 0.923001 0.579632 0.404665
O O2 0.149658 0.407864 0.292832
O O3 0.810630 0.279285 0.505647
O O4 0.733075 0.504752 0.629303
O O5 0.643348 0.102069 0.818221
O O6 0.057953 0.239000 0.506170
O O7 0.992598 0.967367 0.601452
O O8 0.000000 0.000000 0.500000
O O9 0.138896 0.513357 0.165729
O O10 0.940812 0.304042 0.257995
O O11 0.199276 0.506079 0.029434
O O12 0.357115 0.270151 0.975965
O O13 0.539172 0.390242 0.910142
O O14 0.195625 0.167548 0.179314
O O15 0.369771 0.845523 0.559597
O O16 0.366525 0.357165 0.210479
O O17 0.000000 0.000000 0.000000
#
# Coordination Sequence:
#
# PCOD9243918 Si02
#       8
#     4   4   4   4   4   4   4   4
#     4  11  20  38  65 101 128 174 227 277 350 398
#     4  12  25  43  70 106 141 177 230 296 349 409
#     4  11  23  43  63  97 135 177 221 278 342 405
#     4  11  23  44  67  99 137 181 226 286 350 411
#     4  11  21  39  66  88 131 171 227 274 337 408
#     4  10  21  37  67  96 126 174 230 274 343 410
#     4  10  20  39  61  93 133 178 214 275 346 404
#     4  12  25  40  70 104 137 173 230 291 347 407
#
# _framework density 23.420475
#
# number of rings (size 3 to 8) (size 9 to 14) (size 15 to 20)
#    0.000    1.000    6.250    3.000    0.000    2.000 
#    0.000    0.000   11.000    1.500    0.000    0.000 
#    0.000    0.000    0.000    0.000    0.000    0.000 
#
# Total GULP energy -178794.342389 kJ/mol
# GULP energy per Si atom -5587.323200 kJ/mol
# Density = 2.336717 g / cm^3
# Si number density = 23.420475 Si / 1000 Ang^3
#
#
#
# Elastic Constant Matrix: (Units=GPa)
#
#
# Indices 1 2 3 4 5 6 
#
# 1 126.1490 19.8570 26.1969 0.0000 19.1265 0.0000
# 2 19.8570 73.6742 19.9771 0.0000 7.4097 0.0000
# 3 26.1969 19.9771 53.0587 0.0000 5.4580 0.0000
# 4 0.0000 0.0000 0.0000 23.9051 0.0000 6.2872
# 5 19.1265 7.4097 5.4580 0.0000 27.4132 0.0000
# 6 0.0000 0.0000 0.0000 6.2872 0.0000 48.9372
#
#
#
# Elastic Compliance Matrix: (Units=1/GPa)
#
#
# Indices 1 2 3 4 5 6 
#
# 1 0.009759 -0.001007 -0.003846 0.000000 -0.005771 0.000000
# 2 -0.001007 0.015469 -0.005073 0.000000 -0.002468 0.000000
# 3 -0.003846 -0.005073 0.022704 0.000000 -0.000466 0.000000
# 4 0.000000 0.000000 0.000000 0.043295 0.000000 -0.005562
# 5 -0.005771 -0.002468 -0.000466 0.000000 0.041265 0.000000
# 6 0.000000 0.000000 0.000000 -0.005562 0.000000 0.021149
#
#
# Mechanical properties :
#
#
# Convention : Reuss Voigt Hill
#
# Bulk Modulus (GPa) = 35.61230 42.77158 39.19194
# Shear Modulus (GPa) = 27.34449 32.50783 29.92616
#
# Velocity S-wave (km/s) = 3.42064 3.72964 3.57848
# Velocity P-wave (km/s) = 5.55335 6.07034 5.81759
#
# Compressibility (1/GPa) = 0.02808019
#
# Stress axis : x y z
#
# Youngs Moduli (GPa) = 102.46626 64.64745 44.04575
#
# Poissons Ratio (x) = 0.06511 0.16938
# Poissons Ratio (y) = 0.10320 0.22344
# Poissons Ratio (z) = 0.39405 0.32795
#
# Static dielectric constant tensor:
#      x y z
#    x 1.931760 0.000000 0.022800 
#    y 0.000000 1.904370 0.000000 
#    z 0.022800 0.000000 1.949100 
# 
# From -- ./inp_files/77964.got.cif
#   From: 2010.05.17/outbox.cif.g08.bks.cpg/sg14_39_cif.got.tgz:77964.got - 2010.06.03 17:49:19.
