data_PCOD9243782
_publ_section_title
;
Structure prediction by ZEFSAII (Michael W. Deem and Ramdas Pophale) SiO2 
 PCOD9243782
Probable space group: P 21/C
;
_chemical_formula_sum "Si O2"
_cell_formula_units_Z 20
_cell_length_a 4.949080
_cell_length_b 7.612946
_cell_length_c 24.337538
_cell_angle_alpha 90.000000
_cell_angle_beta 70.115778
_cell_angle_gamma 90.000000
_cell_volume 862.299417
_symmetry_space_group_name_H-M "P 21/C"
_symmetry_group_IT_number 14
_symmetry_cell_setting 'monoclinic'
loop_
_space_group_symop_operation_xyz
x,y,z
-x,1/2+y,1/2-z
-x,-y,-z
x,1/2-y,1/2+z
loop_
_atom_site_type_symbol
_atom_site_label
_atom_site_fract_x
_atom_site_fract_y
_atom_site_fract_z
Si Si1 0.874210 0.079734 0.139401
Si Si2 0.772692 0.626922 0.487463
Si Si3 0.241437 0.203132 0.205084
Si Si4 0.958165 0.072125 0.331584
Si Si5 0.673872 0.705977 0.103480
O O1 0.579899 0.181656 0.172099
O O2 0.062541 0.063244 0.181135
O O3 0.775840 0.893280 0.121297
O O4 0.087323 0.171053 0.080587
O O5 0.500000 0.500000 0.500000
O O6 0.713348 0.781278 0.534959
O O7 0.000000 0.500000 0.500000
O O8 0.125685 0.386319 0.189311
O O9 0.162933 0.168995 0.273485
O O10 0.657803 0.171236 0.361190
O O11 0.128984 0.068715 0.377259
#
# Coordination Sequence:
#
# PCOD9243782 Si02
#       5
#     4   4   4   4   4
#     4  11  22  41  66  93 123 164 211 258 308 372
#     4  10  20  38  65  96 125 162 209 256 307 374
#     4  12  25  42  62  91 127 167 209 260 317 375
#     4  12  25  42  62  91 127 167 209 260 317 375
#     4  11  22  41  66  93 123 164 211 258 308 372
#
# _framework density 23.1938
#
# number of rings (size 3 to 8) (size 9 to 14) (size 15 to 20)
#    0.000    0.800    0.000   10.800    0.000    0.000 
#    0.000    6.000    0.000    0.000    0.000    0.000 
#    0.000    0.000    0.000    0.000    0.000    0.000 
#
# Total GULP energy -111938.742246 kJ/mol
# GULP energy per Si atom -5596.937112 kJ/mol
# Density = 2.314101 g / cm^3
# Si number density = 23.193800 Si / 1000 Ang^3
#
#
#
# Elastic Constant Matrix: (Units=GPa)
#
#
# Indices 1 2 3 4 5 6 
#
# 1 151.3792 -7.3169 41.5137 0.0000 -24.4545 0.0000
# 2 -7.3169 47.7605 10.1467 0.0000 -18.6577 0.0000
# 3 41.5137 10.1467 126.4104 0.0000 -21.2857 0.0000
# 4 0.0000 0.0000 0.0000 29.5240 0.0000 -0.9912
# 5 -24.4545 -18.6577 -21.2857 0.0000 43.0924 0.0000
# 6 0.0000 0.0000 0.0000 -0.9912 0.0000 33.0876
#
#
#
# Elastic Compliance Matrix: (Units=1/GPa)
#
#
# Indices 1 2 3 4 5 6 
#
# 1 0.008215 0.003756 -0.002116 0.000000 0.005243 0.000000
# 2 0.003756 0.026922 -0.001170 0.000000 0.013210 0.000000
# 3 -0.002116 -0.001170 0.009175 0.000000 0.002824 0.000000
# 4 0.000000 0.000000 0.000000 0.033905 0.000000 0.001016
# 5 0.005243 0.013210 0.002824 0.000000 0.033296 0.000000
# 6 0.000000 0.000000 0.000000 0.001016 0.000000 0.030253
#
#
# Mechanical properties :
#
#
# Convention : Reuss Voigt Hill
#
# Bulk Modulus (GPa) = 22.09857 46.02633 34.06245
# Shear Modulus (GPa) = 32.06951 39.88791 35.97871
#
# Velocity S-wave (km/s) = 3.72247 4.15151 3.94283
# Velocity P-wave (km/s) = 5.29379 6.54731 5.95363
#
# Compressibility (1/GPa) = 0.04525181
#
# Stress axis : x y z
#
# Youngs Moduli (GPa) = 121.73093 37.14374 108.98785
#
# Poissons Ratio (x) = -0.13952 0.23067
# Poissons Ratio (y) = -0.45725 0.12753
# Poissons Ratio (z) = 0.25764 0.04346
#
# Static dielectric constant tensor:
#      x y z
#    x 1.801380 0.000000 0.030780 
#    y 0.000000 1.928640 0.000000 
#    z 0.030780 0.000000 1.901880 
# 
# From -- ./inp_files/70963.got.cif
#   From: 2010.05.17/outbox.cif.g08.bks.cpg/sg14_36_cif.got.tgz:70963.got - 2010.06.03 17:49:19.
