data_PCOD9243864
_publ_section_title
;
Structure prediction by ZEFSAII (Michael W. Deem and Ramdas Pophale) SiO2 
 PCOD9243864
Probable space group: P 21/C
;
_chemical_formula_sum "Si O2"
_cell_formula_units_Z 20
_cell_length_a 7.314122
_cell_length_b 12.071833
_cell_length_c 16.193170
_cell_angle_alpha 90.000000
_cell_angle_beta 149.662043
_cell_angle_gamma 90.000000
_cell_volume 722.177951
_symmetry_space_group_name_H-M "P 21/C"
_symmetry_group_IT_number 14
_symmetry_cell_setting 'monoclinic'
loop_
_space_group_symop_operation_xyz
x,y,z
-x,1/2+y,1/2-z
-x,-y,-z
x,1/2-y,1/2+z
loop_
_atom_site_type_symbol
_atom_site_label
_atom_site_fract_x
_atom_site_fract_y
_atom_site_fract_z
Si Si1 0.898878 0.835704 0.478514
Si Si2 0.310909 0.099458 0.153888
Si Si3 0.650425 0.903622 0.206423
Si Si4 0.705206 0.131814 0.634163
Si Si5 0.789456 0.673681 0.207470
O O1 0.853733 0.703238 0.459443
O O2 0.888312 0.882331 0.381624
O O3 0.533897 0.882012 0.378622
O O4 0.258415 0.871653 0.665236
O O5 0.168108 0.104115 0.192774
O O6 0.344134 0.988095 0.113114
O O7 0.540329 0.779197 0.139311
O O8 0.073419 0.063836 0.759169
O O9 0.425165 0.118299 0.449936
O O10 0.858629 0.259304 0.687502
#
# Coordination Sequence:
#
# PCOD9243864 Si02
#       5
#     4   4   4   4   4
#     4  11  22  37  65  85 116 159 190 238 291 342
#     4  11  20  42  61  85 117 157 192 237 292 344
#     4   9  22  38  61  84 121 148 199 232 289 347
#     4  10  20  39  58  85 118 151 192 240 288 335
#     4   9  19  38  58  82 119 151 185 249 279 334
#
# _framework density 27.694004
#
# number of rings (size 3 to 8) (size 9 to 14) (size 15 to 20)
#    1.200    0.800    2.000    1.800    0.000    0.800 
#    3.600   10.000    0.000    0.000    0.000    0.000 
#    0.000    0.000    0.000    0.000    0.000    0.000 
#
# Total GULP energy -111998.230672 kJ/mol
# GULP energy per Si atom -5599.911534 kJ/mol
# Density = 2.763097 g / cm^3
# Si number density = 27.694004 Si / 1000 Ang^3
#
#
#
# Elastic Constant Matrix: (Units=GPa)
#
#
# Indices 1 2 3 4 5 6 
#
# 1 140.7344 -7.6803 -2.6127 0.0000 17.6610 0.0000
# 2 -7.6803 114.4361 3.9030 0.0000 -11.8923 0.0000
# 3 -2.6127 3.9030 59.3237 0.0000 1.1224 0.0000
# 4 0.0000 0.0000 0.0000 38.0333 0.0000 12.3137
# 5 17.6610 -11.8923 1.1224 0.0000 29.1243 0.0000
# 6 0.0000 0.0000 0.0000 12.3137 0.0000 42.7882
#
#
#
# Elastic Compliance Matrix: (Units=1/GPa)
#
#
# Indices 1 2 3 4 5 6 
#
# 1 0.007702 0.000016 0.000427 0.000000 -0.004680 0.000000
# 2 0.000016 0.009153 -0.000672 0.000000 0.003753 0.000000
# 3 0.000427 -0.000672 0.016942 0.000000 -0.001186 0.000000
# 4 0.000000 0.000000 0.000000 0.028994 0.000000 -0.008344
# 5 -0.004680 0.003753 -0.001186 0.000000 0.038752 0.000000
# 6 0.000000 0.000000 0.000000 -0.008344 0.000000 0.025772
#
#
# Mechanical properties :
#
#
# Convention : Reuss Voigt Hill
#
# Bulk Modulus (GPa) = 29.99687 33.52379 31.76033
# Shear Modulus (GPa) = 36.00054 43.38145 39.69099
#
# Velocity S-wave (km/s) = 3.60938 3.96214 3.78987
# Velocity P-wave (km/s) = 5.31274 5.75002 5.53570
#
# Compressibility (1/GPa) = 0.03333681
#
# Stress axis : x y z
#
# Youngs Moduli (GPa) = 129.84129 109.25895 59.02440
#
# Poissons Ratio (x) = -0.00174 -0.02519
# Poissons Ratio (y) = -0.00207 0.03969
# Poissons Ratio (z) = -0.05540 0.07347
#
# Static dielectric constant tensor:
#      x y z
#    x 2.155030 0.000000 0.067090 
#    y 0.000000 2.311990 0.000000 
#    z 0.067090 0.000000 2.092170 
# 
# From -- ./inp_files/12540.got.cif
#   From: 2010.05.17/outbox.cif.g08.bks.cpg/sg14_7_cif.got.tgz:12540.got - 2010.06.03 17:49:19.
