data_PCOD9243165
_publ_section_title
;
Structure prediction by ZEFSAII (Michael W. Deem and Ramdas Pophale) SiO2 
 PCOD9243165
Probable space group: P 21/C
;
_chemical_formula_sum "Si O2"
_cell_formula_units_Z 32
_cell_length_a 9.186418
_cell_length_b 16.541365
_cell_length_c 11.268733
_cell_angle_alpha 90.000000
_cell_angle_beta 133.721776
_cell_angle_gamma 90.000000
_cell_volume 1237.523357
_symmetry_space_group_name_H-M "P 21/C"
_symmetry_group_IT_number 14
_symmetry_cell_setting 'monoclinic'
loop_
_space_group_symop_operation_xyz
x,y,z
-x,1/2+y,1/2-z
-x,-y,-z
x,1/2-y,1/2+z
loop_
_atom_site_type_symbol
_atom_site_label
_atom_site_fract_x
_atom_site_fract_y
_atom_site_fract_z
Si Si1 0.592414 0.759693 0.879138
Si Si2 0.093031 0.427119 0.780703
Si Si3 0.265366 0.641971 0.036591
Si Si4 0.957586 0.721996 0.407767
Si Si5 0.765273 0.026105 0.278551
Si Si6 0.771879 0.083110 0.930977
Si Si7 0.529398 0.087646 0.588345
Si Si8 0.556510 0.613410 0.556385
O O1 0.536994 0.668335 0.877612
O O2 0.615037 0.806929 0.017530
O O3 0.786150 0.759252 0.904405
O O4 0.426218 0.807762 0.707046
O O5 0.108589 0.335917 0.738323
O O6 0.952640 0.433500 0.816350
O O7 0.944128 0.467400 0.597643
O O8 0.321032 0.453106 0.929609
O O9 0.073880 0.700436 0.927046
O O10 0.220629 0.558881 0.081468
O O11 0.348496 0.621640 0.954477
O O12 0.112507 0.659679 0.559033
O O13 0.736953 0.933222 0.224482
O O14 0.552069 0.060168 0.107412
O O15 0.647610 0.040143 0.759024
O O16 0.622567 0.119036 0.947795
#
# Coordination Sequence:
#
# PCOD9243165 Si02
#       8
#     4   4   4   4   4   4   4   4
#     4  11  21  35  59  90 123 157 210 249 307 381
#     4   9  20  39  59  89 123 150 208 247 298 368
#     4  11  21  36  57  90 126 155 207 253 308 375
#     4  10  20  37  54  88 123 152 192 258 306 353
#     4   9  19  38  63  88 121 170 206 253 302 365
#     4   9  20  39  59  87 122 155 201 250 300 364
#     4  12  22  36  63  89 123 164 192 258 324 348
#     4   9  19  38  64  86 122 169 209 249 305 364
#
# _framework density 25.858097000000001
#
# number of rings (size 3 to 8) (size 9 to 14) (size 15 to 20)
#    0.750    1.250    2.500    1.500    1.750    1.000 
#    0.000    4.375    0.000    0.000    0.000    0.000 
#    0.000    0.000    0.000    0.000    0.000    0.000 
#
# Total GULP energy -179038.005513 kJ/mol
# GULP energy per Si atom -5594.937672 kJ/mol
# Density = 2.579924 g / cm^3
# Si number density = 25.858097 Si / 1000 Ang^3
#
#
#
# Elastic Constant Matrix: (Units=GPa)
#
#
# Indices 1 2 3 4 5 6 
#
# 1 161.9014 11.2742 49.3444 0.0000 -7.7426 0.0000
# 2 11.2742 50.9918 13.6921 0.0000 -5.4711 0.0000
# 3 49.3444 13.6921 141.0837 0.0000 1.5115 0.0000
# 4 0.0000 0.0000 0.0000 43.4899 0.0000 -5.4036
# 5 -7.7426 -5.4711 1.5115 0.0000 32.3676 0.0000
# 6 0.0000 0.0000 0.0000 -5.4036 0.0000 34.5779
#
#
#
# Elastic Compliance Matrix: (Units=1/GPa)
#
#
# Indices 1 2 3 4 5 6 
#
# 1 0.007042 -0.000730 -0.002410 0.000000 0.001674 0.000000
# 2 -0.000730 0.020615 -0.001782 0.000000 0.003393 0.000000
# 3 -0.002410 -0.001782 0.008117 0.000000 -0.001257 0.000000
# 4 0.000000 0.000000 0.000000 0.023449 0.000000 0.003665
# 5 0.001674 0.003393 -0.001257 0.000000 0.031928 0.000000
# 6 0.000000 0.000000 0.000000 0.003665 0.000000 0.029493
#
#
# Mechanical properties :
#
#
# Convention : Reuss Voigt Hill
#
# Bulk Modulus (GPa) = 38.56478 55.84425 47.20451
# Shear Modulus (GPa) = 35.93729 40.73147 38.33438
#
# Velocity S-wave (km/s) = 3.73203 3.97317 3.85449
# Velocity P-wave (km/s) = 5.78940 6.53387 6.17287
#
# Compressibility (1/GPa) = 0.02593040
#
# Stress axis : x y z
#
# Youngs Moduli (GPa) = 142.00471 48.50857 123.19408
#
# Poissons Ratio (x) = 0.03542 0.29690
# Poissons Ratio (y) = 0.10370 0.21948
# Poissons Ratio (z) = 0.34223 0.08642
#
# Static dielectric constant tensor:
#      x y z
#    x 1.969490 0.000000 0.031310 
#    y 0.000000 2.037890 0.000000 
#    z 0.031310 0.000000 2.170440 
# 
# From -- ./inp_files/26801.got.cif
#   From: 2010.05.17/outbox.cif.g08.bks.cpg/sg14_14_cif.got.tgz:26801.got - 2010.06.03 17:49:19.
