data_PCOD9243898
_publ_section_title
;
Structure prediction by ZEFSAII (Michael W. Deem and Ramdas Pophale) SiO2 
 PCOD9243898
Probable space group: P 21/C
;
_chemical_formula_sum "Si O2"
_cell_formula_units_Z 28
_cell_length_a 17.414039
_cell_length_b 8.263735
_cell_length_c 14.157621
_cell_angle_alpha 90.000000
_cell_angle_beta 42.919869
_cell_angle_gamma 90.000000
_cell_volume 1387.385832
_symmetry_space_group_name_H-M "P 21/C"
_symmetry_group_IT_number 14
_symmetry_cell_setting 'monoclinic'
loop_
_space_group_symop_operation_xyz
x,y,z
-x,1/2+y,1/2-z
-x,-y,-z
x,1/2-y,1/2+z
loop_
_atom_site_type_symbol
_atom_site_label
_atom_site_fract_x
_atom_site_fract_y
_atom_site_fract_z
Si Si1 0.101322 0.931293 0.229821
Si Si2 0.336759 0.888940 0.963107
Si Si3 0.383590 0.895432 0.703832
Si Si4 0.267359 0.150743 0.155298
Si Si5 0.958989 0.865160 0.901927
Si Si6 0.467574 0.245249 0.081430
Si Si7 0.823083 0.525338 0.700658
O O1 0.997647 0.818188 0.349071
O O2 0.153164 0.044640 0.265668
O O3 0.211138 0.823663 0.101121
O O4 0.073483 0.046101 0.166000
O O5 0.361669 0.861922 0.832114
O O6 0.438258 0.822095 0.934085
O O7 0.320130 0.075797 0.012056
O O8 0.473377 0.781745 0.572210
O O9 0.426114 0.080810 0.656209
O O10 0.267934 0.892384 0.748181
O O11 0.359448 0.134645 0.155338
O O12 0.235087 0.338078 0.182745
O O13 0.068412 0.953361 0.847013
O O14 0.862464 0.888308 0.067459
#
# Coordination Sequence:
#
# PCOD9243898 Si02
#       7
#     4   4   4   4   4   4   4
#     4  10  22  37  57  86 115 150 204 239 297 353
#     4  10  21  38  58  87 118 153 192 247 288 362
#     4  10  21  38  60  89 117 157 195 244 298 364
#     4   9  21  38  59  86 120 151 195 252 289 361
#     4  11  21  37  61  82 116 159 193 252 295 349
#     4  10  21  38  62  87 120 154 197 241 303 353
#     4  10  20  39  61  82 117 156 197 245 305 344
#
# _framework density 20.181840999999999
#
# number of rings (size 3 to 8) (size 9 to 14) (size 15 to 20)
#    0.857    1.143    1.429    2.143    2.000    0.571 
#    0.000    1.429    0.000    0.000    0.000    0.000 
#    0.000    0.000    0.000    0.000    0.000    0.000 
#
# Total GULP energy -156055.832911 kJ/mol
# GULP energy per Si atom -5573.422604 kJ/mol
# Density = 2.013591 g / cm^3
# Si number density = 20.181841 Si / 1000 Ang^3
#
#
#
# Elastic Constant Matrix: (Units=GPa)
#
#
# Indices 1 2 3 4 5 6 
#
# 1 89.7383 33.4201 11.0475 0.0000 -13.7713 0.0000
# 2 33.4201 31.9259 4.6505 0.0000 0.3982 0.0000
# 3 11.0475 4.6505 36.0813 0.0000 4.7213 0.0000
# 4 0.0000 0.0000 0.0000 15.5646 0.0000 -5.7410
# 5 -13.7713 0.3982 4.7213 0.0000 25.1002 0.0000
# 6 0.0000 0.0000 0.0000 -5.7410 0.0000 28.7377
#
#
#
# Elastic Compliance Matrix: (Units=1/GPa)
#
#
# Indices 1 2 3 4 5 6 
#
# 1 0.022481 -0.022869 -0.005738 0.000000 0.013776 0.000000
# 2 -0.022869 0.055187 0.001687 0.000000 -0.013740 0.000000
# 3 -0.005738 0.001687 0.030419 0.000000 -0.008897 0.000000
# 4 0.000000 0.000000 0.000000 0.069359 0.000000 0.013856
# 5 0.013776 -0.013740 -0.008897 0.000000 0.049290 0.000000
# 6 0.000000 0.000000 0.000000 0.013856 0.000000 0.037566
#
#
# Mechanical properties :
#
#
# Convention : Reuss Voigt Hill
#
# Bulk Modulus (GPa) = 18.43442 28.44240 23.43841
# Shear Modulus (GPa) = 14.87099 21.12231 17.99665
#
# Velocity S-wave (km/s) = 2.71744 3.23863 2.98942
# Velocity P-wave (km/s) = 4.35890 5.30176 4.85328
#
# Compressibility (1/GPa) = 0.05424636
#
# Stress axis : x y z
#
# Youngs Moduli (GPa) = 44.48232 18.12010 32.87425
#
# Poissons Ratio (x) = 0.41439 0.18864
# Poissons Ratio (y) = 1.01726 -0.05545
# Poissons Ratio (z) = 0.25525 -0.03057
#
# Static dielectric constant tensor:
#      x y z
#    x 1.714990 0.000000 -0.043090 
#    y 0.000000 1.730650 0.000000 
#    z -0.043090 0.000000 1.724100 
# 
# From -- ./inp_files/48527.got.cif
#   From: 2010.05.17/outbox.cif.g08.bks.cpg/sg14_25_cif.got.tgz:48527.got - 2010.06.03 17:49:19.
