data_PCOD9243095
_publ_section_title
;
Structure prediction by ZEFSAII (Michael W. Deem and Ramdas Pophale) SiO2 
 PCOD9243095
Probable space group: P 21/C
;
_chemical_formula_sum "Si O2"
_cell_formula_units_Z 32
_cell_length_a 9.274775
_cell_length_b 12.051315
_cell_length_c 15.381588
_cell_angle_alpha 90.000000
_cell_angle_beta 49.918088
_cell_angle_gamma 90.000000
_cell_volume 1315.440543
_symmetry_space_group_name_H-M "P 21/C"
_symmetry_group_IT_number 14
_symmetry_cell_setting 'monoclinic'
loop_
_space_group_symop_operation_xyz
x,y,z
-x,1/2+y,1/2-z
-x,-y,-z
x,1/2-y,1/2+z
loop_
_atom_site_type_symbol
_atom_site_label
_atom_site_fract_x
_atom_site_fract_y
_atom_site_fract_z
Si Si1 0.110968 0.609355 0.351264
Si Si2 0.362772 0.394255 0.033732
Si Si3 0.165661 0.126149 0.896376
Si Si4 0.390348 0.764928 0.160477
Si Si5 0.163290 0.750836 0.565649
Si Si6 0.420825 0.498694 0.628188
Si Si7 0.986374 0.468504 0.804690
Si Si8 0.544801 0.752629 0.335618
O O1 0.200938 0.504700 0.366993
O O2 0.248462 0.713468 0.285247
O O3 0.079088 0.564033 0.266609
O O4 0.916540 0.641128 0.474576
O O5 0.156003 0.441707 0.101920
O O6 0.360024 0.309764 0.116176
O O7 0.500000 0.500000 0.000000
O O8 0.452677 0.327423 0.919917
O O9 0.328250 0.201956 0.791675
O O10 0.973484 0.154959 0.914895
O O11 0.274802 0.773665 0.112701
O O12 0.479995 0.884072 0.145336
O O13 0.033017 0.856584 0.633062
O O14 0.326328 0.784815 0.434533
O O15 0.500000 0.500000 0.500000
O O16 0.461999 0.380323 0.654584
O O17 0.196671 0.507560 0.717773
#
# Coordination Sequence:
#
# PCOD9243095 Si02
#       8
#     4   4   4   4   4   4   4   4
#     4  10  22  36  64  87 125 155 210 252 301 363
#     4  11  17  33  60  89 117 146 203 263 295 353
#     4  11  21  40  61  91 123 165 199 259 305 368
#     4  10  21  38  58  92 121 153 202 259 303 365
#     4  10  20  36  63  87 120 157 203 255 308 365
#     4  12  23  37  57  95 125 158 198 261 320 355
#     4  11  21  37  64  96 121 162 207 259 312 364
#     4  11  21  35  62  86 122 161 205 245 311 372
#
# _framework density 24.326450000000001
#
# number of rings (size 3 to 8) (size 9 to 14) (size 15 to 20)
#    0.000    1.250    8.750    0.750    0.000    0.000 
#    0.000    1.875    0.000    0.000    0.000    0.000 
#    0.000    0.000    0.000    0.000    0.000    0.000 
#
# Total GULP energy -179119.180020 kJ/mol
# GULP energy per Si atom -5597.474376 kJ/mol
# Density = 2.427108 g / cm^3
# Si number density = 24.326450 Si / 1000 Ang^3
#
#
#
# Elastic Constant Matrix: (Units=GPa)
#
#
# Indices 1 2 3 4 5 6 
#
# 1 35.5006 3.8688 12.7488 0.0000 -2.8033 0.0000
# 2 3.8688 161.3185 75.0355 0.0000 -7.8852 0.0000
# 3 12.7488 75.0355 168.5263 0.0000 -29.0610 0.0000
# 4 0.0000 0.0000 0.0000 49.7470 0.0000 -11.3327
# 5 -2.8033 -7.8852 -29.0610 0.0000 32.6050 0.0000
# 6 0.0000 0.0000 0.0000 -11.3327 0.0000 25.5630
#
#
#
# Elastic Compliance Matrix: (Units=1/GPa)
#
#
# Indices 1 2 3 4 5 6 
#
# 1 0.028985 0.000387 -0.002268 0.000000 0.000564 0.000000
# 2 0.000387 0.007880 -0.003785 0.000000 -0.001435 0.000000
# 3 -0.002268 -0.003785 0.008979 0.000000 0.006893 0.000000
# 4 0.000000 0.000000 0.000000 0.022360 0.000000 0.009913
# 5 0.000564 -0.001435 0.006893 0.000000 0.036515 0.000000
# 6 0.000000 0.000000 0.000000 0.009913 0.000000 0.043514
#
#
# Mechanical properties :
#
#
# Convention : Reuss Voigt Hill
#
# Bulk Modulus (GPa) = 28.97445 60.96129 44.96787
# Shear Modulus (GPa) = 29.22783 39.82916 34.52850
#
# Velocity S-wave (km/s) = 3.47000 4.05072 3.77155
# Velocity P-wave (km/s) = 5.29066 6.85506 6.12303
#
# Compressibility (1/GPa) = 0.03451316
#
# Stress axis : x y z
#
# Youngs Moduli (GPa) = 34.50028 126.90020 111.36609
#
# Poissons Ratio (x) = -0.04915 0.25256
# Poissons Ratio (y) = -0.01336 0.42156
# Poissons Ratio (z) = 0.07824 0.48036
#
# Static dielectric constant tensor:
#      x y z
#    x 1.658250 0.000000 0.038970 
#    y 0.000000 2.580910 0.000000 
#    z 0.038970 0.000000 1.896970 
# 
# From -- ./inp_files/57710.got.cif
#   From: 2010.05.17/outbox.cif.g08.bks.cpg/sg14_29_cif.got.tgz:57710.got - 2010.06.03 17:49:19.
