data_PCOD9243892
_publ_section_title
;
Structure prediction by ZEFSAII (Michael W. Deem and Ramdas Pophale) SiO2 
 PCOD9243892
Probable space group: P 21/C
;
_chemical_formula_sum "Si O2"
_cell_formula_units_Z 32
_cell_length_a 13.394936
_cell_length_b 8.705212
_cell_length_c 11.806737
_cell_angle_alpha 90.000000
_cell_angle_beta 71.107564
_cell_angle_gamma 90.000000
_cell_volume 1302.566281
_symmetry_space_group_name_H-M "P 21/C"
_symmetry_group_IT_number 14
_symmetry_cell_setting 'monoclinic'
loop_
_space_group_symop_operation_xyz
x,y,z
-x,1/2+y,1/2-z
-x,-y,-z
x,1/2-y,1/2+z
loop_
_atom_site_type_symbol
_atom_site_label
_atom_site_fract_x
_atom_site_fract_y
_atom_site_fract_z
Si Si1 0.690923 0.096433 0.515721
Si Si2 0.069535 0.587755 0.379454
Si Si3 0.889873 0.060033 0.578844
Si Si4 0.534483 0.838054 0.112319
Si Si5 0.863270 0.601574 0.321110
Si Si6 0.419002 0.404232 0.747376
Si Si7 0.317894 0.174778 0.624885
Si Si8 0.269881 0.944690 0.934147
O O1 0.809868 0.054636 0.505226
O O2 0.687168 0.277584 0.541605
O O3 0.624026 0.009389 0.635910
O O4 0.669595 0.006892 0.405807
O O5 0.091001 0.764845 0.396102
O O6 0.190179 0.530747 0.355701
O O7 0.000000 0.500000 0.500000
O O8 0.988631 0.591368 0.303182
O O9 0.849343 0.965553 0.701217
O O10 0.000000 0.000000 0.500000
O O11 0.499901 0.708866 0.216159
O O12 0.446394 0.971119 0.139905
O O13 0.631543 0.944950 0.116763
O O14 0.587165 0.746859 0.989240
O O15 0.801012 0.763495 0.359992
O O16 0.801923 0.495978 0.433327
O O17 0.341700 0.274761 0.727126
#
# Coordination Sequence:
#
# PCOD9243892 Si02
#       8
#     4   4   4   4   4   4   4   4
#     4  10  21  40  62  91 127 159 207 261 300 374
#     4   9  20  38  59  85 123 162 206 250 301 360
#     4  11  22  38  58  88 122 165 206 253 307 357
#     4  10  22  39  64  90 124 163 204 257 307 368
#     4  10  20  39  60  90 124 167 206 250 311 364
#     4  11  21  41  64  93 124 162 203 252 320 362
#     4  10  21  40  63  93 124 160 207 251 313 372
#     4   9  20  41  60  87 128 161 208 254 305 362
#
# _framework density 24.566887999999999
#
# number of rings (size 3 to 8) (size 9 to 14) (size 15 to 20)
#    0.000    2.000    1.250    1.875    0.000    4.000 
#    9.000    6.875    0.000    0.000    0.000    0.000 
#    0.000    0.000    0.000    0.000    0.000    0.000 
#
# Total GULP energy -178231.730885 kJ/mol
# GULP energy per Si atom -5569.741590 kJ/mol
# Density = 2.451097 g / cm^3
# Si number density = 24.566888 Si / 1000 Ang^3
#
#
#
# Elastic Constant Matrix: (Units=GPa)
#
#
# Indices 1 2 3 4 5 6 
#
# 1 26.6850 15.6222 -2.4856 0.0000 2.8747 0.0000
# 2 15.6222 110.3639 30.9154 0.0000 4.0707 0.0000
# 3 -2.4856 30.9154 67.3336 0.0000 -9.3784 0.0000
# 4 0.0000 0.0000 0.0000 20.4343 0.0000 4.7478
# 5 2.8747 4.0707 -9.3784 0.0000 21.7902 0.0000
# 6 0.0000 0.0000 0.0000 4.7478 0.0000 25.7778
#
#
#
# Elastic Compliance Matrix: (Units=1/GPa)
#
#
# Indices 1 2 3 4 5 6 
#
# 1 0.042349 -0.007182 0.004542 0.000000 -0.002290 0.000000
# 2 -0.007182 0.012001 -0.006335 0.000000 -0.004021 0.000000
# 3 0.004542 -0.006335 0.019158 0.000000 0.008830 0.000000
# 4 0.000000 0.000000 0.000000 0.051125 0.000000 -0.009416
# 5 -0.002290 -0.004021 0.008830 0.000000 0.050746 0.000000
# 6 0.000000 0.000000 0.000000 -0.009416 0.000000 0.040527
#
#
# Mechanical properties :
#
#
# Convention : Reuss Voigt Hill
#
# Bulk Modulus (GPa) = 17.99989 32.49851 25.24920
# Shear Modulus (GPa) = 19.81183 24.28917 22.05050
#
# Velocity S-wave (km/s) = 2.84288 3.14776 2.99920
# Velocity P-wave (km/s) = 4.25661 5.14476 4.72161
#
# Compressibility (1/GPa) = 0.05555588
#
# Stress axis : x y z
#
# Youngs Moduli (GPa) = 23.61346 83.32979 52.19875
#
# Poissons Ratio (x) = 0.59851 -0.23709
# Poissons Ratio (y) = 0.16960 0.33068
# Poissons Ratio (z) = -0.10725 0.52790
#
# Static dielectric constant tensor:
#      x y z
#    x 1.920090 0.000000 0.092720 
#    y 0.000000 1.857950 0.000000 
#    z 0.092720 0.000000 2.010170 
# 
# From -- ./inp_files/46492.got.cif
#   From: 2010.05.17/outbox.cif.g08.bks.cpg/sg14_24_cif.got.tgz:46492.got - 2010.06.03 17:49:19.
