data_PCOD9243829
_publ_section_title
;
Structure prediction by ZEFSAII (Michael W. Deem and Ramdas Pophale) SiO2 
 PCOD9243829
Probable space group: P 21/C
;
_chemical_formula_sum "Si O2"
_cell_formula_units_Z 20
_cell_length_a 8.973468
_cell_length_b 20.568338
_cell_length_c 7.161994
_cell_angle_alpha 90.000000
_cell_angle_beta 142.956330
_cell_angle_gamma 90.000000
_cell_volume 796.334291
_symmetry_space_group_name_H-M "P 21/C"
_symmetry_group_IT_number 14
_symmetry_cell_setting 'monoclinic'
loop_
_space_group_symop_operation_xyz
x,y,z
-x,1/2+y,1/2-z
-x,-y,-z
x,1/2-y,1/2+z
loop_
_atom_site_type_symbol
_atom_site_label
_atom_site_fract_x
_atom_site_fract_y
_atom_site_fract_z
Si Si1 0.249944 0.136184 0.148064
Si Si2 0.749949 0.179029 0.130202
Si Si3 0.250002 0.533143 0.323379
Si Si4 0.249953 0.232177 0.794313
Si Si5 0.749943 0.092544 0.786784
O O1 0.249954 0.189981 0.314447
O O2 0.499300 0.094965 0.419000
O O3 0.249949 0.181538 0.965655
O O4 0.000580 0.094969 0.920291
O O5 0.749969 0.109120 0.233572
O O6 0.996321 0.216417 0.431885
O O7 0.503572 0.216410 0.939152
O O8 0.749945 0.158065 0.914528
O O9 0.500000 0.500000 0.500000
O O10 0.250017 0.538690 0.549701
O O11 0.000000 0.500000 0.000000
#
# Coordination Sequence:
#
# PCOD9243829 Si02
#       5
#     4   4   4   4   4
#     4  12  23  38  59  87 128 164 197 243 302 363
#     4  10  22  38  61  89 118 152 212 243 300 356
#     4  10  20  38  68  90 114 154 212 262 294 348
#     4  12  23  38  59  87 128 164 197 243 302 363
#     4  10  22  38  61  89 118 152 212 243 300 356
#
# _framework density 25.115079999999999
#
# number of rings (size 3 to 8) (size 9 to 14) (size 15 to 20)
#    1.200    0.000    0.000    8.400    0.000    0.000 
#    0.000    0.000    0.000   24.000    0.000    0.000 
#    0.000    0.000    0.000    0.000    0.000    0.000 
#
# Total GULP energy -111885.147703 kJ/mol
# GULP energy per Si atom -5594.257385 kJ/mol
# Density = 2.505792 g / cm^3
# Si number density = 25.115080 Si / 1000 Ang^3
#
#
#
# Elastic Constant Matrix: (Units=GPa)
#
#
# Indices 1 2 3 4 5 6 
#
# 1 83.8454 0.4061 43.7208 0.0000 18.7895 0.0000
# 2 0.4061 93.3513 46.6139 0.0000 25.4843 0.0000
# 3 43.7208 46.6139 209.9511 0.0000 50.7871 0.0000
# 4 0.0000 0.0000 0.0000 46.6996 0.0000 -1.8020
# 5 18.7895 25.4843 50.7871 0.0000 54.7539 0.0000
# 6 0.0000 0.0000 0.0000 -1.8020 0.0000 49.9562
#
#
#
# Elastic Compliance Matrix: (Units=1/GPa)
#
#
# Indices 1 2 3 4 5 6 
#
# 1 0.014026 0.002160 -0.002569 0.000000 -0.003435 0.000000
# 2 0.002160 0.013112 -0.002199 0.000000 -0.004805 0.000000
# 3 -0.002569 -0.002199 0.006866 0.000000 -0.004463 0.000000
# 4 0.000000 0.000000 0.000000 0.021443 0.000000 0.000774
# 5 -0.003435 -0.004805 -0.004463 0.000000 0.025819 0.000000
# 6 0.000000 0.000000 0.000000 0.000774 0.000000 0.020045
#
#
# Mechanical properties :
#
#
# Convention : Reuss Voigt Hill
#
# Bulk Modulus (GPa) = 34.73738 63.18106 48.95922
# Shear Modulus (GPa) = 43.05739 50.04241 46.54990
#
# Velocity S-wave (km/s) = 4.14503 4.46861 4.30986
# Velocity P-wave (km/s) = 6.06380 7.19972 6.65603
#
# Compressibility (1/GPa) = 0.02878743
#
# Stress axis : x y z
#
# Youngs Moduli (GPa) = 71.29710 76.26378 145.64655
#
# Poissons Ratio (x) = -0.16471 0.37421
# Poissons Ratio (y) = -0.15398 0.32024
# Poissons Ratio (z) = 0.18318 0.16769
#
# Static dielectric constant tensor:
#      x y z
#    x 2.057620 0.000000 -0.065140 
#    y 0.000000 1.957350 0.000000 
#    z -0.065140 0.000000 1.939470 
# 
# From -- ./inp_files/11134.got.cif
#   From: 2010.05.17/outbox.cif.g08.bks.cpg/sg14_6_cif.got.tgz:11134.got - 2010.06.03 17:49:19.
