data_PCOD9243634
_publ_section_title
;
Structure prediction by ZEFSAII (Michael W. Deem and Ramdas Pophale) SiO2 
 PCOD9243634
Probable space group: P 21/C
;
_chemical_formula_sum "Si O2"
_cell_formula_units_Z 28
_cell_length_a 17.063922
_cell_length_b 14.726203
_cell_length_c 10.054648
_cell_angle_alpha 90.000000
_cell_angle_beta 152.593180
_cell_angle_gamma 90.000000
_cell_volume 1163.007826
_symmetry_space_group_name_H-M "P 21/C"
_symmetry_group_IT_number 14
_symmetry_cell_setting 'monoclinic'
loop_
_space_group_symop_operation_xyz
x,y,z
-x,1/2+y,1/2-z
-x,-y,-z
x,1/2-y,1/2+z
loop_
_atom_site_type_symbol
_atom_site_label
_atom_site_fract_x
_atom_site_fract_y
_atom_site_fract_z
Si Si1 0.152939 0.098815 0.258262
Si Si2 0.057952 0.627266 0.823169
Si Si3 0.397546 0.940546 0.534489
Si Si4 0.740111 0.257749 0.050767
Si Si5 0.121317 0.293727 0.216831
Si Si6 0.082253 0.440496 0.950484
Si Si7 0.691395 0.438515 0.411266
O O1 0.225985 0.201307 0.362546
O O2 0.073237 0.094656 0.285292
O O3 0.283979 0.017328 0.435613
O O4 0.019828 0.093257 0.935047
O O5 0.896609 0.661667 0.665482
O O6 0.192502 0.705103 0.990550
O O7 0.146873 0.543401 0.031884
O O8 0.361860 0.841221 0.539462
O O9 0.347847 0.939201 0.304740
O O10 0.586231 0.981729 0.820990
O O11 0.922387 0.236530 0.395101
O O12 0.648033 0.161745 0.899632
O O13 0.165217 0.364321 0.167326
O O14 0.893006 0.451162 0.723732
#
# Coordination Sequence:
#
# PCOD9243634 Si02
#       7
#     4   4   4   4   4   4   4
#     4  11  20  36  61  90 115 153 208 247 288 360
#     4  11  19  34  62  89 119 158 201 250 300 358
#     4  11  21  39  62  88 118 158 206 248 293 360
#     4  10  20  38  62  85 118 163 201 243 304 363
#     4  10  22  33  57  93 125 154 196 253 308 349
#     4  11  20  38  59  89 120 158 203 250 300 356
#     4  10  22  38  60  88 118 157 204 247 299 359
#
# _framework density 24.075506000000001
#
# number of rings (size 3 to 8) (size 9 to 14) (size 15 to 20)
#    0.000    1.429    2.857    6.000    0.000    0.000 
#    2.571    1.429    0.000    4.286    0.000    0.000 
#    0.000    0.000    0.000    0.000    0.000    0.000 
#
# Total GULP energy -156567.183570 kJ/mol
# GULP energy per Si atom -5591.685128 kJ/mol
# Density = 2.402071 g / cm^3
# Si number density = 24.075506 Si / 1000 Ang^3
#
#
#
# Elastic Constant Matrix: (Units=GPa)
#
#
# Indices 1 2 3 4 5 6 
#
# 1 128.5971 57.5213 31.1405 0.0000 -12.4953 0.0000
# 2 57.5213 151.3593 38.5326 0.0000 -1.0043 0.0000
# 3 31.1405 38.5326 37.7246 0.0000 5.0089 0.0000
# 4 0.0000 0.0000 0.0000 30.0368 0.0000 5.2932
# 5 -12.4953 -1.0043 5.0089 0.0000 20.3318 0.0000
# 6 0.0000 0.0000 0.0000 5.2932 0.0000 56.7337
#
#
#
# Elastic Compliance Matrix: (Units=1/GPa)
#
#
# Indices 1 2 3 4 5 6 
#
# 1 0.011765 -0.002195 -0.008700 0.000000 0.009265 0.000000
# 2 -0.002195 0.009492 -0.008030 0.000000 0.001098 0.000000
# 3 -0.008700 -0.008030 0.044096 0.000000 -0.016607 0.000000
# 4 0.000000 0.000000 0.000000 0.033849 0.000000 -0.003158
# 5 0.009265 0.001098 -0.016607 0.000000 0.059024 0.000000
# 6 0.000000 0.000000 0.000000 -0.003158 0.000000 0.017921
#
#
# Mechanical properties :
#
#
# Convention : Reuss Voigt Hill
#
# Bulk Modulus (GPa) = 36.35778 63.56329 49.96053
# Shear Modulus (GPa) = 22.40500 34.11957 28.26229
#
# Velocity S-wave (km/s) = 3.05391 3.76864 3.42994
# Velocity P-wave (km/s) = 5.25066 6.73764 6.04009
#
# Compressibility (1/GPa) = 0.02750443
#
# Stress axis : x y z
#
# Youngs Moduli (GPa) = 84.99805 105.34788 22.67763
#
# Poissons Ratio (x) = 0.23121 0.19730
# Poissons Ratio (y) = 0.18655 0.18210
# Poissons Ratio (z) = 0.73949 0.84592
#
# Static dielectric constant tensor:
#      x y z
#    x 1.946420 0.000000 -0.018230 
#    y 0.000000 2.006790 0.000000 
#    z -0.018230 0.000000 1.939670 
# 
# From -- ./inp_files/34105.got.cif
#   From: 2010.05.17/outbox.cif.g08.bks.cpg/sg14_18_cif.got.tgz:34105.got - 2010.06.03 17:49:19.
