data_PCOD9243242
_publ_section_title
;
Structure prediction by ZEFSAII (Michael W. Deem and Ramdas Pophale) SiO2 
 PCOD9243242
Probable space group: P 21/C
;
_chemical_formula_sum "Si O2"
_cell_formula_units_Z 32
_cell_length_a 16.018375
_cell_length_b 9.628886
_cell_length_c 26.784105
_cell_angle_alpha 90.000000
_cell_angle_beta 21.783485
_cell_angle_gamma 90.000000
_cell_volume 1533.072946
_symmetry_space_group_name_H-M "P 21/C"
_symmetry_group_IT_number 14
_symmetry_cell_setting 'monoclinic'
loop_
_space_group_symop_operation_xyz
x,y,z
-x,1/2+y,1/2-z
-x,-y,-z
x,1/2-y,1/2+z
loop_
_atom_site_type_symbol
_atom_site_label
_atom_site_fract_x
_atom_site_fract_y
_atom_site_fract_z
Si Si1 0.132412 0.863008 0.409471
Si Si2 0.598763 0.314723 0.141091
Si Si3 0.299598 0.610536 0.113631
Si Si4 0.084561 0.930225 0.143332
Si Si5 0.551622 0.007347 0.130896
Si Si6 0.916887 0.376556 0.877420
Si Si7 0.280150 0.919519 0.140431
Si Si8 0.837587 0.898041 0.061170
O O1 0.245245 0.798382 0.396691
O O2 0.332728 0.913648 0.261531
O O3 0.959462 0.749302 0.485532
O O4 0.000000 0.000000 0.500000
O O5 0.380541 0.390155 0.282542
O O6 0.513744 0.166941 0.167626
O O7 0.739509 0.395261 0.020665
O O8 0.209530 0.620454 0.106155
O O9 0.354695 0.760208 0.107222
O O10 0.102906 0.546152 0.256657
O O11 0.500000 0.500000 0.000000
O O12 0.013496 0.786366 0.156500
O O13 0.112599 0.902303 0.186270
O O14 0.326386 0.983229 0.989872
O O15 0.746487 0.953468 0.059499
O O16 0.126900 0.483240 0.761569
O O17 0.500000 0.000000 0.000000
O O18 0.000000 0.000000 0.000000
#
# Coordination Sequence:
#
# PCOD9243242 Si02
#       8
#     4   4   4   4   4   4   4   4
#     4  11  22  39  61  85 119 156 196 249 301 356
#     4  10  21  39  63  86 115 158 203 243 296 359
#     4  10  20  37  60  86 118 152 187 239 297 342
#     4   9  20  39  59  82 114 151 192 242 288 339
#     4  10  21  39  61  87 118 155 199 248 296 358
#     4   9  20  39  61  82 112 152 198 239 279 349
#     4  10  20  37  59  85 115 154 194 234 286 350
#     4  11  22  39  60  87 117 153 198 246 303 354
#
# _framework density 20.873111000000002
#
# number of rings (size 3 to 8) (size 9 to 14) (size 15 to 20)
#    0.000    2.000    2.500    0.750    0.000    3.000 
#    9.000    0.000    0.000    0.000    0.000    0.000 
#    0.000    0.000    0.000    0.000    0.000    0.000 
#
# Total GULP energy -178492.888582 kJ/mol
# GULP energy per Si atom -5577.902768 kJ/mol
# Density = 2.082560 g / cm^3
# Si number density = 20.873111 Si / 1000 Ang^3
#
#
#
# Elastic Constant Matrix: (Units=GPa)
#
#
# Indices 1 2 3 4 5 6 
#
# 1 31.9989 2.7590 14.4841 0.0000 9.9699 0.0000
# 2 2.7590 93.1370 20.9149 0.0000 0.3187 0.0000
# 3 14.4841 20.9149 69.6204 0.0000 15.6076 0.0000
# 4 0.0000 0.0000 0.0000 37.9700 0.0000 -7.9840
# 5 9.9699 0.3187 15.6076 0.0000 29.8093 0.0000
# 6 0.0000 0.0000 0.0000 -7.9840 0.0000 25.2963
#
#
#
# Elastic Compliance Matrix: (Units=1/GPa)
#
#
# Indices 1 2 3 4 5 6 
#
# 1 0.036677 0.000203 -0.005598 0.000000 -0.009338 0.000000
# 2 0.000203 0.011612 -0.003951 0.000000 0.001877 0.000000
# 3 -0.005598 -0.003951 0.018452 0.000000 -0.007747 0.000000
# 4 0.000000 0.000000 0.000000 0.028209 0.000000 0.008903
# 5 -0.009338 0.001877 -0.007747 0.000000 0.040706 0.000000
# 6 0.000000 0.000000 0.000000 0.008903 0.000000 0.042341
#
#
# Mechanical properties :
#
#
# Convention : Reuss Voigt Hill
#
# Bulk Modulus (GPa) = 20.81280 30.11916 25.46598
# Shear Modulus (GPa) = 23.50674 29.05502 26.28088
#
# Velocity S-wave (km/s) = 3.35949 3.73498 3.55220
# Velocity P-wave (km/s) = 5.00410 5.74987 5.38990
#
# Compressibility (1/GPa) = 0.04804736
#
# Stress axis : x y z
#
# Youngs Moduli (GPa) = 27.26513 86.11976 54.19519
#
# Poissons Ratio (x) = -0.01744 0.30338
# Poissons Ratio (y) = -0.00552 0.21414
# Poissons Ratio (z) = 0.15263 0.34028
#
# Static dielectric constant tensor:
#      x y z
#    x 1.905000 0.000000 -0.057960 
#    y 0.000000 1.799760 0.000000 
#    z -0.057960 0.000000 1.874160 
# 
# From -- ./inp_files/80402.got.cif
#   From: 2010.05.17/outbox.cif.g08.bks.cpg/sg14_41_cif.got.tgz:80402.got - 2010.06.03 17:49:19.
