data_PCOD9243633
_publ_section_title
;
Structure prediction by ZEFSAII (Michael W. Deem and Ramdas Pophale) SiO2 
 PCOD9243633
Probable space group: P 21/C
;
_chemical_formula_sum "Si O2"
_cell_formula_units_Z 32
_cell_length_a 15.386597
_cell_length_b 20.223211
_cell_length_c 5.114933
_cell_angle_alpha 90.000000
_cell_angle_beta 56.132886
_cell_angle_gamma 90.000000
_cell_volume 1321.552929
_symmetry_space_group_name_H-M "P 21/C"
_symmetry_group_IT_number 14
_symmetry_cell_setting 'monoclinic'
loop_
_space_group_symop_operation_xyz
x,y,z
-x,1/2+y,1/2-z
-x,-y,-z
x,1/2-y,1/2+z
loop_
_atom_site_type_symbol
_atom_site_label
_atom_site_fract_x
_atom_site_fract_y
_atom_site_fract_z
Si Si1 0.957502 0.792844 0.874406
Si Si2 0.671555 0.118694 0.163728
Si Si3 0.738869 0.703082 0.869497
Si Si4 0.131338 0.634458 0.366602
Si Si5 0.758495 0.487092 0.114334
Si Si6 0.567563 0.017329 0.637627
Si Si7 0.965609 0.541823 0.812609
Si Si8 0.506653 0.704617 0.279672
O O1 0.951478 0.767329 0.591428
O O2 0.070764 0.822647 0.753853
O O3 0.850024 0.833098 0.122711
O O4 0.773253 0.156707 0.106540
O O5 0.602539 0.092639 0.523350
O O6 0.592744 0.159064 0.115335
O O7 0.709059 0.052163 0.944814
O O8 0.740840 0.762206 0.649818
O O9 0.622249 0.671927 0.044575
O O10 0.033956 0.607465 0.698240
O O11 0.181268 0.572379 0.132108
O O12 0.676835 0.514815 0.041413
O O13 0.840995 0.543545 0.043043
O O14 0.500000 0.000000 0.500000
O O15 0.500000 0.000000 0.000000
O O16 0.000000 0.500000 0.500000
O O17 0.000000 0.500000 0.000000
O O18 0.501551 0.736663 0.573771
#
# Coordination Sequence:
#
# PCOD9243633 Si02
#       8
#     4   4   4   4   4   4   4   4
#     4  10  22  38  62  88 125 164 204 258 310 364
#     4  11  23  40  67  91 132 168 207 264 323 373
#     4   8  16  37  59  78 112 158 203 253 303 349
#     4  10  23  38  61  93 125 165 210 252 317 383
#     4  10  22  41  65  89 129 165 206 268 321 379
#     4  11  23  42  65  90 125 164 207 261 326 382
#     4  10  20  38  62  85 117 164 206 251 308 374
#     4  10  23  39  63  92 125 167 216 254 305 379
#
# _framework density 24.213937999999999
#
# number of rings (size 3 to 8) (size 9 to 14) (size 15 to 20)
#    0.000    2.000    2.500    0.000    5.250    1.000 
#    2.250    0.000    8.250    0.000    0.000    0.000 
#    0.000    0.000    0.000    0.000    0.000    0.000 
#
# Total GULP energy -178506.969442 kJ/mol
# GULP energy per Si atom -5578.342795 kJ/mol
# Density = 2.415883 g / cm^3
# Si number density = 24.213938 Si / 1000 Ang^3
#
#
#
# Elastic Constant Matrix: (Units=GPa)
#
#
# Indices 1 2 3 4 5 6 
#
# 1 198.2968 18.5198 46.9617 0.0000 -27.4512 0.0000
# 2 18.5198 27.1925 26.3964 0.0000 -9.7076 0.0000
# 3 46.9617 26.3964 88.9385 0.0000 1.3116 0.0000
# 4 0.0000 0.0000 0.0000 20.9929 0.0000 -1.1179
# 5 -27.4512 -9.7076 1.3116 0.0000 58.6835 0.0000
# 6 0.0000 0.0000 0.0000 -1.1179 0.0000 34.0606
#
#
#
# Elastic Compliance Matrix: (Units=1/GPa)
#
#
# Indices 1 2 3 4 5 6 
#
# 1 0.006250 0.000093 -0.003372 0.000000 0.003015 0.000000
# 2 0.000093 0.056754 -0.017038 0.000000 0.009813 0.000000
# 3 -0.003372 -0.017038 0.018152 0.000000 -0.004802 0.000000
# 4 0.000000 0.000000 0.000000 0.047718 0.000000 0.001566
# 5 0.003015 0.009813 -0.004802 0.000000 0.020181 0.000000
# 6 0.000000 0.000000 0.000000 0.001566 0.000000 0.029411
#
#
# Mechanical properties :
#
#
# Convention : Reuss Voigt Hill
#
# Bulk Modulus (GPa) = 24.67833 55.35375 40.01604
# Shear Modulus (GPa) = 21.49532 37.58405 29.53968
#
# Velocity S-wave (km/s) = 2.98270 3.94403 3.49656
# Velocity P-wave (km/s) = 4.69850 6.60684 5.73264
#
# Compressibility (1/GPa) = 0.04052137
#
# Stress axis : x y z
#
# Youngs Moduli (GPa) = 159.99418 17.61991 55.09035
#
# Poissons Ratio (x) = -0.00164 0.18578
# Poissons Ratio (y) = -0.01487 0.93863
# Poissons Ratio (z) = 0.53955 0.30021
#
# Static dielectric constant tensor:
#      x y z
#    x 2.024480 0.000000 -0.099700 
#    y 0.000000 1.941460 0.000000 
#    z -0.099700 0.000000 1.993750 
# 
# From -- ./inp_files/3977.got.cif
#   From: 2010.05.17/outbox.cif.g08.bks.cpg/sg14_2_cif.got.tgz:3977.got - 2010.06.03 17:49:19.
