data_PCOD9243141
_publ_section_title
;
Structure prediction by ZEFSAII (Michael W. Deem and Ramdas Pophale) SiO2 
 PCOD9243141
Probable space group: P 21/C
;
_chemical_formula_sum "Si O2"
_cell_formula_units_Z 30
_cell_length_a 6.902585
_cell_length_b 27.203051
_cell_length_c 8.521099
_cell_angle_alpha 90.000000
_cell_angle_beta 58.071690
_cell_angle_gamma 90.000000
_cell_volume 1357.952427
_symmetry_space_group_name_H-M "P 21/C"
_symmetry_group_IT_number 14
_symmetry_cell_setting 'monoclinic'
loop_
_space_group_symop_operation_xyz
x,y,z
-x,1/2+y,1/2-z
-x,-y,-z
x,1/2-y,1/2+z
loop_
_atom_site_type_symbol
_atom_site_label
_atom_site_fract_x
_atom_site_fract_y
_atom_site_fract_z
Si Si1 0.096528 0.731327 0.496151
Si Si2 0.061167 0.549623 0.227397
Si Si3 0.000000 0.000000 0.500000
Si Si4 0.666553 0.310704 0.900961
Si Si5 0.399609 0.073623 0.962874
Si Si6 0.518006 0.030365 0.234900
Si Si7 0.866341 0.815595 0.386257
Si Si8 0.198783 0.612478 0.899907
O O1 0.283991 0.761383 0.517930
O O2 0.212742 0.697813 0.315915
O O3 0.948497 0.772330 0.468666
O O4 0.942832 0.701139 0.681490
O O5 0.946158 0.498532 0.224996
O O6 0.290274 0.547483 0.224992
O O7 0.868385 0.583162 0.388846
O O8 0.113564 0.561294 0.015409
O O9 0.731897 0.975002 0.585723
O O10 0.770483 0.354474 0.958872
O O11 0.402184 0.320823 0.990412
O O12 0.503142 0.066302 0.091621
O O13 0.563691 0.109251 0.793838
O O14 0.409063 0.022984 0.861691
O O15 0.005370 0.863540 0.377702
#
# Coordination Sequence:
#
# PCOD9243141 Si02
#       8
#     4   4   2   4   4   4   4   4
#     4   9  20  39  64  90 117 150 210 234 283 367
#     4  11  23  41  62  86 118 162 203 256 303 364
#     4  10  20  36  66  86 112 150 204 258 296 362
#     4  10  21  38  62  89 118 161 189 244 299 352
#     4  10  23  41  58  87 118 154 207 257 296 368
#     4  10  21  41  63  86 113 156 210 255 309 350
#     4  10  21  39  62  89 122 159 193 248 293 357
#     4  11  25  38  54  92 126 151 202 244 307 363
#
# _framework density 22.092082999999999
#
# number of rings (size 3 to 8) (size 9 to 14) (size 15 to 20)
#    0.000    1.867    1.333    1.600    0.000    6.400 
#    0.000    2.667    0.000    0.000    0.000    0.000 
#    0.000    0.000    0.000    0.000    0.000    0.000 
#
# Total GULP energy -167353.293528 kJ/mol
# GULP energy per Si atom -5578.443118 kJ/mol
# Density = 2.204180 g / cm^3
# Si number density = 22.092083 Si / 1000 Ang^3
#
#
#
# Elastic Constant Matrix: (Units=GPa)
#
#
# Indices 1 2 3 4 5 6 
#
# 1 123.6925 11.2450 38.6009 0.0000 -16.1874 0.0000
# 2 11.2450 52.2720 30.6822 0.0000 0.8348 0.0000
# 3 38.6009 30.6822 108.3235 0.0000 -0.7456 0.0000
# 4 0.0000 0.0000 0.0000 -43.7890 0.0000 8.2193
# 5 -16.1874 0.8348 -0.7456 0.0000 35.6664 0.0000
# 6 0.0000 0.0000 0.0000 8.2193 0.0000 9.6855
#
#
#
# Elastic Compliance Matrix: (Units=1/GPa)
#
#
# Indices 1 2 3 4 5 6 
#
# 1 0.009726 -0.000174 -0.003387 0.000000 0.004348 0.000000
# 2 -0.000174 0.022965 -0.006448 0.000000 -0.000751 0.000000
# 3 -0.003387 -0.006448 0.012257 0.000000 -0.001130 0.000000
# 4 0.000000 0.000000 0.000000 -0.019699 0.000000 0.016717
# 5 0.004348 -0.000751 -0.001130 0.000000 0.030005 0.000000
# 6 0.000000 0.000000 0.000000 0.016717 0.000000 0.089061
#
#
# Mechanical properties :
#
#
# Convention : Reuss Voigt Hill
#
# Bulk Modulus (GPa) = 40.11061 49.48270 44.79665
# Shear Modulus (GPa) = 28.96168 13.89657 21.42912
#
# Velocity S-wave (km/s) = 3.62464 2.51077 3.11785
# Velocity P-wave (km/s) = 5.97602 5.55448 5.76910
#
# Compressibility (1/GPa) = 0.02493106
#
# Stress axis : x y z
#
# Youngs Moduli (GPa) = 102.81467 43.54482 81.58577
#
# Poissons Ratio (x) = 0.00757 0.27631
# Poissons Ratio (y) = 0.01787 0.52606
# Poissons Ratio (z) = 0.34821 0.28077
#
# Static dielectric constant tensor:
#      x y z
#    x 1.795910 0.000000 0.023610 
#    y 0.000000 1.931460 0.000000 
#    z 0.023610 0.000000 1.841730 
# 
# From -- ./inp_files/6932.got.cif
#   From: 2010.05.17/outbox.cif.g08.bks.cpg/sg14_4_cif.got.tgz:6932.got - 2010.06.03 17:49:19.
