data_PCOD9243591
_publ_section_title
;
Structure prediction by ZEFSAII (Michael W. Deem and Ramdas Pophale) SiO2 
 PCOD9243591
Probable space group: P 21/C
;
_chemical_formula_sum "Si O2"
_cell_formula_units_Z 32
_cell_length_a 21.013101
_cell_length_b 8.709009
_cell_length_c 21.989297
_cell_angle_alpha 90.000000
_cell_angle_beta 155.244441
_cell_angle_gamma 90.000000
_cell_volume 1685.088904
_symmetry_space_group_name_H-M "P 21/C"
_symmetry_group_IT_number 14
_symmetry_cell_setting 'monoclinic'
loop_
_space_group_symop_operation_xyz
x,y,z
-x,1/2+y,1/2-z
-x,-y,-z
x,1/2-y,1/2+z
loop_
_atom_site_type_symbol
_atom_site_label
_atom_site_fract_x
_atom_site_fract_y
_atom_site_fract_z
Si Si1 0.623415 0.114249 0.738129
Si Si2 0.174917 0.122922 0.467995
Si Si3 0.827841 0.122163 0.148762
Si Si4 0.590641 0.466839 0.746493
Si Si5 0.713456 0.468252 0.055499
Si Si6 0.289092 0.035922 0.065412
Si Si7 0.661038 0.083001 0.636386
Si Si8 0.565815 0.089521 0.000382
O O1 0.588122 0.294563 0.717457
O O2 0.464574 0.017607 0.601274
O O3 0.709310 0.091878 0.748368
O O4 0.714820 0.054635 0.875278
O O5 0.205729 0.067605 0.425814
O O6 0.255197 0.286370 0.546158
O O7 0.995278 0.138583 0.320164
O O8 0.255469 0.006704 0.584606
O O9 0.750215 0.289874 0.072021
O O10 0.718194 0.028669 0.099515
O O11 0.826615 0.033753 0.084067
O O12 0.454779 0.482391 0.677728
O O13 0.555139 0.582339 0.659772
O O14 0.758122 0.490278 0.165553
O O15 0.618016 0.249338 0.573004
O O16 0.500000 0.000000 0.500000
O O17 0.500000 0.000000 0.000000
#
# Coordination Sequence:
#
# PCOD9243591 Si02
#       8
#     4   4   4   4   4   4   4   4
#     4  11  20  36  60  94 117 156 208 264 295 359
#     4  12  23  38  60  91 129 163 200 260 322 375
#     4  10  24  39  60  90 126 164 203 253 326 375
#     4  11  21  35  62  93 121 156 209 257 310 360
#     4  10  20  38  61  84 125 159 204 256 307 363
#     4  11  22  35  60  92 120 160 209 256 311 365
#     4   9  20  33  59  91 119 155 201 254 307 352
#     4  10  20  39  64  90 119 159 208 259 298 376
#
# _framework density 18.990096999999999
#
# number of rings (size 3 to 8) (size 9 to 14) (size 15 to 20)
#    0.000    1.500    3.750    1.500    7.000    0.000 
#    0.000    0.625    0.000    6.750    0.000    0.000 
#    0.000    0.000    0.000    0.000    0.000    0.000 
#
# Total GULP energy -178387.748656 kJ/mol
# GULP energy per Si atom -5574.617146 kJ/mol
# Density = 1.894687 g / cm^3
# Si number density = 18.990097 Si / 1000 Ang^3
#
#
#
# Elastic Constant Matrix: (Units=GPa)
#
#
# Indices 1 2 3 4 5 6 
#
# 1 118.2247 6.7884 28.5244 0.0000 -32.4596 0.0000
# 2 6.7884 22.3641 14.9200 0.0000 -1.8557 0.0000
# 3 28.5244 14.9200 77.8360 0.0000 -7.1826 0.0000
# 4 0.0000 0.0000 0.0000 16.2484 0.0000 -11.1160
# 5 -32.4596 -1.8557 -7.1826 0.0000 24.2825 0.0000
# 6 0.0000 0.0000 0.0000 -11.1160 0.0000 24.4560
#
#
#
# Elastic Compliance Matrix: (Units=1/GPa)
#
#
# Indices 1 2 3 4 5 6 
#
# 1 0.014270 -0.000524 -0.003467 0.000000 0.018009 0.000000
# 2 -0.000524 0.051316 -0.009609 0.000000 0.000379 0.000000
# 3 -0.003467 -0.009609 0.015899 0.000000 -0.000666 0.000000
# 4 0.000000 0.000000 0.000000 0.089319 0.000000 0.040598
# 5 0.018009 0.000379 -0.000666 0.000000 0.065088 0.000000
# 6 0.000000 0.000000 0.000000 0.040598 0.000000 0.059343
#
#
# Mechanical properties :
#
#
# Convention : Reuss Voigt Hill
#
# Bulk Modulus (GPa) = 18.42198 35.43225 26.92712
# Shear Modulus (GPa) = 14.68304 24.21020 19.44662
#
# Velocity S-wave (km/s) = 2.78365 3.57443 3.20353
# Velocity P-wave (km/s) = 4.47812 5.97781 5.28146
#
# Compressibility (1/GPa) = 0.05428298
#
# Stress axis : x y z
#
# Youngs Moduli (GPa) = 70.07860 19.48717 62.89865
#
# Poissons Ratio (x) = 0.01021 0.21807
# Poissons Ratio (y) = 0.03672 0.60442
# Poissons Ratio (z) = 0.24297 0.18726
#
# Static dielectric constant tensor:
#      x y z
#    x 1.696060 0.000000 -0.026440 
#    y 0.000000 1.668640 0.000000 
#    z -0.026440 0.000000 1.648470 
# 
# From -- ./inp_files/74926.got.cif
#   From: 2010.05.17/outbox.cif.g08.bks.cpg/sg14_38_cif.got.tgz:74926.got - 2010.06.03 17:49:19.
