data_PCOD9243538
_publ_section_title
;
Structure prediction by ZEFSAII (Michael W. Deem and Ramdas Pophale) SiO2 
 PCOD9243538
Probable space group: P 21/C
;
_chemical_formula_sum "Si O2"
_cell_formula_units_Z 32
_cell_length_a 9.430727
_cell_length_b 27.517466
_cell_length_c 9.534129
_cell_angle_alpha 90.000000
_cell_angle_beta 45.639317
_cell_angle_gamma 90.000000
_cell_volume 1768.935112
_symmetry_space_group_name_H-M "P 21/C"
_symmetry_group_IT_number 14
_symmetry_cell_setting 'monoclinic'
loop_
_space_group_symop_operation_xyz
x,y,z
-x,1/2+y,1/2-z
-x,-y,-z
x,1/2-y,1/2+z
loop_
_atom_site_type_symbol
_atom_site_label
_atom_site_fract_x
_atom_site_fract_y
_atom_site_fract_z
Si Si1 0.952632 0.360407 0.720666
Si Si2 0.236299 0.193512 0.539010
Si Si3 0.655594 0.890372 0.168138
Si Si4 0.479664 0.609668 0.076262
Si Si5 0.572218 0.947335 0.779538
Si Si6 0.677460 0.446331 0.273685
Si Si7 0.948991 0.620038 0.035611
Si Si8 0.201549 0.211062 0.888113
O O1 0.123626 0.397171 0.545022
O O2 0.989590 0.354883 0.860625
O O3 0.005381 0.311140 0.599131
O O4 0.736088 0.380009 0.837095
O O5 0.430418 0.159777 0.423736
O O6 0.078828 0.157907 0.572150
O O7 0.180395 0.211200 0.734530
O O8 0.260213 0.238749 0.418387
O O9 0.625611 0.905812 0.349155
O O10 0.489450 0.915097 0.190927
O O11 0.639374 0.831427 0.184662
O O12 0.484122 0.569359 0.192743
O O13 0.739640 0.907481 0.701609
O O14 0.674369 0.999973 0.710318
O O15 0.398938 0.949464 0.014294
O O16 0.885165 0.419502 0.115521
#
# Coordination Sequence:
#
# PCOD9243538 Si02
#       8
#     4   4   4   4   4   4   4   4
#     4  10  20  38  60  83 121 150 194 237 290 342
#     4  10  21  39  61  85 118 150 194 243 285 350
#     4   9  20  38  58  83 122 150 192 243 286 348
#     4  10  21  39  61  85 114 158 188 241 295 344
#     4  10  23  37  59  88 120 150 203 245 287 349
#     4  11  21  38  60  87 117 158 199 237 296 351
#     4  11  21  38  63  82 118 160 192 244 295 340
#     4   9  20  37  58  83 119 145 190 240 287 339
#
# _framework density 18.089980000000001
#
# number of rings (size 3 to 8) (size 9 to 14) (size 15 to 20)
#    0.750    1.250    2.500    1.125    1.750    0.500 
#    2.250    1.875    0.000    0.000    0.000    0.000 
#    0.000    0.000    0.000    0.000    0.000    0.000 
#
# Total GULP energy -178246.880936 kJ/mol
# GULP energy per Si atom -5570.215029 kJ/mol
# Density = 1.804881 g / cm^3
# Si number density = 18.089980 Si / 1000 Ang^3
#
#
#
# Elastic Constant Matrix: (Units=GPa)
#
#
# Indices 1 2 3 4 5 6 
#
# 1 88.5920 13.0901 24.3071 0.0000 13.7924 0.0000
# 2 13.0901 41.0507 5.5599 0.0000 15.3132 0.0000
# 3 24.3071 5.5599 54.4310 0.0000 7.3083 0.0000
# 4 0.0000 0.0000 0.0000 22.5718 0.0000 -2.5094
# 5 13.7924 15.3132 7.3083 0.0000 20.8326 0.0000
# 6 0.0000 0.0000 0.0000 -2.5094 0.0000 5.7512
#
#
#
# Elastic Compliance Matrix: (Units=1/GPa)
#
#
# Indices 1 2 3 4 5 6 
#
# 1 0.013913 -0.001346 -0.005217 0.000000 -0.006392 0.000000
# 2 -0.001346 0.033694 0.000383 0.000000 -0.024011 0.000000
# 3 -0.005217 0.000383 0.021237 0.000000 -0.004277 0.000000
# 4 0.000000 0.000000 0.000000 0.046562 0.000000 0.020316
# 5 -0.006392 -0.024011 -0.004277 0.000000 0.071383 0.000000
# 6 0.000000 0.000000 0.000000 0.020316 0.000000 0.182741
#
#
# Mechanical properties :
#
#
# Convention : Reuss Voigt Hill
#
# Bulk Modulus (GPa) = 17.70409 29.99866 23.85138
# Shear Modulus (GPa) = 12.47762 19.23891 15.85826
#
# Velocity S-wave (km/s) = 2.62916 3.26469 2.96401
# Velocity P-wave (km/s) = 4.36172 5.55247 4.99272
#
# Compressibility (1/GPa) = 0.05648411
#
# Stress axis : x y z
#
# Youngs Moduli (GPa) = 71.87436 29.67887 47.08755
#
# Poissons Ratio (x) = 0.03993 0.24568
# Poissons Ratio (y) = 0.09671 -0.01803
# Poissons Ratio (z) = 0.37500 -0.01137
#
# Static dielectric constant tensor:
#      x y z
#    x 1.597420 0.000000 0.014400 
#    y 0.000000 1.618960 0.000000 
#    z 0.014400 0.000000 1.640350 
# 
# From -- ./inp_files/11067.got.cif
#   From: 2010.05.17/outbox.cif.g08.bks.cpg/sg14_6_cif.got.tgz:11067.got - 2010.06.03 17:49:19.
