data_PCOD9243346
_publ_section_title
;
Structure prediction by ZEFSAII (Michael W. Deem and Ramdas Pophale) SiO2 
 PCOD9243346
Probable space group: P 21/C
;
_chemical_formula_sum "Si O2"
_cell_formula_units_Z 32
_cell_length_a 6.503522
_cell_length_b 14.941007
_cell_length_c 22.910035
_cell_angle_alpha 90.000000
_cell_angle_beta 50.791934
_cell_angle_gamma 90.000000
_cell_volume 1724.943834
_symmetry_space_group_name_H-M "P 21/C"
_symmetry_group_IT_number 14
_symmetry_cell_setting 'monoclinic'
loop_
_space_group_symop_operation_xyz
x,y,z
-x,1/2+y,1/2-z
-x,-y,-z
x,1/2-y,1/2+z
loop_
_atom_site_type_symbol
_atom_site_label
_atom_site_fract_x
_atom_site_fract_y
_atom_site_fract_z
Si Si1 0.636415 0.749287 0.398669
Si Si2 0.932075 0.392491 0.184729
Si Si3 0.518916 0.615082 0.637395
Si Si4 0.938892 0.035115 0.946144
Si Si5 0.193986 0.624662 0.926933
Si Si6 0.626639 0.557668 0.413907
Si Si7 0.614110 0.709153 0.041523
Si Si8 0.563944 0.016947 0.420362
O O1 0.397742 0.798222 0.409120
O O2 0.664548 0.648093 0.372472
O O3 0.598327 0.761209 0.476033
O O4 0.901948 0.802217 0.337390
O O5 0.700629 0.389393 0.273236
O O6 0.820609 0.393026 0.139259
O O7 0.158941 0.469907 0.147335
O O8 0.434324 0.531860 0.610876
O O9 0.551346 0.705779 0.593722
O O10 0.809205 0.595058 0.612977
O O11 0.877894 0.957252 0.910935
O O12 0.647058 0.078261 0.001806
O O13 0.000000 0.000000 0.000000
O O14 0.320767 0.534980 0.932315
O O15 0.906689 0.664043 0.996882
O O16 0.428631 0.623701 0.088304
O O17 0.500000 0.000000 0.500000
#
# Coordination Sequence:
#
# PCOD9243346 Si02
#       8
#     4   4   4   4   4   4   4   4
#     4  10  20  37  62  89 113 155 201 250 303 359
#     4  10  24  39  56  88 130 154 200 254 309 363
#     4  11  24  39  55  90 126 162 201 249 304 370
#     4   9  18  34  56  83 111 148 199 234 284 349
#     4  10  20  38  63  88 116 152 199 261 304 351
#     4  10  20  37  62  82 118 162 198 246 291 360
#     4  11  21  35  63  91 118 150 208 253 296 360
#     4  11  20  40  65  91 113 156 208 257 304 359
#
# _framework density 18.55133
#
# number of rings (size 3 to 8) (size 9 to 14) (size 15 to 20)
#    0.000    1.750    3.750    3.375    0.000    6.000 
#    0.000    1.250    0.000    0.000    0.000    0.000 
#    0.000    0.000    0.000    0.000    0.000    0.000 
#
# Total GULP energy -178238.703112 kJ/mol
# GULP energy per Si atom -5569.959472 kJ/mol
# Density = 1.850911 g / cm^3
# Si number density = 18.551330 Si / 1000 Ang^3
#
#
#
# Elastic Constant Matrix: (Units=GPa)
#
#
# Indices 1 2 3 4 5 6 
#
# 1 109.6117 50.9304 50.2367 0.0000 -0.3413 0.0000
# 2 50.9304 152.8288 51.1489 0.0000 -7.0646 0.0000
# 3 50.2367 51.1489 124.1035 0.0000 -24.8195 0.0000
# 4 0.0000 0.0000 0.0000 14.4060 0.0000 4.8316
# 5 -0.3413 -7.0646 -24.8195 0.0000 16.2414 0.0000
# 6 0.0000 0.0000 0.0000 4.8316 0.0000 20.3181
#
#
#
# Elastic Compliance Matrix: (Units=1/GPa)
#
#
# Indices 1 2 3 4 5 6 
#
# 1 0.013308 -0.002797 -0.006368 0.000000 -0.010668 0.000000
# 2 -0.002797 0.008230 -0.002240 0.000000 0.000098 0.000000
# 3 -0.006368 -0.002240 0.016327 0.000000 0.023842 0.000000
# 4 0.000000 0.000000 0.000000 0.075432 0.000000 -0.017937
# 5 -0.010668 0.000098 0.023842 0.000000 0.097824 0.000000
# 6 0.000000 0.000000 0.000000 -0.017937 0.000000 0.053483
#
#
# Mechanical properties :
#
#
# Convention : Reuss Voigt Hill
#
# Bulk Modulus (GPa) = 66.42363 76.79732 71.61048
# Shear Modulus (GPa) = 17.09809 25.80829 21.45319
#
# Velocity S-wave (km/s) = 3.03919 3.73390 3.40431
# Velocity P-wave (km/s) = 6.94252 7.75090 7.35782
#
# Compressibility (1/GPa) = 0.01505488
#
# Stress axis : x y z
#
# Youngs Moduli (GPa) = 75.14364 121.51327 61.24868
#
# Poissons Ratio (x) = 0.33985 0.39002
# Poissons Ratio (y) = 0.21016 0.13721
# Poissons Ratio (z) = 0.47850 0.27221
#
# Static dielectric constant tensor:
#      x y z
#    x 1.670730 0.000000 0.013690 
#    y 0.000000 1.691240 0.000000 
#    z 0.013690 0.000000 1.663550 
# 
# From -- ./inp_files/63756.got.cif
#   From: 2010.05.17/outbox.cif.g08.bks.cpg/sg14_32_cif.got.tgz:63756.got - 2010.06.03 17:49:19.
