data_PCOD9243607
_publ_section_title
;
Structure prediction by ZEFSAII (Michael W. Deem and Ramdas Pophale) SiO2 
 PCOD9243607
Probable space group: P 21/C
;
_chemical_formula_sum "Si O2"
_cell_formula_units_Z 28
_cell_length_a 19.159937
_cell_length_b 10.650011
_cell_length_c 15.864278
_cell_angle_alpha 90.000000
_cell_angle_beta 155.829646
_cell_angle_gamma 90.000000
_cell_volume 1325.459347
_symmetry_space_group_name_H-M "P 21/C"
_symmetry_group_IT_number 14
_symmetry_cell_setting 'monoclinic'
loop_
_space_group_symop_operation_xyz
x,y,z
-x,1/2+y,1/2-z
-x,-y,-z
x,1/2-y,1/2+z
loop_
_atom_site_type_symbol
_atom_site_label
_atom_site_fract_x
_atom_site_fract_y
_atom_site_fract_z
Si Si1 0.382878 0.432688 0.803355
Si Si2 0.696487 0.867853 0.043390
Si Si3 0.519455 0.241044 0.319603
Si Si4 0.832361 0.809988 0.375296
Si Si5 0.093194 0.733823 0.790453
Si Si6 0.899959 0.015609 0.125927
Si Si7 0.423184 0.473426 0.324362
O O1 0.493306 0.384432 0.845897
O O2 0.290743 0.308715 0.739665
O O3 0.234893 0.517278 0.599625
O O4 0.500000 0.500000 0.000000
O O5 0.639702 0.753871 0.920250
O O6 0.506871 0.916067 0.861783
O O7 0.804556 0.840064 0.246398
O O8 0.797659 0.966864 0.096494
O O9 0.705126 0.243065 0.485758
O O10 0.503215 0.354063 0.366658
O O11 0.767279 0.928788 0.360425
O O12 0.014686 0.767823 0.612085
O O13 0.029549 0.596970 0.747555
O O14 0.028735 0.846009 0.779886
O O15 0.500000 0.500000 0.500000
#
# Coordination Sequence:
#
# PCOD9243607 Si02
#       7
#     4   4   4   4   4   4   4
#     4   9  20  41  61  86 120 163 211 260 306 374
#     4  10  20  38  61  88 115 168 211 250 304 378
#     4  10  21  37  64  89 119 159 214 253 306 383
#     4   9  21  37  59  88 128 154 200 266 316 366
#     4  11  23  43  59  95 131 161 207 259 326 368
#     4  10  23  42  61  91 129 165 206 263 313 376
#     4   9  18  38  60  86 116 158 208 254 307 374
#
# _framework density 21.124753999999999
#
# number of rings (size 3 to 8) (size 9 to 14) (size 15 to 20)
#    0.000    2.286    1.429    0.857    4.000    0.571 
#    5.143    1.429    0.000    0.000    0.000    0.000 
#    0.000    0.000    0.000    0.000    0.000    0.000 
#
# Total GULP energy -156010.976896 kJ/mol
# GULP energy per Si atom -5571.820603 kJ/mol
# Density = 2.107667 g / cm^3
# Si number density = 21.124754 Si / 1000 Ang^3
#
#
#
# Elastic Constant Matrix: (Units=GPa)
#
#
# Indices 1 2 3 4 5 6 
#
# 1 53.6537 -5.5497 12.1090 0.0000 -8.8406 0.0000
# 2 -5.5497 51.3186 21.5914 0.0000 -9.8406 0.0000
# 3 12.1090 21.5914 59.9265 0.0000 -15.1213 0.0000
# 4 0.0000 0.0000 0.0000 26.6721 0.0000 -4.3988
# 5 -8.8406 -9.8406 -15.1213 0.0000 24.3964 0.0000
# 6 0.0000 0.0000 0.0000 -4.3988 0.0000 19.3543
#
#
#
# Elastic Compliance Matrix: (Units=1/GPa)
#
#
# Indices 1 2 3 4 5 6 
#
# 1 0.021430 0.005607 -0.004529 0.000000 0.007220 0.000000
# 2 0.005607 0.024940 -0.008378 0.000000 0.006899 0.000000
# 3 -0.004529 -0.008378 0.022942 0.000000 0.009199 0.000000
# 4 0.000000 0.000000 0.000000 0.038952 0.000000 0.008853
# 5 0.007220 0.006899 0.009199 0.000000 0.052091 0.000000
# 6 0.000000 0.000000 0.000000 0.008853 0.000000 0.053680
#
#
# Mechanical properties :
#
#
# Convention : Reuss Voigt Hill
#
# Bulk Modulus (GPa) = 18.27707 24.57782 21.42745
# Shear Modulus (GPa) = 20.25339 23.20110 21.72724
#
# Velocity S-wave (km/s) = 3.09973 3.31764 3.21053
# Velocity P-wave (km/s) = 4.63485 5.13181 4.88965
#
# Compressibility (1/GPa) = 0.05471338
#
# Stress axis : x y z
#
# Youngs Moduli (GPa) = 46.66399 40.09563 43.58799
#
# Poissons Ratio (x) = -0.22483 0.19739
# Poissons Ratio (y) = -0.26166 0.36519
# Poissons Ratio (z) = 0.21132 0.33593
#
# Static dielectric constant tensor:
#      x y z
#    x 1.790980 0.000000 0.019070 
#    y 0.000000 1.805240 0.000000 
#    z 0.019070 0.000000 1.746170 
# 
# From -- ./inp_files/48789.got.cif
#   From: 2010.05.17/outbox.cif.g08.bks.cpg/sg14_25_cif.got.tgz:48789.got - 2010.06.03 17:49:19.
