data_PCOD9243622
_publ_section_title
;
Structure prediction by ZEFSAII (Michael W. Deem and Ramdas Pophale) SiO2 
 PCOD9243622
Probable space group: P 21/C
;
_chemical_formula_sum "Si O2"
_cell_formula_units_Z 32
_cell_length_a 16.408599
_cell_length_b 20.259014
_cell_length_c 15.834995
_cell_angle_alpha 90.000000
_cell_angle_beta 18.299063
_cell_angle_gamma 90.000000
_cell_volume 1652.743564
_symmetry_space_group_name_H-M "P 21/C"
_symmetry_group_IT_number 14
_symmetry_cell_setting 'monoclinic'
loop_
_space_group_symop_operation_xyz
x,y,z
-x,1/2+y,1/2-z
-x,-y,-z
x,1/2-y,1/2+z
loop_
_atom_site_type_symbol
_atom_site_label
_atom_site_fract_x
_atom_site_fract_y
_atom_site_fract_z
Si Si1 0.872545 0.275317 0.432643
Si Si2 0.611598 0.674849 0.987890
Si Si3 0.760006 0.017095 0.795587
Si Si4 0.967174 0.161212 0.223532
Si Si5 0.164342 0.021530 0.091630
Si Si6 0.456627 0.209523 0.637121
Si Si7 0.652051 0.559808 0.068589
Si Si8 0.368599 0.851752 0.983354
O O1 0.890518 0.200888 0.383116
O O2 0.634805 0.289434 0.728211
O O3 0.825904 0.320010 0.394701
O O4 0.133224 0.294605 0.222231
O O5 0.611499 0.600055 0.022317
O O6 0.611809 0.684904 0.888455
O O7 0.748285 0.093298 0.839246
O O8 0.788443 0.975590 0.854241
O O9 0.000000 0.000000 0.500000
O O10 0.500000 0.000000 0.000000
O O11 0.054953 0.088047 0.159653
O O12 0.713927 0.170581 0.414497
O O13 0.215363 0.195829 0.936185
O O14 0.941532 0.966967 0.294250
O O15 0.438141 0.997973 0.784179
O O16 0.517312 0.287872 0.581748
O O17 0.576440 0.608646 0.220740
#
# Coordination Sequence:
#
# PCOD9243622 Si02
#       8
#     4   4   4   4   4   4   4   4
#     4  10  21  38  64  84 113 158 202 242 283 358
#     4  11  21  38  61  92 115 147 202 250 292 335
#     4  11  23  36  57  89 120 150 190 239 288 347
#     4  11  23  41  59  88 120 158 198 237 304 359
#     4  11  23  40  61  81 117 160 194 235 287 356
#     4  11  24  39  62  90 123 151 191 259 300 337
#     4  10  20  38  62  82 109 158 202 230 277 362
#     4   9  21  40  61  84 117 158 194 230 295 356
#
# _framework density 19.361746
#
# number of rings (size 3 to 8) (size 9 to 14) (size 15 to 20)
#    0.000    1.500    0.000    7.500    0.000    7.000 
#    0.000    3.750    0.000    0.000    0.000    0.000 
#    0.000    0.000    0.000    0.000    0.000    0.000 
#
# Total GULP energy -178819.171517 kJ/mol
# GULP energy per Si atom -5588.099110 kJ/mol
# Density = 1.931768 g / cm^3
# Si number density = 19.361746 Si / 1000 Ang^3
#
#
#
# Elastic Constant Matrix: (Units=GPa)
#
#
# Indices 1 2 3 4 5 6 
#
# 1 53.8898 21.8459 9.0164 0.0000 -9.2188 0.0000
# 2 21.8459 62.4430 -4.1115 0.0000 5.5099 0.0000
# 3 9.0164 -4.1115 87.6751 0.0000 -16.9259 0.0000
# 4 0.0000 0.0000 0.0000 26.0616 0.0000 -1.6363
# 5 -9.2188 5.5099 -16.9259 0.0000 25.9726 0.0000
# 6 0.0000 0.0000 0.0000 -1.6363 0.0000 25.7142
#
#
#
# Elastic Compliance Matrix: (Units=1/GPa)
#
#
# Indices 1 2 3 4 5 6 
#
# 1 0.024250 -0.009428 -0.001016 0.000000 0.009945 0.000000
# 2 -0.009428 0.019987 0.000506 0.000000 -0.007257 0.000000
# 3 -0.001016 0.000506 0.013091 0.000000 0.008063 0.000000
# 4 0.000000 0.000000 0.000000 0.038525 0.000000 0.002451
# 5 0.009945 -0.007257 0.008063 0.000000 0.048826 0.000000
# 6 0.000000 0.000000 0.000000 0.002451 0.000000 0.039045
#
#
# Mechanical properties :
#
#
# Convention : Reuss Voigt Hill
#
# Bulk Modulus (GPa) = 26.70205 28.61216 27.65710
# Shear Modulus (GPa) = 23.13925 27.36681 25.25303
#
# Velocity S-wave (km/s) = 3.46077 3.76366 3.61539
# Velocity P-wave (km/s) = 5.45805 5.80488 5.63414
#
# Compressibility (1/GPa) = 0.03745031
#
# Stress axis : x y z
#
# Youngs Moduli (GPa) = 41.23750 50.03304 76.39114
#
# Poissons Ratio (x) = 0.47173 0.07761
# Poissons Ratio (y) = 0.38880 -0.03865
# Poissons Ratio (z) = 0.04190 -0.02531
#
# Static dielectric constant tensor:
#      x y z
#    x 1.652840 0.000000 -0.007170 
#    y 0.000000 1.691920 0.000000 
#    z -0.007170 0.000000 1.671980 
# 
# From -- ./inp_files/47612.got.cif
#   From: 2010.05.17/outbox.cif.g08.bks.cpg/sg14_24_cif.got.tgz:47612.got - 2010.06.03 17:49:19.
