data_PCOD9243681
_publ_section_title
;
Structure prediction by ZEFSAII (Michael W. Deem and Ramdas Pophale) SiO2 
 PCOD9243681
Probable space group: P 21/C
;
_chemical_formula_sum "Si O2"
_cell_formula_units_Z 32
_cell_length_a 20.415661
_cell_length_b 13.706638
_cell_length_c 15.025594
_cell_angle_alpha 90.000000
_cell_angle_beta 21.814796
_cell_angle_gamma 90.000000
_cell_volume 1562.466157
_symmetry_space_group_name_H-M "P 21/C"
_symmetry_group_IT_number 14
_symmetry_cell_setting 'monoclinic'
loop_
_space_group_symop_operation_xyz
x,y,z
-x,1/2+y,1/2-z
-x,-y,-z
x,1/2-y,1/2+z
loop_
_atom_site_type_symbol
_atom_site_label
_atom_site_fract_x
_atom_site_fract_y
_atom_site_fract_z
Si Si1 0.275356 0.556143 0.349940
Si Si2 0.229415 0.446567 0.887167
Si Si3 0.915485 0.570534 0.276625
Si Si4 0.365726 0.972555 0.534993
Si Si5 0.135161 0.759141 0.983202
Si Si6 0.573275 0.826368 0.149260
Si Si7 0.544120 0.355425 0.399101
Si Si8 0.201334 0.365709 0.119928
O O1 0.161155 0.469897 0.534653
O O2 0.281867 0.556515 0.234992
O O3 0.194463 0.659534 0.478904
O O4 0.467828 0.539084 0.145984
O O5 0.350252 0.367827 0.684894
O O6 0.357696 0.540529 0.731284
O O7 0.186092 0.407222 0.039502
O O8 0.049165 0.488074 0.071224
O O9 0.747775 0.602809 0.429411
O O10 0.031337 0.665653 0.149995
O O11 0.247745 0.043376 0.623859
O O12 0.442223 0.879660 0.384326
O O13 0.322432 0.714909 0.714919
O O14 0.981334 0.812818 0.121303
O O15 0.482966 0.821810 0.167520
O O16 0.649559 0.718828 0.072767
#
# Coordination Sequence:
#
# PCOD9243681 Si02
#       8
#     4   4   4   4   4   4   4   4
#     4  10  20  39  62  90 121 166 202 256 318 371
#     4  10  20  38  63  84 118 165 202 254 317 369
#     4   9  20  39  60  87 127 156 201 257 311 364
#     4  10  22  38  62  90 123 162 212 259 307 374
#     4  10  21  37  61  86 124 159 201 254 302 376
#     4  10  21  38  61  89 124 162 209 264 300 375
#     4  10  21  38  62  88 118 162 209 254 312 371
#     4  11  21  39  60  88 127 164 204 257 317 368
#
# _framework density 20.480443000000001
#
# number of rings (size 3 to 8) (size 9 to 14) (size 15 to 20)
#    0.000    2.000    2.500    0.750    1.750    1.000 
#    4.500    0.000    5.500    0.000    0.000    0.000 
#    0.000    0.000    0.000    0.000    0.000    0.000 
#
# Total GULP energy -178199.771134 kJ/mol
# GULP energy per Si atom -5568.742848 kJ/mol
# Density = 2.043383 g / cm^3
# Si number density = 20.480443 Si / 1000 Ang^3
#
#
#
# Elastic Constant Matrix: (Units=GPa)
#
#
# Indices 1 2 3 4 5 6 
#
# 1 53.3276 16.5480 27.6082 0.0000 -1.2975 0.0000
# 2 16.5480 65.8344 24.0647 0.0000 -17.9848 0.0000
# 3 27.6082 24.0647 87.9772 0.0000 -14.1580 0.0000
# 4 0.0000 0.0000 0.0000 4.6878 0.0000 0.3548
# 5 -1.2975 -17.9848 -14.1580 0.0000 11.0799 0.0000
# 6 0.0000 0.0000 0.0000 0.3548 0.0000 15.2266
#
#
#
# Elastic Compliance Matrix: (Units=1/GPa)
#
#
# Indices 1 2 3 4 5 6 
#
# 1 0.026207 -0.010046 -0.009576 0.000000 -0.025473 0.000000
# 2 -0.010046 0.031155 0.003247 0.000000 0.053543 0.000000
# 3 -0.009576 0.003247 0.017814 0.000000 0.026913 0.000000
# 4 0.000000 0.000000 0.000000 0.213698 0.000000 -0.004979
# 5 -0.025473 0.053543 0.026913 0.000000 0.208570 0.000000
# 6 0.000000 0.000000 0.000000 -0.004979 0.000000 0.065791
#
#
# Mechanical properties :
#
#
# Convention : Reuss Voigt Hill
#
# Bulk Modulus (GPa) = 23.56964 38.17568 30.87266
# Shear Modulus (GPa) = 8.19503 15.46007 11.82755
#
# Velocity S-wave (km/s) = 2.00252 2.75047 2.40574
# Velocity P-wave (km/s) = 4.10854 5.36352 4.77742
#
# Compressibility (1/GPa) = 0.04242747
#
# Stress axis : x y z
#
# Youngs Moduli (GPa) = 38.15780 32.09786 56.13472
#
# Poissons Ratio (x) = 0.32246 0.53752
# Poissons Ratio (y) = 0.38333 -0.18228
# Poissons Ratio (z) = 0.36538 -0.10423
#
# Static dielectric constant tensor:
#      x y z
#    x 1.695960 0.000000 -0.031010 
#    y 0.000000 1.752320 0.000000 
#    z -0.031010 0.000000 1.792900 
# 
# From -- ./inp_files/41236.got.cif
#   From: 2010.05.17/outbox.cif.g08.bks.cpg/sg14_21_cif.got.tgz:41236.got - 2010.06.03 17:49:19.
