data_PCOD9243484
_publ_section_title
;
Structure prediction by ZEFSAII (Michael W. Deem and Ramdas Pophale) SiO2 
 PCOD9243484
Probable space group: P 21/C
;
_chemical_formula_sum "Si O2"
_cell_formula_units_Z 16
_cell_length_a 13.283371
_cell_length_b 5.067039
_cell_length_c 15.903798
_cell_angle_alpha 90.000000
_cell_angle_beta 35.342436
_cell_angle_gamma 90.000000
_cell_volume 619.210322
_symmetry_space_group_name_H-M "P 21/C"
_symmetry_group_IT_number 14
_symmetry_cell_setting 'monoclinic'
loop_
_space_group_symop_operation_xyz
x,y,z
-x,1/2+y,1/2-z
-x,-y,-z
x,1/2-y,1/2+z
loop_
_atom_site_type_symbol
_atom_site_label
_atom_site_fract_x
_atom_site_fract_y
_atom_site_fract_z
Si Si1 0.488566 0.156071 0.870508
Si Si2 0.654282 0.832261 0.318268
Si Si3 0.950903 0.637866 0.230698
Si Si4 0.769224 0.595944 0.074168
O O1 0.578475 0.376900 0.866712
O O2 0.311768 0.247136 0.948895
O O3 0.498674 0.874420 0.907769
O O4 0.623907 0.118858 0.699891
O O5 0.768805 0.747632 0.319218
O O6 0.773257 0.782189 0.153351
O O7 0.952406 0.380034 0.289007
O O8 0.057564 0.538746 0.076087
#
# Coordination Sequence:
#
# PCOD9243484 Si02
#       4
#     4   4   4   4
#     4  10  20  37  73  93 114 151 222 267 295 345
#     4  10  21  41  65  95 116 164 216 250 306 358
#     4  12  28  42  59  92 137 169 197 250 319 377
#     4  10  22  41  70  93 121 158 215 260 304 363
#
# _framework density 25.839364
#
# number of rings (size 3 to 8) (size 9 to 14) (size 15 to 20)
#    1.500    0.000    2.500    2.250    3.500    1.000 
#    0.000    7.500    0.000    0.000    0.000    0.000 
#    0.000    0.000    0.000    0.000    0.000    0.000 
#
# Total GULP energy -89613.673423 kJ/mol
# GULP energy per Si atom -5600.854589 kJ/mol
# Density = 2.578055 g / cm^3
# Si number density = 25.839364 Si / 1000 Ang^3
#
#
#
# Elastic Constant Matrix: (Units=GPa)
#
#
# Indices 1 2 3 4 5 6 
#
# 1 107.6473 16.1574 14.9987 0.0000 19.9207 0.0000
# 2 16.1574 131.8938 18.4289 0.0000 10.6816 0.0000
# 3 14.9987 18.4289 88.3165 0.0000 12.5695 0.0000
# 4 0.0000 0.0000 0.0000 45.7581 0.0000 6.5904
# 5 19.9207 10.6816 12.5695 0.0000 46.6193 0.0000
# 6 0.0000 0.0000 0.0000 6.5904 0.0000 40.1574
#
#
#
# Elastic Compliance Matrix: (Units=1/GPa)
#
#
# Indices 1 2 3 4 5 6 
#
# 1 0.010280 -0.000798 -0.001019 0.000000 -0.003935 0.000000
# 2 -0.000798 0.007961 -0.001367 0.000000 -0.001114 0.000000
# 3 -0.001019 -0.001367 0.012141 0.000000 -0.002525 0.000000
# 4 0.000000 0.000000 0.000000 0.022383 0.000000 -0.003673
# 5 -0.003935 -0.001114 -0.002525 0.000000 0.024068 0.000000
# 6 0.000000 0.000000 0.000000 -0.003673 0.000000 0.025505
#
#
# Mechanical properties :
#
#
# Convention : Reuss Voigt Hill
#
# Bulk Modulus (GPa) = 41.64552 47.44751 44.54652
# Shear Modulus (GPa) = 42.84133 45.05845 43.94989
#
# Velocity S-wave (km/s) = 4.07626 4.18040 4.12866
# Velocity P-wave (km/s) = 6.18923 6.45782 6.32495
#
# Compressibility (1/GPa) = 0.02401218
#
# Stress axis : x y z
#
# Youngs Moduli (GPa) = 97.28028 125.61398 82.36851
#
# Poissons Ratio (x) = 0.10027 0.08395
# Poissons Ratio (y) = 0.07765 0.11260
# Poissons Ratio (z) = 0.09915 0.17172
#
# Static dielectric constant tensor:
#      x y z
#    x 1.941550 0.000000 0.070770 
#    y 0.000000 1.936420 0.000000 
#    z 0.070770 0.000000 2.200490 
# 
# From -- ./inp_files/42364.got.cif
#   From: 2010.05.17/outbox.cif.g08.bks.cpg/sg14_22_cif.got.tgz:42364.got - 2010.06.03 17:49:19.
