data_PCOD9243604
_publ_section_title
;
Structure prediction by ZEFSAII (Michael W. Deem and Ramdas Pophale) SiO2 
 PCOD9243604
Probable space group: P 21/C
;
_chemical_formula_sum "Si O2"
_cell_formula_units_Z 28
_cell_length_a 8.826388
_cell_length_b 9.790420
_cell_length_c 25.717721
_cell_angle_alpha 90.000000
_cell_angle_beta 42.533244
_cell_angle_gamma 90.000000
_cell_volume 1502.363410
_symmetry_space_group_name_H-M "P 21/C"
_symmetry_group_IT_number 14
_symmetry_cell_setting 'monoclinic'
loop_
_space_group_symop_operation_xyz
x,y,z
-x,1/2+y,1/2-z
-x,-y,-z
x,1/2-y,1/2+z
loop_
_atom_site_type_symbol
_atom_site_label
_atom_site_fract_x
_atom_site_fract_y
_atom_site_fract_z
Si Si1 0.448674 0.288850 0.985877
Si Si2 0.445762 0.922709 0.787751
Si Si3 0.010997 0.341105 0.621879
Si Si4 0.641549 0.862061 0.272051
Si Si5 0.839075 0.403267 0.238372
Si Si6 0.344520 0.458053 0.115190
Si Si7 0.154090 0.604933 0.641672
O O1 0.522359 0.401361 0.925116
O O2 0.644641 0.177895 0.938579
O O3 0.423428 0.363592 0.047747
O O4 0.204745 0.225454 0.038372
O O5 0.177635 0.916590 0.864740
O O6 0.521038 0.767687 0.777823
O O7 0.446792 0.997476 0.731394
O O8 0.621535 0.013144 0.775653
O O9 0.888214 0.227764 0.689254
O O10 0.131964 0.447027 0.630381
O O11 0.620917 0.881884 0.339040
O O12 0.904502 0.841274 0.193458
O O13 0.807474 0.371487 0.306945
O O14 0.077157 0.484384 0.176076
#
# Coordination Sequence:
#
# PCOD9243604 Si02
#       7
#     4   4   4   4   4   4   4
#     4  10  20  38  61  87 123 160 197 255 304 361
#     4  11  21  38  60  88 122 159 193 255 303 354
#     4  10  22  39  55  91 124 158 196 257 303 368
#     4  10  22  38  64  90 121 153 211 248 298 355
#     4  10  21  36  64  88 117 152 213 254 294 350
#     4   9  21  38  64  88 118 160 211 246 298 359
#     4  10  22  35  66  88 116 156 209 251 303 349
#
# _framework density 18.637302999999999
#
# number of rings (size 3 to 8) (size 9 to 14) (size 15 to 20)
#    0.000    2.000    1.429    1.286   12.000    0.000 
#    0.000    1.429    3.143    0.000    0.000    0.000 
#    0.000    0.000    0.000    0.000    0.000    0.000 
#
# Total GULP energy -155966.717085 kJ/mol
# GULP energy per Si atom -5570.239896 kJ/mol
# Density = 1.859488 g / cm^3
# Si number density = 18.637303 Si / 1000 Ang^3
#
#
#
# Elastic Constant Matrix: (Units=GPa)
#
#
# Indices 1 2 3 4 5 6 
#
# 1 93.6634 32.4184 52.8556 0.0000 -16.2947 0.0000
# 2 32.4184 88.7088 48.9763 0.0000 -14.4867 0.0000
# 3 52.8556 48.9763 84.6059 0.0000 -22.2410 0.0000
# 4 0.0000 0.0000 0.0000 29.2046 0.0000 -17.5207
# 5 -16.2947 -14.4867 -22.2410 0.0000 12.3554 0.0000
# 6 0.0000 0.0000 0.0000 -17.5207 0.0000 30.7814
#
#
#
# Elastic Compliance Matrix: (Units=1/GPa)
#
#
# Indices 1 2 3 4 5 6 
#
# 1 0.016741 -0.000343 -0.008660 0.000000 0.006088 0.000000
# 2 -0.000343 0.016685 -0.008392 0.000000 0.004006 0.000000
# 3 -0.008660 -0.008392 0.031319 0.000000 0.035117 0.000000
# 4 0.000000 0.000000 0.000000 0.051997 0.000000 0.029597
# 5 0.006088 0.004006 0.035117 0.000000 0.156876 0.000000
# 6 0.000000 0.000000 0.000000 0.029597 0.000000 0.049333
#
#
# Mechanical properties :
#
#
# Convention : Reuss Voigt Hill
#
# Bulk Modulus (GPa) = 33.38119 59.49765 46.43942
# Shear Modulus (GPa) = 13.59709 23.31680 18.45695
#
# Velocity S-wave (km/s) = 2.70397 3.54090 3.15035
# Velocity P-wave (km/s) = 5.26293 6.97930 6.18098
#
# Compressibility (1/GPa) = 0.02995699
#
# Stress axis : x y z
#
# Youngs Moduli (GPa) = 59.73298 59.93323 31.92988
#
# Poissons Ratio (x) = 0.02054 0.27651
# Poissons Ratio (y) = 0.02047 0.26794
# Poissons Ratio (z) = 0.51728 0.50293
#
# Static dielectric constant tensor:
#      x y z
#    x 1.636010 0.000000 -0.023230 
#    y 0.000000 1.695220 0.000000 
#    z -0.023230 0.000000 1.632740 
# 
# From -- ./inp_files/54851.got.cif
#   From: 2010.05.17/outbox.cif.g08.bks.cpg/sg14_28_cif.got.tgz:54851.got - 2010.06.03 17:49:19.
