data_PCOD9243363
_publ_section_title
;
Structure prediction by ZEFSAII (Michael W. Deem and Ramdas Pophale) SiO2 
 PCOD9243363
Probable space group: P 21/C
;
_chemical_formula_sum "Si O2"
_cell_formula_units_Z 32
_cell_length_a 26.521577
_cell_length_b 10.949725
_cell_length_c 14.738167
_cell_angle_alpha 90.000000
_cell_angle_beta 21.357580
_cell_angle_gamma 90.000000
_cell_volume 1558.730013
_symmetry_space_group_name_H-M "P 21/C"
_symmetry_group_IT_number 14
_symmetry_cell_setting 'monoclinic'
loop_
_space_group_symop_operation_xyz
x,y,z
-x,1/2+y,1/2-z
-x,-y,-z
x,1/2-y,1/2+z
loop_
_atom_site_type_symbol
_atom_site_label
_atom_site_fract_x
_atom_site_fract_y
_atom_site_fract_z
Si Si1 0.372171 0.114035 0.795801
Si Si2 0.389788 0.334353 0.643652
Si Si3 0.327906 0.927656 0.366506
Si Si4 0.015234 0.813466 0.259300
Si Si5 0.677422 0.088225 0.262729
Si Si6 0.033186 0.948093 0.776682
Si Si7 0.246142 0.325391 0.691386
Si Si8 0.745083 0.546179 0.831072
O O1 0.324390 0.219040 0.805360
O O2 0.534365 0.148409 0.535719
O O3 0.356569 0.985534 0.771308
O O4 0.294345 0.104862 0.021466
O O5 0.555505 0.327075 0.348664
O O6 0.369149 0.449233 0.743881
O O7 0.321180 0.357200 0.660464
O O8 0.173917 0.906803 0.588497
O O9 0.321956 0.959534 0.482380
O O10 0.917806 0.831717 0.511253
O O11 0.996277 0.667658 0.272499
O O12 0.960949 0.919988 0.282166
O O13 0.179655 0.838884 0.988722
O O14 0.706499 0.992449 0.294692
O O15 0.911152 0.960632 0.054071
O O16 0.290176 0.186580 0.595161
#
# Coordination Sequence:
#
# PCOD9243363 Si02
#       8
#     4   4   4   4   4   4   4   4
#     4  11  22  39  64  84 122 164 204 258 316 375
#     4  11  22  36  59  88 122 160 203 262 310 371
#     4  11  21  36  60  91 121 158 210 255 310 371
#     4  10  22  40  65  92 127 167 208 264 307 375
#     4  10  22  40  61  88 122 162 206 255 317 368
#     4  10  21  39  65  90 128 163 211 257 318 368
#     4  11  21  39  61  89 121 162 209 253 315 374
#     4  10  20  37  62  89 118 163 209 254 310 380
#
# _framework density 20.529533000000001
#
# number of rings (size 3 to 8) (size 9 to 14) (size 15 to 20)
#    0.000    1.500    3.750    1.875    0.000    0.500 
#    0.000    0.000   13.750    0.000    0.000    0.000 
#    0.000    0.000    0.000    0.000    0.000    0.000 
#
# Total GULP energy -178324.111632 kJ/mol
# GULP energy per Si atom -5572.628488 kJ/mol
# Density = 2.048281 g / cm^3
# Si number density = 20.529533 Si / 1000 Ang^3
#
#
#
# Elastic Constant Matrix: (Units=GPa)
#
#
# Indices 1 2 3 4 5 6 
#
# 1 59.1993 -6.7988 25.2697 0.0000 8.6755 0.0000
# 2 -6.7988 33.3399 -21.9138 0.0000 7.4345 0.0000
# 3 25.2697 -21.9138 71.2077 0.0000 5.2764 0.0000
# 4 0.0000 0.0000 0.0000 26.0299 0.0000 9.5129
# 5 8.6755 7.4345 5.2764 0.0000 26.2095 0.0000
# 6 0.0000 0.0000 0.0000 9.5129 0.0000 19.7708
#
#
#
# Elastic Compliance Matrix: (Units=1/GPa)
#
#
# Indices 1 2 3 4 5 6 
#
# 1 0.020681 0.001244 -0.006520 0.000000 -0.005886 0.000000
# 2 0.001244 0.042777 0.013859 0.000000 -0.015336 0.000000
# 3 -0.006520 0.013859 0.021068 0.000000 -0.006014 0.000000
# 4 0.000000 0.000000 0.000000 0.046614 0.000000 -0.022429
# 5 -0.005886 -0.015336 -0.006014 0.000000 0.045663 0.000000
# 6 0.000000 0.000000 0.000000 -0.022429 0.000000 0.061371
#
#
# Mechanical properties :
#
#
# Convention : Reuss Voigt Hill
#
# Bulk Modulus (GPa) = 9.83353 17.42900 13.63127
# Shear Modulus (GPa) = 19.61518 25.54805 22.58161
#
# Velocity S-wave (km/s) = 3.09441 3.53151 3.32016
# Velocity P-wave (km/s) = 4.19136 5.01367 4.62084
#
# Compressibility (1/GPa) = 0.10169286
#
# Stress axis : x y z
#
# Youngs Moduli (GPa) = 48.35446 23.37701 47.46549
#
# Poissons Ratio (x) = -0.02909 0.30947
# Poissons Ratio (y) = -0.06017 -0.65783
# Poissons Ratio (z) = 0.31527 -0.32399
#
# Static dielectric constant tensor:
#      x y z
#    x 1.753240 0.000000 -0.048680 
#    y 0.000000 1.755060 0.000000 
#    z -0.048680 0.000000 1.777170 
# 
# From -- ./inp_files/52046.got.cif
#   From: 2010.05.17/outbox.cif.g08.bks.cpg/sg14_27_cif.got.tgz:52046.got - 2010.06.03 17:49:19.
