data_PCOD9243753
_publ_section_title
;
Structure prediction by ZEFSAII (Michael W. Deem and Ramdas Pophale) SiO2 
 PCOD9243753
Probable space group: P 21/C
;
_chemical_formula_sum "Si O2"
_cell_formula_units_Z 24
_cell_length_a 6.612746
_cell_length_b 13.401390
_cell_length_c 14.313412
_cell_angle_alpha 90.000000
_cell_angle_beta 122.729986
_cell_angle_gamma 90.000000
_cell_volume 1067.059270
_symmetry_space_group_name_H-M "P 21/C"
_symmetry_group_IT_number 14
_symmetry_cell_setting 'monoclinic'
loop_
_space_group_symop_operation_xyz
x,y,z
-x,1/2+y,1/2-z
-x,-y,-z
x,1/2-y,1/2+z
loop_
_atom_site_type_symbol
_atom_site_label
_atom_site_fract_x
_atom_site_fract_y
_atom_site_fract_z
Si Si1 0.432475 0.169934 0.465997
Si Si2 0.392407 0.547602 0.138531
Si Si3 0.106425 0.773146 0.320574
Si Si4 0.281170 0.369092 0.395773
Si Si5 0.898317 0.651166 0.950356
Si Si6 0.421543 0.916397 0.854238
O O1 0.416076 0.075943 0.393803
O O2 0.660202 0.164761 0.590158
O O3 0.450658 0.273581 0.412927
O O4 0.209065 0.187132 0.478489
O O5 0.288929 0.436618 0.123206
O O6 0.478311 0.586794 0.259369
O O7 0.157147 0.606455 0.042339
O O8 0.210286 0.664162 0.322258
O O9 0.975070 0.829816 0.203697
O O10 0.937465 0.777835 0.370969
O O11 0.355466 0.391983 0.521562
O O12 0.337294 0.472071 0.357857
#
# Coordination Sequence:
#
# PCOD9243753 Si02
#       6
#     4   4   4   4   4   4
#     4  10  22  38  65  93 122 170 223 266 331 393
#     4  10  20  38  64  93 128 168 214 276 334 385
#     4  10  21  40  66  90 127 176 214 270 332 389
#     4  10  21  40  63  92 136 171 215 276 325 400
#     4  10  20  38  65  96 128 164 219 281 318 393
#     4  10  21  40  66  94 133 179 213 272 344 388
#
# _framework density 22.491719
#
# number of rings (size 3 to 8) (size 9 to 14) (size 15 to 20)
#    0.000    2.000    1.667    1.500    0.000    2.667 
#    3.000    2.500    0.000    0.000    0.000    0.000 
#    0.000    0.000    0.000    0.000    0.000    0.000 
#
# Total GULP energy -133810.010975 kJ/mol
# GULP energy per Si atom -5575.417124 kJ/mol
# Density = 2.244053 g / cm^3
# Si number density = 22.491719 Si / 1000 Ang^3
#
#
#
# Elastic Constant Matrix: (Units=GPa)
#
#
# Indices 1 2 3 4 5 6 
#
# 1 55.8462 18.7890 9.6738 0.0000 -15.4182 0.0000
# 2 18.7890 101.7889 30.6777 0.0000 -11.2982 0.0000
# 3 9.6738 30.6777 91.4122 0.0000 -7.7347 0.0000
# 4 0.0000 0.0000 0.0000 30.6416 0.0000 0.2491
# 5 -15.4182 -11.2982 -7.7347 0.0000 30.4533 0.0000
# 6 0.0000 0.0000 0.0000 0.2491 0.0000 19.8868
#
#
#
# Elastic Compliance Matrix: (Units=1/GPa)
#
#
# Indices 1 2 3 4 5 6 
#
# 1 0.021627 -0.002742 -0.000540 0.000000 0.009795 0.000000
# 2 -0.002742 0.011590 -0.003427 0.000000 0.002041 0.000000
# 3 -0.000540 -0.003427 0.012280 0.000000 0.001574 0.000000
# 4 0.000000 0.000000 0.000000 0.032639 0.000000 -0.000409
# 5 0.009795 0.002041 0.001574 0.000000 0.038953 0.000000
# 6 0.000000 0.000000 0.000000 -0.000409 0.000000 0.050290
#
#
# Mechanical properties :
#
#
# Convention : Reuss Voigt Hill
#
# Bulk Modulus (GPa) = 31.17274 40.81425 35.99349
# Shear Modulus (GPa) = 26.11134 28.85679 27.48407
#
# Velocity S-wave (km/s) = 3.41094 3.58578 3.49945
# Velocity P-wave (km/s) = 5.42240 5.94386 5.68911
#
# Compressibility (1/GPa) = 0.03207931
#
# Stress axis : x y z
#
# Youngs Moduli (GPa) = 46.23937 86.28348 81.43506
#
# Poissons Ratio (x) = 0.23660 0.04394
# Poissons Ratio (y) = 0.12680 0.27904
# Poissons Ratio (z) = 0.02495 0.29566
#
# Static dielectric constant tensor:
#      x y z
#    x 1.890260 0.000000 -0.017010 
#    y 0.000000 1.890110 0.000000 
#    z -0.017010 0.000000 1.844620 
# 
# From -- ./inp_files/37398.got.cif
#   From: 2010.05.17/outbox.cif.g08.bks.cpg/sg14_19_cif.got.tgz:37398.got - 2010.06.03 17:49:19.
