data_PCOD9243808
_publ_section_title
;
Structure prediction by ZEFSAII (Michael W. Deem and Ramdas Pophale) SiO2 
 PCOD9243808
Probable space group: P 21/C
;
_chemical_formula_sum "Si O2"
_cell_formula_units_Z 26
_cell_length_a 9.571255
_cell_length_b 8.000367
_cell_length_c 20.554466
_cell_angle_alpha 90.000000
_cell_angle_beta 39.409543
_cell_angle_gamma 90.000000
_cell_volume 999.222992
_symmetry_space_group_name_H-M "P 21/C"
_symmetry_group_IT_number 14
_symmetry_cell_setting 'monoclinic'
loop_
_space_group_symop_operation_xyz
x,y,z
-x,1/2+y,1/2-z
-x,-y,-z
x,1/2-y,1/2+z
loop_
_atom_site_type_symbol
_atom_site_label
_atom_site_fract_x
_atom_site_fract_y
_atom_site_fract_z
Si Si1 0.537221 0.448668 0.174993
Si Si2 0.707445 0.447641 0.470919
Si Si3 0.561737 0.632259 0.925244
Si Si4 0.398338 0.573195 0.354072
Si Si5 0.997344 0.344701 0.714959
Si Si6 0.000000 0.500000 0.000000
Si Si7 0.898908 0.011535 0.691774
O O1 0.406261 0.453605 0.155645
O O2 0.385717 0.477167 0.291167
O O3 0.663949 0.267872 0.134681
O O4 0.746052 0.569282 0.095452
O O5 0.500000 0.500000 0.500000
O O6 0.645849 0.256254 0.505516
O O7 0.710888 0.511881 0.544087
O O8 0.928743 0.498523 0.355647
O O9 0.773992 0.737996 0.867033
O O10 0.500000 0.500000 0.000000
O O11 0.659708 0.576438 0.275551
O O12 0.970923 0.413207 0.797585
O O13 0.847455 0.201322 0.736834
O O14 0.000680 0.486620 0.082997
#
# Coordination Sequence:
#
# PCOD9243808 Si02
#       7
#     4   4   4   4   4   2   4
#     4  10  21  41  66  95 131 177 218 279 337 407
#     4   9  18  38  64  90 124 167 218 272 328 400
#     4  10  20  38  66  96 125 176 226 268 345 402
#     4  10  21  41  68  93 131 177 226 274 343 411
#     4  11  23  41  64  99 133 180 219 292 342 402
#     4  10  24  42  64  98 136 176 226 286 342 416
#     4  11  23  44  65  98 138 177 229 286 350 407
#
# _framework density 26.020218
#
# number of rings (size 3 to 8) (size 9 to 14) (size 15 to 20)
#    0.000    1.846    4.615    0.923    0.000    8.615 
#    5.538    0.000    0.000   19.385    0.000    0.000 
#    0.000    0.000    0.000    0.000    0.000    0.000 
#
# Total GULP energy -144806.994006 kJ/mol
# GULP energy per Si atom -5569.499769 kJ/mol
# Density = 2.596099 g / cm^3
# Si number density = 26.020218 Si / 1000 Ang^3
#
#
#
# Elastic Constant Matrix: (Units=GPa)
#
#
# Indices 1 2 3 4 5 6 
#
# 1 66.2184 -1.8719 36.1132 0.0000 37.7809 0.0000
# 2 -1.8719 63.8377 17.3696 0.0000 25.5107 0.0000
# 3 36.1132 17.3696 167.1378 0.0000 56.5645 0.0000
# 4 0.0000 0.0000 0.0000 29.0648 0.0000 13.4682
# 5 37.7809 25.5107 56.5645 0.0000 63.2091 0.0000
# 6 0.0000 0.0000 0.0000 13.4682 0.0000 14.6430
#
#
#
# Elastic Compliance Matrix: (Units=1/GPa)
#
#
# Indices 1 2 3 4 5 6 
#
# 1 0.026206 0.008366 -0.000126 0.000000 -0.018927 0.000000
# 2 0.008366 0.021438 0.000839 0.000000 -0.014404 0.000000
# 3 -0.000126 0.000839 0.008624 0.000000 -0.007981 0.000000
# 4 0.000000 0.000000 0.000000 0.059962 0.000000 -0.055152
# 5 -0.018927 -0.014404 -0.007981 0.000000 0.040089 0.000000
# 6 0.000000 0.000000 0.000000 -0.055152 0.000000 0.119019
#
#
# Mechanical properties :
#
#
# Convention : Reuss Voigt Hill
#
# Bulk Modulus (GPa) = 13.43611 44.49062 28.96336
# Shear Modulus (GPa) = 17.73127 37.75558 27.74342
#
# Velocity S-wave (km/s) = 2.61328 3.81334 3.26885
# Velocity P-wave (km/s) = 3.77896 6.04354 5.04009
#
# Compressibility (1/GPa) = 0.07442632
#
# Stress axis : x y z
#
# Youngs Moduli (GPa) = 38.15950 46.64670 115.95449
#
# Poissons Ratio (x) = -0.39027 0.01463
# Poissons Ratio (y) = -0.31926 -0.09729
# Poissons Ratio (z) = 0.00481 -0.03914
#
# Static dielectric constant tensor:
#      x y z
#    x 2.210620 0.000000 0.431460 
#    y 0.000000 2.419960 0.000000 
#    z 0.431460 0.000000 7.014600 
# 
# From -- ./inp_files/66779.got.cif
#   From: 2010.05.17/outbox.cif.g08.bks.cpg/sg14_34_cif.got.tgz:66779.got - 2010.06.03 17:49:19.
