data_PCOD9243422
_publ_section_title
;
Structure prediction by ZEFSAII (Michael W. Deem and Ramdas Pophale) SiO2 
 PCOD9243422
Probable space group: P 21/C
;
_chemical_formula_sum "Si O2"
_cell_formula_units_Z 24
_cell_length_a 12.293752
_cell_length_b 14.900177
_cell_length_c 10.906785
_cell_angle_alpha 90.000000
_cell_angle_beta 35.389267
_cell_angle_gamma 90.000000
_cell_volume 1157.037783
_symmetry_space_group_name_H-M "P 21/C"
_symmetry_group_IT_number 14
_symmetry_cell_setting 'monoclinic'
loop_
_space_group_symop_operation_xyz
x,y,z
-x,1/2+y,1/2-z
-x,-y,-z
x,1/2-y,1/2+z
loop_
_atom_site_type_symbol
_atom_site_label
_atom_site_fract_x
_atom_site_fract_y
_atom_site_fract_z
Si Si1 0.198466 0.174333 0.672719
Si Si2 0.066856 0.898510 0.416752
Si Si3 0.529995 0.987639 0.614564
Si Si4 0.869215 0.766807 0.998884
Si Si5 0.142973 0.888643 0.617796
Si Si6 0.857914 0.442336 0.404540
O O1 0.341636 0.100370 0.491165
O O2 0.218173 0.257062 0.557842
O O3 0.987397 0.133283 0.850130
O O4 0.224948 0.189155 0.794459
O O5 0.133191 0.859163 0.484748
O O6 0.200922 0.907176 0.176251
O O7 0.905586 0.834029 0.513036
O O8 0.000000 0.000000 0.500000
O O9 0.500000 0.000000 0.500000
O O10 0.651585 0.071483 0.549625
O O11 0.328396 0.972598 0.857865
O O12 0.066391 0.816263 0.785172
O O13 0.995399 0.971428 0.768124
#
# Coordination Sequence:
#
# PCOD9243422 Si02
#       6
#     4   4   4   4   4   4
#     4  10  22  38  64  89 123 164 200 256 309 363
#     4   9  19  37  62  88 121 164 205 247 313 370
#     4  11  22  39  62  90 123 161 212 249 305 371
#     4  11  19  38  64  91 122 160 205 255 310 365
#     4  10  20  37  64  90 119 165 202 254 310 362
#     4   9  20  39  62  89 124 160 206 253 303 372
#
# _framework density 20.742625
#
# number of rings (size 3 to 8) (size 9 to 14) (size 15 to 20)
#    0.000    2.000    1.667    3.000    0.000    3.333 
#    0.000   10.000    0.000    0.000    0.000    0.000 
#    0.000    0.000    0.000    0.000    0.000    0.000 
#
# Total GULP energy -133689.088945 kJ/mol
# GULP energy per Si atom -5570.378706 kJ/mol
# Density = 2.069541 g / cm^3
# Si number density = 20.742625 Si / 1000 Ang^3
#
#
#
# Elastic Constant Matrix: (Units=GPa)
#
#
# Indices 1 2 3 4 5 6 
#
# 1 86.1023 -1.1282 37.5213 0.0000 20.7553 0.0000
# 2 -1.1282 51.4666 -3.6790 0.0000 1.8591 0.0000
# 3 37.5213 -3.6790 85.2581 0.0000 8.2801 0.0000
# 4 0.0000 0.0000 0.0000 21.4828 0.0000 16.2450
# 5 20.7553 1.8591 8.2801 0.0000 36.8367 0.0000
# 6 0.0000 0.0000 0.0000 16.2450 0.0000 22.6051
#
#
#
# Elastic Compliance Matrix: (Units=1/GPa)
#
#
# Indices 1 2 3 4 5 6 
#
# 1 0.016271 0.000179 -0.006402 0.000000 -0.007738 0.000000
# 2 0.000179 0.019544 0.000890 0.000000 -0.001287 0.000000
# 3 -0.006402 0.000890 0.014557 0.000000 0.000290 0.000000
# 4 0.000000 0.000000 0.000000 0.101953 0.000000 -0.073268
# 5 -0.007738 -0.001287 0.000290 0.000000 0.031507 0.000000
# 6 0.000000 0.000000 0.000000 -0.073268 0.000000 0.096892
#
#
# Mechanical properties :
#
#
# Convention : Reuss Voigt Hill
#
# Bulk Modulus (GPa) = 25.18547 32.02836 28.60692
# Shear Modulus (GPa) = 16.41358 28.85909 22.63634
#
# Velocity S-wave (km/s) = 2.81605 3.73405 3.30706
# Velocity P-wave (km/s) = 4.76883 5.83654 5.32949
#
# Compressibility (1/GPa) = 0.03970543
#
# Stress axis : x y z
#
# Youngs Moduli (GPa) = 61.45741 51.16641 68.69711
#
# Poissons Ratio (x) = -0.00914 0.43978
# Poissons Ratio (y) = -0.01098 -0.06112
# Poissons Ratio (z) = 0.39343 -0.04552
#
# Static dielectric constant tensor:
#      x y z
#    x 1.812090 0.000000 0.014620 
#    y 0.000000 1.394490 0.000000 
#    z 0.014620 0.000000 1.768730 
# 
# From -- ./inp_files/30490.got.cif
#   From: 2010.05.17/outbox.cif.g08.bks.cpg/sg14_16_cif.got.tgz:30490.got - 2010.06.03 17:49:19.
