data_PCOD9243605
_publ_section_title
;
Structure prediction by ZEFSAII (Michael W. Deem and Ramdas Pophale) SiO2 
 PCOD9243605
Probable space group: P 21/C
;
_chemical_formula_sum "Si O2"
_cell_formula_units_Z 26
_cell_length_a 7.247518
_cell_length_b 21.426911
_cell_length_c 6.998013
_cell_angle_alpha 90.000000
_cell_angle_beta 57.973902
_cell_angle_gamma 90.000000
_cell_volume 921.341053
_symmetry_space_group_name_H-M "P 21/C"
_symmetry_group_IT_number 14
_symmetry_cell_setting 'monoclinic'
loop_
_space_group_symop_operation_xyz
x,y,z
-x,1/2+y,1/2-z
-x,-y,-z
x,1/2-y,1/2+z
loop_
_atom_site_type_symbol
_atom_site_label
_atom_site_fract_x
_atom_site_fract_y
_atom_site_fract_z
Si Si1 0.867209 0.466111 0.736321
Si Si2 0.423161 0.937323 0.140652
Si Si3 0.600746 0.308350 0.285777
Si Si4 0.172008 0.307889 0.294943
Si Si5 0.111231 0.698399 0.215517
Si Si6 0.398610 0.421198 0.026756
Si Si7 0.000000 0.000000 0.500000
O O1 0.766280 0.522117 0.939941
O O2 0.000000 0.500000 0.500000
O O3 0.641846 0.430891 0.808732
O O4 0.037241 0.444194 0.799199
O O5 0.441526 0.866688 0.051466
O O6 0.554482 0.931561 0.271667
O O7 0.170368 0.951369 0.300493
O O8 0.500000 0.000000 0.000000
O O9 0.379766 0.290901 0.304965
O O10 0.708821 0.246999 0.306780
O O11 0.764902 0.332815 0.028759
O O12 0.264445 0.357745 0.092407
O O13 0.067442 0.246094 0.268380
O O14 0.995053 0.336236 0.543715
#
# Coordination Sequence:
#
# PCOD9243605 Si02
#       7
#     4   4   4   4   4   4   2
#     4  10  20  38  61  87 126 167 211 266 324 399
#     4  10  21  38  61  92 132 173 216 276 341 408
#     4  10  22  40  66  95 134 171 232 278 345 422
#     4  10  21  40  66  91 138 169 217 286 340 397
#     4  10  22  40  66  99 127 177 228 281 343 416
#     4   9  21  37  58  88 127 166 213 264 335 403
#     4  10  22  36  62  92 126 162 224 262 316 418
#
# _framework density 28.219730999999999
#
# number of rings (size 3 to 8) (size 9 to 14) (size 15 to 20)
#    0.000    2.154    0.000    1.846    2.154    6.154 
#    0.000    0.000   40.615    0.000    0.000    0.000 
#    0.000    0.000    0.000    0.000    0.000    0.000 
#
# Total GULP energy -145036.581076 kJ/mol
# GULP energy per Si atom -5578.330041 kJ/mol
# Density = 2.815550 g / cm^3
# Si number density = 28.219731 Si / 1000 Ang^3
#
#
#
# Elastic Constant Matrix: (Units=GPa)
#
#
# Indices 1 2 3 4 5 6 
#
# 1 121.9686 33.8270 6.7480 0.0000 -24.2716 0.0000
# 2 33.8270 98.6952 27.2574 0.0000 -19.4965 0.0000
# 3 6.7480 27.2574 148.1166 0.0000 -17.1661 0.0000
# 4 0.0000 0.0000 0.0000 57.9560 0.0000 -15.2198
# 5 -24.2716 -19.4965 -17.1661 0.0000 46.8136 0.0000
# 6 0.0000 0.0000 0.0000 -15.2198 0.0000 18.8633
#
#
#
# Elastic Compliance Matrix: (Units=1/GPa)
#
#
# Indices 1 2 3 4 5 6 
#
# 1 0.009730 -0.002665 0.000525 0.000000 0.004128 0.000000
# 2 -0.002665 0.012129 -0.001760 0.000000 0.003024 0.000000
# 3 0.000525 -0.001760 0.007309 0.000000 0.002219 0.000000
# 4 0.000000 0.000000 0.000000 0.021893 0.000000 0.017665
# 5 0.004128 0.003024 0.002219 0.000000 0.025575 0.000000
# 6 0.000000 0.000000 0.000000 0.017665 0.000000 0.067266
#
#
# Mechanical properties :
#
#
# Convention : Reuss Voigt Hill
#
# Bulk Modulus (GPa) = 46.79629 56.04945 51.42287
# Shear Modulus (GPa) = 31.48145 44.78977 38.13561
#
# Velocity S-wave (km/s) = 3.34366 3.98826 3.68010
# Velocity P-wave (km/s) = 5.61476 6.41196 6.02656
#
# Compressibility (1/GPa) = 0.02136922
#
# Stress axis : x y z
#
# Youngs Moduli (GPa) = 102.77278 82.44659 136.82445
#
# Poissons Ratio (x) = 0.21969 -0.07190
# Poissons Ratio (y) = 0.27385 0.24083
# Poissons Ratio (z) = -0.05400 0.14512
#
# Static dielectric constant tensor:
#      x y z
#    x 3.284740 0.000000 0.157510 
#    y 0.000000 2.282290 0.000000 
#    z 0.157510 0.000000 2.394450 
# 
# From -- ./inp_files/10156.got.cif
#   From: 2010.05.17/outbox.cif.g08.bks.cpg/sg14_6_cif.got.tgz:10156.got - 2010.06.03 17:49:19.
