data_PCOD9243836
_publ_section_title
;
Structure prediction by ZEFSAII (Michael W. Deem and Ramdas Pophale) SiO2 
 PCOD9243836
Probable space group: P 21/C
;
_chemical_formula_sum "Si O2"
_cell_formula_units_Z 20
_cell_length_a 5.033857
_cell_length_b 10.859395
_cell_length_c 13.291619
_cell_angle_alpha 90.000000
_cell_angle_beta 74.992202
_cell_angle_gamma 90.000000
_cell_volume 701.798320
_symmetry_space_group_name_H-M "P 21/C"
_symmetry_group_IT_number 14
_symmetry_cell_setting 'monoclinic'
loop_
_space_group_symop_operation_xyz
x,y,z
-x,1/2+y,1/2-z
-x,-y,-z
x,1/2-y,1/2+z
loop_
_atom_site_type_symbol
_atom_site_label
_atom_site_fract_x
_atom_site_fract_y
_atom_site_fract_z
Si Si1 0.948811 0.655488 0.254289
Si Si2 0.321795 0.830912 0.091809
Si Si3 0.697632 0.859285 0.442275
Si Si4 0.219363 0.548146 0.892217
Si Si5 0.384161 0.925718 0.874613
O O1 0.853326 0.555151 0.180512
O O2 0.660015 0.661780 0.344171
O O3 0.921120 0.269084 0.320732
O O4 0.184303 0.597888 0.301651
O O5 0.492866 0.936876 0.130681
O O6 0.527175 0.722386 0.036835
O O7 0.235403 0.894356 0.994980
O O8 0.527794 0.899412 0.361810
O O9 0.020782 0.833750 0.395183
O O10 0.763785 0.986310 0.498561
#
# Coordination Sequence:
#
# PCOD9243836 Si02
#       5
#     4   4   4   4   4
#     4  12  26  48  77 110 150 199 253 313 370 444
#     4  11  27  52  76 106 157 199 246 315 381 451
#     4  10  20  38  69 100 141 191 228 296 371 416
#     4  10  21  38  66 109 140 176 245 297 351 431
#     4  11  30  49  74 111 148 201 254 301 381 461
#
# _framework density 28.498214999999998
#
# number of rings (size 3 to 8) (size 9 to 14) (size 15 to 20)
#    0.000    1.200    0.000    6.000    0.000   17.600 
#    0.000    0.000    0.000    0.000    0.000    0.000 
#    0.000    0.000    0.000    0.000    0.000    0.000 
#
# Total GULP energy -112075.819719 kJ/mol
# GULP energy per Si atom -5603.790986 kJ/mol
# Density = 2.843335 g / cm^3
# Si number density = 28.498215 Si / 1000 Ang^3
#
#
#
# Elastic Constant Matrix: (Units=GPa)
#
#
# Indices 1 2 3 4 5 6 
#
# 1 181.5970 42.3799 71.6424 0.0000 43.9698 0.0000
# 2 42.3799 144.9049 45.4970 0.0000 2.2879 0.0000
# 3 71.6424 45.4970 157.9760 0.0000 0.4473 0.0000
# 4 0.0000 0.0000 0.0000 14.5775 0.0000 -13.4142
# 5 43.9698 2.2879 0.4473 0.0000 65.5228 0.0000
# 6 0.0000 0.0000 0.0000 -13.4142 0.0000 57.2586
#
#
#
# Elastic Compliance Matrix: (Units=1/GPa)
#
#
# Indices 1 2 3 4 5 6 
#
# 1 0.008566 -0.001320 -0.003488 0.000000 -0.005678 0.000000
# 2 -0.001320 0.007795 -0.001648 0.000000 0.000625 0.000000
# 3 -0.003488 -0.001648 0.008380 0.000000 0.002341 0.000000
# 4 0.000000 0.000000 0.000000 0.087451 0.000000 0.020488
# 5 -0.005678 0.000625 0.002341 0.000000 0.019035 0.000000
# 6 0.000000 0.000000 0.000000 0.020488 0.000000 0.022264
#
#
# Mechanical properties :
#
#
# Convention : Reuss Voigt Hill
#
# Bulk Modulus (GPa) = 84.54810 89.27963 86.91386
# Shear Modulus (GPa) = 29.35194 49.13571 39.24382
#
# Velocity S-wave (km/s) = 3.21278 4.15682 3.71491
# Velocity P-wave (km/s) = 6.59506 7.37801 6.99749
#
# Compressibility (1/GPa) = 0.01182759
#
# Stress axis : x y z
#
# Youngs Moduli (GPa) = 116.74196 128.29135 119.33183
#
# Poissons Ratio (x) = 0.16939 0.41627
# Poissons Ratio (y) = 0.15414 0.19664
# Poissons Ratio (z) = 0.40723 0.21141
#
# Static dielectric constant tensor:
#      x y z
#    x 2.602950 0.000000 -0.288060 
#    y 0.000000 2.561320 0.000000 
#    z -0.288060 0.000000 2.309690 
# 
# From -- ./inp_files/36927.got.cif
#   From: 2010.05.17/outbox.cif.g08.bks.cpg/sg14_19_cif.got.tgz:36927.got - 2010.06.03 17:49:19.
