data_PCOD9243817
_publ_section_title
;
Structure prediction by ZEFSAII (Michael W. Deem and Ramdas Pophale) SiO2 
 PCOD9243817
Probable space group: P 21/C
;
_chemical_formula_sum "Si O2"
_cell_formula_units_Z 32
_cell_length_a 5.500244
_cell_length_b 21.061209
_cell_length_c 11.860486
_cell_angle_alpha 90.000000
_cell_angle_beta 89.352980
_cell_angle_gamma 90.000000
_cell_volume 1373.852306
_symmetry_space_group_name_H-M "P 21/C"
_symmetry_group_IT_number 14
_symmetry_cell_setting 'monoclinic'
loop_
_space_group_symop_operation_xyz
x,y,z
-x,1/2+y,1/2-z
-x,-y,-z
x,1/2-y,1/2+z
loop_
_atom_site_type_symbol
_atom_site_label
_atom_site_fract_x
_atom_site_fract_y
_atom_site_fract_z
Si Si1 0.095498 0.877592 0.685641
Si Si2 0.328843 0.676495 0.577079
Si Si3 0.636998 0.758425 0.914982
Si Si4 0.585061 0.002821 0.329702
Si Si5 0.805661 0.948314 0.537050
Si Si6 0.369425 0.451661 0.415782
Si Si7 0.140161 0.762487 0.289354
Si Si8 0.934473 0.878783 0.922480
O O1 0.138620 0.806180 0.725568
O O2 0.908664 0.882469 0.582433
O O3 0.005487 0.907694 0.803908
O O4 0.304361 0.926563 0.647722
O O5 0.523165 0.732592 0.542762
O O6 0.472876 0.612128 0.597725
O O7 0.157896 0.690194 0.684067
O O8 0.150001 0.664744 0.471630
O O9 0.403144 0.732504 0.849359
O O10 0.704374 0.833287 0.895475
O O11 0.893822 0.728994 0.866996
O O12 0.641365 0.950609 0.426587
O O13 0.656161 0.980135 0.207245
O O14 0.306633 0.018422 0.352108
O O15 0.000000 0.000000 0.500000
O O16 0.500000 0.500000 0.500000
O O17 0.128956 0.428604 0.481304
#
# Coordination Sequence:
#
# PCOD9243817 Si02
#       8
#     4   4   4   4   4   4   4   4
#     4  10  20  38  67  92 123 179 234 278 343 425
#     4  11  24  45  66 103 147 181 237 303 362 433
#     4  10  22  44  67  99 133 184 227 285 350 414
#     4  10  21  38  62  95 134 177 225 293 344 425
#     4   9  20  38  61  85 129 173 227 284 337 406
#     4  11  24  38  68 105 143 185 232 294 377 434
#     4  11  25  40  73  96 135 184 234 289 348 422
#     4  10  22  41  68  99 137 176 225 291 348 428
#
# _framework density 23.292168
#
# number of rings (size 3 to 8) (size 9 to 14) (size 15 to 20)
#    0.000    1.750    2.500    1.500    8.750    4.000 
#    0.000    6.250    2.750    0.000    0.000    0.000 
#    0.000    0.000    0.000    0.000    0.000    0.000 
#
# Total GULP energy -178144.577674 kJ/mol
# GULP energy per Si atom -5567.018052 kJ/mol
# Density = 2.323915 g / cm^3
# Si number density = 23.292168 Si / 1000 Ang^3
#
#
#
# Elastic Constant Matrix: (Units=GPa)
#
#
# Indices 1 2 3 4 5 6 
#
# 1 97.3265 10.6044 17.7515 0.0000 -18.9720 0.0000
# 2 10.6044 32.9718 25.7730 0.0000 -2.9626 0.0000
# 3 17.7515 25.7730 73.7028 0.0000 -14.6068 0.0000
# 4 0.0000 0.0000 0.0000 39.9597 0.0000 -8.5492
# 5 -18.9720 -2.9626 -14.6068 0.0000 45.4806 0.0000
# 6 0.0000 0.0000 0.0000 -8.5492 0.0000 16.6752
#
#
#
# Elastic Compliance Matrix: (Units=1/GPa)
#
#
# Indices 1 2 3 4 5 6 
#
# 1 0.011585 -0.002514 -0.001053 0.000000 0.004331 0.000000
# 2 -0.002514 0.042472 -0.014851 0.000000 -0.003052 0.000000
# 3 -0.001053 -0.014851 0.020010 0.000000 0.005020 0.000000
# 4 0.000000 0.000000 0.000000 0.028108 0.000000 0.014411
# 5 0.004331 -0.003052 0.005020 0.000000 0.025207 0.000000
# 6 0.000000 0.000000 0.000000 0.014411 0.000000 0.067357
#
#
# Mechanical properties :
#
#
# Convention : Reuss Voigt Hill
#
# Bulk Modulus (GPa) = 26.85961 34.69542 30.77751
# Shear Modulus (GPa) = 20.49301 30.41459 25.45380
#
# Velocity S-wave (km/s) = 2.96940 3.61749 3.30935
# Velocity P-wave (km/s) = 4.82836 5.69002 5.27681
#
# Compressibility (1/GPa) = 0.03723063
#
# Stress axis : x y z
#
# Youngs Moduli (GPa) = 86.31993 23.54495 49.97563
#
# Poissons Ratio (x) = 0.05919 0.05262
# Poissons Ratio (y) = 0.21699 0.74220
# Poissons Ratio (z) = 0.09089 0.34967
#
# Static dielectric constant tensor:
#      x y z
#    x 2.047030 0.000000 0.006210 
#    y 0.000000 1.963510 0.000000 
#    z 0.006210 0.000000 1.800800 
# 
# From -- ./inp_files/22102.got.cif
#   From: 2010.05.17/outbox.cif.g08.bks.cpg/sg14_12_cif.got.tgz:22102.got - 2010.06.03 17:49:19.
