data_PCOD9243618
_publ_section_title
;
Structure prediction by ZEFSAII (Michael W. Deem and Ramdas Pophale) SiO2 
 PCOD9243618
Probable space group: P 21/C
;
_chemical_formula_sum "Si O2"
_cell_formula_units_Z 30
_cell_length_a 8.466991
_cell_length_b 10.797692
_cell_length_c 14.300230
_cell_angle_alpha 90.000000
_cell_angle_beta 110.025498
_cell_angle_gamma 90.000000
_cell_volume 1228.339672
_symmetry_space_group_name_H-M "P 21/C"
_symmetry_group_IT_number 14
_symmetry_cell_setting 'monoclinic'
loop_
_space_group_symop_operation_xyz
x,y,z
-x,1/2+y,1/2-z
-x,-y,-z
x,1/2-y,1/2+z
loop_
_atom_site_type_symbol
_atom_site_label
_atom_site_fract_x
_atom_site_fract_y
_atom_site_fract_z
Si Si1 0.336051 0.438154 0.354103
Si Si2 0.482258 0.185802 0.327895
Si Si3 0.270523 0.945398 0.026043
Si Si4 0.112921 0.456894 0.890256
Si Si5 0.180327 0.433157 0.685078
Si Si6 0.802611 0.326003 0.783561
Si Si7 0.909593 0.266816 0.106195
Si Si8 0.500000 0.000000 0.500000
O O1 0.351124 0.295288 0.327403
O O2 0.532988 0.463598 0.413025
O O3 0.237553 0.463352 0.431135
O O4 0.260258 0.537774 0.266322
O O5 0.374947 0.099526 0.237436
O O6 0.646009 0.232077 0.306209
O O7 0.538709 0.099660 0.424628
O O8 0.166605 0.971652 0.097925
O O9 0.230443 0.809472 0.978964
O O10 0.122579 0.466062 0.777929
O O11 0.059023 0.592527 0.912822
O O12 0.303256 0.443591 0.963948
O O13 0.971526 0.353058 0.876302
O O14 0.076141 0.313969 0.632769
O O15 0.846220 0.245643 0.701061
#
# Coordination Sequence:
#
# PCOD9243618 Si02
#       8
#     4   4   4   4   4   4   4   2
#     4  10  21  38  61  95 129 161 208 268 323 372
#     4  11  22  40  63  89 127 171 209 262 333 374
#     4  10  20  38  61  95 128 159 215 269 306 387
#     4  10  22  42  62  91 130 166 212 267 324 381
#     4  10  21  39  63  93 126 163 217 260 312 389
#     4  10  22  39  65  93 127 166 221 265 309 403
#     4  10  21  38  62  93 128 168 209 264 327 372
#     4  10  24  42  60  90 126 164 214 266 310 402
#
# _framework density 24.423210999999998
#
# number of rings (size 3 to 8) (size 9 to 14) (size 15 to 20)
#    0.000    1.867    1.333    2.000    1.867    0.533 
#    4.800    0.000    0.000    0.000    0.000    0.000 
#    0.000    0.000    0.000    0.000    0.000    0.000 
#
# Total GULP energy -167171.901388 kJ/mol
# GULP energy per Si atom -5572.396713 kJ/mol
# Density = 2.436762 g / cm^3
# Si number density = 24.423211 Si / 1000 Ang^3
#
#
#
# Elastic Constant Matrix: (Units=GPa)
#
#
# Indices 1 2 3 4 5 6 
#
# 1 85.1373 -0.2184 12.3929 0.0000 18.1599 0.0000
# 2 -0.2184 43.9559 7.6881 0.0000 6.4494 0.0000
# 3 12.3929 7.6881 56.0585 0.0000 7.3720 0.0000
# 4 0.0000 0.0000 0.0000 23.8758 0.0000 9.0655
# 5 18.1599 6.4494 7.3720 0.0000 30.1104 0.0000
# 6 0.0000 0.0000 0.0000 9.0655 0.0000 21.8840
#
#
#
# Elastic Compliance Matrix: (Units=1/GPa)
#
#
# Indices 1 2 3 4 5 6 
#
# 1 0.013808 0.001649 -0.002208 0.000000 -0.008140 0.000000
# 2 0.001649 0.024071 -0.002952 0.000000 -0.005428 0.000000
# 3 -0.002208 -0.002952 0.019088 0.000000 -0.002709 0.000000
# 4 0.000000 0.000000 0.000000 0.049701 0.000000 -0.020589
# 5 -0.008140 -0.005428 -0.002709 0.000000 0.039946 0.000000
# 6 0.000000 0.000000 0.000000 -0.020589 0.000000 0.054224
#
#
# Mechanical properties :
#
#
# Convention : Reuss Voigt Hill
#
# Bulk Modulus (GPa) = 20.02224 24.98631 22.50427
# Shear Modulus (GPa) = 22.27090 26.19331 24.23211
#
# Velocity S-wave (km/s) = 3.02300 3.27842 3.15330
# Velocity P-wave (km/s) = 4.51670 4.95817 4.74258
#
# Compressibility (1/GPa) = 0.04994447
#
# Stress axis : x y z
#
# Youngs Moduli (GPa) = 72.42333 41.54383 52.38950
#
# Poissons Ratio (x) = -0.06851 0.11568
# Poissons Ratio (y) = -0.11944 0.15465
# Poissons Ratio (z) = 0.15992 0.12264
#
# Static dielectric constant tensor:
#      x y z
#    x 1.932010 0.000000 0.011630 
#    y 0.000000 1.938990 0.000000 
#    z 0.011630 0.000000 1.962840 
# 
# From -- ./inp_files/40140.got.cif
#   From: 2010.05.17/outbox.cif.g08.bks.cpg/sg14_21_cif.got.tgz:40140.got - 2010.06.03 17:49:19.
