data_PCOD9243502
_publ_section_title
;
Structure prediction by ZEFSAII (Michael W. Deem and Ramdas Pophale) SiO2 
 PCOD9243502
Probable space group: P 21/C
;
_chemical_formula_sum "Si O2"
_cell_formula_units_Z 28
_cell_length_a 27.913663
_cell_length_b 5.197425
_cell_length_c 13.513053
_cell_angle_alpha 90.000000
_cell_angle_beta 143.855362
_cell_angle_gamma 90.000000
_cell_volume 1156.331110
_symmetry_space_group_name_H-M "P 21/C"
_symmetry_group_IT_number 14
_symmetry_cell_setting 'monoclinic'
loop_
_space_group_symop_operation_xyz
x,y,z
-x,1/2+y,1/2-z
-x,-y,-z
x,1/2-y,1/2+z
loop_
_atom_site_type_symbol
_atom_site_label
_atom_site_fract_x
_atom_site_fract_y
_atom_site_fract_z
Si Si1 0.055800 0.935834 0.498065
Si Si2 0.398524 0.597347 0.058056
Si Si3 0.560160 0.599130 0.247518
Si Si4 0.275153 0.345570 0.537780
Si Si5 0.766530 0.363359 0.725607
Si Si6 0.993185 0.059531 0.870118
Si Si7 0.193675 0.851932 0.484588
O O1 0.143055 0.812345 0.665313
O O2 0.012024 0.722408 0.359095
O O3 0.000000 0.000000 0.500000
O O4 0.059049 0.220200 0.457815
O O5 0.462902 0.629863 0.075107
O O6 0.416461 0.321012 0.134389
O O7 0.423244 0.816500 0.179785
O O8 0.303967 0.650667 0.882847
O O9 0.628377 0.646245 0.278186
O O10 0.264712 0.430040 0.405809
O O11 0.228840 0.568956 0.520746
O O12 0.236923 0.066857 0.489386
O O13 0.784670 0.438434 0.868254
O O14 0.902582 0.143674 0.693094
O O15 0.000000 0.000000 0.000000
#
# Coordination Sequence:
#
# PCOD9243502 Si02
#       7
#     4   4   4   4   4   4   4
#     4  10  21  37  61  87 119 165 210 258 323 376
#     4   9  19  36  62  96 126 168 219 260 320 388
#     4   9  18  36  64  92 127 173 213 258 322 385
#     4  11  23  43  65  94 133 171 213 271 323 385
#     4  11  25  43  68  96 132 171 215 277 327 382
#     4  10  20  38  58  84 122 161 206 263 311 375
#     4  12  26  41  66  99 128 171 225 263 328 395
#
# _framework density 24.214516
#
# number of rings (size 3 to 8) (size 9 to 14) (size 15 to 20)
#    0.000    1.714    0.000    6.000    0.000    8.000 
#    0.000    1.429    0.000    0.000    0.000    0.000 
#    0.000    0.000    0.000    0.000    0.000    0.000 
#
# Total GULP energy -156234.982189 kJ/mol
# GULP energy per Si atom -5579.820792 kJ/mol
# Density = 2.415940 g / cm^3
# Si number density = 24.214516 Si / 1000 Ang^3
#
#
#
# Elastic Constant Matrix: (Units=GPa)
#
#
# Indices 1 2 3 4 5 6 
#
# 1 77.4232 4.6241 68.7642 0.0000 35.2217 0.0000
# 2 4.6241 108.9837 9.7447 0.0000 19.6874 0.0000
# 3 68.7642 9.7447 96.0167 0.0000 22.0800 0.0000
# 4 0.0000 0.0000 0.0000 10.3480 0.0000 11.4524
# 5 35.2217 19.6874 22.0800 0.0000 65.2907 0.0000
# 6 0.0000 0.0000 0.0000 11.4524 0.0000 16.8316
#
#
#
# Elastic Compliance Matrix: (Units=1/GPa)
#
#
# Indices 1 2 3 4 5 6 
#
# 1 0.046944 0.003638 -0.030267 0.000000 -0.016186 0.000000
# 2 0.003638 0.009996 -0.002685 0.000000 -0.004069 0.000000
# 3 -0.030267 -0.002685 0.030820 0.000000 0.006715 0.000000
# 4 0.000000 0.000000 0.000000 0.391282 0.000000 -0.266231
# 5 -0.016186 -0.004069 0.006715 0.000000 0.023004 0.000000
# 6 0.000000 0.000000 0.000000 -0.266231 0.000000 0.240558
#
#
# Mechanical properties :
#
#
# Convention : Reuss Voigt Hill
#
# Bulk Modulus (GPa) = 34.32448 49.85438 42.08943
# Shear Modulus (GPa) = 6.16568 31.78010 18.97289
#
# Velocity S-wave (km/s) = 1.59744 3.62669 2.80220
# Velocity P-wave (km/s) = 4.19623 6.17823 5.28104
#
# Compressibility (1/GPa) = 0.02913373
#
# Stress axis : x y z
#
# Youngs Moduli (GPa) = 21.30191 100.03571 32.44694
#
# Poissons Ratio (x) = -0.36397 0.98208
# Poissons Ratio (y) = -0.07751 0.08710
# Poissons Ratio (z) = 0.64475 0.26855
#
# Static dielectric constant tensor:
#      x y z
#    x 2.166660 0.000000 0.003240 
#    y 0.000000 2.021030 0.000000 
#    z 0.003240 0.000000 1.996190 
# 
# From -- ./inp_files/51731.got.cif
#   From: 2010.05.17/outbox.cif.g08.bks.cpg/sg14_26_cif.got.tgz:51731.got - 2010.06.03 17:49:19.
