data_PCOD9243851
_publ_section_title
;
Structure prediction by ZEFSAII (Michael W. Deem and Ramdas Pophale) SiO2 
 PCOD9243851
Probable space group: P 21/C
;
_chemical_formula_sum "Si O2"
_cell_formula_units_Z 20
_cell_length_a 9.291410
_cell_length_b 13.639135
_cell_length_c 5.351235
_cell_angle_alpha 90.000000
_cell_angle_beta 86.700606
_cell_angle_gamma 90.000000
_cell_volume 677.020787
_symmetry_space_group_name_H-M "P 21/C"
_symmetry_group_IT_number 14
_symmetry_cell_setting 'monoclinic'
loop_
_space_group_symop_operation_xyz
x,y,z
-x,1/2+y,1/2-z
-x,-y,-z
x,1/2-y,1/2+z
loop_
_atom_site_type_symbol
_atom_site_label
_atom_site_fract_x
_atom_site_fract_y
_atom_site_fract_z
Si Si1 0.383119 0.700579 0.329758
Si Si2 0.742214 0.507488 0.238690
Si Si3 0.248928 0.306751 0.455436
Si Si4 0.500000 0.000000 0.000000
Si Si5 0.079813 0.638642 0.457975
Si Si6 0.000000 0.000000 0.500000
O O1 0.437105 0.752781 0.572621
O O2 0.417468 0.586721 0.345835
O O3 0.208986 0.709573 0.374694
O O4 0.693448 0.582709 0.470539
O O5 0.591273 0.458021 0.233993
O O6 0.869363 0.430716 0.311160
O O7 0.836677 0.559306 0.024413
O O8 0.288741 0.257064 0.193709
O O9 0.074679 0.317478 0.468709
O O10 0.059998 0.570286 0.220086
#
# Coordination Sequence:
#
# PCOD9243851 Si02
#       6
#     4   4   4   2   4   2
#     4  11  26  48  76 112 152 206 266 320 382 474
#     4  10  24  43  68 100 138 190 242 297 369 452
#     4  11  24  38  64 100 140 180 229 300 367 435
#     4  10  26  52  74 108 152 210 250 322 392 456
#     4  10  23  40  69 102 143 190 244 309 376 455
#     4  10  20  38  72  98 134 182 242 306 374 460
#
# _framework density 29.541193
#
# number of rings (size 3 to 8) (size 9 to 14) (size 15 to 20)
#    0.000    1.600    0.000    3.600   16.800    2.400 
#    3.600    0.000    0.000    0.000    0.000    0.000 
#    0.000    0.000    0.000    0.000    0.000    0.000 
#
# Total GULP energy -111363.375414 kJ/mol
# GULP energy per Si atom -5568.168771 kJ/mol
# Density = 2.947396 g / cm^3
# Si number density = 29.541193 Si / 1000 Ang^3
#
#
#
# Elastic Constant Matrix: (Units=GPa)
#
#
# Indices 1 2 3 4 5 6 
#
# 1 155.2937 -12.1735 33.1570 0.0000 -30.7570 0.0000
# 2 -12.1735 151.2128 95.0733 0.0000 -4.1169 0.0000
# 3 33.1570 95.0733 185.6072 0.0000 -2.0283 0.0000
# 4 0.0000 0.0000 0.0000 58.1508 0.0000 10.8490
# 5 -30.7570 -4.1169 -2.0283 0.0000 31.5901 0.0000
# 6 0.0000 0.0000 0.0000 10.8490 0.0000 17.7430
#
#
#
# Elastic Compliance Matrix: (Units=1/GPa)
#
#
# Indices 1 2 3 4 5 6 
#
# 1 0.009090 0.002857 -0.002988 0.000000 0.009031 0.000000
# 2 0.002857 0.010681 -0.005940 0.000000 0.003792 0.000000
# 3 -0.002988 -0.005940 0.008930 0.000000 -0.003110 0.000000
# 4 0.000000 0.000000 0.000000 0.019411 0.000000 -0.011869
# 5 0.009031 0.003792 -0.003110 0.000000 0.040742 0.000000
# 6 0.000000 0.000000 0.000000 -0.011869 0.000000 0.063618
#
#
# Mechanical properties :
#
#
# Convention : Reuss Voigt Hill
#
# Bulk Modulus (GPa) = 60.39504 80.46969 70.43236
# Shear Modulus (GPa) = 29.38840 46.56726 37.97783
#
# Velocity S-wave (km/s) = 3.15751 3.97463 3.58940
# Velocity P-wave (km/s) = 5.81222 6.95432 6.40876
#
# Compressibility (1/GPa) = 0.01655765
#
# Stress axis : x y z
#
# Youngs Moduli (GPa) = 110.01138 93.62301 111.97913
#
# Poissons Ratio (x) = -0.26744 0.33463
# Poissons Ratio (y) = -0.31425 0.66516
# Poissons Ratio (z) = 0.32875 0.55612
#
# Static dielectric constant tensor:
#      x y z
#    x -0.809090 0.000000 -1.830890 
#    y 0.000000 1.727100 0.000000 
#    z -1.830890 0.000000 -1.346290 
# 
# From -- ./inp_files/2471.got.cif
#   From: 2010.05.17/outbox.cif.g08.bks.cpg/sg14_2_cif.got.tgz:2471.got - 2010.06.03 17:49:19.
