data_PCOD9243578
_publ_section_title
;
Structure prediction by ZEFSAII (Michael W. Deem and Ramdas Pophale) SiO2 
 PCOD9243578
Probable space group: P 21/C
;
_chemical_formula_sum "Si O2"
_cell_formula_units_Z 24
_cell_length_a 14.412161
_cell_length_b 8.461279
_cell_length_c 15.967407
_cell_angle_alpha 90.000000
_cell_angle_beta 40.788642
_cell_angle_gamma 90.000000
_cell_volume 1272.016023
_symmetry_space_group_name_H-M "P 21/C"
_symmetry_group_IT_number 14
_symmetry_cell_setting 'monoclinic'
loop_
_space_group_symop_operation_xyz
x,y,z
-x,1/2+y,1/2-z
-x,-y,-z
x,1/2-y,1/2+z
loop_
_atom_site_type_symbol
_atom_site_label
_atom_site_fract_x
_atom_site_fract_y
_atom_site_fract_z
Si Si1 0.596001 0.418737 0.366334
Si Si2 0.160697 0.431138 0.394390
Si Si3 0.590308 0.860790 0.167032
Si Si4 0.340094 0.565370 0.116963
Si Si5 0.339036 0.995158 0.430038
Si Si6 0.841987 0.554693 0.099843
O O1 0.500000 0.500000 0.500000
O O2 0.497604 0.425341 0.351147
O O3 0.640362 0.245042 0.366275
O O4 0.739838 0.508754 0.245675
O O5 0.270008 0.459009 0.398662
O O6 0.244122 0.483018 0.253458
O O7 0.154051 0.242783 0.406237
O O8 0.000000 0.500000 0.500000
O O9 0.619037 0.678741 0.119676
O O10 0.476508 0.883937 0.320118
O O11 0.500000 0.500000 0.000000
O O12 0.283361 0.535443 0.061531
O O13 0.222776 0.968870 0.437786
O O14 0.000000 0.500000 0.000000
#
# Coordination Sequence:
#
# PCOD9243578 Si02
#       6
#     4   4   4   4   4   4
#     4  11  23  38  64  92 125 158 207 266 308 369
#     4  11  23  41  65  89 127 171 207 259 315 375
#     4  10  20  38  60  91 121 161 207 250 316 365
#     4  12  21  40  65  96 122 159 218 257 309 375
#     4  10  22  37  66  90 125 164 209 259 308 376
#     4  10  23  44  60  89 130 167 208 256 322 370
#
# _framework density 18.867687
#
# number of rings (size 3 to 8) (size 9 to 14) (size 15 to 20)
#    0.000    1.333    3.333    2.000    4.667    1.333 
#    3.000    0.000    0.000    0.000    0.000    0.000 
#    0.000    0.000    0.000    0.000    0.000    0.000 
#
# Total GULP energy -133739.904415 kJ/mol
# GULP energy per Si atom -5572.496017 kJ/mol
# Density = 1.882474 g / cm^3
# Si number density = 18.867687 Si / 1000 Ang^3
#
#
#
# Elastic Constant Matrix: (Units=GPa)
#
#
# Indices 1 2 3 4 5 6 
#
# 1 101.1873 28.8429 70.0709 0.0000 -11.4301 0.0000
# 2 28.8429 49.8949 25.8526 0.0000 -5.2134 0.0000
# 3 70.0709 25.8526 127.0157 0.0000 -4.3687 0.0000
# 4 0.0000 0.0000 0.0000 36.9673 0.0000 -4.6003
# 5 -11.4301 -5.2134 -4.3687 0.0000 40.3967 0.0000
# 6 0.0000 0.0000 0.0000 -4.6003 0.0000 24.1569
#
#
#
# Elastic Compliance Matrix: (Units=1/GPa)
#
#
# Indices 1 2 3 4 5 6 
#
# 1 0.017757 -0.005472 -0.008566 0.000000 0.003392 0.000000
# 2 -0.005472 0.024327 -0.001885 0.000000 0.001387 0.000000
# 3 -0.008566 -0.001885 0.012939 0.000000 -0.001268 0.000000
# 4 0.000000 0.000000 0.000000 0.027708 0.000000 0.005276
# 5 0.003392 0.001387 -0.001268 0.000000 0.025756 0.000000
# 6 0.000000 0.000000 0.000000 0.005276 0.000000 0.042401
#
#
# Mechanical properties :
#
#
# Convention : Reuss Voigt Hill
#
# Bulk Modulus (GPa) = 43.14600 58.62564 50.88582
# Shear Modulus (GPa) = 26.25237 30.52629 28.38933
#
# Velocity S-wave (km/s) = 3.73418 4.02669 3.88319
# Velocity P-wave (km/s) = 6.44279 7.26350 6.86542
#
# Compressibility (1/GPa) = 0.02317712
#
# Stress axis : x y z
#
# Youngs Moduli (GPa) = 56.31490 41.10640 77.28861
#
# Poissons Ratio (x) = 0.22495 0.66203
# Poissons Ratio (y) = 0.30818 0.14568
# Poissons Ratio (z) = 0.48238 0.07748
#
# Static dielectric constant tensor:
#      x y z
#    x 1.714250 0.000000 0.046950 
#    y 0.000000 1.699160 0.000000 
#    z 0.046950 0.000000 1.646110 
# 
# From -- ./inp_files/46348.got.cif
#   From: 2010.05.17/outbox.cif.g08.bks.cpg/sg14_24_cif.got.tgz:46348.got - 2010.06.03 17:49:19.
