data_PCOD9243807
_publ_section_title
;
Structure prediction by ZEFSAII (Michael W. Deem and Ramdas Pophale) SiO2 
 PCOD9243807
Probable space group: P 21/C
;
_chemical_formula_sum "Si O2"
_cell_formula_units_Z 24
_cell_length_a 13.058512
_cell_length_b 12.023409
_cell_length_c 12.173751
_cell_angle_alpha 90.000000
_cell_angle_beta 32.542645
_cell_angle_gamma 90.000000
_cell_volume 1028.180176
_symmetry_space_group_name_H-M "P 21/C"
_symmetry_group_IT_number 14
_symmetry_cell_setting 'monoclinic'
loop_
_space_group_symop_operation_xyz
x,y,z
-x,1/2+y,1/2-z
-x,-y,-z
x,1/2-y,1/2+z
loop_
_atom_site_type_symbol
_atom_site_label
_atom_site_fract_x
_atom_site_fract_y
_atom_site_fract_z
Si Si1 0.453616 0.529880 0.724816
Si Si2 0.908586 0.821892 0.615929
Si Si3 0.811652 0.528826 0.539418
Si Si4 0.161450 0.849773 0.812795
Si Si5 0.034502 0.473882 0.143621
Si Si6 0.478161 0.818873 0.988192
O O1 0.617699 0.567945 0.658899
O O2 0.514468 0.411921 0.614006
O O3 0.427747 0.613397 0.645594
O O4 0.251859 0.510793 0.965701
O O5 0.694445 0.777217 0.807996
O O6 0.069004 0.731299 0.487847
O O7 0.924348 0.923010 0.686568
O O8 0.955635 0.877619 0.455506
O O9 0.774222 0.462483 0.685476
O O10 0.975478 0.620449 0.409324
O O11 0.917342 0.447749 0.357189
O O12 0.330250 0.780391 0.605667
#
# Coordination Sequence:
#
# PCOD9243807 Si02
#       6
#     4   4   4   4   4   4
#     4  10  20  40  68  95 124 162 218 279 324 373
#     4  10  20  38  66  96 124 163 214 273 327 377
#     4  11  25  42  60  91 139 179 212 258 324 394
#     4  11  25  42  60  91 137 178 212 259 323 392
#     4  10  20  38  67  96 125 164 215 276 326 376
#     4  10  20  40  69  95 123 160 219 275 323 381
#
# _framework density 23.342213000000001
#
# number of rings (size 3 to 8) (size 9 to 14) (size 15 to 20)
#    0.000    1.667    3.333    1.000    0.000    5.333 
#    6.000    3.333    0.000    0.000    0.000    0.000 
#    0.000    0.000    0.000    0.000    0.000    0.000 
#
# Total GULP energy -134193.150034 kJ/mol
# GULP energy per Si atom -5591.381251 kJ/mol
# Density = 2.328908 g / cm^3
# Si number density = 23.342213 Si / 1000 Ang^3
#
#
#
# Elastic Constant Matrix: (Units=GPa)
#
#
# Indices 1 2 3 4 5 6 
#
# 1 75.4123 20.6623 28.9939 0.0000 -29.3530 0.0000
# 2 20.6623 64.8541 22.8832 0.0000 -20.2014 0.0000
# 3 28.9939 22.8832 96.7365 0.0000 -32.4038 0.0000
# 4 0.0000 0.0000 0.0000 19.5154 0.0000 -7.3983
# 5 -29.3530 -20.2014 -32.4038 0.0000 37.7021 0.0000
# 6 0.0000 0.0000 0.0000 -7.3983 0.0000 13.0737
#
#
#
# Elastic Compliance Matrix: (Units=1/GPa)
#
#
# Indices 1 2 3 4 5 6 
#
# 1 0.019248 -0.001664 -0.000919 0.000000 0.013304 0.000000
# 2 -0.001664 0.018805 -0.001416 0.000000 0.007563 0.000000
# 3 -0.000919 -0.001416 0.014680 0.000000 0.011143 0.000000
# 4 0.000000 0.000000 0.000000 0.065237 0.000000 0.036917
# 5 0.013304 0.007563 0.011143 0.000000 0.050511 0.000000
# 6 0.000000 0.000000 0.000000 0.036917 0.000000 0.097380
#
#
# Mechanical properties :
#
#
# Convention : Reuss Voigt Hill
#
# Bulk Modulus (GPa) = 22.35368 42.45350 32.40359
# Shear Modulus (GPa) = 17.31472 25.02250 21.16861
#
# Velocity S-wave (km/s) = 2.72651 3.27767 3.01471
# Velocity P-wave (km/s) = 4.41691 5.70536 5.10197
#
# Compressibility (1/GPa) = 0.04473537
#
# Stress axis : x y z
#
# Youngs Moduli (GPa) = 51.95324 53.17750 68.11811
#
# Poissons Ratio (x) = 0.08849 0.06259
# Poissons Ratio (y) = 0.08645 0.09646
# Poissons Ratio (z) = 0.04774 0.07531
#
# Static dielectric constant tensor:
#      x y z
#    x 1.895940 0.000000 0.012880 
#    y 0.000000 1.921210 0.000000 
#    z 0.012880 0.000000 1.877370 
# 
# From -- ./inp_files/47070.got.cif
#   From: 2010.05.17/outbox.cif.g08.bks.cpg/sg14_24_cif.got.tgz:47070.got - 2010.06.03 17:49:19.
