data_PCOD9243713
_publ_section_title
;
Structure prediction by ZEFSAII (Michael W. Deem and Ramdas Pophale) SiO2 
 PCOD9243713
Probable space group: P 21/C
;
_chemical_formula_sum "Si O2"
_cell_formula_units_Z 32
_cell_length_a 9.384677
_cell_length_b 23.264906
_cell_length_c 12.569847
_cell_angle_alpha 90.000000
_cell_angle_beta 33.639294
_cell_angle_gamma 90.000000
_cell_volume 1520.306328
_symmetry_space_group_name_H-M "P 21/C"
_symmetry_group_IT_number 14
_symmetry_cell_setting 'monoclinic'
loop_
_space_group_symop_operation_xyz
x,y,z
-x,1/2+y,1/2-z
-x,-y,-z
x,1/2-y,1/2+z
loop_
_atom_site_type_symbol
_atom_site_label
_atom_site_fract_x
_atom_site_fract_y
_atom_site_fract_z
Si Si1 0.247578 0.697580 0.504469
Si Si2 0.316721 0.165025 0.102614
Si Si3 0.317935 0.467700 0.531135
Si Si4 0.076939 0.247685 0.112836
Si Si5 0.508370 0.091535 0.727432
Si Si6 0.737602 0.042117 0.371621
Si Si7 0.927086 0.135203 0.091423
Si Si8 0.133908 0.691313 0.958559
O O1 0.466868 0.676141 0.445677
O O2 0.022117 0.714507 0.726972
O O3 0.183589 0.651385 0.454230
O O4 0.298313 0.756152 0.406548
O O5 0.311273 0.100194 0.064584
O O6 0.324918 0.214822 0.007221
O O7 0.053293 0.174083 0.329551
O O8 0.500000 0.500000 0.500000
O O9 0.448795 0.465472 0.333507
O O10 0.019497 0.486781 0.714981
O O11 0.914700 0.191227 0.175999
O O12 0.043867 0.286669 0.028473
O O13 0.650346 0.077202 0.529855
O O14 0.693493 0.136215 0.673755
O O15 0.227617 0.119860 0.885965
O O16 0.788711 0.083889 0.239542
O O17 0.500000 0.000000 0.500000
#
# Coordination Sequence:
#
# PCOD9243713 Si02
#       8
#     4   4   4   4   4   4   4   4
#     4  10  23  36  65  97 137 174 219 270 334 422
#     4  11  21  42  62  95 140 166 225 283 327 409
#     4  11  25  45  71  95 134 182 233 293 349 404
#     4  10  20  38  63  98 132 178 218 258 350 413
#     4  11  22  44  72  90 138 176 223 293 348 406
#     4  11  24  46  70  98 131 181 240 296 349 409
#     4  10  23  44  63 100 136 181 227 280 342 420
#     4  10  22  38  64 100 129 178 213 266 348 413
#
# _framework density 21.048392
#
# number of rings (size 3 to 8) (size 9 to 14) (size 15 to 20)
#    0.000    1.500    3.750    1.500    5.250    5.500 
#    4.500    0.000    0.000    0.000    0.000    0.000 
#    0.000    0.000    0.000    0.000    0.000    0.000 
#
# Total GULP energy -178510.148063 kJ/mol
# GULP energy per Si atom -5578.442127 kJ/mol
# Density = 2.100048 g / cm^3
# Si number density = 21.048392 Si / 1000 Ang^3
#
#
#
# Elastic Constant Matrix: (Units=GPa)
#
#
# Indices 1 2 3 4 5 6 
#
# 1 142.4292 27.8294 12.8309 0.0000 5.7657 0.0000
# 2 27.8294 38.4442 11.3045 0.0000 -3.8690 0.0000
# 3 12.8309 11.3045 71.7120 0.0000 9.9297 0.0000
# 4 0.0000 0.0000 0.0000 20.5383 0.0000 -2.0648
# 5 5.7657 -3.8690 9.9297 0.0000 33.5017 0.0000
# 6 0.0000 0.0000 0.0000 -2.0648 0.0000 35.7035
#
#
#
# Elastic Compliance Matrix: (Units=1/GPa)
#
#
# Indices 1 2 3 4 5 6 
#
# 1 0.008332 -0.006173 -0.000230 0.000000 -0.002079 0.000000
# 2 -0.006173 0.032551 -0.004895 0.000000 0.006273 0.000000
# 3 -0.000230 -0.004895 0.015465 0.000000 -0.005109 0.000000
# 4 0.000000 0.000000 0.000000 0.048974 0.000000 0.002832
# 5 -0.002079 0.006273 -0.005109 0.000000 0.032446 0.000000
# 6 0.000000 0.000000 0.000000 0.002832 0.000000 0.028172
#
#
# Mechanical properties :
#
#
# Convention : Reuss Voigt Hill
#
# Bulk Modulus (GPa) = 29.62822 39.61278 34.62050
# Shear Modulus (GPa) = 25.02658 31.32341 28.17500
#
# Velocity S-wave (km/s) = 3.45193 3.86186 3.66263
# Velocity P-wave (km/s) = 5.47673 6.22462 5.86262
#
# Compressibility (1/GPa) = 0.03375161
#
# Stress axis : x y z
#
# Youngs Moduli (GPa) = 120.01829 30.72088 64.66224
#
# Poissons Ratio (x) = 0.18964 0.01486
# Poissons Ratio (y) = 0.74089 0.31654
# Poissons Ratio (z) = 0.02758 0.15039
#
# Static dielectric constant tensor:
#      x y z
#    x 1.771090 0.000000 0.009560 
#    y 0.000000 1.768790 0.000000 
#    z 0.009560 0.000000 1.802760 
# 
# From -- ./inp_files/27018.got.cif
#   From: 2010.05.17/outbox.cif.g08.bks.cpg/sg14_14_cif.got.tgz:27018.got - 2010.06.03 17:49:19.
