data_PCOD9243610
_publ_section_title
;
Structure prediction by ZEFSAII (Michael W. Deem and Ramdas Pophale) SiO2 
 PCOD9243610
Probable space group: P 21/C
;
_chemical_formula_sum "Si O2"
_cell_formula_units_Z 28
_cell_length_a 7.991790
_cell_length_b 24.473468
_cell_length_c 8.836387
_cell_angle_alpha 90.000000
_cell_angle_beta 131.203842
_cell_angle_gamma 90.000000
_cell_volume 1300.307906
_symmetry_space_group_name_H-M "P 21/C"
_symmetry_group_IT_number 14
_symmetry_cell_setting 'monoclinic'
loop_
_space_group_symop_operation_xyz
x,y,z
-x,1/2+y,1/2-z
-x,-y,-z
x,1/2-y,1/2+z
loop_
_atom_site_type_symbol
_atom_site_label
_atom_site_fract_x
_atom_site_fract_y
_atom_site_fract_z
Si Si1 0.465097 0.179250 0.268907
Si Si2 0.742900 0.040139 0.945222
Si Si3 0.686557 0.596750 0.865293
Si Si4 0.818792 0.511521 0.168444
Si Si5 0.033700 0.643807 0.574297
Si Si6 0.151319 0.902220 0.474352
Si Si7 0.543718 0.293861 0.166746
O O1 0.653685 0.134891 0.341280
O O2 0.480595 0.233608 0.178377
O O3 0.503603 0.196882 0.465417
O O4 0.221009 0.154897 0.106175
O O5 0.496431 0.061021 0.835418
O O6 0.744449 0.002995 0.794470
O O7 0.874527 0.094731 0.972874
O O8 0.910655 0.014261 0.165650
O O9 0.594253 0.657879 0.832025
O O10 0.931640 0.595260 0.944078
O O11 0.707271 0.566258 0.039593
O O12 0.764103 0.462072 0.022586
O O13 0.076306 0.625122 0.771390
O O14 0.196523 0.694896 0.643347
#
# Coordination Sequence:
#
# PCOD9243610 Si02
#       7
#     4   4   4   4   4   4   4
#     4  11  24  44  66  89 124 170 203 268 312 367
#     4   9  20  37  62  91 120 168 206 252 312 374
#     4  11  22  39  61  94 128 160 212 260 308 378
#     4  10  20  38  61  89 130 166 205 253 313 378
#     4   9  21  42  61  88 125 159 210 257 312 377
#     4  10  24  39  60  96 129 163 210 255 316 382
#     4  10  25  41  65  91 120 162 219 253 316 372
#
# _framework density 21.533359000000001
#
# number of rings (size 3 to 8) (size 9 to 14) (size 15 to 20)
#    0.000    2.000    0.000    2.571    4.000    6.286 
#    2.571    0.000    0.000    0.000    0.000    0.000 
#    0.000    0.000    0.000    0.000    0.000    0.000 
#
# Total GULP energy -156554.472116 kJ/mol
# GULP energy per Si atom -5591.231147 kJ/mol
# Density = 2.148435 g / cm^3
# Si number density = 21.533359 Si / 1000 Ang^3
#
#
#
# Elastic Constant Matrix: (Units=GPa)
#
#
# Indices 1 2 3 4 5 6 
#
# 1 68.9882 21.1309 32.9067 0.0000 33.5637 0.0000
# 2 21.1309 90.3804 42.7987 0.0000 17.5994 0.0000
# 3 32.9067 42.7987 74.8817 0.0000 45.7531 0.0000
# 4 0.0000 0.0000 0.0000 31.9065 0.0000 4.7516
# 5 33.5637 17.5994 45.7531 0.0000 31.4526 0.0000
# 6 0.0000 0.0000 0.0000 4.7516 0.0000 10.5055
#
#
#
# Elastic Compliance Matrix: (Units=1/GPa)
#
#
# Indices 1 2 3 4 5 6 
#
# 1 -0.040275 0.031521 -0.142103 0.000000 0.232055 0.000000
# 2 0.031521 -0.002453 0.065327 0.000000 -0.127293 0.000000
# 3 -0.142103 0.065327 -0.286496 0.000000 0.531845 0.000000
# 4 0.000000 0.000000 0.000000 0.033605 0.000000 -0.015200
# 5 0.232055 -0.127293 0.531845 0.000000 -0.918268 0.000000
# 6 0.000000 0.000000 0.000000 -0.015200 0.000000 0.102063
#
#
# Mechanical properties :
#
#
# Convention : Reuss Voigt Hill
#
# Bulk Modulus (GPa) = -2.38245 47.54702 22.58228
# Shear Modulus (GPa) = -4.30580 23.93384 9.81402
#
# Velocity S-wave (km/s) = -1.41560 3.33750 2.13717
# Velocity P-wave (km/s) = 1.94441 6.08115 4.07429
#
# Compressibility (1/GPa) = -0.41973528
#
# Stress axis : x y z
#
# Youngs Moduli (GPa) = -24.82911 -407.69952 -3.49045
#
# Poissons Ratio (x) = 12.85104 -0.49600
# Poissons Ratio (y) = 0.78263 0.22802
# Poissons Ratio (z) = -3.52830 26.63373
#
# Static dielectric constant tensor:
#      x y z
#    x 1.784570 0.000000 0.004350 
#    y 0.000000 1.784300 0.000000 
#    z 0.004350 0.000000 1.801230 
# 
# From -- ./inp_files/11185.got.cif
#   From: 2010.05.17/outbox.cif.g08.bks.cpg/sg14_6_cif.got.tgz:11185.got - 2010.06.03 17:49:19.
