data_PCOD9243533
_publ_section_title
;
Structure prediction by ZEFSAII (Michael W. Deem and Ramdas Pophale) SiO2 
 PCOD9243533
Probable space group: P 21/C
;
_chemical_formula_sum "Si O2"
_cell_formula_units_Z 20
_cell_length_a 19.390572
_cell_length_b 10.291490
_cell_length_c 10.291830
_cell_angle_alpha 90.000000
_cell_angle_beta 152.012069
_cell_angle_gamma 90.000000
_cell_volume 963.826086
_symmetry_space_group_name_H-M "P 21/C"
_symmetry_group_IT_number 14
_symmetry_cell_setting 'monoclinic'
loop_
_space_group_symop_operation_xyz
x,y,z
-x,1/2+y,1/2-z
-x,-y,-z
x,1/2-y,1/2+z
loop_
_atom_site_type_symbol
_atom_site_label
_atom_site_fract_x
_atom_site_fract_y
_atom_site_fract_z
Si Si1 0.348231 0.632224 0.835547
Si Si2 0.982012 0.639403 0.898923
Si Si3 0.761924 0.083073 0.345674
Si Si4 0.678631 0.947037 0.945842
Si Si5 0.137551 0.591968 0.716586
O O1 0.329122 0.785389 0.815808
O O2 0.314192 0.573542 0.636817
O O3 0.228607 0.575615 0.736278
O O4 0.513601 0.600343 0.151740
O O5 0.805791 0.652172 0.608099
O O6 0.000000 0.500000 0.000000
O O7 0.067716 0.618400 0.906248
O O8 0.070287 0.760555 0.108274
O O9 0.759222 0.051320 0.491874
O O10 0.709854 0.984859 0.147480
O O11 0.000000 0.500000 0.500000
#
# Coordination Sequence:
#
# PCOD9243533 Si02
#       5
#     4   4   4   4   4
#     4  10  21  38  57  84 118 154 192 238 291 345
#     4   9  19  37  59  81 110 154 195 228 283 352
#     4  10  20  38  60  83 114 149 192 246 290 334
#     4  10  21  38  61  82 112 159 199 228 287 364
#     4  11  23  37  58  89 120 147 191 250 294 331
#
# _framework density 20.750632
#
# number of rings (size 3 to 8) (size 9 to 14) (size 15 to 20)
#    0.000    2.000    0.000    4.800    0.000    7.200 
#    0.000    6.000    0.000    0.000    0.000    0.000 
#    0.000    0.000    0.000    0.000    0.000    0.000 
#
# Total GULP energy -111500.149419 kJ/mol
# GULP energy per Si atom -5575.007471 kJ/mol
# Density = 2.070340 g / cm^3
# Si number density = 20.750632 Si / 1000 Ang^3
#
#
#
# Elastic Constant Matrix: (Units=GPa)
#
#
# Indices 1 2 3 4 5 6 
#
# 1 31.6227 21.8829 8.8387 0.0000 9.3317 0.0000
# 2 21.8829 43.2809 17.4330 0.0000 11.9036 0.0000
# 3 8.8387 17.4330 84.6561 0.0000 17.5567 0.0000
# 4 0.0000 0.0000 0.0000 20.8120 0.0000 7.6104
# 5 9.3317 11.9036 17.5567 0.0000 44.8690 0.0000
# 6 0.0000 0.0000 0.0000 7.6104 0.0000 30.3164
#
#
#
# Elastic Compliance Matrix: (Units=1/GPa)
#
#
# Indices 1 2 3 4 5 6 
#
# 1 0.049306 -0.024060 0.000664 0.000000 -0.004131 0.000000
# 2 -0.024060 0.038040 -0.004643 0.000000 -0.003271 0.000000
# 3 0.000664 -0.004643 0.013574 0.000000 -0.004218 0.000000
# 4 0.000000 0.000000 0.000000 0.052906 0.000000 -0.013281
# 5 -0.004131 -0.003271 -0.004218 0.000000 0.025664 0.000000
# 6 0.000000 0.000000 0.000000 -0.013281 0.000000 0.036319
#
#
# Mechanical properties :
#
#
# Convention : Reuss Voigt Hill
#
# Bulk Modulus (GPa) = 22.30141 28.42986 25.36563
# Shear Modulus (GPa) = 17.43156 26.62649 22.02903
#
# Velocity S-wave (km/s) = 2.90151 3.58602 3.26177
# Velocity P-wave (km/s) = 4.68995 5.55666 5.14160
#
# Compressibility (1/GPa) = 0.04484022
#
# Stress axis : x y z
#
# Youngs Moduli (GPa) = 20.28138 26.28835 73.67016
#
# Poissons Ratio (x) = 0.63251 -0.04888
# Poissons Ratio (y) = 0.48798 0.34205
# Poissons Ratio (z) = -0.01346 0.12206
#
# Static dielectric constant tensor:
#      x y z
#    x 1.786450 0.000000 -0.076130 
#    y 0.000000 1.748360 0.000000 
#    z -0.076130 0.000000 2.000140 
# 
# From -- ./inp_files/17869.got.cif
#   From: 2010.05.17/outbox.cif.g08.bks.cpg/sg14_9_cif.got.tgz:17869.got - 2010.06.03 17:49:19.
