data_PCOD9243617
_publ_section_title
;
Structure prediction by ZEFSAII (Michael W. Deem and Ramdas Pophale) SiO2 
 PCOD9243617
Probable space group: P 21/C
;
_chemical_formula_sum "Si O2"
_cell_formula_units_Z 28
_cell_length_a 9.695887
_cell_length_b 14.560090
_cell_length_c 21.068084
_cell_angle_alpha 90.000000
_cell_angle_beta 151.320138
_cell_angle_gamma 90.000000
_cell_volume 1427.384996
_symmetry_space_group_name_H-M "P 21/C"
_symmetry_group_IT_number 14
_symmetry_cell_setting 'monoclinic'
loop_
_space_group_symop_operation_xyz
x,y,z
-x,1/2+y,1/2-z
-x,-y,-z
x,1/2-y,1/2+z
loop_
_atom_site_type_symbol
_atom_site_label
_atom_site_fract_x
_atom_site_fract_y
_atom_site_fract_z
Si Si1 0.633723 0.899461 0.055759
Si Si2 0.344718 0.235667 0.820020
Si Si3 0.936162 0.159745 0.551670
Si Si4 0.763525 0.979763 0.559691
Si Si5 0.279947 0.331351 0.069168
Si Si6 0.081251 0.843039 0.766786
Si Si7 0.932585 0.192416 0.849173
O O1 0.675343 0.852417 0.140936
O O2 0.912510 0.892663 0.123282
O O3 0.387464 0.837360 0.923580
O O4 0.500000 0.000000 0.000000
O O5 0.186877 0.210636 0.691579
O O6 0.164629 0.315621 0.782786
O O7 0.664462 0.272251 0.938721
O O8 0.057827 0.133011 0.532166
O O9 0.847809 0.070524 0.555983
O O10 0.693987 0.900410 0.480031
O O11 0.013984 0.939611 0.706164
O O12 0.500000 0.000000 0.500000
O O13 0.597312 0.322712 0.227816
O O14 0.134973 0.236167 0.985345
O O15 0.070756 0.768632 0.707333
#
# Coordination Sequence:
#
# PCOD9243617 Si02
#       7
#     4   4   4   4   4   4   4
#     4  11  22  36  63  94 127 157 210 269 310 359
#     4  11  23  38  66  90 127 167 207 259 315 374
#     4  12  24  43  64  94 130 166 212 259 318 384
#     4  11  24  39  67  96 125 164 214 263 314 373
#     4  11  24  43  65  93 129 171 207 260 318 381
#     4  10  20  38  61  95 120 160 210 260 313 361
#     4  10  22  40  66  88 126 167 210 256 316 376
#
# _framework density 19.616292000000001
#
# number of rings (size 3 to 8) (size 9 to 14) (size 15 to 20)
#    0.000    1.143    4.286    2.143    6.000    0.000 
#    0.000    0.000    0.000    2.571    0.000    0.000 
#    0.000    0.000    0.000    0.000    0.000    0.000 
#
# Total GULP energy -156339.766839 kJ/mol
# GULP energy per Si atom -5583.563101 kJ/mol
# Density = 1.957164 g / cm^3
# Si number density = 19.616292 Si / 1000 Ang^3
#
#
#
# Elastic Constant Matrix: (Units=GPa)
#
#
# Indices 1 2 3 4 5 6 
#
# 1 115.5786 20.9027 14.5769 0.0000 21.8537 0.0000
# 2 20.9027 66.6758 7.5097 0.0000 6.4698 0.0000
# 3 14.5769 7.5097 88.4652 0.0000 13.8708 0.0000
# 4 0.0000 0.0000 0.0000 24.2337 0.0000 3.4683
# 5 21.8537 6.4698 13.8708 0.0000 23.0088 0.0000
# 6 0.0000 0.0000 0.0000 3.4683 0.0000 21.9752
#
#
#
# Elastic Compliance Matrix: (Units=1/GPa)
#
#
# Indices 1 2 3 4 5 6 
#
# 1 0.010934 -0.002483 -0.000080 0.000000 -0.009639 0.000000
# 2 -0.002483 0.016022 -0.000678 0.000000 -0.001737 0.000000
# 3 -0.000080 -0.000678 0.012516 0.000000 -0.007279 0.000000
# 4 0.000000 0.000000 0.000000 0.042218 0.000000 -0.006663
# 5 -0.009639 -0.001737 -0.007279 0.000000 0.057493 0.000000
# 6 0.000000 0.000000 0.000000 -0.006663 0.000000 0.046558
#
#
# Mechanical properties :
#
#
# Convention : Reuss Voigt Hill
#
# Bulk Modulus (GPa) = 30.31386 39.63314 34.97350
# Shear Modulus (GPa) = 24.60401 29.02556 26.81478
#
# Velocity S-wave (km/s) = 3.54540 3.85082 3.70126
# Velocity P-wave (km/s) = 5.67863 6.32612 6.01110
#
# Compressibility (1/GPa) = 0.03298821
#
# Stress axis : x y z
#
# Youngs Moduli (GPa) = 91.45966 62.41613 79.89864
#
# Poissons Ratio (x) = 0.15501 0.00635
# Poissons Ratio (y) = 0.22714 0.05421
# Poissons Ratio (z) = 0.00727 0.04235
#
# Static dielectric constant tensor:
#      x y z
#    x 1.675150 0.000000 -0.003130 
#    y 0.000000 1.708820 0.000000 
#    z -0.003130 0.000000 1.724310 
# 
# From -- ./inp_files/19106.got.cif
#   From: 2010.05.17/outbox.cif.g08.bks.cpg/sg14_10_cif.got.tgz:19106.got - 2010.06.03 17:49:19.
