data_PCOD9243666
_publ_section_title
;
Structure prediction by ZEFSAII (Michael W. Deem and Ramdas Pophale) SiO2 
 PCOD9243666
Probable space group: P 21/C
;
_chemical_formula_sum "Si O2"
_cell_formula_units_Z 30
_cell_length_a 15.532361
_cell_length_b 12.788317
_cell_length_c 7.320127
_cell_angle_alpha 90.000000
_cell_angle_beta 55.520080
_cell_angle_gamma 90.000000
_cell_volume 1198.582044
_symmetry_space_group_name_H-M "P 21/C"
_symmetry_group_IT_number 14
_symmetry_cell_setting 'monoclinic'
loop_
_space_group_symop_operation_xyz
x,y,z
-x,1/2+y,1/2-z
-x,-y,-z
x,1/2-y,1/2+z
loop_
_atom_site_type_symbol
_atom_site_label
_atom_site_fract_x
_atom_site_fract_y
_atom_site_fract_z
Si Si1 0.636682 0.596090 0.659776
Si Si2 0.861956 0.164152 0.036124
Si Si3 0.908778 0.884478 0.363516
Si Si4 0.500000 0.500000 0.500000
Si Si5 0.138473 0.344270 0.499170
Si Si6 0.636574 0.111251 0.310781
Si Si7 0.908853 0.109859 0.394180
Si Si8 0.470539 0.773252 0.872789
O O1 0.591797 0.534150 0.539515
O O2 0.758471 0.618864 0.524546
O O3 0.617162 0.511901 0.848880
O O4 0.576162 0.705499 0.748140
O O5 0.863936 0.289647 0.048079
O O6 0.965304 0.129700 0.802458
O O7 0.752082 0.125557 0.092983
O O8 0.873229 0.120377 0.226424
O O9 0.870451 0.884920 0.198048
O O10 0.863935 0.781408 0.509019
O O11 0.881500 0.993942 0.488161
O O12 0.526413 0.373665 0.498819
O O13 0.034009 0.377129 0.731716
O O14 0.622231 0.185896 0.501919
O O15 0.550561 0.168413 0.291849
#
# Coordination Sequence:
#
# PCOD9243666 Si02
#       8
#     4   4   4   2   4   4   4   4
#     4  11  23  42  67  89 129 164 215 266 318 375
#     4  10  20  38  62  92 126 162 211 259 308 387
#     4  10  21  40  61  94 130 164 209 258 317 380
#     4  10  24  44  60  94 126 164 202 278 304 366
#     4  10  22  38  65  93 126 168 209 255 322 380
#     4  11  22  39  64  90 120 169 210 258 322 373
#     4  10  20  40  62  91 131 165 206 261 311 381
#     4  11  23  42  61  90 125 161 217 260 318 370
#
# _framework density 25.029575000000001
#
# number of rings (size 3 to 8) (size 9 to 14) (size 15 to 20)
#    0.000    1.600    1.333    4.400    1.867    0.000 
#    2.400   13.333    0.000    0.000    0.000    0.000 
#    0.000    0.000    0.000    0.000    0.000    0.000 
#
# Total GULP energy -167325.317145 kJ/mol
# GULP energy per Si atom -5577.510571 kJ/mol
# Density = 2.497261 g / cm^3
# Si number density = 25.029575 Si / 1000 Ang^3
#
#
#
# Elastic Constant Matrix: (Units=GPa)
#
#
# Indices 1 2 3 4 5 6 
#
# 1 121.2068 57.9260 24.3343 0.0000 -28.5734 0.0000
# 2 57.9260 249.9668 28.0958 0.0000 -9.3358 0.0000
# 3 24.3343 28.0958 31.0437 0.0000 -11.7578 0.0000
# 4 0.0000 0.0000 0.0000 25.5132 0.0000 1.6927
# 5 -28.5734 -9.3358 -11.7578 0.0000 29.1454 0.0000
# 6 0.0000 0.0000 0.0000 1.6927 0.0000 55.3599
#
#
#
# Elastic Compliance Matrix: (Units=1/GPa)
#
#
# Indices 1 2 3 4 5 6 
#
# 1 0.012364 -0.002034 -0.004139 0.000000 0.009800 0.000000
# 2 -0.002034 0.004790 -0.003440 0.000000 -0.001848 0.000000
# 3 -0.004139 -0.003440 0.043220 0.000000 0.012276 0.000000
# 4 0.000000 0.000000 0.000000 0.039275 0.000000 -0.001201
# 5 0.009800 -0.001848 0.012276 0.000000 0.048279 0.000000
# 6 0.000000 0.000000 0.000000 -0.001201 0.000000 0.018100
#
#
# Mechanical properties :
#
#
# Convention : Reuss Voigt Hill
#
# Bulk Modulus (GPa) = 24.30319 69.21442 46.75880
# Shear Modulus (GPa) = 25.12953 41.46111 33.29532
#
# Velocity S-wave (km/s) = 3.17202 4.07441 3.65120
# Velocity P-wave (km/s) = 4.81108 7.06028 6.04127
#
# Compressibility (1/GPa) = 0.04114687
#
# Stress axis : x y z
#
# Youngs Moduli (GPa) = 80.88316 208.78967 23.13734
#
# Poissons Ratio (x) = 0.42464 0.09577
# Poissons Ratio (y) = 0.16450 0.07960
# Poissons Ratio (z) = 0.33479 0.71828
#
# Static dielectric constant tensor:
#      x y z
#    x 1.994700 0.000000 0.064900 
#    y 0.000000 1.985170 0.000000 
#    z 0.064900 0.000000 1.946700 
# 
# From -- ./inp_files/15731.got.cif
#   From: 2010.05.17/outbox.cif.g08.bks.cpg/sg14_8_cif.got.tgz:15731.got - 2010.06.03 17:49:19.
