data_PCOD9244191
_publ_section_title
;
Structure prediction by ZEFSAII (Michael W. Deem and Ramdas Pophale) SiO2 
 PCOD9244191
Probable space group: P 21/C
;
_chemical_formula_sum "Si O2"
_cell_formula_units_Z 28
_cell_length_a 12.153733
_cell_length_b 19.271688
_cell_length_c 8.752728
_cell_angle_alpha 90.000000
_cell_angle_beta 43.924203
_cell_angle_gamma 90.000000
_cell_volume 1422.159872
_symmetry_space_group_name_H-M "P 21/C"
_symmetry_group_IT_number 14
_symmetry_cell_setting 'monoclinic'
loop_
_space_group_symop_operation_xyz
x,y,z
-x,1/2+y,1/2-z
-x,-y,-z
x,1/2-y,1/2+z
loop_
_atom_site_type_symbol
_atom_site_label
_atom_site_fract_x
_atom_site_fract_y
_atom_site_fract_z
Si Si1 0.087566 0.658719 0.170968
Si Si2 0.392776 0.302623 0.675127
Si Si3 0.954124 0.508068 0.366419
Si Si4 0.632907 0.949486 0.297233
Si Si5 0.460646 0.825278 0.291624
Si Si6 0.818735 0.890012 0.405485
Si Si7 0.932321 0.763807 0.112669
O O1 0.019151 0.581336 0.242715
O O2 0.033083 0.699915 0.075232
O O3 0.010297 0.697968 0.392239
O O4 0.275584 0.661264 0.001246
O O5 0.500930 0.324666 0.426021
O O6 0.483595 0.248726 0.694512
O O7 0.242592 0.261697 0.755321
O O8 0.314284 0.367592 0.840808
O O9 0.763162 0.510419 0.563074
O O10 0.000000 0.500000 0.500000
O O11 0.049735 0.447382 0.185229
O O12 0.556979 0.886593 0.278393
O O13 0.727800 0.916427 0.345038
O O14 0.500000 0.000000 0.500000
O O15 0.911830 0.820341 0.266615
#
# Coordination Sequence:
#
# PCOD9244191 Si02
#       7
#     4   4   4   4   4   4   4
#     4  12  24  40  66  95 128 166 221 263 321 393
#     4  12  22  42  65  93 134 167 218 267 331 379
#     4  10  20  40  62  90 124 169 215 253 315 390
#     4  11  22  41  66  95 127 170 217 266 328 390
#     4  12  23  40  61  98 128 171 210 275 324 383
#     4  11  22  40  67  95 124 174 216 266 322 389
#     4  12  21  40  66  93 123 171 216 265 317 387
#
# _framework density 19.688362999999999
#
# number of rings (size 3 to 8) (size 9 to 14) (size 15 to 20)
#    0.000    0.571    7.143    3.429    0.000    0.000 
#    0.000    5.714    0.000    0.000    0.000    0.000 
#    0.000    0.000    0.000    0.000    0.000    0.000 
#
# Total GULP energy -156498.584396 kJ/mol
# GULP energy per Si atom -5589.235157 kJ/mol
# Density = 1.964355 g / cm^3
# Si number density = 19.688363 Si / 1000 Ang^3
#
#
#
# Elastic Constant Matrix: (Units=GPa)
#
#
# Indices 1 2 3 4 5 6 
#
# 1 29.2353 15.9552 8.9770 0.0000 -16.7028 0.0000
# 2 15.9552 97.2292 30.3013 0.0000 -2.5680 0.0000
# 3 8.9770 30.3013 84.5808 0.0000 -16.6806 0.0000
# 4 0.0000 0.0000 0.0000 36.6532 0.0000 1.7422
# 5 -16.7028 -2.5680 -16.6806 0.0000 37.8145 0.0000
# 6 0.0000 0.0000 0.0000 1.7422 0.0000 25.6766
#
#
#
# Elastic Compliance Matrix: (Units=1/GPa)
#
#
# Indices 1 2 3 4 5 6 
#
# 1 0.051345 -0.008482 0.002134 0.000000 0.023045 0.000000
# 2 -0.008482 0.013024 -0.004743 0.000000 -0.004954 0.000000
# 3 0.002134 -0.004743 0.014697 0.000000 0.007103 0.000000
# 4 0.000000 0.000000 0.000000 0.027371 0.000000 -0.001857
# 5 0.023045 -0.004954 0.007103 0.000000 0.039421 0.000000
# 6 0.000000 0.000000 0.000000 -0.001857 0.000000 0.039072
#
#
# Mechanical properties :
#
#
# Convention : Reuss Voigt Hill
#
# Bulk Modulus (GPa) = 17.57966 35.72361 26.65163
# Shear Modulus (GPa) = 22.11683 30.41631 26.26657
#
# Velocity S-wave (km/s) = 3.35527 3.93477 3.65652
# Velocity P-wave (km/s) = 4.89477 6.23114 5.60294
#
# Compressibility (1/GPa) = 0.05688392
#
# Stress axis : x y z
#
# Youngs Moduli (GPa) = 19.47610 76.78090 68.04340
#
# Poissons Ratio (x) = 0.65126 -0.14520
# Poissons Ratio (y) = 0.16520 0.32271
# Poissons Ratio (z) = -0.04156 0.36415
#
# Static dielectric constant tensor:
#      x y z
#    x 1.682640 0.000000 0.008570 
#    y 0.000000 1.697170 0.000000 
#    z 0.008570 0.000000 1.697410 
# 
# From -- ./inp_files/14271.got.cif
#   From: 2010.05.17/outbox.cif.g08.bks.cpg/sg14_8_cif.got.tgz:14271.got - 2010.06.03 17:49:19.
