data_PCOD9244187
_publ_section_title
;
Structure prediction by ZEFSAII (Michael W. Deem and Ramdas Pophale) SiO2 
 PCOD9244187
Probable space group: P 21/C
;
_chemical_formula_sum "Si O2"
_cell_formula_units_Z 20
_cell_length_a 7.726570
_cell_length_b 13.638052
_cell_length_c 9.751761
_cell_angle_alpha 90.000000
_cell_angle_beta 65.973517
_cell_angle_gamma 90.000000
_cell_volume 938.561785
_symmetry_space_group_name_H-M "P 21/C"
_symmetry_group_IT_number 14
_symmetry_cell_setting 'monoclinic'
loop_
_space_group_symop_operation_xyz
x,y,z
-x,1/2+y,1/2-z
-x,-y,-z
x,1/2-y,1/2+z
loop_
_atom_site_type_symbol
_atom_site_label
_atom_site_fract_x
_atom_site_fract_y
_atom_site_fract_z
Si Si1 0.354236 0.173696 0.227365
Si Si2 0.562211 0.601093 0.793123
Si Si3 0.733569 0.435104 0.569573
Si Si4 0.960773 0.944315 0.796454
Si Si5 0.238263 0.018605 0.496745
O O1 0.374512 0.288267 0.246283
O O2 0.562713 0.140112 0.110366
O O3 0.190304 0.142149 0.175088
O O4 0.293466 0.109001 0.379260
O O5 0.629310 0.536141 0.644411
O O6 0.665680 0.554828 0.891885
O O7 0.344018 0.575451 0.895559
O O8 0.859209 0.461719 0.398311
O O9 0.875038 0.411547 0.650442
O O10 0.040868 0.979631 0.623673
#
# Coordination Sequence:
#
# PCOD9244187 Si02
#       5
#     4   4   4   4   4
#     4  11  21  37  66  89 114 166 207 233 308 376
#     4   9  20  39  62  85 123 163 198 248 304 357
#     4   9  21  41  59  88 131 154 192 261 302 347
#     4  10  20  40  62  86 123 160 192 253 306 348
#     4   9  20  41  59  86 129 155 196 262 300 345
#
# _framework density 21.309199
#
# number of rings (size 3 to 8) (size 9 to 14) (size 15 to 20)
#    0.000    2.400    0.000    2.400    2.800    0.000 
#   10.800    8.000    0.000    0.000    0.000    0.000 
#    0.000    0.000    0.000    0.000    0.000    0.000 
#
# Total GULP energy -111505.675430 kJ/mol
# GULP energy per Si atom -5575.283772 kJ/mol
# Density = 2.126070 g / cm^3
# Si number density = 21.309199 Si / 1000 Ang^3
#
#
#
# Elastic Constant Matrix: (Units=GPa)
#
#
# Indices 1 2 3 4 5 6 
#
# 1 53.8521 9.7328 16.8757 0.0000 -23.4306 0.0000
# 2 9.7328 80.7410 -1.8968 0.0000 -3.7091 0.0000
# 3 16.8757 -1.8968 94.4406 0.0000 -14.8538 0.0000
# 4 0.0000 0.0000 0.0000 4.0925 0.0000 4.9229
# 5 -23.4306 -3.7091 -14.8538 0.0000 19.3033 0.0000
# 6 0.0000 0.0000 0.0000 4.9229 0.0000 14.6296
#
#
#
# Elastic Compliance Matrix: (Units=1/GPa)
#
#
# Indices 1 2 3 4 5 6 
#
# 1 0.039902 -0.002584 0.000407 0.000000 0.048251 0.000000
# 2 -0.002584 0.012705 0.000691 0.000000 -0.000163 0.000000
# 3 0.000407 0.000691 0.012092 0.000000 0.009931 0.000000
# 4 0.000000 0.000000 0.000000 0.410529 0.000000 -0.138145
# 5 0.048251 -0.000163 0.009931 0.000000 0.117983 0.000000
# 6 0.000000 0.000000 0.000000 -0.138145 0.000000 0.114841
#
#
# Mechanical properties :
#
#
# Convention : Reuss Voigt Hill
#
# Bulk Modulus (GPa) = 16.20002 30.93966 23.56984
# Shear Modulus (GPa) = 6.83433 21.22654 14.03043
#
# Velocity S-wave (km/s) = 1.79281 3.15956 2.56876
# Velocity P-wave (km/s) = 3.45028 5.27839 4.45902
#
# Compressibility (1/GPa) = 0.06172833
#
# Stress axis : x y z
#
# Youngs Moduli (GPa) = 25.06115 78.70611 82.70021
#
# Poissons Ratio (x) = 0.20336 -0.03365
# Poissons Ratio (y) = 0.06475 -0.05717
# Poissons Ratio (z) = -0.01020 -0.05441
#
# Static dielectric constant tensor:
#      x y z
#    x 1.913580 0.000000 -0.022610 
#    y 0.000000 1.697790 0.000000 
#    z -0.022610 0.000000 1.806300 
# 
# From -- ./inp_files/23618.got.cif
#   From: 2010.05.17/outbox.cif.g08.bks.cpg/sg14_12_cif.got.tgz:23618.got - 2010.06.03 17:49:19.
