data_PCOD9244913
_publ_section_title
;
Structure prediction by ZEFSAII (Michael W. Deem and Ramdas Pophale) SiO2 
 PCOD9244913
Probable space group: P 21/C
;
_chemical_formula_sum "Si O2"
_cell_formula_units_Z 16
_cell_length_a 5.499979
_cell_length_b 4.560839
_cell_length_c 27.758739
_cell_angle_alpha 90.000000
_cell_angle_beta 131.092572
_cell_angle_gamma 90.000000
_cell_volume 524.776537
_symmetry_space_group_name_H-M "P 21/C"
_symmetry_group_IT_number 14
_symmetry_cell_setting 'monoclinic'
loop_
_space_group_symop_operation_xyz
x,y,z
-x,1/2+y,1/2-z
-x,-y,-z
x,1/2-y,1/2+z
loop_
_atom_site_type_symbol
_atom_site_label
_atom_site_fract_x
_atom_site_fract_y
_atom_site_fract_z
Si Si1 0.682008 0.184752 0.078406
Si Si2 0.576055 0.526738 0.725751
Si Si3 0.927024 0.811556 0.550840
Si Si4 0.395129 0.992978 0.339059
O O1 0.809154 0.365368 0.049070
O O2 0.792514 0.329425 0.142512
O O3 0.817381 0.869718 0.083749
O O4 0.293837 0.203833 0.021910
O O5 0.361943 0.781933 0.723886
O O6 0.774784 0.760732 0.717051
O O7 0.463258 0.282228 0.672494
O O8 0.309683 0.828640 0.598474
#
# Coordination Sequence:
#
# PCOD9244913 Si02
#       4
#     4   4   4   4
#     4  10  21  35  54  87 123 151 190 237 283 357
#     4   9  20  36  58  84 108 144 200 257 300 348
#     4  10  21  35  54  87 123 151 190 237 283 357
#     4  11  19  36  63  80 111 162 193 233 310 364
#
# _framework density 30.489163999999999
#
# number of rings (size 3 to 8) (size 9 to 14) (size 15 to 20)
#    0.000    2.000    0.000    3.750    0.000    0.000 
#    0.000   10.000    0.000   84.000    0.000    0.000 
#    0.000    0.000    0.000    0.000    0.000    0.000 
#
# Total GULP energy -89337.018112 kJ/mol
# GULP energy per Si atom -5583.563632 kJ/mol
# Density = 3.041977 g / cm^3
# Si number density = 30.489164 Si / 1000 Ang^3
#
#
#
# Elastic Constant Matrix: (Units=GPa)
#
#
# Indices 1 2 3 4 5 6 
#
# 1 101.3331 31.7062 39.5985 0.0000 -7.8447 0.0000
# 2 31.7062 219.7576 84.6977 0.0000 -21.4846 0.0000
# 3 39.5985 84.6977 128.8985 0.0000 -12.3839 0.0000
# 4 0.0000 0.0000 0.0000 82.1497 0.0000 -20.5110
# 5 -7.8447 -21.4846 -12.3839 0.0000 53.1891 0.0000
# 6 0.0000 0.0000 0.0000 -20.5110 0.0000 51.2971
#
#
#
# Elastic Compliance Matrix: (Units=1/GPa)
#
#
# Indices 1 2 3 4 5 6 
#
# 1 0.011271 -0.000326 -0.003172 0.000000 0.000792 0.000000
# 2 -0.000326 0.006233 -0.003844 0.000000 0.001575 0.000000
# 3 -0.003172 -0.003844 0.011318 0.000000 0.000614 0.000000
# 4 0.000000 0.000000 0.000000 0.013523 0.000000 0.005407
# 5 0.000792 0.001575 0.000614 0.000000 0.019697 0.000000
# 6 0.000000 0.000000 0.000000 0.005407 0.000000 0.021656
#
#
# Mechanical properties :
#
#
# Convention : Reuss Voigt Hill
#
# Bulk Modulus (GPa) = 70.73696 84.66601 77.70148
# Shear Modulus (GPa) = 48.49865 56.92629 52.71247
#
# Velocity S-wave (km/s) = 3.99267 4.32568 4.16251
# Velocity P-wave (km/s) = 6.67130 7.26486 6.97440
#
# Compressibility (1/GPa) = 0.01413688
#
# Stress axis : x y z
#
# Youngs Moduli (GPa) = 88.71964 160.43440 88.35797
#
# Poissons Ratio (x) = 0.05233 0.28029
# Poissons Ratio (y) = 0.02894 0.33967
# Poissons Ratio (z) = 0.28144 0.61674
#
# Static dielectric constant tensor:
#      x y z
#    x 2.452360 0.000000 0.137630 
#    y 0.000000 2.179280 0.000000 
#    z 0.137630 0.000000 2.525190 
# 
# From -- ./inp_files/75364.got.cif
#   From: 2010.05.17/outbox.cif.g08.bks.cpg/sg14_38_cif.got.tgz:75364.got - 2010.06.03 17:49:19.
