data_PCOD9244894
_publ_section_title
;
Structure prediction by ZEFSAII (Michael W. Deem and Ramdas Pophale) SiO2 
 PCOD9244894
Probable space group: P 21/C
;
_chemical_formula_sum "Si O2"
_cell_formula_units_Z 28
_cell_length_a 11.087257
_cell_length_b 5.528677
_cell_length_c 17.779438
_cell_angle_alpha 90.000000
_cell_angle_beta 89.952772
_cell_angle_gamma 90.000000
_cell_volume 1089.841180
_symmetry_space_group_name_H-M "P 21/C"
_symmetry_group_IT_number 14
_symmetry_cell_setting 'monoclinic'
loop_
_space_group_symop_operation_xyz
x,y,z
-x,1/2+y,1/2-z
-x,-y,-z
x,1/2-y,1/2+z
loop_
_atom_site_type_symbol
_atom_site_label
_atom_site_fract_x
_atom_site_fract_y
_atom_site_fract_z
Si Si1 0.553259 0.294953 0.220475
Si Si2 0.073706 0.639667 0.094246
Si Si3 0.843665 0.745776 0.663573
Si Si4 0.718960 0.756261 0.441835
Si Si5 0.849917 0.130886 0.047581
Si Si6 0.774473 0.490183 0.302967
Si Si7 0.638974 0.509540 0.078003
O O1 0.514905 0.020745 0.238609
O O2 0.691359 0.325237 0.249587
O O3 0.547721 0.376562 0.133413
O O4 0.182234 0.451497 0.085150
O O5 0.944195 0.571896 0.128379
O O6 0.127755 0.834978 0.152690
O O7 0.055526 0.748915 0.010155
O O8 0.882944 0.491935 0.626689
O O9 0.833713 0.802249 0.751147
O O10 0.710183 0.797845 0.630859
O O11 0.792565 0.579338 0.496314
O O12 0.689787 0.607550 0.367143
O O13 0.617475 0.865936 0.497310
O O14 0.740794 0.313519 0.059515
#
# Coordination Sequence:
#
# PCOD9244894 Si02
#       7
#     4   4   4   4   4   4   4
#     4  11  27  47  74  99 126 170 229 285 346 400
#     4  10  21  36  57  92 132 174 212 262 329 394
#     4  10  21  34  59  92 130 176 219 259 321 392
#     4   9  20  38  64  87 135 166 214 263 334 389
#     4   9  19  37  61  88 129 168 220 259 319 389
#     4  10  24  40  60  94 130 171 214 282 326 390
#     4   9  21  40  65  94 125 170 214 274 324 398
#
# _framework density 25.691818000000001
#
# number of rings (size 3 to 8) (size 9 to 14) (size 15 to 20)
#    0.000    2.286    0.000    0.429   10.000    8.571 
#    0.000    1.429    0.000    0.000    0.000    0.000 
#    0.000    0.000    0.000    0.000    0.000    0.000 
#
# Total GULP energy -156438.260460 kJ/mol
# GULP energy per Si atom -5587.080731 kJ/mol
# Density = 2.563334 g / cm^3
# Si number density = 25.691818 Si / 1000 Ang^3
#
#
#
# Elastic Constant Matrix: (Units=GPa)
#
#
# Indices 1 2 3 4 5 6 
#
# 1 48.2828 4.7230 20.8579 0.0000 -4.1980 0.0000
# 2 4.7230 71.1601 31.0162 0.0000 1.2485 0.0000
# 3 20.8579 31.0162 150.8468 0.0000 -17.3509 0.0000
# 4 0.0000 0.0000 0.0000 35.7798 0.0000 -7.1648
# 5 -4.1980 1.2485 -17.3509 0.0000 37.9778 0.0000
# 6 0.0000 0.0000 0.0000 -7.1648 0.0000 31.0327
#
#
#
# Elastic Compliance Matrix: (Units=1/GPa)
#
#
# Indices 1 2 3 4 5 6 
#
# 1 0.022074 -0.000232 -0.002874 0.000000 0.001135 0.000000
# 2 -0.000232 0.015594 -0.003416 0.000000 -0.002099 0.000000
# 3 -0.002874 -0.003416 0.008133 0.000000 0.003510 0.000000
# 4 0.000000 0.000000 0.000000 0.029304 0.000000 0.006766
# 5 0.001135 -0.002099 0.003510 0.000000 0.028129 0.000000
# 6 0.000000 0.000000 0.000000 0.006766 0.000000 0.033786
#
#
# Mechanical properties :
#
#
# Convention : Reuss Voigt Hill
#
# Bulk Modulus (GPa) = 30.52789 42.60931 36.56860
# Shear Modulus (GPa) = 31.05930 35.20423 33.13177
#
# Velocity S-wave (km/s) = 3.48072 3.70571 3.59497
# Velocity P-wave (km/s) = 5.29736 5.91020 5.61215
#
# Compressibility (1/GPa) = 0.03275693
#
# Stress axis : x y z
#
# Youngs Moduli (GPa) = 45.30169 64.12808 122.96080
#
# Poissons Ratio (x) = 0.01490 0.35339
# Poissons Ratio (y) = 0.01052 0.41998
# Poissons Ratio (z) = 0.13020 0.21903
#
# Static dielectric constant tensor:
#      x y z
#    x 2.007330 0.000000 -0.017360 
#    y 0.000000 2.116990 0.000000 
#    z -0.017360 0.000000 2.023320 
# 
# From -- ./inp_files/58334.got.cif
#   From: 2010.05.17/outbox.cif.g08.bks.cpg/sg14_30_cif.got.tgz:58334.got - 2010.06.03 17:49:19.
