data_PCOD9244408
_publ_section_title
;
Structure prediction by ZEFSAII (Michael W. Deem and Ramdas Pophale) SiO2 
 PCOD9244408
Probable space group: P 21/C
;
_chemical_formula_sum "Si O2"
_cell_formula_units_Z 22
_cell_length_a 5.427118
_cell_length_b 8.326712
_cell_length_c 17.842910
_cell_angle_alpha 90.000000
_cell_angle_beta 71.488992
_cell_angle_gamma 90.000000
_cell_volume 764.605028
_symmetry_space_group_name_H-M "P 21/C"
_symmetry_group_IT_number 14
_symmetry_cell_setting 'monoclinic'
loop_
_space_group_symop_operation_xyz
x,y,z
-x,1/2+y,1/2-z
-x,-y,-z
x,1/2-y,1/2+z
loop_
_atom_site_type_symbol
_atom_site_label
_atom_site_fract_x
_atom_site_fract_y
_atom_site_fract_z
Si Si1 0.050595 0.206326 0.706857
Si Si2 0.000000 0.500000 0.000000
Si Si3 0.722293 0.909105 0.027157
Si Si4 0.291349 0.568809 0.335195
Si Si5 0.513938 0.819959 0.437151
Si Si6 0.749089 0.916509 0.687410
O O1 0.989782 0.365199 0.662091
O O2 0.282156 0.111498 0.642263
O O3 0.109704 0.271174 0.782673
O O4 0.822186 0.081591 0.724177
O O5 0.844187 0.546271 0.095132
O O6 0.263937 0.602816 0.999004
O O7 0.670676 0.905558 0.121034
O O8 0.709058 0.737997 0.986258
O O9 0.500000 0.000000 0.000000
O O10 0.000000 0.000000 0.000000
O O11 0.391056 0.688041 0.391527
O O12 0.454231 0.597008 0.244810
#
# Coordination Sequence:
#
# PCOD9244408 Si02
#       6
#     4   2   4   4   4   4
#     4  11  24  50  75 112 159 221 286 359 442 537
#     4  12  26  50  74 124 172 228 282 376 466 528
#     4  10  20  40  74 115 155 221 278 352 427 520
#     4  10  22  46  72 109 159 211 282 352 429 530
#     4  10  23  44  73 112 168 212 289 356 446 543
#     4  11  28  46  78 113 164 217 283 355 446 539
#
# _framework density 28.773026999999999
#
# number of rings (size 3 to 8) (size 9 to 14) (size 15 to 20)
#    0.000    1.455    3.636    0.000    5.091    0.727 
#    0.000    5.455    0.000    0.000    0.000    0.000 
#    0.000    0.000    0.000    0.000    0.000    0.000 
#
# Total GULP energy -122534.135444 kJ/mol
# GULP energy per Si atom -5569.733429 kJ/mol
# Density = 2.870754 g / cm^3
# Si number density = 28.773027 Si / 1000 Ang^3
#
#
#
# Elastic Constant Matrix: (Units=GPa)
#
#
# Indices 1 2 3 4 5 6 
#
# 1 140.2736 14.2474 82.9802 0.0000 -9.5923 0.0000
# 2 14.2474 60.0949 69.0368 0.0000 10.0304 0.0000
# 3 82.9802 69.0368 248.0001 0.0000 4.4784 0.0000
# 4 0.0000 0.0000 0.0000 66.0656 0.0000 15.5213
# 5 -9.5923 10.0304 4.4784 0.0000 78.9764 0.0000
# 6 0.0000 0.0000 0.0000 15.5213 0.0000 55.0003
#
#
#
# Elastic Compliance Matrix: (Units=1/GPa)
#
#
# Indices 1 2 3 4 5 6 
#
# 1 0.009133 0.001744 -0.003561 0.000000 0.001090 0.000000
# 2 0.001744 0.025396 -0.007606 0.000000 -0.002582 0.000000
# 3 -0.003561 -0.007606 0.007339 0.000000 0.000117 0.000000
# 4 0.000000 0.000000 0.000000 0.016211 0.000000 -0.004575
# 5 0.001090 -0.002582 0.000117 0.000000 0.013116 0.000000
# 6 0.000000 0.000000 0.000000 -0.004575 0.000000 0.019473
#
#
# Mechanical properties :
#
#
# Convention : Reuss Voigt Hill
#
# Bulk Modulus (GPa) = 43.43920 86.76638 65.10279
# Shear Modulus (GPa) = 42.66621 58.81540 50.74081
#
# Velocity S-wave (km/s) = 3.85496 4.52609 4.20394
# Velocity P-wave (km/s) = 5.91137 7.58518 6.79997
#
# Compressibility (1/GPa) = 0.02302068
#
# Stress axis : x y z
#
# Youngs Moduli (GPa) = 109.49527 39.37593 136.25791
#
# Poissons Ratio (x) = -0.06866 0.48520
# Poissons Ratio (y) = -0.19092 1.03643
# Poissons Ratio (z) = 0.38990 0.29951
#
# Static dielectric constant tensor:
#      x y z
#    x 1.969140 0.000000 0.039890 
#    y 0.000000 2.475970 0.000000 
#    z 0.039890 0.000000 2.174510 
# 
# From -- ./inp_files/36987.got.cif
#   From: 2010.05.17/outbox.cif.g08.bks.cpg/sg14_19_cif.got.tgz:36987.got - 2010.06.03 17:49:19.
