data_PCOD9244540
_publ_section_title
;
Structure prediction by ZEFSAII (Michael W. Deem and Ramdas Pophale) SiO2 
 PCOD9244540
Probable space group: P 21/C
;
_chemical_formula_sum "Si O2"
_cell_formula_units_Z 32
_cell_length_a 16.580965
_cell_length_b 9.752959
_cell_length_c 26.055761
_cell_angle_alpha 90.000000
_cell_angle_beta 21.891477
_cell_angle_gamma 90.000000
_cell_volume 1571.027653
_symmetry_space_group_name_H-M "P 21/C"
_symmetry_group_IT_number 14
_symmetry_cell_setting 'monoclinic'
loop_
_space_group_symop_operation_xyz
x,y,z
-x,1/2+y,1/2-z
-x,-y,-z
x,1/2-y,1/2+z
loop_
_atom_site_type_symbol
_atom_site_label
_atom_site_fract_x
_atom_site_fract_y
_atom_site_fract_z
Si Si1 0.039636 0.136669 0.356630
Si Si2 0.534937 0.308734 0.309579
Si Si3 0.938484 0.289366 0.309930
Si Si4 0.709500 0.473823 0.912563
Si Si5 0.432012 0.306277 0.250837
Si Si6 0.529111 0.099696 0.104159
Si Si7 0.644621 0.972347 0.562845
Si Si8 0.023614 0.834221 0.491054
O O1 0.291990 0.114648 0.218869
O O2 0.012326 0.225089 0.321256
O O3 0.889891 0.003666 0.435052
O O4 0.943494 0.193593 0.467311
O O5 0.499053 0.305571 0.269895
O O6 0.461995 0.450057 0.376881
O O7 0.793461 0.294250 0.157479
O O8 0.410361 0.184980 0.408473
O O9 0.859923 0.164006 0.319005
O O10 0.720104 0.373077 0.451650
O O11 0.128072 0.394997 0.182251
O O12 0.500000 0.500000 0.000000
O O13 0.612500 0.457988 0.026892
O O14 0.544265 0.205849 0.142900
O O15 0.482913 0.456483 0.198650
O O16 0.189874 0.250091 0.394639
O O17 0.000000 0.000000 0.500000
#
# Coordination Sequence:
#
# PCOD9244540 Si02
#       8
#     4   4   4   4   4   4   4   4
#     4  10  20  41  69  89 131 176 218 268 338 395
#     4  12  23  37  64 100 133 170 223 269 328 402
#     4  11  24  46  73  99 131 176 227 283 347 398
#     4  11  26  50  73 101 139 177 230 292 341 405
#     4  11  21  39  64  92 137 173 217 272 334 395
#     4  11  22  41  69  93 127 185 220 261 340 410
#     4  11  24  43  63 100 138 168 219 290 331 388
#     4  11  20  36  63  93 125 179 220 261 324 406
#
# _framework density 20.368832999999999
#
# number of rings (size 3 to 8) (size 9 to 14) (size 15 to 20)
#    0.000    1.000    6.250    2.250    3.500    0.500 
#    6.750    3.125    0.000    0.000    0.000    0.000 
#    0.000    0.000    0.000    0.000    0.000    0.000 
#
# Total GULP energy -178497.186185 kJ/mol
# GULP energy per Si atom -5578.037068 kJ/mol
# Density = 2.032247 g / cm^3
# Si number density = 20.368833 Si / 1000 Ang^3
#
#
#
# Elastic Constant Matrix: (Units=GPa)
#
#
# Indices 1 2 3 4 5 6 
#
# 1 47.1389 8.4857 27.6411 0.0000 -22.4318 0.0000
# 2 8.4857 92.1239 43.2409 0.0000 -12.5086 0.0000
# 3 27.6411 43.2409 93.2659 0.0000 -20.2876 0.0000
# 4 0.0000 0.0000 0.0000 39.2774 0.0000 -0.7733
# 5 -22.4318 -12.5086 -20.2876 0.0000 26.9505 0.0000
# 6 0.0000 0.0000 0.0000 -0.7733 0.0000 17.0319
#
#
#
# Elastic Compliance Matrix: (Units=1/GPa)
#
#
# Indices 1 2 3 4 5 6 
#
# 1 0.037909 0.003487 -0.006740 0.000000 0.028098 0.000000
# 2 0.003487 0.014278 -0.006673 0.000000 0.004506 0.000000
# 3 -0.006740 -0.006673 0.016645 0.000000 0.003823 0.000000
# 4 0.000000 0.000000 0.000000 0.025483 0.000000 0.001157
# 5 0.028098 0.004506 0.003823 0.000000 0.065461 0.000000
# 6 0.000000 0.000000 0.000000 0.001157 0.000000 0.058766
#
#
# Mechanical properties :
#
#
# Convention : Reuss Voigt Hill
#
# Bulk Modulus (GPa) = 20.41648 43.47378 31.94513
# Shear Modulus (GPa) = 19.62944 26.86268 23.24606
#
# Velocity S-wave (km/s) = 3.10772 3.63549 3.38191
# Velocity P-wave (km/s) = 4.78773 6.24596 5.56482
#
# Compressibility (1/GPa) = 0.04898003
#
# Stress axis : x y z
#
# Youngs Moduli (GPa) = 26.37890 70.03960 60.07886
#
# Poissons Ratio (x) = -0.24421 0.40491
# Poissons Ratio (y) = -0.09198 0.40089
# Poissons Ratio (z) = 0.17778 0.46736
#
# Static dielectric constant tensor:
#      x y z
#    x 1.742400 0.000000 0.005380 
#    y 0.000000 1.735580 0.000000 
#    z 0.005380 0.000000 1.639970 
# 
# From -- ./inp_files/80406.got.cif
#   From: 2010.05.17/outbox.cif.g08.bks.cpg/sg14_41_cif.got.tgz:80406.got - 2010.06.03 17:49:19.
