data_PCOD9244011
_publ_section_title
;
Structure prediction by ZEFSAII (Michael W. Deem and Ramdas Pophale) SiO2 
 PCOD9244011
Probable space group: P 21/C
;
_chemical_formula_sum "Si O2"
_cell_formula_units_Z 28
_cell_length_a 12.358356
_cell_length_b 14.829105
_cell_length_c 9.222338
_cell_angle_alpha 90.000000
_cell_angle_beta 121.589126
_cell_angle_gamma 90.000000
_cell_volume 1439.685911
_symmetry_space_group_name_H-M "P 21/C"
_symmetry_group_IT_number 14
_symmetry_cell_setting 'monoclinic'
loop_
_space_group_symop_operation_xyz
x,y,z
-x,1/2+y,1/2-z
-x,-y,-z
x,1/2-y,1/2+z
loop_
_atom_site_type_symbol
_atom_site_label
_atom_site_fract_x
_atom_site_fract_y
_atom_site_fract_z
Si Si1 0.089304 0.928193 0.140010
Si Si2 0.374874 0.889033 0.386141
Si Si3 0.921365 0.257190 0.021640
Si Si4 0.530536 0.502120 0.776236
Si Si5 0.257855 0.697421 0.343562
Si Si6 0.041132 0.067231 0.656440
Si Si7 0.320827 0.494157 0.410114
O O1 0.241466 0.929702 0.231406
O O2 0.047998 0.830823 0.050443
O O3 0.062778 0.938579 0.290521
O O4 0.000000 0.000000 0.000000
O O5 0.410317 0.934095 0.564542
O O6 0.349624 0.783188 0.392318
O O7 0.479386 0.915949 0.340176
O O8 0.812887 0.312113 0.859306
O O9 0.852830 0.222235 0.118919
O O10 0.036277 0.326915 0.113837
O O11 0.412476 0.460016 0.602148
O O12 0.625319 0.528054 0.712357
O O13 0.321165 0.603117 0.425724
O O14 0.176737 0.038549 0.814583
O O15 0.000000 0.000000 0.500000
#
# Coordination Sequence:
#
# PCOD9244011 Si02
#       7
#     4   4   4   4   4   4   4
#     4  11  23  38  65  96 126 169 207 265 327 379
#     4  10  20  39  64  89 121 159 212 265 304 365
#     4  11  21  37  59  98 127 158 209 262 319 380
#     4  10  22  39  59  88 122 164 215 258 305 373
#     4  11  20  38  66  94 119 163 220 264 300 388
#     4  12  22  38  64  97 130 163 201 268 328 378
#     4  11  22  38  66  90 123 169 210 257 314 374
#
# _framework density 19.448685000000001
#
# number of rings (size 3 to 8) (size 9 to 14) (size 15 to 20)
#    0.000    1.143    4.286    5.143    0.000    0.000 
#    0.000    0.000   31.429    0.000    0.000    0.000 
#    0.000    0.000    0.000    0.000    0.000    0.000 
#
# Total GULP energy -156263.399484 kJ/mol
# GULP energy per Si atom -5580.835696 kJ/mol
# Density = 1.940442 g / cm^3
# Si number density = 19.448685 Si / 1000 Ang^3
#
#
#
# Elastic Constant Matrix: (Units=GPa)
#
#
# Indices 1 2 3 4 5 6 
#
# 1 71.5385 33.1697 3.0736 0.0000 -15.8158 0.0000
# 2 33.1697 100.5876 36.8397 0.0000 1.3394 0.0000
# 3 3.0736 36.8397 85.2156 0.0000 -1.3219 0.0000
# 4 0.0000 0.0000 0.0000 25.2757 0.0000 3.3275
# 5 -15.8158 1.3394 -1.3219 0.0000 41.1001 0.0000
# 6 0.0000 0.0000 0.0000 3.3275 0.0000 31.6048
#
#
#
# Elastic Compliance Matrix: (Units=1/GPa)
#
#
# Indices 1 2 3 4 5 6 
#
# 1 0.018929 -0.007291 0.002587 0.000000 0.007605 0.000000
# 2 -0.007291 0.014632 -0.006117 0.000000 -0.003479 0.000000
# 3 0.002587 -0.006117 0.014312 0.000000 0.001655 0.000000
# 4 0.000000 0.000000 0.000000 0.040120 0.000000 -0.004224
# 5 0.007605 -0.003479 0.001655 0.000000 0.027424 0.000000
# 6 0.000000 0.000000 0.000000 -0.004224 0.000000 0.032085
#
#
# Mechanical properties :
#
#
# Convention : Reuss Voigt Hill
#
# Bulk Modulus (GPa) = 38.12101 44.83419 41.47760
# Shear Modulus (GPa) = 28.10768 31.88003 29.99386
#
# Velocity S-wave (km/s) = 3.80573 4.05308 3.93135
# Velocity P-wave (km/s) = 6.24138 6.70864 6.47922
#
# Compressibility (1/GPa) = 0.02623225
#
# Stress axis : x y z
#
# Youngs Moduli (GPa) = 52.82854 68.34167 69.87318
#
# Poissons Ratio (x) = 0.49827 -0.18077
# Poissons Ratio (y) = 0.38517 0.42740
# Poissons Ratio (z) = -0.13668 0.41803
#
# Static dielectric constant tensor:
#      x y z
#    x 1.680380 0.000000 -0.019720 
#    y 0.000000 1.717170 0.000000 
#    z -0.019720 0.000000 1.731030 
# 
# From -- ./inp_files/13182.got.cif
#   From: 2010.05.17/outbox.cif.g08.bks.cpg/sg14_7_cif.got.tgz:13182.got - 2010.06.03 17:49:19.
