data_PCOD9244149
_publ_section_title
;
Structure prediction by ZEFSAII (Michael W. Deem and Ramdas Pophale) SiO2 
 PCOD9244149
Probable space group: P 21/C
;
_chemical_formula_sum "Si O2"
_cell_formula_units_Z 28
_cell_length_a 8.065284
_cell_length_b 8.469877
_cell_length_c 24.850531
_cell_angle_alpha 90.000000
_cell_angle_beta 45.200847
_cell_angle_gamma 90.000000
_cell_volume 1204.576852
_symmetry_space_group_name_H-M "P 21/C"
_symmetry_group_IT_number 14
_symmetry_cell_setting 'monoclinic'
loop_
_space_group_symop_operation_xyz
x,y,z
-x,1/2+y,1/2-z
-x,-y,-z
x,1/2-y,1/2+z
loop_
_atom_site_type_symbol
_atom_site_label
_atom_site_fract_x
_atom_site_fract_y
_atom_site_fract_z
Si Si1 0.487501 0.184801 0.519506
Si Si2 0.238026 0.343753 0.352872
Si Si3 0.865893 0.899425 0.763645
Si Si4 0.554911 0.312163 0.699207
Si Si5 0.823387 0.344891 0.360726
Si Si6 0.974106 0.394597 0.137728
Si Si7 0.928723 0.137128 0.476024
O O1 0.596037 0.291185 0.446650
O O2 0.663492 0.197586 0.530394
O O3 0.211086 0.205323 0.590839
O O4 0.500000 0.000000 0.500000
O O5 0.360116 0.510996 0.329048
O O6 0.424313 0.219824 0.285883
O O7 0.115019 0.278266 0.434514
O O8 0.029337 0.362654 0.357478
O O9 0.818157 0.993094 0.828917
O O10 0.883928 0.037866 0.714570
O O11 0.648884 0.786851 0.797637
O O12 0.095963 0.794128 0.699329
O O13 0.777981 0.200209 0.650117
O O14 0.029525 0.550835 0.090812
O O15 0.000000 0.000000 0.500000
#
# Coordination Sequence:
#
# PCOD9244149 Si02
#       7
#     4   4   4   4   4   4   4
#     4   9  18  41  62  85 128 168 212 264 317 399
#     4  10  20  40  59  89 127 167 214 273 326 387
#     4  11  22  40  62  96 127 165 222 272 325 394
#     4  11  21  39  63  87 130 168 209 272 329 381
#     4  10  22  39  63  94 124 165 222 266 329 390
#     4  11  21  42  61  91 131 170 212 276 333 388
#     4  10  20  40  65  93 122 170 222 268 326 403
#
# _framework density 23.244675999999998
#
# number of rings (size 3 to 8) (size 9 to 14) (size 15 to 20)
#    0.000    1.714    7.143    0.000    2.000    2.286 
#    7.714    5.714    0.000    0.000    0.000    0.000 
#    0.000    0.000    0.000    0.000    0.000    0.000 
#
# Total GULP energy -156294.465920 kJ/mol
# GULP energy per Si atom -5581.945211 kJ/mol
# Density = 2.319177 g / cm^3
# Si number density = 23.244676 Si / 1000 Ang^3
#
#
#
# Elastic Constant Matrix: (Units=GPa)
#
#
# Indices 1 2 3 4 5 6 
#
# 1 55.5625 4.8774 33.1162 0.0000 -18.0015 0.0000
# 2 4.8774 49.4059 16.1622 0.0000 -4.5189 0.0000
# 3 33.1162 16.1622 73.9203 0.0000 -25.1111 0.0000
# 4 0.0000 0.0000 0.0000 28.9793 0.0000 -0.0950
# 5 -18.0015 -4.5189 -25.1111 0.0000 42.7662 0.0000
# 6 0.0000 0.0000 0.0000 -0.0950 0.0000 45.1491
#
#
#
# Elastic Compliance Matrix: (Units=1/GPa)
#
#
# Indices 1 2 3 4 5 6 
#
# 1 0.025450 0.001206 -0.009972 0.000000 0.004985 0.000000
# 2 0.001206 0.021870 -0.005452 0.000000 -0.000383 0.000000
# 3 -0.009972 -0.005452 0.021943 0.000000 0.008111 0.000000
# 4 0.000000 0.000000 0.000000 0.034508 0.000000 0.000073
# 5 0.004985 -0.000383 0.008111 0.000000 0.030203 0.000000
# 6 0.000000 0.000000 0.000000 0.000073 0.000000 0.022149
#
#
# Mechanical properties :
#
#
# Convention : Reuss Voigt Hill
#
# Bulk Modulus (GPa) = 24.49382 31.91115 28.20248
# Shear Modulus (GPa) = 25.23113 31.69446 28.46279
#
# Velocity S-wave (km/s) = 3.29820 3.69659 3.50306
# Velocity P-wave (km/s) = 5.00644 5.65489 5.34052
#
# Compressibility (1/GPa) = 0.04082662
#
# Stress axis : x y z
#
# Youngs Moduli (GPa) = 39.29214 45.72489 45.57330
#
# Poissons Ratio (x) = -0.05512 0.45445
# Poissons Ratio (y) = -0.04737 0.24846
# Poissons Ratio (z) = 0.39182 0.24928
#
# Static dielectric constant tensor:
#      x y z
#    x 1.931560 0.000000 -0.021320 
#    y 0.000000 1.904290 0.000000 
#    z -0.021320 0.000000 1.956420 
# 
# From -- ./inp_files/76307.got.cif
#   From: 2010.05.17/outbox.cif.g08.bks.cpg/sg14_39_cif.got.tgz:76307.got - 2010.06.03 17:49:19.
