data_PCOD9244817
_publ_section_title
;
Structure prediction by ZEFSAII (Michael W. Deem and Ramdas Pophale) SiO2 
 PCOD9244817
Probable space group: P 21/C
;
_chemical_formula_sum "Si O2"
_cell_formula_units_Z 32
_cell_length_a 32.165018
_cell_length_b 9.346863
_cell_length_c 12.937665
_cell_angle_alpha 90.000000
_cell_angle_beta 24.095981
_cell_angle_gamma 90.000000
_cell_volume 1587.995427
_symmetry_space_group_name_H-M "P 21/C"
_symmetry_group_IT_number 14
_symmetry_cell_setting 'monoclinic'
loop_
_space_group_symop_operation_xyz
x,y,z
-x,1/2+y,1/2-z
-x,-y,-z
x,1/2-y,1/2+z
loop_
_atom_site_type_symbol
_atom_site_label
_atom_site_fract_x
_atom_site_fract_y
_atom_site_fract_z
Si Si1 0.841879 0.513082 0.286427
Si Si2 0.247379 0.017406 0.710305
Si Si3 0.324883 0.671467 0.217605
Si Si4 0.601086 0.590204 0.297596
Si Si5 0.540177 0.614742 0.828335
Si Si6 0.179677 0.175717 0.371213
Si Si7 0.055878 0.100235 0.231292
Si Si8 0.317807 0.000195 0.174268
O O1 0.753402 0.403679 0.523367
O O2 0.808083 0.621675 0.273257
O O3 0.886169 0.589994 0.288955
O O4 0.939885 0.436490 0.013623
O O5 0.307427 0.920183 0.653586
O O6 0.302479 0.012797 0.476072
O O7 0.252075 0.186580 0.728527
O O8 0.125890 0.994398 0.001024
O O9 0.306918 0.836682 0.232244
O O10 0.440553 0.662808 0.991834
O O11 0.500000 0.500000 0.500000
O O12 0.583835 0.748184 0.290575
O O13 0.627322 0.586291 0.358457
O O14 0.617037 0.534353 0.576521
O O15 0.500000 0.500000 0.000000
O O16 0.071353 0.247288 0.641411
O O17 0.207818 0.058507 0.390984
#
# Coordination Sequence:
#
# PCOD9244817 Si02
#       8
#     4   4   4   4   4   4   4   4
#     4  10  20  45  68  99 139 169 226 281 343 400
#     4   9  22  42  67  93 130 180 216 278 337 398
#     4  11  25  43  66  99 135 175 227 290 340 397
#     4  12  25  43  63  97 136 174 230 280 335 401
#     4  12  27  42  67  92 131 187 219 280 334 407
#     4  10  22  41  70  99 124 184 223 272 342 403
#     4   8  20  42  71  95 128 178 219 276 336 403
#     4  12  27  43  67 101 136 176 234 277 337 416
#
# _framework density 20.151191000000001
#
# number of rings (size 3 to 8) (size 9 to 14) (size 15 to 20)
#    0.750    0.750    2.500    1.500    7.000    1.000 
#    9.000    0.625    0.000    0.000    0.000    0.000 
#    0.000    0.000    0.000    0.000    0.000    0.000 
#
# Total GULP energy -178311.092711 kJ/mol
# GULP energy per Si atom -5572.221647 kJ/mol
# Density = 2.010533 g / cm^3
# Si number density = 20.151191 Si / 1000 Ang^3
#
#
#
# Elastic Constant Matrix: (Units=GPa)
#
#
# Indices 1 2 3 4 5 6 
#
# 1 52.6507 26.9483 30.4061 0.0000 5.6245 0.0000
# 2 26.9483 100.5948 31.2676 0.0000 5.1757 0.0000
# 3 30.4061 31.2676 96.6217 0.0000 25.2516 0.0000
# 4 0.0000 0.0000 0.0000 2.1730 0.0000 -10.7539
# 5 5.6245 5.1757 25.2516 0.0000 29.0897 0.0000
# 6 0.0000 0.0000 0.0000 -10.7539 0.0000 19.6281
#
#
#
# Elastic Compliance Matrix: (Units=1/GPa)
#
#
# Indices 1 2 3 4 5 6 
#
# 1 0.025183 -0.004697 -0.006921 0.000000 0.001974 0.000000
# 2 -0.004697 0.011977 -0.002688 0.000000 0.001111 0.000000
# 3 -0.006921 -0.002688 0.016715 0.000000 -0.012693 0.000000
# 4 0.000000 0.000000 0.000000 -0.268904 0.000000 -0.147327
# 5 0.001974 0.001111 -0.012693 0.000000 0.044815 0.000000
# 6 0.000000 0.000000 0.000000 -0.147327 0.000000 -0.029770
#
#
# Mechanical properties :
#
#
# Convention : Reuss Voigt Hill
#
# Bulk Modulus (GPa) = 39.58280 47.45680 43.51980
# Shear Modulus (GPa) = -30.68408 20.92784 -4.87812
#
# Velocity S-wave (km/s) = -3.90640 3.22614 -1.55757
# Velocity P-wave (km/s) = 0.81308 6.12199 4.29055
#
# Compressibility (1/GPa) = 0.02526350
#
# Stress axis : x y z
#
# Youngs Moduli (GPa) = 39.70938 83.48989 59.82714
#
# Poissons Ratio (x) = 0.39212 0.41406
# Poissons Ratio (y) = 0.18650 0.16083
# Poissons Ratio (z) = 0.27483 0.22444
#
# Static dielectric constant tensor:
#      x y z
#    x 1.845840 0.000000 -0.099720 
#    y 0.000000 1.758230 0.000000 
#    z -0.099720 0.000000 1.836830 
# 
# From -- ./inp_files/36463.got.cif
#   From: 2010.05.17/outbox.cif.g08.bks.cpg/sg14_19_cif.got.tgz:36463.got - 2010.06.03 17:49:19.
