data_PCOD9244610
_publ_section_title
;
Structure prediction by ZEFSAII (Michael W. Deem and Ramdas Pophale) SiO2 
 PCOD9244610
Probable space group: P 21/C
;
_chemical_formula_sum "Si O2"
_cell_formula_units_Z 26
_cell_length_a 15.241465
_cell_length_b 7.579253
_cell_length_c 13.437702
_cell_angle_alpha 90.000000
_cell_angle_beta 39.870599
_cell_angle_gamma 90.000000
_cell_volume 995.116693
_symmetry_space_group_name_H-M "P 21/C"
_symmetry_group_IT_number 14
_symmetry_cell_setting 'monoclinic'
loop_
_space_group_symop_operation_xyz
x,y,z
-x,1/2+y,1/2-z
-x,-y,-z
x,1/2-y,1/2+z
loop_
_atom_site_type_symbol
_atom_site_label
_atom_site_fract_x
_atom_site_fract_y
_atom_site_fract_z
Si Si1 0.024350 0.027162 0.346367
Si Si2 0.583776 0.285481 0.614079
Si Si3 0.663432 0.948819 0.215072
Si Si4 0.500000 0.000000 0.000000
Si Si5 0.247687 0.950311 0.671116
Si Si6 0.777967 0.398833 0.175178
Si Si7 0.955998 0.882888 0.883828
O O1 0.998072 0.819212 0.358176
O O2 0.132327 0.042341 0.340982
O O3 0.878962 0.119348 0.493209
O O4 0.090149 0.090489 0.188392
O O5 0.432510 0.201366 0.748234
O O6 0.623658 0.379291 0.682793
O O7 0.592730 0.418611 0.512109
O O8 0.678391 0.122326 0.491967
O O9 0.649727 0.935550 0.348607
O O10 0.824495 0.919591 0.063064
O O11 0.375782 0.963656 0.188916
O O12 0.226458 0.787517 0.765657
O O13 0.091352 0.002845 0.783658
#
# Coordination Sequence:
#
# PCOD9244610 Si02
#       7
#     4   4   4   2   4   4   4
#     4  10  22  40  64  99 135 173 232 276 356 401
#     4  11  27  45  73 101 144 185 235 292 357 429
#     4  12  26  47  70 105 140 188 239 292 363 423
#     4  10  20  42  64  96 128 180 226 278 338 416
#     4  10  24  44  70 100 141 178 237 294 351 417
#     4   9  20  39  66  91 132 181 217 283 333 415
#     4  11  23  43  67 104 133 182 228 294 345 423
#
# _framework density 26.127590000000001
#
# number of rings (size 3 to 8) (size 9 to 14) (size 15 to 20)
#    0.000    1.538    0.000    4.615    8.615    1.231 
#    8.308    0.000    0.000    0.000    0.000    0.000 
#    0.000    0.000    0.000    0.000    0.000    0.000 
#
# Total GULP energy -144835.325748 kJ/mol
# GULP energy per Si atom -5570.589452 kJ/mol
# Density = 2.606812 g / cm^3
# Si number density = 26.127590 Si / 1000 Ang^3
#
#
#
# Elastic Constant Matrix: (Units=GPa)
#
#
# Indices 1 2 3 4 5 6 
#
# 1 86.0641 10.2232 -20.8591 0.0000 5.2217 0.0000
# 2 10.2232 45.8035 -0.8618 0.0000 -3.0216 0.0000
# 3 -20.8591 -0.8618 82.5648 0.0000 -13.0531 0.0000
# 4 0.0000 0.0000 0.0000 13.9962 0.0000 4.1725
# 5 5.2217 -3.0216 -13.0531 0.0000 44.1176 0.0000
# 6 0.0000 0.0000 0.0000 4.1725 0.0000 33.8906
#
#
#
# Elastic Compliance Matrix: (Units=1/GPa)
#
#
# Indices 1 2 3 4 5 6 
#
# 1 0.012748 -0.002840 0.003065 0.000000 -0.000796 0.000000
# 2 -0.002840 0.022583 -0.000193 0.000000 0.001826 0.000000
# 3 0.003065 -0.000193 0.013454 0.000000 0.003605 0.000000
# 4 0.000000 0.000000 0.000000 0.074170 0.000000 -0.009132
# 5 -0.000796 0.001826 0.003605 0.000000 0.023953 0.000000
# 6 0.000000 0.000000 0.000000 -0.009132 0.000000 0.030631
#
#
# Mechanical properties :
#
#
# Convention : Reuss Voigt Hill
#
# Bulk Modulus (GPa) = 20.47157 21.27078 20.87118
# Shear Modulus (GPa) = 25.80542 33.46289 29.63416
#
# Velocity S-wave (km/s) = 3.14613 3.58264 3.37146
# Velocity P-wave (km/s) = 4.58800 5.02718 4.81260
#
# Compressibility (1/GPa) = 0.04884822
#
# Stress axis : x y z
#
# Youngs Moduli (GPa) = 78.44485 44.28085 74.32790
#
# Poissons Ratio (x) = 0.12576 -0.22782
# Poissons Ratio (y) = 0.22280 0.01436
# Poissons Ratio (z) = -0.24044 0.00855
#
# Static dielectric constant tensor:
#      x y z
#    x 2.242200 0.000000 0.028380 
#    y 0.000000 2.183320 0.000000 
#    z 0.028380 0.000000 2.080560 
# 
# From -- ./inp_files/46712.got.cif
#   From: 2010.05.17/outbox.cif.g08.bks.cpg/sg14_24_cif.got.tgz:46712.got - 2010.06.03 17:49:19.
