data_PCOD9244640
_publ_section_title
;
Structure prediction by ZEFSAII (Michael W. Deem and Ramdas Pophale) SiO2 
 PCOD9244640
Probable space group: P 21/C
;
_chemical_formula_sum "Si O2"
_cell_formula_units_Z 24
_cell_length_a 11.154856
_cell_length_b 12.405441
_cell_length_c 22.094616
_cell_angle_alpha 90.000000
_cell_angle_beta 20.393617
_cell_angle_gamma 90.000000
_cell_volume 1065.430372
_symmetry_space_group_name_H-M "P 21/C"
_symmetry_group_IT_number 14
_symmetry_cell_setting 'monoclinic'
loop_
_space_group_symop_operation_xyz
x,y,z
-x,1/2+y,1/2-z
-x,-y,-z
x,1/2-y,1/2+z
loop_
_atom_site_type_symbol
_atom_site_label
_atom_site_fract_x
_atom_site_fract_y
_atom_site_fract_z
Si Si1 0.047964 0.155212 0.980042
Si Si2 0.498924 0.402020 0.455236
Si Si3 0.964520 0.213517 0.281270
Si Si4 0.547014 0.865171 0.384654
Si Si5 0.093549 0.995386 0.056690
Si Si6 0.808050 0.111460 0.576225
O O1 0.441828 0.119783 0.783403
O O2 0.921250 0.090137 0.098535
O O3 0.855340 0.105460 0.012605
O O4 0.019355 0.282755 0.995717
O O5 0.500000 0.500000 0.500000
O O6 0.793486 0.319932 0.333877
O O7 0.445467 0.455461 0.415801
O O8 0.153682 0.338878 0.635575
O O9 0.695275 0.134035 0.441425
O O10 0.236279 0.255360 0.203627
O O11 0.300832 0.871327 0.442624
O O12 0.839761 0.952819 0.229517
O O13 0.000000 0.000000 0.500000
#
# Coordination Sequence:
#
# PCOD9244640 Si02
#       6
#     4   4   4   4   4   4
#     4  10  25  43  70  96 139 171 228 278 339 404
#     4  11  23  43  67  97 134 175 225 274 336 392
#     4  10  23  41  67 101 131 179 223 276 331 404
#     4  10  20  42  66  94 134 171 225 272 333 398
#     4  10  22  42  66  95 136 181 213 280 335 396
#     4  11  25  42  69 101 128 178 229 277 343 401
#
# _framework density 22.526109999999999
#
# number of rings (size 3 to 8) (size 9 to 14) (size 15 to 20)
#    0.000    1.667    1.667    2.000    9.333    3.333 
#    0.000    0.000    0.000    0.000    0.000    0.000 
#    0.000    0.000    0.000    0.000    0.000    0.000 
#
# Total GULP energy -133909.763830 kJ/mol
# GULP energy per Si atom -5579.573493 kJ/mol
# Density = 2.247484 g / cm^3
# Si number density = 22.526110 Si / 1000 Ang^3
#
#
#
# Elastic Constant Matrix: (Units=GPa)
#
#
# Indices 1 2 3 4 5 6 
#
# 1 83.1160 28.1798 -2.7472 0.0000 -11.3794 0.0000
# 2 28.1798 144.4710 9.1228 0.0000 -8.3759 0.0000
# 3 -2.7472 9.1228 36.7193 0.0000 -0.1740 0.0000
# 4 0.0000 0.0000 0.0000 23.7925 0.0000 -8.0225
# 5 -11.3794 -8.3759 -0.1740 0.0000 13.1487 0.0000
# 6 0.0000 0.0000 0.0000 -8.0225 0.0000 35.9632
#
#
#
# Elastic Compliance Matrix: (Units=1/GPa)
#
#
# Indices 1 2 3 4 5 6 
#
# 1 0.014364 -0.002270 0.001691 0.000000 0.011007 0.000000
# 2 -0.002270 0.007662 -0.002060 0.000000 0.002889 0.000000
# 3 0.001691 -0.002060 0.027874 0.000000 0.000520 0.000000
# 4 0.000000 0.000000 0.000000 0.045449 0.000000 0.010138
# 5 0.011007 0.002889 0.000520 0.000000 0.087426 0.000000
# 6 0.000000 0.000000 0.000000 0.010138 0.000000 0.030068
#
#
# Mechanical properties :
#
#
# Convention : Reuss Voigt Hill
#
# Bulk Modulus (GPa) = 22.41051 37.04636 29.72843
# Shear Modulus (GPa) = 21.45962 29.89762 25.67862
#
# Velocity S-wave (km/s) = 3.08986 3.64709 3.37998
# Velocity P-wave (km/s) = 4.76444 5.84950 5.33463
#
# Compressibility (1/GPa) = 0.04462192
#
# Stress axis : x y z
#
# Youngs Moduli (GPa) = 69.61840 130.51075 35.87527
#
# Poissons Ratio (x) = 0.29631 -0.06066
# Poissons Ratio (y) = 0.15806 0.07390
# Poissons Ratio (z) = -0.11772 0.26883
#
# Static dielectric constant tensor:
#      x y z
#    x 1.902480 0.000000 -0.022520 
#    y 0.000000 1.714620 0.000000 
#    z -0.022520 0.000000 1.883740 
# 
# From -- ./inp_files/73267.got.cif
#   From: 2010.05.17/outbox.cif.g08.bks.cpg/sg14_37_cif.got.tgz:73267.got - 2010.06.03 17:49:19.
