data_PCOD9244703
_publ_section_title
;
Structure prediction by ZEFSAII (Michael W. Deem and Ramdas Pophale) SiO2 
 PCOD9244703
Probable space group: P 21/C
;
_chemical_formula_sum "Si O2"
_cell_formula_units_Z 30
_cell_length_a 8.769336
_cell_length_b 12.868345
_cell_length_c 11.421996
_cell_angle_alpha 90.000000
_cell_angle_beta 113.223687
_cell_angle_gamma 90.000000
_cell_volume 1184.496762
_symmetry_space_group_name_H-M "P 21/C"
_symmetry_group_IT_number 14
_symmetry_cell_setting 'monoclinic'
loop_
_space_group_symop_operation_xyz
x,y,z
-x,1/2+y,1/2-z
-x,-y,-z
x,1/2-y,1/2+z
loop_
_atom_site_type_symbol
_atom_site_label
_atom_site_fract_x
_atom_site_fract_y
_atom_site_fract_z
Si Si1 0.563318 0.206828 0.630502
Si Si2 0.137006 0.587334 0.674574
Si Si3 0.244100 0.395714 0.801225
Si Si4 0.060119 0.298253 0.209199
Si Si5 0.782919 0.584173 0.947143
Si Si6 0.235807 0.660515 0.455890
Si Si7 0.500000 0.500000 0.500000
Si Si8 0.568072 0.419576 0.772533
O O1 0.704557 0.122548 0.698858
O O2 0.383797 0.156157 0.592489
O O3 0.605612 0.263117 0.519504
O O4 0.584845 0.303742 0.726473
O O5 0.146710 0.463110 0.674172
O O6 0.165009 0.645394 0.562644
O O7 0.976467 0.626195 0.694667
O O8 0.217908 0.273566 0.778797
O O9 0.436318 0.418123 0.838063
O O10 0.171358 0.429706 0.904085
O O11 0.086169 0.358078 0.095769
O O12 0.908831 0.216237 0.159978
O O13 0.729495 0.477237 0.869517
O O14 0.313211 0.551946 0.439321
O O15 0.491105 0.487142 0.641942
#
# Coordination Sequence:
#
# PCOD9244703 Si02
#       8
#     4   4   4   4   4   4   2   4
#     4  10  23  40  70 101 138 179 240 300 354 420
#     4  11  24  45  67  99 141 186 237 296 362 431
#     4  12  25  44  70 104 140 185 245 292 363 428
#     4  11  27  45  66 105 147 195 231 297 368 434
#     4  12  25  44  72 107 142 191 240 303 357 435
#     4  10  22  42  66  97 138 184 233 292 359 419
#     4  10  20  42  72 102 132 178 246 298 344 418
#     4  11  23  42  71 108 135 184 241 299 356 423
#
# _framework density 25.327210999999998
#
# number of rings (size 3 to 8) (size 9 to 14) (size 15 to 20)
#    0.000    1.067    4.000    1.200    1.867    7.467 
#    2.400    0.000    0.000    0.000    0.000    0.000 
#    0.000    0.000    0.000    0.000    0.000    0.000 
#
# Total GULP energy -167356.970610 kJ/mol
# GULP energy per Si atom -5578.565687 kJ/mol
# Density = 2.526957 g / cm^3
# Si number density = 25.327211 Si / 1000 Ang^3
#
#
#
# Elastic Constant Matrix: (Units=GPa)
#
#
# Indices 1 2 3 4 5 6 
#
# 1 103.6223 34.4846 23.4371 0.0000 -27.1405 0.0000
# 2 34.4846 79.7268 8.8369 0.0000 -0.0248 0.0000
# 3 23.4371 8.8369 63.2122 0.0000 -26.4170 0.0000
# 4 0.0000 0.0000 0.0000 25.9918 0.0000 0.6296
# 5 -27.1405 -0.0248 -26.4170 0.0000 45.7717 0.0000
# 6 0.0000 0.0000 0.0000 0.6296 0.0000 36.8328
#
#
#
# Elastic Compliance Matrix: (Units=1/GPa)
#
#
# Indices 1 2 3 4 5 6 
#
# 1 0.013833 -0.005852 -0.001165 0.000000 0.007526 0.000000
# 2 -0.005852 0.015279 -0.001862 0.000000 -0.004536 0.000000
# 3 -0.001165 -0.001862 0.021380 0.000000 0.011647 0.000000
# 4 0.000000 0.000000 0.000000 0.038490 0.000000 -0.000658
# 5 0.007526 -0.004536 0.011647 0.000000 0.033030 0.000000
# 6 0.000000 0.000000 0.000000 -0.000658 0.000000 0.027161
#
#
# Mechanical properties :
#
#
# Convention : Reuss Voigt Hill
#
# Bulk Modulus (GPa) = 30.55013 42.23097 36.39055
# Shear Modulus (GPa) = 28.11505 33.70609 30.91057
#
# Velocity S-wave (km/s) = 3.33539 3.65201 3.49728
# Velocity P-wave (km/s) = 5.18859 5.87309 5.54142
#
# Compressibility (1/GPa) = 0.03273308
#
# Stress axis : x y z
#
# Youngs Moduli (GPa) = 72.29274 65.44999 46.77365
#
# Poissons Ratio (x) = 0.38299 0.05451
# Poissons Ratio (y) = 0.42303 0.08709
# Poissons Ratio (z) = 0.08425 0.12187
#
# Static dielectric constant tensor:
#      x y z
#    x 1.983370 0.000000 -0.020380 
#    y 0.000000 2.052960 0.000000 
#    z -0.020380 0.000000 2.001990 
# 
# From -- ./inp_files/25550.got.cif
#   From: 2010.05.17/outbox.cif.g08.bks.cpg/sg14_13_cif.got.tgz:25550.got - 2010.06.03 17:49:19.
