data_PCOD9244407
_publ_section_title
;
Structure prediction by ZEFSAII (Michael W. Deem and Ramdas Pophale) SiO2 
 PCOD9244407
Probable space group: P 21/C
;
_chemical_formula_sum "Si O2"
_cell_formula_units_Z 28
_cell_length_a 11.807949
_cell_length_b 9.971837
_cell_length_c 9.289786
_cell_angle_alpha 90.000000
_cell_angle_beta 89.347176
_cell_angle_gamma 90.000000
_cell_volume 1093.772899
_symmetry_space_group_name_H-M "P 21/C"
_symmetry_group_IT_number 14
_symmetry_cell_setting 'monoclinic'
loop_
_space_group_symop_operation_xyz
x,y,z
-x,1/2+y,1/2-z
-x,-y,-z
x,1/2-y,1/2+z
loop_
_atom_site_type_symbol
_atom_site_label
_atom_site_fract_x
_atom_site_fract_y
_atom_site_fract_z
Si Si1 0.545851 0.477849 0.338896
Si Si2 0.184056 0.557829 0.289070
Si Si3 0.249494 0.404401 0.007774
Si Si4 0.708722 0.288441 0.055525
Si Si5 0.189897 0.934658 0.104037
Si Si6 0.524284 0.795024 0.608269
Si Si7 0.955624 0.565626 0.149951
O O1 0.500000 0.500000 0.500000
O O2 0.639777 0.683570 0.019173
O O3 0.681552 0.470882 0.352993
O O4 0.485956 0.339277 0.299247
O O5 0.273576 0.680772 0.315684
O O6 0.166813 0.497186 0.449390
O O7 0.064528 0.615803 0.234924
O O8 0.222526 0.445856 0.172959
O O9 0.266667 0.554527 0.940354
O O10 0.145872 0.345333 0.914695
O O11 0.484285 0.082897 0.281933
O O12 0.583348 0.283980 0.994357
O O13 0.799793 0.219692 0.947333
O O14 0.102458 0.969140 0.229322
O O15 0.000000 0.500000 0.000000
#
# Coordination Sequence:
#
# PCOD9244407 Si02
#       7
#     4   4   4   4   4   4   4
#     4  11  26  48  77 115 165 220 275 339 424 499
#     4   9  22  40  72 108 156 208 278 330 415 488
#     4  11  22  40  74 110 160 206 273 342 414 486
#     4   9  23  37  69 110 153 212 271 326 411 493
#     4   9  20  42  71 106 161 204 274 337 404 491
#     4  11  25  48  78 114 167 218 275 341 419 496
#     4  10  20  40  74 110 155 212 274 338 409 489
#
# _framework density 25.599466
#
# number of rings (size 3 to 8) (size 9 to 14) (size 15 to 20)
#    0.857    1.143    1.429    0.857    4.000    3.429 
#    0.000    0.000   12.571    0.000    0.000    0.000 
#    0.000    1.714    0.000    0.000    0.000    0.000 
#
# Total GULP energy -156412.759006 kJ/mol
# GULP energy per Si atom -5586.169964 kJ/mol
# Density = 2.554120 g / cm^3
# Si number density = 25.599466 Si / 1000 Ang^3
#
#
#
# Elastic Constant Matrix: (Units=GPa)
#
#
# Indices 1 2 3 4 5 6 
#
# 1 172.1576 36.7532 57.2708 0.0000 10.9496 0.0000
# 2 36.7532 89.1026 28.9927 0.0000 6.2257 0.0000
# 3 57.2708 28.9927 193.3883 0.0000 -9.5246 0.0000
# 4 0.0000 0.0000 0.0000 -118.8718 0.0000 3.9443
# 5 10.9496 6.2257 -9.5246 0.0000 49.0970 0.0000
# 6 0.0000 0.0000 0.0000 3.9443 0.0000 36.0301
#
#
#
# Elastic Compliance Matrix: (Units=1/GPa)
#
#
# Indices 1 2 3 4 5 6 
#
# 1 0.006983 -0.002173 -0.001823 0.000000 -0.001635 0.000000
# 2 -0.002173 0.012645 -0.001320 0.000000 -0.001375 0.000000
# 3 -0.001823 -0.001320 0.005994 0.000000 0.001737 0.000000
# 4 0.000000 0.000000 0.000000 -0.008382 0.000000 0.000918
# 5 -0.001635 -0.001375 0.001737 0.000000 0.021244 0.000000
# 6 0.000000 0.000000 0.000000 0.000918 0.000000 0.027654
#
#
# Mechanical properties :
#
#
# Convention : Reuss Voigt Hill
#
# Bulk Modulus (GPa) = 66.70794 77.85355 72.28074
# Shear Modulus (GPa) = 61.15009 15.35984 38.25496
#
# Velocity S-wave (km/s) = 4.89276 2.45216 3.86990
# Velocity P-wave (km/s) = 7.61799 6.20449 6.94728
#
# Compressibility (1/GPa) = 0.01499072
#
# Stress axis : x y z
#
# Youngs Moduli (GPa) = 143.20704 79.08340 166.82941
#
# Poissons Ratio (x) = 0.17185 0.30408
# Poissons Ratio (y) = 0.31118 0.22020
# Poissons Ratio (z) = 0.26103 0.10438
#
# Static dielectric constant tensor:
#      x y z
#    x 2.049960 0.000000 0.000260 
#    y 0.000000 2.173420 0.000000 
#    z 0.000260 0.000000 2.106250 
# 
# From -- ./inp_files/13557.got.cif
#   From: 2010.05.17/outbox.cif.g08.bks.cpg/sg14_7_cif.got.tgz:13557.got - 2010.06.03 17:49:19.
