data_PCOD9244952
_publ_section_title
;
Structure prediction by ZEFSAII (Michael W. Deem and Ramdas Pophale) SiO2 
 PCOD9244952
Probable space group: P 21/C
;
_chemical_formula_sum "Si O2"
_cell_formula_units_Z 32
_cell_length_a 9.927802
_cell_length_b 18.610180
_cell_length_c 9.207614
_cell_angle_alpha 90.000000
_cell_angle_beta 82.447671
_cell_angle_gamma 90.000000
_cell_volume 1686.424674
_symmetry_space_group_name_H-M "P 21/C"
_symmetry_group_IT_number 14
_symmetry_cell_setting 'monoclinic'
loop_
_space_group_symop_operation_xyz
x,y,z
-x,1/2+y,1/2-z
-x,-y,-z
x,1/2-y,1/2+z
loop_
_atom_site_type_symbol
_atom_site_label
_atom_site_fract_x
_atom_site_fract_y
_atom_site_fract_z
Si Si1 0.807554 0.761871 0.269825
Si Si2 0.499478 0.858864 0.061786
Si Si3 0.949366 0.663855 0.478612
Si Si4 0.624719 0.701152 0.060471
Si Si5 0.605801 0.080725 0.378228
Si Si6 0.393275 0.967302 0.305945
Si Si7 0.755610 0.389060 0.588627
Si Si8 0.749806 0.959515 0.928424
O O1 0.912752 0.722587 0.361522
O O2 0.706810 0.802298 0.396609
O O3 0.878134 0.811840 0.139248
O O4 0.724141 0.702658 0.186658
O O5 0.434572 0.896153 0.211979
O O6 0.559867 0.780588 0.076369
O O7 0.380202 0.855458 0.960798
O O8 0.619001 0.911975 0.992346
O O9 0.879278 0.590595 0.433117
O O10 0.108834 0.652457 0.472262
O O11 0.509536 0.641333 0.084800
O O12 0.652652 0.052337 0.526895
O O13 0.728763 0.108176 0.263559
O O14 0.527265 0.016518 0.306089
O O15 0.283859 0.010718 0.226927
O O16 0.762681 0.469873 0.525565
#
# Coordination Sequence:
#
# PCOD9244952 Si02
#       8
#     4   4   4   4   4   4   4   4
#     4  10  21  39  59  86 120 162 205 250 306 364
#     4  11  19  39  65  89 118 159 214 257 299 365
#     4  11  24  40  63  86 124 165 204 246 307 373
#     4  11  21  36  64  93 116 159 215 259 302 365
#     4  11  21  34  57  95 127 150 195 261 318 346
#     4  10  21  35  59  90 124 157 195 258 309 349
#     4  11  23  38  60  91 123 162 199 251 314 366
#     4  11  19  42  64  85 116 166 215 242 290 381
#
# _framework density 18.975055000000001
#
# number of rings (size 3 to 8) (size 9 to 14) (size 15 to 20)
#    0.000    1.250    5.000    3.375    0.000    1.000 
#    0.000    6.875    0.000    0.000    0.000    0.000 
#    0.000    0.000    0.000    0.000    0.000    0.000 
#
# Total GULP energy -178779.611881 kJ/mol
# GULP energy per Si atom -5586.862871 kJ/mol
# Density = 1.893187 g / cm^3
# Si number density = 18.975055 Si / 1000 Ang^3
#
#
#
# Elastic Constant Matrix: (Units=GPa)
#
#
# Indices 1 2 3 4 5 6 
#
# 1 53.2386 21.0475 8.0986 0.0000 -1.7284 0.0000
# 2 21.0475 65.2682 23.9115 0.0000 3.6331 0.0000
# 3 8.0986 23.9115 101.2094 0.0000 0.3963 0.0000
# 4 0.0000 0.0000 0.0000 12.5086 0.0000 -2.0209
# 5 -1.7284 3.6331 0.3963 0.0000 19.7177 0.0000
# 6 0.0000 0.0000 0.0000 -2.0209 0.0000 21.2048
#
#
#
# Elastic Compliance Matrix: (Units=1/GPa)
#
#
# Indices 1 2 3 4 5 6 
#
# 1 0.021730 -0.007166 -0.000059 0.000000 0.003226 0.000000
# 2 -0.007166 0.019317 -0.003974 0.000000 -0.004107 0.000000
# 3 -0.000059 -0.003974 0.010822 0.000000 0.000510 0.000000
# 4 0.000000 0.000000 0.000000 0.081195 0.000000 0.007738
# 5 0.003226 -0.004107 0.000510 0.000000 0.051745 0.000000
# 6 0.000000 0.000000 0.000000 0.007738 0.000000 0.047897
#
#
# Mechanical properties :
#
#
# Convention : Reuss Voigt Hill
#
# Bulk Modulus (GPa) = 33.93034 36.20348 35.06691
# Shear Modulus (GPa) = 18.87318 21.79681 20.33499
#
# Velocity S-wave (km/s) = 3.15720 3.39294 3.27719
# Velocity P-wave (km/s) = 5.58667 5.87114 5.73067
#
# Compressibility (1/GPa) = 0.02947214
#
# Stress axis : x y z
#
# Youngs Moduli (GPa) = 46.01964 51.76854 92.40315
#
# Poissons Ratio (x) = 0.37095 0.00541
# Poissons Ratio (y) = 0.32975 0.36724
# Poissons Ratio (z) = 0.00269 0.20574
#
# Static dielectric constant tensor:
#      x y z
#    x 1.642300 0.000000 0.014240 
#    y 0.000000 1.655570 0.000000 
#    z 0.014240 0.000000 1.675580 
# 
# From -- ./inp_files/10194.got.cif
#   From: 2010.05.17/outbox.cif.g08.bks.cpg/sg14_6_cif.got.tgz:10194.got - 2010.06.03 17:49:19.
