data_PCOD9244445
_publ_section_title
;
Structure prediction by ZEFSAII (Michael W. Deem and Ramdas Pophale) SiO2 
 PCOD9244445
Probable space group: P 21/C
;
_chemical_formula_sum "Si O2"
_cell_formula_units_Z 28
_cell_length_a 15.046650
_cell_length_b 13.440253
_cell_length_c 9.204220
_cell_angle_alpha 90.000000
_cell_angle_beta 52.959909
_cell_angle_gamma 90.000000
_cell_volume 1485.777270
_symmetry_space_group_name_H-M "P 21/C"
_symmetry_group_IT_number 14
_symmetry_cell_setting 'monoclinic'
loop_
_space_group_symop_operation_xyz
x,y,z
-x,1/2+y,1/2-z
-x,-y,-z
x,1/2-y,1/2+z
loop_
_atom_site_type_symbol
_atom_site_label
_atom_site_fract_x
_atom_site_fract_y
_atom_site_fract_z
Si Si1 0.331412 0.257652 0.542007
Si Si2 0.327541 0.931518 0.664930
Si Si3 0.960826 0.235254 0.238131
Si Si4 0.810068 0.250472 0.123627
Si Si5 0.434899 0.119118 0.688429
Si Si6 0.183734 0.158007 0.438777
Si Si7 0.159783 0.943103 0.573552
O O1 0.399317 0.190747 0.589536
O O2 0.407557 0.328141 0.367009
O O3 0.265098 0.190088 0.490892
O O4 0.245090 0.319241 0.727109
O O5 0.284402 0.832160 0.786541
O O6 0.436837 0.908184 0.462044
O O7 0.229799 0.962066 0.650264
O O8 0.361712 0.019570 0.739141
O O9 0.855185 0.261744 0.241285
O O10 0.922922 0.283206 0.427725
O O11 0.953148 0.383848 0.772011
O O12 0.074259 0.274841 0.064071
O O13 0.780966 0.356138 0.080444
O O14 0.149541 0.043750 0.494971
#
# Coordination Sequence:
#
# PCOD9244445 Si02
#       7
#     4   4   4   4   4   4   4
#     4  10  23  38  59  90 117 159 200 234 299 351
#     4  10  20  41  63  84 124 152 197 248 296 343
#     4   9  20  37  56  87 112 153 196 235 299 345
#     4   9  20  37  57  88 113 147 201 238 292 348
#     4  10  22  39  63  89 116 162 195 240 299 352
#     4  11  20  42  59  81 128 151 194 253 285 356
#     4   9  21  38  60  88 116 153 196 246 292 347
#
# _framework density 18.845354
#
# number of rings (size 3 to 8) (size 9 to 14) (size 15 to 20)
#    0.857    1.429    1.429    0.857    2.000    1.714 
#    5.143    2.857    0.000    0.000    0.000    0.000 
#    0.000    0.000    0.000    0.000    0.000    0.000 
#
# Total GULP energy -155913.977294 kJ/mol
# GULP energy per Si atom -5568.356332 kJ/mol
# Density = 1.880246 g / cm^3
# Si number density = 18.845354 Si / 1000 Ang^3
#
#
#
# Elastic Constant Matrix: (Units=GPa)
#
#
# Indices 1 2 3 4 5 6 
#
# 1 15.8445 4.8511 9.7764 0.0000 4.7390 0.0000
# 2 4.8511 66.4816 32.4723 0.0000 4.6646 0.0000
# 3 9.7764 32.4723 76.9914 0.0000 7.3152 0.0000
# 4 0.0000 0.0000 0.0000 24.0426 0.0000 0.1141
# 5 4.7390 4.6646 7.3152 0.0000 23.7417 0.0000
# 6 0.0000 0.0000 0.0000 0.1141 0.0000 7.7540
#
#
#
# Elastic Compliance Matrix: (Units=1/GPa)
#
#
# Indices 1 2 3 4 5 6 
#
# 1 0.071587 -0.000634 -0.007702 0.000000 -0.011791 0.000000
# 2 -0.000634 0.018989 -0.007815 0.000000 -0.001196 0.000000
# 3 -0.007702 -0.007815 0.017482 0.000000 -0.002314 0.000000
# 4 0.000000 0.000000 0.000000 0.041596 0.000000 -0.000612
# 5 -0.011791 -0.001196 -0.002314 0.000000 0.045422 0.000000
# 6 0.000000 0.000000 0.000000 -0.000612 0.000000 0.128974
#
#
# Mechanical properties :
#
#
# Convention : Reuss Voigt Hill
#
# Bulk Modulus (GPa) = 13.20035 28.16859 20.68447
# Shear Modulus (GPa) = 13.10260 18.58885 15.84572
#
# Velocity S-wave (km/s) = 2.63966 3.14409 2.90285
# Velocity P-wave (km/s) = 4.03858 5.30661 4.71541
#
# Compressibility (1/GPa) = 0.07575559
#
# Stress axis : x y z
#
# Youngs Moduli (GPa) = 13.96908 52.66207 57.20069
#
# Poissons Ratio (x) = 0.03340 0.44058
# Poissons Ratio (y) = 0.00886 0.44701
# Poissons Ratio (z) = 0.10759 0.41154
#
# Static dielectric constant tensor:
#      x y z
#    x 1.652890 0.000000 0.006970 
#    y 0.000000 1.659230 0.000000 
#    z 0.006970 0.000000 1.648250 
# 
# From -- ./inp_files/16194.got.cif
#   From: 2010.05.17/outbox.cif.g08.bks.cpg/sg14_9_cif.got.tgz:16194.got - 2010.06.03 17:49:19.
