data_PCOD9244401
_publ_section_title
;
Structure prediction by ZEFSAII (Michael W. Deem and Ramdas Pophale) SiO2 
 PCOD9244401
Probable space group: P 21/C
;
_chemical_formula_sum "Si O2"
_cell_formula_units_Z 32
_cell_length_a 15.356635
_cell_length_b 10.889124
_cell_length_c 17.669437
_cell_angle_alpha 90.000000
_cell_angle_beta 27.078899
_cell_angle_gamma 90.000000
_cell_volume 1345.024562
_symmetry_space_group_name_H-M "P 21/C"
_symmetry_group_IT_number 14
_symmetry_cell_setting 'monoclinic'
loop_
_space_group_symop_operation_xyz
x,y,z
-x,1/2+y,1/2-z
-x,-y,-z
x,1/2-y,1/2+z
loop_
_atom_site_type_symbol
_atom_site_label
_atom_site_fract_x
_atom_site_fract_y
_atom_site_fract_z
Si Si1 0.728519 0.576428 0.460540
Si Si2 0.899444 0.182397 0.015710
Si Si3 0.805828 0.054469 0.747253
Si Si4 0.548917 0.352246 0.689437
Si Si5 0.814165 0.856506 0.619608
Si Si6 0.919413 0.009793 0.230256
Si Si7 0.652577 0.316319 0.860082
Si Si8 0.655028 0.650435 0.007462
O O1 0.778367 0.537921 0.337179
O O2 0.628727 0.461947 0.577075
O O3 0.626059 0.705654 0.545326
O O4 0.921227 0.595331 0.358088
O O5 0.736982 0.218147 0.077892
O O6 0.781180 0.165767 0.184679
O O7 0.069435 0.274543 0.909031
O O8 0.996196 0.059774 0.907872
O O9 0.672144 0.172847 0.863440
O O10 0.021876 0.104595 0.567696
O O11 0.756305 0.980763 0.708896
O O12 0.370936 0.297397 0.778250
O O13 0.448929 0.410555 0.841426
O O14 0.863715 0.902829 0.332526
O O15 0.741639 0.097556 0.353714
O O16 0.444936 0.360236 0.996698
#
# Coordination Sequence:
#
# PCOD9244401 Si02
#       8
#     4   4   4   4   4   4   4   4
#     4  11  25  42  68  95 134 173 222 278 321 398
#     4   9  21  40  65  97 132 172 219 266 324 399
#     4  10  22  40  67  98 127 171 223 269 337 389
#     4  10  23  43  63  99 129 174 223 270 332 381
#     4  10  20  40  71  94 135 172 215 277 330 392
#     4  11  23  40  68  94 131 176 213 268 339 389
#     4  10  22  41  65  93 134 169 214 269 329 396
#     4  11  24  44  65  96 134 167 225 274 321 398
#
# _framework density 23.791388000000001
#
# number of rings (size 3 to 8) (size 9 to 14) (size 15 to 20)
#    0.000    1.750    0.000    3.000    5.250    4.000 
#    2.250    1.250    0.000    0.000    0.000    0.000 
#    0.000    0.000    0.000    0.000    0.000    0.000 
#
# Total GULP energy -178699.113806 kJ/mol
# GULP energy per Si atom -5584.347306 kJ/mol
# Density = 2.373724 g / cm^3
# Si number density = 23.791388 Si / 1000 Ang^3
#
#
#
# Elastic Constant Matrix: (Units=GPa)
#
#
# Indices 1 2 3 4 5 6 
#
# 1 101.3934 26.5731 21.6069 0.0000 -34.2647 0.0000
# 2 26.5731 37.4946 6.9667 0.0000 -10.5890 0.0000
# 3 21.6069 6.9667 34.6406 0.0000 -6.8196 0.0000
# 4 0.0000 0.0000 0.0000 18.7122 0.0000 -6.4194
# 5 -34.2647 -10.5890 -6.8196 0.0000 50.0627 0.0000
# 6 0.0000 0.0000 0.0000 -6.4194 0.0000 26.2756
#
#
#
# Elastic Compliance Matrix: (Units=1/GPa)
#
#
# Indices 1 2 3 4 5 6 
#
# 1 0.016272 -0.007840 -0.006892 0.000000 0.008540 0.000000
# 2 -0.007840 0.032890 -0.001450 0.000000 0.001393 0.000000
# 3 -0.006892 -0.001450 0.033364 0.000000 -0.000479 0.000000
# 4 0.000000 0.000000 0.000000 0.058330 0.000000 0.014251
# 5 0.008540 0.001393 -0.000479 0.000000 0.026049 0.000000
# 6 0.000000 0.000000 0.000000 0.014251 0.000000 0.041540
#
#
# Mechanical properties :
#
#
# Convention : Reuss Voigt Hill
#
# Bulk Modulus (GPa) = 19.93535 31.53578 25.73557
# Shear Modulus (GPa) = 19.41535 26.90224 23.15879
#
# Velocity S-wave (km/s) = 2.85979 3.36632 3.12334
# Velocity P-wave (km/s) = 4.39340 5.32854 4.88341
#
# Compressibility (1/GPa) = 0.05016214
#
# Stress axis : x y z
#
# Youngs Moduli (GPa) = 61.45607 30.40475 29.97258
#
# Poissons Ratio (x) = 0.23837 0.20656
# Poissons Ratio (y) = 0.48180 0.04347
# Poissons Ratio (z) = 0.42353 0.04409
#
# Static dielectric constant tensor:
#      x y z
#    x 1.977320 0.000000 -0.042030 
#    y 0.000000 1.881320 0.000000 
#    z -0.042030 0.000000 1.921670 
# 
# From -- ./inp_files/59462.got.cif
#   From: 2010.05.17/outbox.cif.g08.bks.cpg/sg14_30_cif.got.tgz:59462.got - 2010.06.03 17:49:19.
