data_PCOD9244399
_publ_section_title
;
Structure prediction by ZEFSAII (Michael W. Deem and Ramdas Pophale) SiO2 
 PCOD9244399
Probable space group: P 21/C
;
_chemical_formula_sum "Si O2"
_cell_formula_units_Z 28
_cell_length_a 8.282539
_cell_length_b 18.744260
_cell_length_c 12.345557
_cell_angle_alpha 90.000000
_cell_angle_beta 34.762861
_cell_angle_gamma 90.000000
_cell_volume 1092.836916
_symmetry_space_group_name_H-M "P 21/C"
_symmetry_group_IT_number 14
_symmetry_cell_setting 'monoclinic'
loop_
_space_group_symop_operation_xyz
x,y,z
-x,1/2+y,1/2-z
-x,-y,-z
x,1/2-y,1/2+z
loop_
_atom_site_type_symbol
_atom_site_label
_atom_site_fract_x
_atom_site_fract_y
_atom_site_fract_z
Si Si1 0.904861 0.032977 0.797060
Si Si2 0.289402 0.885911 0.835101
Si Si3 0.577352 0.624399 0.976423
Si Si4 0.385821 0.686172 0.497388
Si Si5 0.136718 0.237746 0.116406
Si Si6 0.679875 0.639241 0.681033
Si Si7 0.567847 0.014262 0.788083
O O1 0.837768 0.004071 0.714845
O O2 0.230648 0.053197 0.634361
O O3 0.737096 0.108817 0.899580
O O4 0.719280 0.984646 0.979392
O O5 0.295554 0.883392 0.701155
O O6 0.358586 0.820532 0.881007
O O7 0.509860 0.947694 0.743216
O O8 0.968266 0.905654 0.042287
O O9 0.734860 0.682709 0.963936
O O10 0.578966 0.658319 0.856416
O O11 0.690651 0.697151 0.383616
O O12 0.176857 0.743634 0.668626
O O13 0.209187 0.198555 0.963746
O O14 0.437040 0.590115 0.766325
#
# Coordination Sequence:
#
# PCOD9244399 Si02
#       7
#     4   4   4   4   4   4   4
#     4   9  19  42  66  95 129 173 221 271 333 397
#     4  11  24  42  67  98 136 173 220 279 334 398
#     4  11  25  42  64  97 134 173 224 273 333 407
#     4  10  21  44  68  97 130 176 225 277 337 397
#     4  11  23  43  68  94 133 177 224 279 336 402
#     4  12  23  43  65  99 132 178 219 276 342 391
#     4  10  20  40  71  93 135 176 215 280 332 391
#
# _framework density 25.621390000000002
#
# number of rings (size 3 to 8) (size 9 to 14) (size 15 to 20)
#    0.000    1.429    5.714    1.286    2.000    1.143 
#    0.000    2.857    0.000    0.000    0.000    0.000 
#    0.000    0.000    0.000    0.000    0.000    0.000 
#
# Total GULP energy -156357.621464 kJ/mol
# GULP energy per Si atom -5584.200767 kJ/mol
# Density = 2.556307 g / cm^3
# Si number density = 25.621390 Si / 1000 Ang^3
#
#
#
# Elastic Constant Matrix: (Units=GPa)
#
#
# Indices 1 2 3 4 5 6 
#
# 1 82.2173 17.8669 35.6355 0.0000 28.9073 0.0000
# 2 17.8669 57.5349 23.0121 0.0000 10.5830 0.0000
# 3 35.6355 23.0121 142.3144 0.0000 34.4985 0.0000
# 4 0.0000 0.0000 0.0000 23.3929 0.0000 5.1791
# 5 28.9073 10.5830 34.4985 0.0000 44.8204 0.0000
# 6 0.0000 0.0000 0.0000 5.1791 0.0000 45.7328
#
#
#
# Elastic Compliance Matrix: (Units=1/GPa)
#
#
# Indices 1 2 3 4 5 6 
#
# 1 0.016559 -0.002906 -0.001542 0.000000 -0.008807 0.000000
# 2 -0.002906 0.019333 -0.002147 0.000000 -0.001038 0.000000
# 3 -0.001542 -0.002147 0.009092 0.000000 -0.005497 0.000000
# 4 0.000000 0.000000 0.000000 0.043847 0.000000 -0.004966
# 5 -0.008807 -0.001038 -0.005497 0.000000 0.032468 0.000000
# 6 0.000000 0.000000 0.000000 -0.004966 0.000000 0.022428
#
#
# Mechanical properties :
#
#
# Convention : Reuss Voigt Hill
#
# Bulk Modulus (GPa) = 31.45024 48.34395 39.89710
# Shear Modulus (GPa) = 29.84806 36.49270 33.17038
#
# Velocity S-wave (km/s) = 3.41686 3.77809 3.60201
# Velocity P-wave (km/s) = 5.27904 6.15967 5.73628
#
# Compressibility (1/GPa) = 0.03179626
#
# Stress axis : x y z
#
# Youngs Moduli (GPa) = 60.38968 51.72579 109.98129
#
# Poissons Ratio (x) = 0.15030 0.16954
# Poissons Ratio (y) = 0.17547 0.23611
# Poissons Ratio (z) = 0.09310 0.11104
#
# Static dielectric constant tensor:
#      x y z
#    x 2.063650 0.000000 0.066750 
#    y 0.000000 2.084370 0.000000 
#    z 0.066750 0.000000 2.024620 
# 
# From -- ./inp_files/26748.got.cif
#   From: 2010.05.17/outbox.cif.g08.bks.cpg/sg14_14_cif.got.tgz:26748.got - 2010.06.03 17:49:19.
