data_PCOD9244981
_publ_section_title
;
Structure prediction by ZEFSAII (Michael W. Deem and Ramdas Pophale) SiO2 
 PCOD9244981
Probable space group: P 21/C
;
_chemical_formula_sum "Si O2"
_cell_formula_units_Z 32
_cell_length_a 13.065829
_cell_length_b 7.015607
_cell_length_c 22.628779
_cell_angle_alpha 90.000000
_cell_angle_beta 33.633913
_cell_angle_gamma 90.000000
_cell_volume 1148.900766
_symmetry_space_group_name_H-M "P 21/C"
_symmetry_group_IT_number 14
_symmetry_cell_setting 'monoclinic'
loop_
_space_group_symop_operation_xyz
x,y,z
-x,1/2+y,1/2-z
-x,-y,-z
x,1/2-y,1/2+z
loop_
_atom_site_type_symbol
_atom_site_label
_atom_site_fract_x
_atom_site_fract_y
_atom_site_fract_z
Si Si1 0.664472 0.925142 0.804277
Si Si2 0.317663 0.615226 0.176575
Si Si3 0.779740 0.634143 0.374103
Si Si4 0.183984 0.806193 0.624480
Si Si5 0.344969 0.487539 0.374628
Si Si6 0.580033 0.537926 0.148584
Si Si7 0.059590 0.143169 0.083084
Si Si8 0.049458 0.932882 0.563086
O O1 0.676413 0.154111 0.814002
O O2 0.661802 0.832588 0.871070
O O3 0.484056 0.905148 0.851524
O O4 0.839447 0.863804 0.678773
O O5 0.310767 0.582721 0.109955
O O6 0.478649 0.514803 0.134777
O O7 0.119384 0.559166 0.298964
O O8 0.757022 0.411612 0.400382
O O9 0.794495 0.705248 0.434745
O O10 0.982018 0.682941 0.251883
O O11 0.149849 0.882260 0.576376
O O12 0.418105 0.518485 0.274397
O O13 0.366022 0.260030 0.373337
O O14 0.139415 0.510958 0.498908
O O15 0.770197 0.418765 0.067606
O O16 0.007828 0.340350 0.077193
#
# Coordination Sequence:
#
# PCOD9244981 Si02
#       8
#     4   4   4   4   4   4   4   4
#     4   8  16  32  51  71  99 130 156 193 246 292
#     4   8  16  32  51  71  99 130 156 193 246 292
#     4   9  16  29  51  77 103 129 158 194 240 294
#     4   9  16  29  51  77 103 129 158 194 240 294
#     4  10  21  36  51  69  96 130 168 206 242 284
#     4  10  21  36  51  69  96 130 168 206 242 284
#     4   9  18  33  52  73  99 130 160 196 245 292
#     4   9  18  33  52  73  99 130 160 196 245 292
#
# _framework density 27.852712
#
# number of rings (size 3 to 8) (size 9 to 14) (size 15 to 20)
#    0.000    3.000    0.000    2.250    0.000    3.000 
#    0.000    6.250    0.000    0.000    0.000    0.000 
#    0.000    0.000    0.000    0.000    0.000    0.000 
#
# Total GULP energy -178732.353723 kJ/mol
# GULP energy per Si atom -5585.386054 kJ/mol
# Density = 2.778932 g / cm^3
# Si number density = 27.852712 Si / 1000 Ang^3
#
#
#
# Elastic Constant Matrix: (Units=GPa)
#
#
# Indices 1 2 3 4 5 6 
#
# 1 63.4150 4.2817 0.5601 0.0000 -2.3875 0.0000
# 2 4.2817 67.8920 -8.6016 0.0000 -3.4101 0.0000
# 3 0.5601 -8.6016 149.3769 0.0000 -5.2994 0.0000
# 4 0.0000 0.0000 0.0000 17.3043 0.0000 -4.6951
# 5 -2.3875 -3.4101 -5.2994 0.0000 26.5963 0.0000
# 6 0.0000 0.0000 0.0000 -4.6951 0.0000 17.3946
#
#
#
# Elastic Compliance Matrix: (Units=1/GPa)
#
#
# Indices 1 2 3 4 5 6 
#
# 1 0.015882 -0.000945 -0.000068 0.000000 0.001291 0.000000
# 2 -0.000945 0.015010 0.000940 0.000000 0.002027 0.000000
# 3 -0.000068 0.000940 0.006801 0.000000 0.001469 0.000000
# 4 0.000000 0.000000 0.000000 0.062356 0.000000 0.016831
# 5 0.001291 0.002027 0.001469 0.000000 0.038268 0.000000
# 6 0.000000 0.000000 0.000000 0.016831 0.000000 0.062032
#
#
# Mechanical properties :
#
#
# Convention : Reuss Voigt Hill
#
# Bulk Modulus (GPa) = 26.63454 30.35158 28.49306
# Shear Modulus (GPa) = 23.47294 31.22195 27.34744
#
# Velocity S-wave (km/s) = 2.90617 3.35172 3.13686
# Velocity P-wave (km/s) = 4.56558 5.08915 4.83446
#
# Compressibility (1/GPa) = 0.03754523
#
# Stress axis : x y z
#
# Youngs Moduli (GPa) = 62.96361 66.62321 147.03770
#
# Poissons Ratio (x) = 0.06299 0.01003
# Poissons Ratio (y) = 0.05953 -0.13818
# Poissons Ratio (z) = 0.00429 -0.06261
#
# Static dielectric constant tensor:
#      x y z
#    x 2.137070 0.000000 -0.005570 
#    y 0.000000 2.203020 0.000000 
#    z -0.005570 0.000000 2.257420 
# 
# From -- ./inp_files/73729.got.cif
#   From: 2010.05.17/outbox.cif.g08.bks.cpg/sg14_37_cif.got.tgz:73729.got - 2010.06.03 17:49:19.
