data_PCOD9244899
_publ_section_title
;
Structure prediction by ZEFSAII (Michael W. Deem and Ramdas Pophale) SiO2 
 PCOD9244899
Probable space group: P 21/C
;
_chemical_formula_sum "Si O2"
_cell_formula_units_Z 28
_cell_length_a 16.866208
_cell_length_b 6.504320
_cell_length_c 15.666055
_cell_angle_alpha 90.000000
_cell_angle_beta 137.848422
_cell_angle_gamma 90.000000
_cell_volume 1153.353756
_symmetry_space_group_name_H-M "P 21/C"
_symmetry_group_IT_number 14
_symmetry_cell_setting 'monoclinic'
loop_
_space_group_symop_operation_xyz
x,y,z
-x,1/2+y,1/2-z
-x,-y,-z
x,1/2-y,1/2+z
loop_
_atom_site_type_symbol
_atom_site_label
_atom_site_fract_x
_atom_site_fract_y
_atom_site_fract_z
Si Si1 0.247590 0.001018 0.326039
Si Si2 0.949942 0.315088 0.840798
Si Si3 0.078659 0.182283 0.772155
Si Si4 0.348713 0.895264 0.676374
Si Si5 0.556341 0.838629 0.399479
Si Si6 0.191531 0.246885 0.113617
Si Si7 0.277376 0.514291 0.520755
O O1 0.157374 0.119005 0.317830
O O2 0.375969 0.024655 0.474901
O O3 0.241464 0.146821 0.238796
O O4 0.178253 0.790435 0.246787
O O5 0.000366 0.228164 0.790938
O O6 0.968727 0.563854 0.848294
O O7 0.050121 0.244124 0.988695
O O8 0.168314 0.004383 0.871834
O O9 0.428945 0.047777 0.680989
O O10 0.250621 0.030338 0.644920
O O11 0.421943 0.741483 0.796936
O O12 0.297494 0.744871 0.563690
O O13 0.623188 0.619840 0.446072
O O14 0.242311 0.110324 0.076961
#
# Coordination Sequence:
#
# PCOD9244899 Si02
#       7
#     4   4   4   4   4   4   4
#     4  11  23  41  56  88 127 158 204 249 312 386
#     4  11  21  38  60  87 118 158 205 254 303 365
#     4  10  21  34  61  86 109 157 206 257 296 354
#     4  11  20  39  64  90 117 154 211 260 306 366
#     4  10  21  37  65  90 112 160 208 260 305 354
#     4  10  25  37  57  89 127 164 194 249 321 378
#     4   9  20  38  58  85 119 154 204 255 304 356
#
# _framework density 24.277025999999999
#
# number of rings (size 3 to 8) (size 9 to 14) (size 15 to 20)
#    0.000    1.714    2.857    2.143    2.000    2.286 
#    0.000    0.714    0.000    0.000    0.000    0.000 
#    0.000    0.000    0.000    0.000    0.000    0.000 
#
# Total GULP energy -156172.046629 kJ/mol
# GULP energy per Si atom -5577.573094 kJ/mol
# Density = 2.422177 g / cm^3
# Si number density = 24.277026 Si / 1000 Ang^3
#
#
#
# Elastic Constant Matrix: (Units=GPa)
#
#
# Indices 1 2 3 4 5 6 
#
# 1 26.6229 18.1429 15.1501 0.0000 -0.9380 0.0000
# 2 18.1429 89.5962 15.0698 0.0000 9.9535 0.0000
# 3 15.1501 15.0698 91.2679 0.0000 0.1323 0.0000
# 4 0.0000 0.0000 0.0000 -7.2152 0.0000 -23.1416
# 5 -0.9380 9.9535 0.1323 0.0000 27.6137 0.0000
# 6 0.0000 0.0000 0.0000 -23.1416 0.0000 23.8783
#
#
#
# Elastic Compliance Matrix: (Units=1/GPa)
#
#
# Indices 1 2 3 4 5 6 
#
# 1 0.047585 -0.009106 -0.006402 0.000000 0.004929 0.000000
# 2 -0.009106 0.013714 -0.000745 0.000000 -0.005249 0.000000
# 3 -0.006402 -0.000745 0.012143 0.000000 -0.000007 0.000000
# 4 0.000000 0.000000 0.000000 -0.033735 0.000000 -0.032694
# 5 0.004929 -0.005249 -0.000007 0.000000 0.038273 0.000000
# 6 0.000000 0.000000 0.000000 -0.032694 0.000000 0.010194
#
#
# Mechanical properties :
#
#
# Convention : Reuss Voigt Hill
#
# Bulk Modulus (GPa) = 24.43024 33.80142 29.11583
# Shear Modulus (GPa) = 37.22320 19.46364 28.34342
#
# Velocity S-wave (km/s) = 3.91995 2.83456 3.42058
# Velocity P-wave (km/s) = 5.52928 4.96653 5.25544
#
# Compressibility (1/GPa) = 0.04093287
#
# Stress axis : x y z
#
# Youngs Moduli (GPa) = 21.01524 72.92001 82.35498
#
# Poissons Ratio (x) = 0.66404 0.52727
# Poissons Ratio (y) = 0.19137 0.06136
# Poissons Ratio (z) = 0.13455 0.05433
#
# Static dielectric constant tensor:
#      x y z
#    x 1.937080 0.000000 0.010070 
#    y 0.000000 2.026420 0.000000 
#    z 0.010070 0.000000 2.025120 
# 
# From -- ./inp_files/60967.got.cif
#   From: 2010.05.17/outbox.cif.g08.bks.cpg/sg14_31_cif.got.tgz:60967.got - 2010.06.03 17:49:19.
