data_PCOD9244938
_publ_section_title
;
Structure prediction by ZEFSAII (Michael W. Deem and Ramdas Pophale) SiO2 
 PCOD9244938
Probable space group: P 21/C
;
_chemical_formula_sum "Si O2"
_cell_formula_units_Z 32
_cell_length_a 10.293807
_cell_length_b 22.591928
_cell_length_c 16.655863
_cell_angle_alpha 90.000000
_cell_angle_beta 22.762723
_cell_angle_gamma 90.000000
_cell_volume 1498.693583
_symmetry_space_group_name_H-M "P 21/C"
_symmetry_group_IT_number 14
_symmetry_cell_setting 'monoclinic'
loop_
_space_group_symop_operation_xyz
x,y,z
-x,1/2+y,1/2-z
-x,-y,-z
x,1/2-y,1/2+z
loop_
_atom_site_type_symbol
_atom_site_label
_atom_site_fract_x
_atom_site_fract_y
_atom_site_fract_z
Si Si1 0.467355 0.004246 0.307101
Si Si2 0.837808 0.724723 0.233269
Si Si3 0.340264 0.669070 0.061771
Si Si4 0.641177 0.184105 0.127768
Si Si5 0.265575 0.471455 0.746277
Si Si6 0.382660 0.133682 0.434073
Si Si7 0.209377 0.577268 0.655240
Si Si8 0.158079 0.079072 0.793633
O O1 0.754119 0.966953 0.187364
O O2 0.123704 0.965448 0.509578
O O3 0.476544 0.019875 0.207717
O O4 0.429894 0.066439 0.375542
O O5 0.595959 0.775804 0.405583
O O6 0.628812 0.687116 0.289008
O O7 0.999787 0.689585 0.214581
O O8 0.133244 0.757637 0.014706
O O9 0.503754 0.614888 0.920181
O O10 0.354766 0.649817 0.145908
O O11 0.451084 0.176077 0.320088
O O12 0.892500 0.128799 0.972804
O O13 0.268463 0.531930 0.693519
O O14 0.435064 0.422722 0.592776
O O15 0.005904 0.132575 0.688152
O O16 0.967977 0.553556 0.720444
#
# Coordination Sequence:
#
# PCOD9244938 Si02
#       8
#     4   4   4   4   4   4   4   4
#     4  10  21  37  57  84 122 163 206 244 282 347
#     4   9  20  41  63  83 111 147 191 250 303 356
#     4   9  20  37  60  86 111 146 192 240 303 355
#     4  10  21  39  63  87 114 150 194 244 304 359
#     4   9  19  35  55  77 112 166 206 239 282 326
#     4  10  21  35  57  89 120 154 194 240 295 359
#     4   9  19  35  52  79 115 150 196 240 282 336
#     4  10  21  37  57  84 119 159 197 239 291 351
#
# _framework density 21.351928000000001
#
# number of rings (size 3 to 8) (size 9 to 14) (size 15 to 20)
#    0.000    2.500    0.000    0.750    0.000   11.500 
#    0.000    5.000    0.000    1.500    0.000    0.000 
#    0.000    0.000    0.000    0.000    0.000    0.000 
#
# Total GULP energy -178520.887123 kJ/mol
# GULP energy per Si atom -5578.777723 kJ/mol
# Density = 2.130333 g / cm^3
# Si number density = 21.351928 Si / 1000 Ang^3
#
#
#
# Elastic Constant Matrix: (Units=GPa)
#
#
# Indices 1 2 3 4 5 6 
#
# 1 151.0861 53.8201 38.5932 0.0000 7.3473 0.0000
# 2 53.8201 54.8048 16.2051 0.0000 -0.9277 0.0000
# 3 38.5932 16.2051 44.5490 0.0000 7.1039 0.0000
# 4 0.0000 0.0000 0.0000 17.7542 0.0000 -1.1654
# 5 7.3473 -0.9277 7.1039 0.0000 34.7849 0.0000
# 6 0.0000 0.0000 0.0000 -1.1654 0.0000 42.9413
#
#
#
# Elastic Compliance Matrix: (Units=1/GPa)
#
#
# Indices 1 2 3 4 5 6 
#
# 1 0.011792 -0.009694 -0.006461 0.000000 -0.001430 0.000000
# 2 -0.009694 0.028569 -0.002525 0.000000 0.003325 0.000000
# 3 -0.006461 -0.002525 0.029724 0.000000 -0.004773 0.000000
# 4 0.000000 0.000000 0.000000 0.056425 0.000000 0.001531
# 5 -0.001430 0.003325 -0.004773 0.000000 0.030114 0.000000
# 6 0.000000 0.000000 0.000000 0.001531 0.000000 0.023329
#
#
# Mechanical properties :
#
#
# Convention : Reuss Voigt Hill
#
# Bulk Modulus (GPa) = 30.55706 51.96406 41.26056
# Shear Modulus (GPa) = 21.90868 28.55085 25.22977
#
# Velocity S-wave (km/s) = 3.20672 3.66068 3.44119
# Velocity P-wave (km/s) = 5.29650 6.50056 5.92917
#
# Compressibility (1/GPa) = 0.03272567
#
# Stress axis : x y z
#
# Youngs Moduli (GPa) = 84.80488 35.00324 33.64270
#
# Poissons Ratio (x) = 0.33931 0.21737
# Poissons Ratio (y) = 0.82206 0.08494
# Poissons Ratio (z) = 0.54794 0.08837
#
# Static dielectric constant tensor:
#      x y z
#    x 1.740170 0.000000 -0.000630 
#    y 0.000000 1.771310 0.000000 
#    z -0.000630 0.000000 1.850440 
# 
# From -- ./inp_files/42238.got.cif
#   From: 2010.05.17/outbox.cif.g08.bks.cpg/sg14_22_cif.got.tgz:42238.got - 2010.06.03 17:49:19.
