data_PCOD9244647
_publ_section_title
;
Structure prediction by ZEFSAII (Michael W. Deem and Ramdas Pophale) SiO2 
 PCOD9244647
Probable space group: P 21/C
;
_chemical_formula_sum "Si O2"
_cell_formula_units_Z 32
_cell_length_a 16.437083
_cell_length_b 7.524926
_cell_length_c 27.163571
_cell_angle_alpha 90.000000
_cell_angle_beta 154.339657
_cell_angle_gamma 90.000000
_cell_volume 1454.913419
_symmetry_space_group_name_H-M "P 21/C"
_symmetry_group_IT_number 14
_symmetry_cell_setting 'monoclinic'
loop_
_space_group_symop_operation_xyz
x,y,z
-x,1/2+y,1/2-z
-x,-y,-z
x,1/2-y,1/2+z
loop_
_atom_site_type_symbol
_atom_site_label
_atom_site_fract_x
_atom_site_fract_y
_atom_site_fract_z
Si Si1 0.717622 0.371043 0.573255
Si Si2 0.385788 0.176664 0.444492
Si Si3 0.428620 0.338147 0.569655
Si Si4 0.688735 0.761931 0.802334
Si Si5 0.534718 0.354311 0.225716
Si Si6 0.052359 0.802017 0.547775
Si Si7 0.046159 0.138826 0.729474
Si Si8 0.826195 0.023052 0.296830
O O1 0.522552 0.321800 0.493122
O O2 0.675767 0.476230 0.499470
O O3 0.846816 0.498631 0.677377
O O4 0.840648 0.196029 0.632814
O O5 0.358020 0.212567 0.487319
O O6 0.185671 0.191307 0.308835
O O7 0.500000 0.000000 0.500000
O O8 0.432068 0.255675 0.626002
O O9 0.648166 0.374468 0.677939
O O10 0.581992 0.655546 0.787530
O O11 0.734076 0.629754 0.781847
O O12 0.576282 0.943778 0.731095
O O13 0.890387 0.815062 0.935657
O O14 0.736606 0.262446 0.347081
O O15 0.053829 0.835269 0.606847
O O16 0.000000 0.000000 0.500000
O O17 0.050241 0.065655 0.677013
#
# Coordination Sequence:
#
# PCOD9244647 Si02
#       8
#     4   4   4   4   4   4   4   4
#     4  11  22  43  64  92 134 166 216 267 322 379
#     4  11  22  40  66  92 132 165 211 267 324 381
#     4  10  21  42  64  93 124 168 212 263 316 379
#     4  11  23  43  64  94 130 168 209 267 320 376
#     4  11  23  42  68  93 128 167 216 260 318 388
#     4   9  20  41  63  91 125 165 203 261 316 369
#     4  11  22  42  64  94 127 174 211 264 323 387
#     4  10  20  42  67  89 127 165 210 261 324 377
#
# _framework density 21.994433999999998
#
# number of rings (size 3 to 8) (size 9 to 14) (size 15 to 20)
#    0.000    1.500    2.500    4.125    1.750    0.000 
#   20.250    0.000    0.000    0.000    0.000    0.000 
#    0.000    0.000    0.000    0.000    0.000    0.000 
#
# Total GULP energy -178631.417494 kJ/mol
# GULP energy per Si atom -5582.231797 kJ/mol
# Density = 2.194437 g / cm^3
# Si number density = 21.994434 Si / 1000 Ang^3
#
#
#
# Elastic Constant Matrix: (Units=GPa)
#
#
# Indices 1 2 3 4 5 6 
#
# 1 77.6517 0.9897 13.3694 0.0000 2.3892 0.0000
# 2 0.9897 51.3766 -13.9344 0.0000 -0.6440 0.0000
# 3 13.3694 -13.9344 57.9401 0.0000 -2.5852 0.0000
# 4 0.0000 0.0000 0.0000 36.3585 0.0000 9.2078
# 5 2.3892 -0.6440 -2.5852 0.0000 28.6425 0.0000
# 6 0.0000 0.0000 0.0000 9.2078 0.0000 19.8122
#
#
#
# Elastic Compliance Matrix: (Units=1/GPa)
#
#
# Indices 1 2 3 4 5 6 
#
# 1 0.013539 -0.001224 -0.003484 0.000000 -0.001471 0.000000
# 2 -0.001224 0.020957 0.005370 0.000000 0.001058 0.000000
# 3 -0.003484 0.005370 0.019451 0.000000 0.002167 0.000000
# 4 0.000000 0.000000 0.000000 0.031173 0.000000 -0.014488
# 5 -0.001471 0.001058 0.002167 0.000000 0.035255 0.000000
# 6 0.000000 0.000000 0.000000 -0.014488 0.000000 0.057207
#
#
# Mechanical properties :
#
#
# Convention : Reuss Voigt Hill
#
# Bulk Modulus (GPa) = 18.09282 20.86865 19.48074
# Shear Modulus (GPa) = 25.68276 29.39889 27.54082
#
# Velocity S-wave (km/s) = 3.42086 3.65999 3.54244
# Velocity P-wave (km/s) = 4.88334 5.23158 5.06046
#
# Compressibility (1/GPa) = 0.05527053
#
# Stress axis : x y z
#
# Youngs Moduli (GPa) = 73.86211 47.71593 51.41063
#
# Poissons Ratio (x) = 0.05841 0.17912
# Poissons Ratio (y) = 0.09042 -0.27607
# Poissons Ratio (z) = 0.25734 -0.25623
#
# Static dielectric constant tensor:
#      x y z
#    x 1.796710 0.000000 -0.026970 
#    y 0.000000 1.914050 0.000000 
#    z -0.026970 0.000000 1.834440 
# 
# From -- ./inp_files/73866.got.cif
#   From: 2010.05.17/outbox.cif.g08.bks.cpg/sg14_37_cif.got.tgz:73866.got - 2010.06.03 17:49:19.
