data_PCOD9244737
_publ_section_title
;
Structure prediction by ZEFSAII (Michael W. Deem and Ramdas Pophale) SiO2 
 PCOD9244737
Probable space group: P 21/C
;
_chemical_formula_sum "Si O2"
_cell_formula_units_Z 22
_cell_length_a 8.418589
_cell_length_b 10.515757
_cell_length_c 16.327436
_cell_angle_alpha 90.000000
_cell_angle_beta 39.848540
_cell_angle_gamma 90.000000
_cell_volume 926.175880
_symmetry_space_group_name_H-M "P 21/C"
_symmetry_group_IT_number 14
_symmetry_cell_setting 'monoclinic'
loop_
_space_group_symop_operation_xyz
x,y,z
-x,1/2+y,1/2-z
-x,-y,-z
x,1/2-y,1/2+z
loop_
_atom_site_type_symbol
_atom_site_label
_atom_site_fract_x
_atom_site_fract_y
_atom_site_fract_z
Si Si1 0.500000 0.000000 0.500000
Si Si2 0.390054 0.387579 0.720397
Si Si3 0.205139 0.024584 0.052922
Si Si4 0.912103 0.400507 0.225611
Si Si5 0.614565 0.769644 0.426514
Si Si6 0.691163 0.130666 0.258119
O O1 0.625735 0.145391 0.482030
O O2 0.574497 0.043425 0.373698
O O3 0.620072 0.447689 0.576939
O O4 0.188006 0.498841 0.799738
O O5 0.299146 0.277030 0.695697
O O6 0.490799 0.344611 0.767034
O O7 0.338787 0.155871 0.029231
O O8 0.935504 0.059659 0.126574
O O9 0.164838 0.949589 0.154181
O O10 0.801747 0.263144 0.248875
O O11 0.212604 0.389226 0.109839
#
# Coordination Sequence:
#
# PCOD9244737 Si02
#       6
#     2   4   4   4   4   4
#     4  12  22  42  62  94 132 172 202 268 328 376
#     4  11  23  41  66  99 126 170 220 270 313 388
#     4  10  20  43  66  89 125 178 214 259 322 397
#     4  10  21  42  64  93 128 172 216 260 323 400
#     4  10  22  40  68  91 126 175 212 257 337 378
#     4  11  24  37  68  94 132 166 221 268 321 378
#
# _framework density 23.753587
#
# number of rings (size 3 to 8) (size 9 to 14) (size 15 to 20)
#    0.000    1.455    1.818    4.909    2.545    0.000 
#    0.000    2.727    0.000    0.000    0.000    0.000 
#    0.000    0.000    0.000    0.000    0.000    0.000 
#
# Total GULP energy -122631.711708 kJ/mol
# GULP energy per Si atom -5574.168714 kJ/mol
# Density = 2.369952 g / cm^3
# Si number density = 23.753587 Si / 1000 Ang^3
#
#
#
# Elastic Constant Matrix: (Units=GPa)
#
#
# Indices 1 2 3 4 5 6 
#
# 1 103.5606 20.7855 21.1870 0.0000 -4.6318 0.0000
# 2 20.7855 123.5389 25.1240 0.0000 -0.6538 0.0000
# 3 21.1870 25.1240 65.7489 0.0000 -13.6255 0.0000
# 4 0.0000 0.0000 0.0000 24.3015 0.0000 -12.3105
# 5 -4.6318 -0.6538 -13.6255 0.0000 31.6274 0.0000
# 6 0.0000 0.0000 0.0000 -12.3105 0.0000 34.8171
#
#
#
# Elastic Compliance Matrix: (Units=1/GPa)
#
#
# Indices 1 2 3 4 5 6 
#
# 1 0.010493 -0.001180 -0.002874 0.000000 0.000274 0.000000
# 2 -0.001180 0.008965 -0.003341 0.000000 -0.001427 0.000000
# 3 -0.002874 -0.003341 0.019008 0.000000 0.007699 0.000000
# 4 0.000000 0.000000 0.000000 0.050128 0.000000 0.017724
# 5 0.000274 -0.001427 0.007699 0.000000 0.034946 0.000000
# 6 0.000000 0.000000 0.000000 0.017724 0.000000 0.034988
#
#
# Mechanical properties :
#
#
# Convention : Reuss Voigt Hill
#
# Bulk Modulus (GPa) = 42.23586 47.44904 44.84245
# Shear Modulus (GPa) = 27.59237 33.19934 30.39586
#
# Velocity S-wave (km/s) = 3.41194 3.74258 3.58108
# Velocity P-wave (km/s) = 5.77418 6.22051 6.00150
#
# Compressibility (1/GPa) = 0.02367656
#
# Stress axis : x y z
#
# Youngs Moduli (GPa) = 95.30044 111.54423 52.61031
#
# Poissons Ratio (x) = 0.13158 0.15119
# Poissons Ratio (y) = 0.11242 0.17579
# Poissons Ratio (z) = 0.27387 0.37271
#
# Static dielectric constant tensor:
#      x y z
#    x 1.995040 0.000000 -0.148430 
#    y 0.000000 2.073770 0.000000 
#    z -0.148430 0.000000 2.021180 
# 
# From -- ./inp_files/39535.got.cif
#   From: 2010.05.17/outbox.cif.g08.bks.cpg/sg14_20_cif.got.tgz:39535.got - 2010.06.03 17:49:19.
