data_PCOD9244108
_publ_section_title
;
Structure prediction by ZEFSAII (Michael W. Deem and Ramdas Pophale) SiO2 
 PCOD9244108
Probable space group: P 21/C
;
_chemical_formula_sum "Si O2"
_cell_formula_units_Z 32
_cell_length_a 27.128170
_cell_length_b 5.844877
_cell_length_c 13.774461
_cell_angle_alpha 90.000000
_cell_angle_beta 40.281498
_cell_angle_gamma 90.000000
_cell_volume 1412.108978
_symmetry_space_group_name_H-M "P 21/C"
_symmetry_group_IT_number 14
_symmetry_cell_setting 'monoclinic'
loop_
_space_group_symop_operation_xyz
x,y,z
-x,1/2+y,1/2-z
-x,-y,-z
x,1/2-y,1/2+z
loop_
_atom_site_type_symbol
_atom_site_label
_atom_site_fract_x
_atom_site_fract_y
_atom_site_fract_z
Si Si1 0.663777 0.882239 0.596088
Si Si2 0.113552 0.042371 0.641801
Si Si3 0.494089 0.309094 0.204480
Si Si4 0.992188 0.602175 0.168002
Si Si5 0.263325 0.702686 0.881082
Si Si6 0.657677 0.284068 0.921031
Si Si7 0.764876 0.996925 0.885643
Si Si8 0.919667 0.263007 0.134885
O O1 0.590313 0.720189 0.712017
O O2 0.742841 0.752310 0.456174
O O3 0.670973 0.029353 0.682497
O O4 0.656442 0.044191 0.513465
O O5 0.043416 0.946939 0.683058
O O6 0.188697 0.951214 0.476999
O O7 0.111034 0.946573 0.755455
O O8 0.091782 0.308218 0.678405
O O9 0.497758 0.572492 0.240969
O O10 0.568929 0.272734 0.025774
O O11 0.978596 0.386483 0.119295
O O12 0.037227 0.779863 0.030384
O O13 0.290796 0.845883 0.748194
O O14 0.246872 0.852907 0.000059
O O15 0.700658 0.063168 0.902024
O O16 0.848297 0.066005 0.722794
#
# Coordination Sequence:
#
# PCOD9244108 Si02
#       8
#     4   4   4   4   4   4   4   4
#     4  10  21  39  63  89 126 168 207 265 324 383
#     4  11  21  39  59  84 124 154 199 257 314 373
#     4  10  20  39  68  95 132 180 223 274 331 394
#     4  11  21  37  59  85 113 157 199 248 307 374
#     4  10  23  38  60  91 125 161 209 264 321 390
#     4  10  21  39  62  91 126 165 215 258 325 388
#     4  10  20  40  60  86 124 160 204 262 317 380
#     4  10  22  37  59  85 115 154 203 246 306 376
#
# _framework density 22.661138999999999
#
# number of rings (size 3 to 8) (size 9 to 14) (size 15 to 20)
#    0.000    1.750    2.500    1.875    0.000    1.500 
#    0.000    5.625    0.000    0.000    0.000    0.000 
#    0.000    0.000    0.000    0.000    0.000    0.000 
#
# Total GULP energy -178362.963588 kJ/mol
# GULP energy per Si atom -5573.842612 kJ/mol
# Density = 2.260956 g / cm^3
# Si number density = 22.661139 Si / 1000 Ang^3
#
#
#
# Elastic Constant Matrix: (Units=GPa)
#
#
# Indices 1 2 3 4 5 6 
#
# 1 50.4481 0.0544 12.0347 0.0000 -11.7668 0.0000
# 2 0.0544 31.0934 -8.2015 0.0000 -3.1597 0.0000
# 3 12.0347 -8.2015 93.7066 0.0000 -14.1307 0.0000
# 4 0.0000 0.0000 0.0000 22.2989 0.0000 -8.9453
# 5 -11.7668 -3.1597 -14.1307 0.0000 31.3819 0.0000
# 6 0.0000 0.0000 0.0000 -8.9453 0.0000 21.8723
#
#
#
# Elastic Compliance Matrix: (Units=1/GPa)
#
#
# Indices 1 2 3 4 5 6 
#
# 1 0.021972 0.000287 -0.001663 0.000000 0.007519 0.000000
# 2 0.000287 0.033657 0.003686 0.000000 0.005156 0.000000
# 3 -0.001663 0.003686 0.011983 0.000000 0.005144 0.000000
# 4 0.000000 0.000000 0.000000 0.053647 0.000000 0.021940
# 5 0.007519 0.005156 0.005144 0.000000 0.037520 0.000000
# 6 0.000000 0.000000 0.000000 0.021940 0.000000 0.054693
#
#
# Mechanical properties :
#
#
# Convention : Reuss Voigt Hill
#
# Bulk Modulus (GPa) = 13.84393 20.33594 17.08993
# Shear Modulus (GPa) = 21.46569 26.53464 24.00017
#
# Velocity S-wave (km/s) = 3.08108 3.42560 3.25790
# Velocity P-wave (km/s) = 4.33356 4.96384 4.65937
#
# Compressibility (1/GPa) = 0.07223383
#
# Stress axis : x y z
#
# Youngs Moduli (GPa) = 45.51145 29.71150 83.44830
#
# Poissons Ratio (x) = -0.00853 0.13877
# Poissons Ratio (y) = -0.01306 -0.30763
# Poissons Ratio (z) = 0.07569 -0.10953
#
# Static dielectric constant tensor:
#      x y z
#    x 1.866590 0.000000 -0.039000 
#    y 0.000000 1.957340 0.000000 
#    z -0.039000 0.000000 1.819850 
# 
# From -- ./inp_files/52169.got.cif
#   From: 2010.05.17/outbox.cif.g08.bks.cpg/sg14_27_cif.got.tgz:52169.got - 2010.06.03 17:49:19.
