data_PCOD9244470
_publ_section_title
;
Structure prediction by ZEFSAII (Michael W. Deem and Ramdas Pophale) SiO2 
 PCOD9244470
Probable space group: P 21/C
;
_chemical_formula_sum "Si O2"
_cell_formula_units_Z 32
_cell_length_a 12.056092
_cell_length_b 17.233324
_cell_length_c 15.914795
_cell_angle_alpha 90.000000
_cell_angle_beta 27.850535
_cell_angle_gamma 90.000000
_cell_volume 1544.715476
_symmetry_space_group_name_H-M "P 21/C"
_symmetry_group_IT_number 14
_symmetry_cell_setting 'monoclinic'
loop_
_space_group_symop_operation_xyz
x,y,z
-x,1/2+y,1/2-z
-x,-y,-z
x,1/2-y,1/2+z
loop_
_atom_site_type_symbol
_atom_site_label
_atom_site_fract_x
_atom_site_fract_y
_atom_site_fract_z
Si Si1 0.386075 0.410011 0.978218
Si Si2 0.444678 0.735919 0.200724
Si Si3 0.347001 0.587050 0.026911
Si Si4 0.143297 0.875724 0.131278
Si Si5 0.409488 0.161015 0.051167
Si Si6 0.186230 0.445543 0.563365
Si Si7 0.354877 0.160475 0.801469
Si Si8 0.986180 0.759700 0.094418
O O1 0.549969 0.356358 0.811097
O O2 0.397783 0.501398 0.956459
O O3 0.476023 0.399216 0.013785
O O4 0.114384 0.382350 0.151334
O O5 0.618962 0.765295 0.156403
O O6 0.191003 0.769983 0.395586
O O7 0.527231 0.771241 0.057422
O O8 0.406429 0.644578 0.911556
O O9 0.081668 0.585740 0.240881
O O10 0.110984 0.807527 0.085442
O O11 0.181478 0.961419 0.066286
O O12 0.362833 0.857354 0.044769
O O13 0.333849 0.088336 0.043631
O O14 0.191547 0.194408 0.251913
O O15 0.286786 0.408634 0.410449
O O16 0.160261 0.178191 0.862216
#
# Coordination Sequence:
#
# PCOD9244470 Si02
#       8
#     4   4   4   4   4   4   4   4
#     4  10  21  40  65  94 126 169 209 264 328 366
#     4  11  24  39  60  93 125 168 209 263 316 381
#     4  10  20  41  64  92 131 160 213 270 309 381
#     4  11  23  43  66  91 130 171 214 259 325 384
#     4  11  24  44  64  90 135 166 218 258 319 386
#     4  10  24  41  66  95 125 175 208 265 318 377
#     4  11  23  39  62  93 129 158 216 261 319 372
#     4  12  24  39  65  95 124 173 211 267 319 370
#
# _framework density 20.715789000000001
#
# number of rings (size 3 to 8) (size 9 to 14) (size 15 to 20)
#    0.000    1.250    2.500    2.625    3.500    1.500 
#    0.000    0.000    0.000    6.000    0.000    0.000 
#    0.000    0.000    0.000    0.000    0.000    0.000 
#
# Total GULP energy -178812.508458 kJ/mol
# GULP energy per Si atom -5587.890889 kJ/mol
# Density = 2.066864 g / cm^3
# Si number density = 20.715789 Si / 1000 Ang^3
#
#
#
# Elastic Constant Matrix: (Units=GPa)
#
#
# Indices 1 2 3 4 5 6 
#
# 1 56.4255 8.9540 9.4061 0.0000 -17.1715 0.0000
# 2 8.9540 54.5310 5.3113 0.0000 0.7634 0.0000
# 3 9.4061 5.3113 76.8944 0.0000 -4.8206 0.0000
# 4 0.0000 0.0000 0.0000 26.6529 0.0000 -9.9292
# 5 -17.1715 0.7634 -4.8206 0.0000 27.9697 0.0000
# 6 0.0000 0.0000 0.0000 -9.9292 0.0000 13.0378
#
#
#
# Elastic Compliance Matrix: (Units=1/GPa)
#
#
# Indices 1 2 3 4 5 6 
#
# 1 0.022803 -0.003776 -0.001662 0.000000 0.013816 0.000000
# 2 -0.003776 0.019102 -0.001047 0.000000 -0.003020 0.000000
# 3 -0.001662 -0.001047 0.013363 0.000000 0.001311 0.000000
# 4 0.000000 0.000000 0.000000 0.052380 0.000000 0.039891
# 5 0.013816 -0.003020 0.001311 0.000000 0.044544 0.000000
# 6 0.000000 0.000000 0.000000 0.039891 0.000000 0.107080
#
#
# Mechanical properties :
#
#
# Convention : Reuss Voigt Hill
#
# Bulk Modulus (GPa) = 23.64166 26.13261 24.88713
# Shear Modulus (GPa) = 17.46163 24.47739 20.96951
#
# Velocity S-wave (km/s) = 2.90645 3.44114 3.18504
# Velocity P-wave (km/s) = 4.76450 5.33206 5.05625
#
# Compressibility (1/GPa) = 0.04229821
#
# Stress axis : x y z
#
# Youngs Moduli (GPa) = 43.85311 52.34939 74.83515
#
# Poissons Ratio (x) = 0.19766 0.12441
# Poissons Ratio (y) = 0.16558 0.07834
# Poissons Ratio (z) = 0.07290 0.05480
#
# Static dielectric constant tensor:
#      x y z
#    x 1.721240 0.000000 -0.014070 
#    y 0.000000 1.741200 0.000000 
#    z -0.014070 0.000000 1.762740 
# 
# From -- ./inp_files/45416.got.cif
#   From: 2010.05.17/outbox.cif.g08.bks.cpg/sg14_23_cif.got.tgz:45416.got - 2010.06.03 17:49:19.
