data_PCOD9244325
_publ_section_title
;
Structure prediction by ZEFSAII (Michael W. Deem and Ramdas Pophale) SiO2 
 PCOD9244325
Probable space group: P 21/C
;
_chemical_formula_sum "Si O2"
_cell_formula_units_Z 26
_cell_length_a 11.466414
_cell_length_b 14.282944
_cell_length_c 16.261054
_cell_angle_alpha 90.000000
_cell_angle_beta 26.184841
_cell_angle_gamma 90.000000
_cell_volume 1175.159773
_symmetry_space_group_name_H-M "P 21/C"
_symmetry_group_IT_number 14
_symmetry_cell_setting 'monoclinic'
loop_
_space_group_symop_operation_xyz
x,y,z
-x,1/2+y,1/2-z
-x,-y,-z
x,1/2-y,1/2+z
loop_
_atom_site_type_symbol
_atom_site_label
_atom_site_fract_x
_atom_site_fract_y
_atom_site_fract_z
Si Si1 0.373222 0.615542 0.025170
Si Si2 0.892097 0.498768 0.399740
Si Si3 0.152369 0.691749 0.650185
Si Si4 0.458550 0.996642 0.731276
Si Si5 0.000000 0.500000 0.000000
Si Si6 0.424958 0.192553 0.429512
Si Si7 0.407032 0.890734 0.139369
O O1 0.236237 0.705594 0.069202
O O2 0.516115 0.657313 0.014796
O O3 0.157516 0.544988 0.199155
O O4 0.532554 0.560065 0.855556
O O5 0.897711 0.387178 0.385386
O O6 0.794965 0.519891 0.552883
O O7 0.662844 0.545462 0.489034
O O8 0.375966 0.646591 0.566541
O O9 0.891504 0.703668 0.871479
O O10 0.720673 0.012381 0.621432
O O11 0.472322 0.888223 0.695115
O O12 0.148442 0.552942 0.829660
O O13 0.554569 0.293898 0.334141
#
# Coordination Sequence:
#
# PCOD9244325 Si02
#       7
#     4   4   4   4   2   4   4
#     4  11  24  44  65  91 136 172 209 272 329 384
#     4  11  23  39  68  96 126 170 219 265 326 383
#     4  11  22  42  64  94 127 175 219 266 323 388
#     4  11  24  42  68  97 132 167 221 261 328 390
#     4  10  20  40  66  94 132 174 212 274 314 380
#     4  11  22  41  68  95 132 172 215 268 329 389
#     4  10  21  39  68  94 129 175 219 269 320 385
#
# _framework density 22.124651
#
# number of rings (size 3 to 8) (size 9 to 14) (size 15 to 20)
#    0.000    1.231    4.615    0.923    0.000    4.308 
#    0.000    0.000    0.000    0.000    0.000    0.000 
#    0.000    0.000    0.000    0.000    0.000    0.000 
#
# Total GULP energy -144807.065761 kJ/mol
# GULP energy per Si atom -5569.502529 kJ/mol
# Density = 2.207429 g / cm^3
# Si number density = 22.124651 Si / 1000 Ang^3
#
#
#
# Elastic Constant Matrix: (Units=GPa)
#
#
# Indices 1 2 3 4 5 6 
#
# 1 47.0507 1.4964 2.0822 0.0000 2.6661 0.0000
# 2 1.4964 121.2280 31.7305 0.0000 12.4877 0.0000
# 3 2.0822 31.7305 95.9212 0.0000 22.4209 0.0000
# 4 0.0000 0.0000 0.0000 11.8632 0.0000 -1.8621
# 5 2.6661 12.4877 22.4209 0.0000 20.2653 0.0000
# 6 0.0000 0.0000 0.0000 -1.8621 0.0000 32.4704
#
#
#
# Elastic Compliance Matrix: (Units=1/GPa)
#
#
# Indices 1 2 3 4 5 6 
#
# 1 0.021418 -0.000014 0.000265 0.000000 -0.003102 0.000000
# 2 -0.000014 0.009173 -0.002311 0.000000 -0.003094 0.000000
# 3 0.000265 -0.002311 0.014647 0.000000 -0.014816 0.000000
# 4 0.000000 0.000000 0.000000 0.085060 0.000000 0.004878
# 5 -0.003102 -0.003094 -0.014816 0.000000 0.068052 0.000000
# 6 0.000000 0.000000 0.000000 0.004878 0.000000 0.031077
#
#
# Mechanical properties :
#
#
# Convention : Reuss Voigt Hill
#
# Bulk Modulus (GPa) = 24.32054 37.20202 30.76128
# Shear Modulus (GPa) = 20.22220 28.17916 24.20068
#
# Velocity S-wave (km/s) = 3.02654 3.57270 3.31090
# Velocity P-wave (km/s) = 4.81972 5.81981 5.34321
#
# Compressibility (1/GPa) = 0.04111750
#
# Stress axis : x y z
#
# Youngs Moduli (GPa) = 46.68936 109.02005 68.27337
#
# Poissons Ratio (x) = 0.00154 -0.01808
# Poissons Ratio (y) = 0.00066 0.15777
# Poissons Ratio (z) = -0.01237 0.25193
#
# Static dielectric constant tensor:
#      x y z
#    x 1.898690 0.000000 -0.019150 
#    y 0.000000 1.838110 0.000000 
#    z -0.019150 0.000000 1.773770 
# 
# From -- ./inp_files/24845.got.cif
#   From: 2010.05.17/outbox.cif.g08.bks.cpg/sg14_13_cif.got.tgz:24845.got - 2010.06.03 17:49:19.
