data_PCOD9244992
_publ_section_title
;
Structure prediction by ZEFSAII (Michael W. Deem and Ramdas Pophale) SiO2 
 PCOD9244992
Probable space group: P 21/C
;
_chemical_formula_sum "Si O2"
_cell_formula_units_Z 24
_cell_length_a 12.087894
_cell_length_b 12.313099
_cell_length_c 13.739692
_cell_angle_alpha 90.000000
_cell_angle_beta 154.404555
_cell_angle_gamma 90.000000
_cell_volume 883.472193
_symmetry_space_group_name_H-M "P 21/C"
_symmetry_group_IT_number 14
_symmetry_cell_setting 'monoclinic'
loop_
_space_group_symop_operation_xyz
x,y,z
-x,1/2+y,1/2-z
-x,-y,-z
x,1/2-y,1/2+z
loop_
_atom_site_type_symbol
_atom_site_label
_atom_site_fract_x
_atom_site_fract_y
_atom_site_fract_z
Si Si1 0.594323 0.439351 0.977432
Si Si2 0.865113 0.865457 0.134820
Si Si3 0.594323 0.060649 0.977432
Si Si4 0.063002 0.128754 0.574793
Si Si5 0.865113 0.865457 0.634821
Si Si6 0.936998 0.871246 0.925207
O O1 0.352623 0.366528 0.762795
O O2 0.500000 0.500000 0.000000
O O3 0.865364 0.379335 0.206182
O O4 0.673229 0.535957 0.967734
O O5 0.744375 0.750000 0.020303
O O6 0.673229 0.964043 0.967734
O O7 0.936443 0.869573 0.306561
O O8 0.865364 0.120665 0.206182
O O9 0.500000 0.000000 0.000000
O O10 0.352623 0.133472 0.762795
O O11 0.943375 0.250000 0.455607
O O12 0.000000 0.000000 0.500000
O O13 0.936443 0.869573 0.806561
O O14 0.000000 0.000000 0.000000
#
# Coordination Sequence:
#
# PCOD9244992 Si02
#       6
#     4   4   4   4   4   4
#     4   9  18  34  55  78 104 138 181 226 272 323
#     4   9  18  34  56  80 106 139 181 229 278 325
#     4   9  18  34  55  78 104 138 181 226 272 323
#     4  10  21  36  54  79 113 150 184 223 272 325
#     4   9  18  34  56  80 106 139 181 229 278 325
#     4  10  21  36  54  79 113 150 184 223 272 325
#
# _framework density 27.165541999999999
#
# number of rings (size 3 to 8) (size 9 to 14) (size 15 to 20)
#    0.000    2.667    0.000    1.000    0.000    4.000 
#    0.000   18.333    0.000    0.000    0.000    0.000 
#    0.000    0.000    0.000    0.000    0.000    0.000 
#
# Total GULP energy -133745.572717 kJ/mol
# GULP energy per Si atom -5572.732197 kJ/mol
# Density = 2.710371 g / cm^3
# Si number density = 27.165542 Si / 1000 Ang^3
#
#
#
# Elastic Constant Matrix: (Units=GPa)
#
#
# Indices 1 2 3 4 5 6 
#
# 1 130.9606 34.2592 20.9862 0.0000 6.5679 0.0000
# 2 34.2592 259.2693 53.1241 0.0000 -5.3379 0.0000
# 3 20.9862 53.1241 91.8168 0.0000 36.7801 0.0000
# 4 0.0000 0.0000 0.0000 18.4562 0.0000 -9.0106
# 5 6.5679 -5.3379 36.7801 0.0000 46.2204 0.0000
# 6 0.0000 0.0000 0.0000 -9.0106 0.0000 31.9881
#
#
#
# Elastic Compliance Matrix: (Units=1/GPa)
#
#
# Indices 1 2 3 4 5 6 
#
# 1 0.008064 -0.000805 -0.001294 0.000000 -0.000209 0.000000
# 2 -0.000805 0.004934 -0.004323 0.000000 0.004124 0.000000
# 3 -0.001294 -0.004323 0.020278 0.000000 -0.016452 0.000000
# 4 0.000000 0.000000 0.000000 0.062822 0.000000 0.017696
# 5 -0.000209 0.004124 -0.016452 0.000000 0.035233 0.000000
# 6 0.000000 0.000000 0.000000 0.017696 0.000000 0.036246
#
#
# Mechanical properties :
#
#
# Convention : Reuss Voigt Hill
#
# Bulk Modulus (GPa) = 48.93782 77.64284 63.29033
# Shear Modulus (GPa) = 26.70480 44.24476 35.47478
#
# Velocity S-wave (km/s) = 3.13875 4.04010 3.61761
# Velocity P-wave (km/s) = 5.58475 7.09977 6.38734
#
# Compressibility (1/GPa) = 0.02043409
#
# Stress axis : x y z
#
# Youngs Moduli (GPa) = 124.00428 202.67560 49.31343
#
# Poissons Ratio (x) = 0.16312 0.06379
# Poissons Ratio (y) = 0.09980 0.21317
# Poissons Ratio (z) = 0.16042 0.87613
#
# Static dielectric constant tensor:
#      x y z
#    x 2.256410 0.000000 -0.131560 
#    y 0.000000 2.148350 0.000000 
#    z -0.131560 0.000000 2.192120 
# 
# From -- ./inp_files/61185.got.cif
#   From: 2010.05.17/outbox.cif.g08.bks.cpg/sg14_31_cif.got.tgz:61185.got - 2010.06.03 17:49:19.
