data_PCOD9244744
_publ_section_title
;
Structure prediction by ZEFSAII (Michael W. Deem and Ramdas Pophale) SiO2 
 PCOD9244744
Probable space group: P 21/C
;
_chemical_formula_sum "Si O2"
_cell_formula_units_Z 28
_cell_length_a 5.223483
_cell_length_b 20.582239
_cell_length_c 10.777624
_cell_angle_alpha 90.000000
_cell_angle_beta 81.820318
_cell_angle_gamma 90.000000
_cell_volume 1146.924991
_symmetry_space_group_name_H-M "P 21/C"
_symmetry_group_IT_number 14
_symmetry_cell_setting 'monoclinic'
loop_
_space_group_symop_operation_xyz
x,y,z
-x,1/2+y,1/2-z
-x,-y,-z
x,1/2-y,1/2+z
loop_
_atom_site_type_symbol
_atom_site_label
_atom_site_fract_x
_atom_site_fract_y
_atom_site_fract_z
Si Si1 0.913440 0.974298 0.808401
Si Si2 0.386486 0.772662 0.257562
Si Si3 0.771925 0.524122 0.927785
Si Si4 0.586954 0.859370 0.821054
Si Si5 0.791448 0.795395 0.034741
Si Si6 0.847068 0.822248 0.399100
Si Si7 0.844717 0.409042 0.467600
O O1 0.985280 0.943536 0.936158
O O2 0.738919 0.919975 0.752028
O O3 0.162989 0.992158 0.710355
O O4 0.787579 0.043033 0.857040
O O5 0.417863 0.693800 0.259271
O O6 0.516034 0.796758 0.121294
O O7 0.585542 0.799839 0.347413
O O8 0.107509 0.800079 0.310545
O O9 0.809791 0.601431 0.916807
O O10 0.500000 0.500000 0.000000
O O11 0.000000 0.500000 0.000000
O O12 0.407679 0.891168 0.938517
O O13 0.783227 0.816993 0.891389
O O14 0.869779 0.719818 0.025194
O O15 0.985700 0.846610 0.080770
#
# Coordination Sequence:
#
# PCOD9244744 Si02
#       7
#     4   4   4   4   4   4   4
#     4  10  24  40  70 100 139 188 230 303 349 431
#     4  11  24  41  72  97 139 178 223 292 350 424
#     4  12  29  49  70 101 143 195 242 286 355 439
#     4  10  22  41  65 105 132 176 235 287 363 418
#     4  10  23  39  67 100 134 181 228 295 353 425
#     4  11  25  47  64 103 133 180 234 281 349 421
#     4  10  20  43  68 102 138 173 242 291 372 408
#
# _framework density 24.413105000000002
#
# number of rings (size 3 to 8) (size 9 to 14) (size 15 to 20)
#    0.000    1.429    1.429    2.143    8.000    0.000 
#    0.000    0.000    0.000    0.000    0.000    0.000 
#    0.000    0.000    0.000    0.000    0.000    0.000 
#
# Total GULP energy -156419.857825 kJ/mol
# GULP energy per Si atom -5586.423494 kJ/mol
# Density = 2.435754 g / cm^3
# Si number density = 24.413105 Si / 1000 Ang^3
#
#
#
# Elastic Constant Matrix: (Units=GPa)
#
#
# Indices 1 2 3 4 5 6 
#
# 1 95.5570 60.6537 27.8860 0.0000 -29.3947 0.0000
# 2 60.6537 159.0102 47.5293 0.0000 -36.7974 0.0000
# 3 27.8860 47.5293 82.6286 0.0000 -41.8988 0.0000
# 4 0.0000 0.0000 0.0000 17.9727 0.0000 -13.3529
# 5 -29.3947 -36.7974 -41.8988 0.0000 51.4015 0.0000
# 6 0.0000 0.0000 0.0000 -13.3529 0.0000 25.1700
#
#
#
# Elastic Compliance Matrix: (Units=1/GPa)
#
#
# Indices 1 2 3 4 5 6 
#
# 1 0.014951 -0.004520 0.000424 0.000000 0.005660 0.000000
# 2 -0.004520 0.009283 -0.002992 0.000000 0.001622 0.000000
# 3 0.000424 -0.002992 0.021677 0.000000 0.015770 0.000000
# 4 0.000000 0.000000 0.000000 0.091837 0.000000 0.048720
# 5 0.005660 0.001622 0.015770 0.000000 0.036707 0.000000
# 6 0.000000 0.000000 0.000000 0.048720 0.000000 0.065576
#
#
# Mechanical properties :
#
#
# Convention : Reuss Voigt Hill
#
# Bulk Modulus (GPa) = 31.51031 67.70378 49.60705
# Shear Modulus (GPa) = 18.88323 32.31729 25.60026
#
# Velocity S-wave (km/s) = 2.78418 3.64231 3.24177
# Velocity P-wave (km/s) = 4.82397 6.74398 5.86311
#
# Compressibility (1/GPa) = 0.03173565
#
# Stress axis : x y z
#
# Youngs Moduli (GPa) = 66.88350 107.72827 46.13246
#
# Poissons Ratio (x) = 0.48694 -0.01957
# Poissons Ratio (y) = 0.30232 0.13801
# Poissons Ratio (z) = -0.02838 0.32229
#
# Static dielectric constant tensor:
#      x y z
#    x 1.967850 0.000000 0.055160 
#    y 0.000000 2.063930 0.000000 
#    z 0.055160 0.000000 1.959120 
# 
# From -- ./inp_files/21675.got.cif
#   From: 2010.05.17/outbox.cif.g08.bks.cpg/sg14_11_cif.got.tgz:21675.got - 2010.06.03 17:49:19.
