data_PCOD9244841
_publ_section_title
;
Structure prediction by ZEFSAII (Michael W. Deem and Ramdas Pophale) SiO2 
 PCOD9244841
Probable space group: P 21/C
;
_chemical_formula_sum "Si O2"
_cell_formula_units_Z 20
_cell_length_a 5.101116
_cell_length_b 14.259173
_cell_length_c 9.991898
_cell_angle_alpha 90.000000
_cell_angle_beta 75.379314
_cell_angle_gamma 90.000000
_cell_volume 703.252870
_symmetry_space_group_name_H-M "P 21/C"
_symmetry_group_IT_number 14
_symmetry_cell_setting 'monoclinic'
loop_
_space_group_symop_operation_xyz
x,y,z
-x,1/2+y,1/2-z
-x,-y,-z
x,1/2-y,1/2+z
loop_
_atom_site_type_symbol
_atom_site_label
_atom_site_fract_x
_atom_site_fract_y
_atom_site_fract_z
Si Si1 0.471642 0.152405 0.931767
Si Si2 0.855652 0.063729 0.692608
Si Si3 0.000000 0.000000 0.000000
Si Si4 0.500000 0.500000 0.000000
Si Si5 0.757049 0.724340 0.818259
Si Si6 0.822496 0.111939 0.264220
O O1 0.744486 0.096850 0.852038
O O2 0.381815 0.204146 0.805654
O O3 0.451913 0.223244 0.057438
O O4 0.235882 0.078679 0.987505
O O5 0.646328 0.061329 0.601417
O O6 0.114587 0.129689 0.634787
O O7 0.972078 0.960840 0.690630
O O8 0.205714 0.935954 0.875950
O O9 0.559702 0.412477 0.883496
O O10 0.025352 0.789355 0.760559
#
# Coordination Sequence:
#
# PCOD9244841 Si02
#       6
#     4   4   2   2   4   4
#     4  11  25  48  72 108 151 198 257 311 378 451
#     4  12  25  46  75 107 150 197 252 310 371 452
#     4  10  20  48  70  98 142 194 248 298 368 452
#     4  12  24  46  72 110 146 194 246 308 374 452
#     4  11  26  46  72 110 150 195 254 313 378 452
#     4  11  25  45  76 103 147 197 249 304 376 446
#
# _framework density 28.439267999999998
#
# number of rings (size 3 to 8) (size 9 to 14) (size 15 to 20)
#    0.000    0.800    4.000    1.800    0.000   11.200 
#    0.000    0.000    0.000    0.000    0.000    0.000 
#    0.000    0.000    0.000    0.000    0.000    0.000 
#
# Total GULP energy -111386.214897 kJ/mol
# GULP energy per Si atom -5569.310745 kJ/mol
# Density = 2.837454 g / cm^3
# Si number density = 28.439268 Si / 1000 Ang^3
#
#
#
# Elastic Constant Matrix: (Units=GPa)
#
#
# Indices 1 2 3 4 5 6 
#
# 1 117.5402 -34.7504 52.4608 0.0000 18.2875 0.0000
# 2 -34.7504 230.3974 -46.9761 0.0000 -68.9243 0.0000
# 3 52.4608 -46.9761 198.2425 0.0000 19.4235 0.0000
# 4 0.0000 0.0000 0.0000 33.0252 0.0000 -4.4622
# 5 18.2875 -68.9243 19.4235 0.0000 88.1234 0.0000
# 6 0.0000 0.0000 0.0000 -4.4622 0.0000 46.5170
#
#
#
# Elastic Compliance Matrix: (Units=1/GPa)
#
#
# Indices 1 2 3 4 5 6 
#
# 1 0.009927 0.000725 -0.002360 0.000000 -0.000973 0.000000
# 2 0.000725 0.005891 0.000784 0.000000 0.004284 0.000000
# 3 -0.002360 0.000784 0.005873 0.000000 -0.000191 0.000000
# 4 0.000000 0.000000 0.000000 0.030678 0.000000 0.002943
# 5 -0.000973 0.004284 -0.000191 0.000000 0.014943 0.000000
# 6 0.000000 0.000000 0.000000 0.002943 0.000000 0.021780
#
#
# Mechanical properties :
#
#
# Convention : Reuss Voigt Hill
#
# Bulk Modulus (GPa) = 50.02314 54.18319 52.10316
# Shear Modulus (GPa) = 51.30535 71.89617 61.60076
#
# Velocity S-wave (km/s) = 4.25200 5.03344 4.65913
# Velocity P-wave (km/s) = 6.46016 7.27147 6.87779
#
# Compressibility (1/GPa) = 0.01999075
#
# Stress axis : x y z
#
# Youngs Moduli (GPa) = 100.73883 169.74114 170.25893
#
# Poissons Ratio (x) = -0.12308 0.40177
# Poissons Ratio (y) = -0.07304 -0.13355
# Poissons Ratio (z) = 0.23772 -0.13314
#
# Static dielectric constant tensor:
#      x y z
#    x 2.828820 0.000000 -0.041820 
#    y 0.000000 2.085020 0.000000 
#    z -0.041820 0.000000 2.173870 
# 
# From -- ./inp_files/20639.got.cif
#   From: 2010.05.17/outbox.cif.g08.bks.cpg/sg14_11_cif.got.tgz:20639.got - 2010.06.03 17:49:19.
