data_PCOD9244738
_publ_section_title
;
Structure prediction by ZEFSAII (Michael W. Deem and Ramdas Pophale) SiO2 
 PCOD9244738
Probable space group: P 21/C
;
_chemical_formula_sum "Si O2"
_cell_formula_units_Z 28
_cell_length_a 13.042922
_cell_length_b 9.382488
_cell_length_c 23.171541
_cell_angle_alpha 90.000000
_cell_angle_beta 154.188796
_cell_angle_gamma 90.000000
_cell_volume 1234.648644
_symmetry_space_group_name_H-M "P 21/C"
_symmetry_group_IT_number 14
_symmetry_cell_setting 'monoclinic'
loop_
_space_group_symop_operation_xyz
x,y,z
-x,1/2+y,1/2-z
-x,-y,-z
x,1/2-y,1/2+z
loop_
_atom_site_type_symbol
_atom_site_label
_atom_site_fract_x
_atom_site_fract_y
_atom_site_fract_z
Si Si1 0.092448 0.075766 0.889249
Si Si2 0.166313 0.131002 0.796402
Si Si3 0.652294 0.884493 0.369115
Si Si4 0.924110 0.390425 0.843855
Si Si5 0.443997 0.424541 0.664324
Si Si6 0.422819 0.942013 0.375177
Si Si7 0.645751 0.210482 0.545157
O O1 0.188149 0.073317 0.872989
O O2 0.036738 0.242294 0.877776
O O3 0.841166 0.999608 0.762504
O O4 0.263508 0.018174 0.025011
O O5 0.424028 0.195041 0.912057
O O6 0.927202 0.231064 0.677817
O O7 0.106438 0.004598 0.722125
O O8 0.666945 0.716535 0.363175
O O9 0.506972 0.905112 0.354584
O O10 0.905188 0.941462 0.517877
O O11 0.527066 0.964986 0.254025
O O12 0.672324 0.372988 0.745214
O O13 0.401456 0.812974 0.410261
O O14 0.594659 0.057058 0.490253
#
# Coordination Sequence:
#
# PCOD9244738 Si02
#       7
#     4   4   4   4   4   4   4
#     4  10  24  41  66 101 129 177 218 275 337 410
#     4  11  24  39  69 101 136 175 217 276 342 416
#     4  11  23  46  67  94 128 184 227 278 339 392
#     4  11  23  45  67  94 137 177 216 278 350 395
#     4  11  25  44  68  94 134 179 233 283 330 401
#     4  10  20  43  66  89 134 174 215 267 347 398
#     4  10  22  40  66 101 136 176 215 277 340 412
#
# _framework density 22.678516999999999
#
# number of rings (size 3 to 8) (size 9 to 14) (size 15 to 20)
#    0.000    1.429    2.857    2.143    6.000    3.429 
#    2.571    0.000    0.000    0.000    0.000    0.000 
#    0.000    0.000    0.000    0.000    0.000    0.000 
#
# Total GULP energy -156449.860442 kJ/mol
# GULP energy per Si atom -5587.495016 kJ/mol
# Density = 2.262690 g / cm^3
# Si number density = 22.678517 Si / 1000 Ang^3
#
#
#
# Elastic Constant Matrix: (Units=GPa)
#
#
# Indices 1 2 3 4 5 6 
#
# 1 55.3880 15.6672 39.2985 0.0000 2.3454 0.0000
# 2 15.6672 33.8251 40.6852 0.0000 -5.0092 0.0000
# 3 39.2985 40.6852 177.7298 0.0000 -22.9362 0.0000
# 4 0.0000 0.0000 0.0000 38.7297 0.0000 2.8703
# 5 2.3454 -5.0092 -22.9362 0.0000 29.6533 0.0000
# 6 0.0000 0.0000 0.0000 2.8703 0.0000 12.1235
#
#
#
# Elastic Compliance Matrix: (Units=1/GPa)
#
#
# Indices 1 2 3 4 5 6 
#
# 1 0.023333 -0.006287 -0.004549 0.000000 -0.006426 0.000000
# 2 -0.006287 0.042495 -0.008162 0.000000 0.001363 0.000000
# 3 -0.004549 -0.008162 0.009297 0.000000 0.006172 0.000000
# 4 0.000000 0.000000 0.000000 0.026281 0.000000 -0.006222
# 5 -0.006426 0.001363 0.006172 0.000000 0.039236 0.000000
# 6 0.000000 0.000000 0.000000 -0.006222 0.000000 0.083958
#
#
# Mechanical properties :
#
#
# Convention : Reuss Voigt Hill
#
# Bulk Modulus (GPa) = 26.93337 50.91608 38.92472
# Shear Modulus (GPa) = 18.18370 27.52077 22.85224
#
# Velocity S-wave (km/s) = 2.83468 3.48734 3.17781
# Velocity P-wave (km/s) = 4.75561 6.22216 5.53765
#
# Compressibility (1/GPa) = 0.03712867
#
# Stress axis : x y z
#
# Youngs Moduli (GPa) = 42.85820 23.53235 107.55776
#
# Poissons Ratio (x) = 0.14795 0.48931
# Poissons Ratio (y) = 0.26945 0.87785
# Poissons Ratio (z) = 0.19498 0.19206
#
# Static dielectric constant tensor:
#      x y z
#    x 1.805560 0.000000 0.042020 
#    y 0.000000 1.909860 0.000000 
#    z 0.042020 0.000000 1.889190 
# 
# From -- ./inp_files/67360.got.cif
#   From: 2010.05.17/outbox.cif.g08.bks.cpg/sg14_34_cif.got.tgz:67360.got - 2010.06.03 17:49:19.
