data_PCOD9244536
_publ_section_title
;
Structure prediction by ZEFSAII (Michael W. Deem and Ramdas Pophale) SiO2 
 PCOD9244536
Probable space group: P 21/C
;
_chemical_formula_sum "Si O2"
_cell_formula_units_Z 30
_cell_length_a 7.130934
_cell_length_b 11.657953
_cell_length_c 15.769829
_cell_angle_alpha 90.000000
_cell_angle_beta 65.233762
_cell_angle_gamma 90.000000
_cell_volume 1190.400940
_symmetry_space_group_name_H-M "P 21/C"
_symmetry_group_IT_number 14
_symmetry_cell_setting 'monoclinic'
loop_
_space_group_symop_operation_xyz
x,y,z
-x,1/2+y,1/2-z
-x,-y,-z
x,1/2-y,1/2+z
loop_
_atom_site_type_symbol
_atom_site_label
_atom_site_fract_x
_atom_site_fract_y
_atom_site_fract_z
Si Si1 0.315607 0.421644 0.363990
Si Si2 0.500000 0.000000 0.500000
Si Si3 0.158825 0.184216 0.046340
Si Si4 0.634388 0.072027 0.292216
Si Si5 0.593187 0.241620 0.517614
Si Si6 0.269960 0.550619 0.618375
Si Si7 0.379391 0.219509 0.233115
Si Si8 0.061244 0.776129 0.265805
O O1 0.141285 0.362957 0.454744
O O2 0.243213 0.511234 0.308001
O O3 0.495231 0.464775 0.392464
O O4 0.420594 0.325631 0.286601
O O5 0.411929 0.999771 0.615669
O O6 0.344438 0.889666 0.505712
O O7 0.369541 0.259237 0.010060
O O8 0.988643 0.260130 0.125095
O O9 0.200308 0.069649 0.093562
O O10 0.424111 0.110251 0.283545
O O11 0.761306 0.185702 0.290159
O O12 0.718870 0.344360 0.450672
O O13 0.533609 0.274266 0.624584
O O14 0.129686 0.599512 0.720871
O O15 0.149348 0.238129 0.241564
#
# Coordination Sequence:
#
# PCOD9244536 Si02
#       8
#     4   2   4   4   4   4   4   4
#     4  11  21  41  70  98 129 180 229 280 333 412
#     4  12  22  40  72 102 136 182 226 280 360 406
#     4  10  23  41  68 103 135 179 230 287 340 403
#     4  12  24  45  68  97 140 179 231 283 350 414
#     4  10  20  41  68  97 137 181 223 283 342 405
#     4  11  21  44  71  99 135 182 232 279 349 407
#     4  11  23  44  65  98 134 178 230 275 338 412
#     4  11  25  42  66  98 138 177 219 287 346 401
#
# _framework density 25.201595000000001
#
# number of rings (size 3 to 8) (size 9 to 14) (size 15 to 20)
#    0.000    1.067    4.000    4.800    1.867    0.533 
#    2.400    2.000    0.000    0.000    0.000    0.000 
#    0.000    0.000    0.000    0.000    0.000    0.000 
#
# Total GULP energy -167350.161057 kJ/mol
# GULP energy per Si atom -5578.338702 kJ/mol
# Density = 2.514423 g / cm^3
# Si number density = 25.201595 Si / 1000 Ang^3
#
#
#
# Elastic Constant Matrix: (Units=GPa)
#
#
# Indices 1 2 3 4 5 6 
#
# 1 90.0095 -13.8158 10.8247 0.0000 4.8732 0.0000
# 2 -13.8158 27.8570 22.5785 0.0000 13.6575 0.0000
# 3 10.8247 22.5785 145.6099 0.0000 13.6853 0.0000
# 4 0.0000 0.0000 0.0000 -702.0401 0.0000 -32.5428
# 5 4.8732 13.6575 13.6853 0.0000 20.4947 0.0000
# 6 0.0000 0.0000 0.0000 -32.5428 0.0000 17.6155
#
#
#
# Elastic Compliance Matrix: (Units=1/GPa)
#
#
# Indices 1 2 3 4 5 6 
#
# 1 0.014239 0.014550 -0.002225 0.000000 -0.011596 0.000000
# 2 0.014550 0.072246 -0.007932 0.000000 -0.046307 0.000000
# 3 -0.002225 -0.007932 0.008233 0.000000 0.000317 0.000000
# 4 0.000000 0.000000 0.000000 -0.001312 0.000000 -0.002424
# 5 -0.011596 -0.046307 0.000317 0.000000 0.082197 0.000000
# 6 0.000000 0.000000 0.000000 -0.002424 0.000000 0.052290
#
#
# Mechanical properties :
#
#
# Convention : Reuss Voigt Hill
#
# Bulk Modulus (GPa) = 9.66137 33.62790 21.64464
# Shear Modulus (GPa) = 19.71545 -116.52670 -48.40562
#
# Velocity S-wave (km/s) = 2.80001 -6.80722 -4.38738
# Velocity P-wave (km/s) = 3.78093 6.95785 4.13015
#
# Compressibility (1/GPa) = 0.10350496
#
# Stress axis : x y z
#
# Youngs Moduli (GPa) = 70.23118 13.84157 121.45944
#
# Poissons Ratio (x) = -0.20140 0.27022
# Poissons Ratio (y) = -1.02188 0.96342
# Poissons Ratio (z) = 0.15625 0.10979
#
# Static dielectric constant tensor:
#      x y z
#    x 2.056990 0.000000 -0.022580 
#    y 0.000000 2.168920 0.000000 
#    z -0.022580 0.000000 2.134560 
# 
# From -- ./inp_files/40043.got.cif
#   From: 2010.05.17/outbox.cif.g08.bks.cpg/sg14_21_cif.got.tgz:40043.got - 2010.06.03 17:49:19.
