data_PCOD9244896
_publ_section_title
;
Structure prediction by ZEFSAII (Michael W. Deem and Ramdas Pophale) SiO2 
 PCOD9244896
Probable space group: P 21/C
;
_chemical_formula_sum "Si O2"
_cell_formula_units_Z 18
_cell_length_a 8.330272
_cell_length_b 9.279916
_cell_length_c 15.744543
_cell_angle_alpha 90.000000
_cell_angle_beta 147.282724
_cell_angle_gamma 90.000000
_cell_volume 657.845925
_symmetry_space_group_name_H-M "P 21/C"
_symmetry_group_IT_number 14
_symmetry_cell_setting 'monoclinic'
loop_
_space_group_symop_operation_xyz
x,y,z
-x,1/2+y,1/2-z
-x,-y,-z
x,1/2-y,1/2+z
loop_
_atom_site_type_symbol
_atom_site_label
_atom_site_fract_x
_atom_site_fract_y
_atom_site_fract_z
Si Si1 0.994340 0.217185 0.299316
Si Si2 0.739641 0.740602 0.256866
Si Si3 0.506853 0.945099 0.404732
Si Si4 0.500000 0.500000 0.500000
Si Si5 0.757737 0.421132 0.445906
O O1 0.763303 0.335191 0.226954
O O2 0.800629 0.099155 0.162936
O O3 0.223999 0.286329 0.328226
O O4 0.183151 0.139759 0.456521
O O5 0.570361 0.588090 0.181314
O O6 0.064073 0.716255 0.437070
O O7 0.548417 0.854358 0.223823
O O8 0.500000 0.000000 0.500000
O O9 0.645845 0.522396 0.471003
O O10 0.000000 0.500000 0.500000
#
# Coordination Sequence:
#
# PCOD9244896 Si02
#       5
#     4   4   4   2   4
#     4  10  21  35  66 106 142 186 239 292 358 426
#     4  10  23  43  70  99 147 187 238 306 356 427
#     4  10  21  34  61 105 142 183 247 290 360 425
#     4  10  22  40  76 100 140 188 236 284 354 432
#     4  11  26  49  73 105 146 190 238 298 367 428
#
# _framework density 27.362030000000001
#
# number of rings (size 3 to 8) (size 9 to 14) (size 15 to 20)
#    0.000    1.778    0.000    5.333   21.778    0.000 
#    4.000    1.111    0.000    0.000    0.000    0.000 
#    0.000    0.000    0.000    0.000    0.000    0.000 
#
# Total GULP energy -100440.249465 kJ/mol
# GULP energy per Si atom -5580.013859 kJ/mol
# Density = 2.729975 g / cm^3
# Si number density = 27.362030 Si / 1000 Ang^3
#
#
#
# Elastic Constant Matrix: (Units=GPa)
#
#
# Indices 1 2 3 4 5 6 
#
# 1 110.4819 24.9690 19.6640 0.0000 41.3794 0.0000
# 2 24.9690 112.1364 33.3523 0.0000 21.7726 0.0000
# 3 19.6640 33.3523 153.3983 0.0000 19.7128 0.0000
# 4 0.0000 0.0000 0.0000 66.2620 0.0000 26.1607
# 5 41.3794 21.7726 19.7128 0.0000 40.9816 0.0000
# 6 0.0000 0.0000 0.0000 26.1607 0.0000 42.8016
#
#
#
# Elastic Compliance Matrix: (Units=1/GPa)
#
#
# Indices 1 2 3 4 5 6 
#
# 1 0.014576 -0.000455 0.000097 0.000000 -0.014522 0.000000
# 2 -0.000455 0.010331 -0.001643 0.000000 -0.004239 0.000000
# 3 0.000097 -0.001643 0.007210 0.000000 -0.002693 0.000000
# 4 0.000000 0.000000 0.000000 0.019892 0.000000 -0.012158
# 5 -0.014522 -0.004239 -0.002693 0.000000 0.042612 0.000000
# 6 0.000000 0.000000 0.000000 -0.012158 0.000000 0.030795
#
#
# Mechanical properties :
#
#
# Convention : Reuss Voigt Hill
#
# Bulk Modulus (GPa) = 35.56914 59.10968 47.33941
# Shear Modulus (GPa) = 36.02610 49.87779 42.95195
#
# Velocity S-wave (km/s) = 3.63250 4.27416 3.96632
# Velocity P-wave (km/s) = 5.53363 6.78289 6.18986
#
# Compressibility (1/GPa) = 0.02811426
#
# Stress axis : x y z
#
# Youngs Moduli (GPa) = 68.60625 96.79875 138.69879
#
# Poissons Ratio (x) = 0.04401 -0.01340
# Poissons Ratio (y) = 0.03119 0.22790
# Poissons Ratio (z) = -0.00663 0.15905
#
# Static dielectric constant tensor:
#      x y z
#    x 2.160950 0.000000 -0.105300 
#    y 0.000000 1.941530 0.000000 
#    z -0.105300 0.000000 2.022130 
# 
# From -- ./inp_files/7660.got.cif
#   From: 2010.05.17/outbox.cif.g08.bks.cpg/sg14_4_cif.got.tgz:7660.got - 2010.06.03 17:49:19.
