data_PCOD9244372
_publ_section_title
;
Structure prediction by ZEFSAII (Michael W. Deem and Ramdas Pophale) SiO2 
 PCOD9244372
Probable space group: P 21/C
;
_chemical_formula_sum "Si O2"
_cell_formula_units_Z 32
_cell_length_a 7.899980
_cell_length_b 19.549436
_cell_length_c 14.400991
_cell_angle_alpha 90.000000
_cell_angle_beta 39.253005
_cell_angle_gamma 90.000000
_cell_volume 1407.284720
_symmetry_space_group_name_H-M "P 21/C"
_symmetry_group_IT_number 14
_symmetry_cell_setting 'monoclinic'
loop_
_space_group_symop_operation_xyz
x,y,z
-x,1/2+y,1/2-z
-x,-y,-z
x,1/2-y,1/2+z
loop_
_atom_site_type_symbol
_atom_site_label
_atom_site_fract_x
_atom_site_fract_y
_atom_site_fract_z
Si Si1 0.999848 0.305794 0.374732
Si Si2 0.908084 0.335865 0.211258
Si Si3 0.032903 0.928055 0.845857
Si Si4 0.686241 0.994114 0.641719
Si Si5 0.783104 0.933738 0.134476
Si Si6 0.265664 0.992108 0.174158
Si Si7 0.539421 0.854893 0.617235
Si Si8 0.424248 0.758232 0.307089
O O1 0.888064 0.299380 0.319068
O O2 0.007791 0.385768 0.401841
O O3 0.314230 0.288794 0.253991
O O4 0.810378 0.263871 0.523732
O O5 0.830700 0.415423 0.261784
O O6 0.717255 0.302748 0.214307
O O7 0.222933 0.329812 0.049649
O O8 0.219689 0.864477 0.739215
O O9 0.963473 0.965027 0.779811
O O10 0.155499 0.987542 0.861479
O O11 0.797419 0.909982 0.020107
O O12 0.637809 0.975696 0.770190
O O13 0.612740 0.933661 0.604370
O O14 0.522262 0.064511 0.698209
O O15 0.000000 0.000000 0.500000
O O16 0.500000 0.000000 0.000000
O O17 0.545537 0.808732 0.705613
#
# Coordination Sequence:
#
# PCOD9244372 Si02
#       8
#     4   4   4   4   4   4   4   4
#     4  12  27  48  79 101 141 201 250 302 378 440
#     4  12  28  50  73 109 152 188 262 313 362 457
#     4  10  21  39  68 100 139 179 229 294 368 431
#     4  11  23  40  68 103 147 180 225 301 376 429
#     4  10  20  40  68  97 136 181 223 291 364 429
#     4  12  24  42  70 110 140 189 242 306 378 451
#     4  11  25  47  67 102 150 188 241 306 367 444
#     4  12  28  50  73 104 149 203 247 312 365 442
#
# _framework density 22.738824999999999
#
# number of rings (size 3 to 8) (size 9 to 14) (size 15 to 20)
#    0.000    0.750    6.250    0.750    3.500    1.500 
#    2.250    0.000    0.000    0.000    0.000    0.000 
#    0.000    0.000    0.000    0.000    0.000    0.000 
#
# Total GULP energy -178370.475579 kJ/mol
# GULP energy per Si atom -5574.077362 kJ/mol
# Density = 2.268707 g / cm^3
# Si number density = 22.738825 Si / 1000 Ang^3
#
#
#
# Elastic Constant Matrix: (Units=GPa)
#
#
# Indices 1 2 3 4 5 6 
#
# 1 70.0842 6.6829 13.4738 0.0000 17.9928 0.0000
# 2 6.6829 38.5365 11.7757 0.0000 -2.5675 0.0000
# 3 13.4738 11.7757 116.6061 0.0000 -4.8531 0.0000
# 4 0.0000 0.0000 0.0000 27.4111 0.0000 5.3192
# 5 17.9928 -2.5675 -4.8531 0.0000 31.6843 0.0000
# 6 0.0000 0.0000 0.0000 5.3192 0.0000 28.6131
#
#
#
# Elastic Compliance Matrix: (Units=1/GPa)
#
#
# Indices 1 2 3 4 5 6 
#
# 1 0.017718 -0.003117 -0.002176 0.000000 -0.010647 0.000000
# 2 -0.003117 0.027423 -0.002257 0.000000 0.003647 0.000000
# 3 -0.002176 -0.002257 0.009157 0.000000 0.002455 0.000000
# 4 0.000000 0.000000 0.000000 0.037847 0.000000 -0.007036
# 5 -0.010647 0.003647 0.002455 0.000000 0.038279 0.000000
# 6 0.000000 0.000000 0.000000 -0.007036 0.000000 0.036257
#
#
# Mechanical properties :
#
#
# Convention : Reuss Voigt Hill
#
# Bulk Modulus (GPa) = 25.51185 32.12129 28.81657
# Shear Modulus (GPa) = 25.66120 30.42800 28.04460
#
# Velocity S-wave (km/s) = 3.36299 3.66204 3.51570
# Velocity P-wave (km/s) = 5.13064 5.66018 5.40190
#
# Compressibility (1/GPa) = 0.03919748
#
# Stress axis : x y z
#
# Youngs Moduli (GPa) = 56.44136 36.46610 109.20109
#
# Poissons Ratio (x) = 0.11367 0.23758
# Poissons Ratio (y) = 0.17593 0.24651
# Poissons Ratio (z) = 0.12279 0.08232
#
# Static dielectric constant tensor:
#      x y z
#    x 1.916550 0.000000 -0.107920 
#    y 0.000000 1.862320 0.000000 
#    z -0.107920 0.000000 1.985970 
# 
# From -- ./inp_files/42062.got.cif
#   From: 2010.05.17/outbox.cif.g08.bks.cpg/sg14_22_cif.got.tgz:42062.got - 2010.06.03 17:49:19.
