data_PCOD9244912
_publ_section_title
;
Structure prediction by ZEFSAII (Michael W. Deem and Ramdas Pophale) SiO2 
 PCOD9244912
Probable space group: P 21/C
;
_chemical_formula_sum "Si O2"
_cell_formula_units_Z 32
_cell_length_a 5.161015
_cell_length_b 18.071671
_cell_length_c 15.306056
_cell_angle_alpha 90.000000
_cell_angle_beta 88.240897
_cell_angle_gamma 90.000000
_cell_volume 1426.894983
_symmetry_space_group_name_H-M "P 21/C"
_symmetry_group_IT_number 14
_symmetry_cell_setting 'monoclinic'
loop_
_space_group_symop_operation_xyz
x,y,z
-x,1/2+y,1/2-z
-x,-y,-z
x,1/2-y,1/2+z
loop_
_atom_site_type_symbol
_atom_site_label
_atom_site_fract_x
_atom_site_fract_y
_atom_site_fract_z
Si Si1 0.753902 0.807144 0.260223
Si Si2 0.496469 0.757224 0.029205
Si Si3 0.238390 0.609033 0.246840
Si Si4 0.499029 0.500819 0.635519
Si Si5 0.251941 0.345202 0.845192
Si Si6 0.151943 0.630922 0.625946
Si Si7 0.237998 0.766344 0.351299
Si Si8 0.796156 0.905995 0.986875
O O1 0.889901 0.856523 0.183581
O O2 0.962675 0.803351 0.335608
O O3 0.761857 0.726922 0.215825
O O4 0.465624 0.812355 0.300287
O O5 0.678319 0.691708 0.062651
O O6 0.313730 0.793341 0.107620
O O7 0.675110 0.824707 0.995241
O O8 0.313900 0.736285 0.951234
O O9 0.289102 0.538418 0.306853
O O10 0.495899 0.611533 0.186428
O O11 0.231245 0.682818 0.309466
O O12 0.001622 0.610649 0.181325
O O13 0.325510 0.569016 0.669775
O O14 0.288822 0.439289 0.604921
O O15 0.656134 0.538567 0.555195
O O16 0.078722 0.602803 0.528071
#
# Coordination Sequence:
#
# PCOD9244912 Si02
#       8
#     4   4   4   4   4   4   4   4
#     4  10  21  37  53  84 113 156 196 246 291 349
#     4  11  21  36  58  89 116 161 195 250 302 357
#     4  10  21  37  54  82 116 157 197 244 285 360
#     4  10  22  36  52  86 121 167 201 235 291 359
#     4  10  21  35  57  79 114 152 200 245 298 343
#     4  11  22  35  61  81 125 163 204 243 293 362
#     4  10  22  35  58  82 118 151 197 244 301 346
#     4  10  21  35  54  84 127 159 201 235 286 370
#
# _framework density 22.426317000000001
#
# number of rings (size 3 to 8) (size 9 to 14) (size 15 to 20)
#    0.000    1.750    2.500    2.625    5.250    1.000 
#    0.000    0.000    0.000    0.000    0.000    5.250 
#    0.000    0.000    0.000    0.000    0.000    0.000 
#
# Total GULP energy -178752.300685 kJ/mol
# GULP energy per Si atom -5586.009396 kJ/mol
# Density = 2.237527 g / cm^3
# Si number density = 22.426317 Si / 1000 Ang^3
#
#
#
# Elastic Constant Matrix: (Units=GPa)
#
#
# Indices 1 2 3 4 5 6 
#
# 1 68.9637 4.1552 10.2814 0.0000 22.8105 0.0000
# 2 4.1552 30.3706 20.8597 0.0000 3.6951 0.0000
# 3 10.2814 20.8597 86.1917 0.0000 32.4502 0.0000
# 4 0.0000 0.0000 0.0000 24.3646 0.0000 14.2682
# 5 22.8105 3.6951 32.4502 0.0000 41.9785 0.0000
# 6 0.0000 0.0000 0.0000 14.2682 0.0000 13.3698
#
#
#
# Elastic Compliance Matrix: (Units=1/GPa)
#
#
# Indices 1 2 3 4 5 6 
#
# 1 0.018204 -0.003174 0.003125 0.000000 -0.012028 0.000000
# 2 -0.003174 0.040972 -0.012453 0.000000 0.007744 0.000000
# 3 0.003125 -0.012453 0.020410 0.000000 -0.016379 0.000000
# 4 0.000000 0.000000 0.000000 0.109439 0.000000 -0.116793
# 5 -0.012028 0.007744 -0.016379 0.000000 0.042337 0.000000
# 6 0.000000 0.000000 0.000000 -0.116793 0.000000 0.199437
#
#
# Mechanical properties :
#
#
# Convention : Reuss Voigt Hill
#
# Bulk Modulus (GPa) = 18.32085 28.45763 23.38924
# Shear Modulus (GPa) = 10.54862 25.95788 18.25325
#
# Velocity S-wave (km/s) = 2.17115 3.40586 2.85603
# Velocity P-wave (km/s) = 3.80424 5.30881 4.61821
#
# Compressibility (1/GPa) = 0.05458261
#
# Stress axis : x y z
#
# Youngs Moduli (GPa) = 54.93237 24.40712 48.99668
#
# Poissons Ratio (x) = 0.07746 -0.15312
# Poissons Ratio (y) = 0.17433 0.61015
# Poissons Ratio (z) = -0.17167 0.30394
#
# Static dielectric constant tensor:
#      x y z
#    x 1.936350 0.000000 -0.013730 
#    y 0.000000 1.855860 0.000000 
#    z -0.013730 0.000000 1.958740 
# 
# From -- ./inp_files/53640.got.cif
#   From: 2010.05.17/outbox.cif.g08.bks.cpg/sg14_27_cif.got.tgz:53640.got - 2010.06.03 17:49:19.
