data_PCOD9244381
_publ_section_title
;
Structure prediction by ZEFSAII (Michael W. Deem and Ramdas Pophale) SiO2 
 PCOD9244381
Probable space group: P 21/C
;
_chemical_formula_sum "Si O2"
_cell_formula_units_Z 20
_cell_length_a 8.475479
_cell_length_b 5.025036
_cell_length_c 19.588106
_cell_angle_alpha 90.000000
_cell_angle_beta 54.737694
_cell_angle_gamma 90.000000
_cell_volume 681.179255
_symmetry_space_group_name_H-M "P 21/C"
_symmetry_group_IT_number 14
_symmetry_cell_setting 'monoclinic'
loop_
_space_group_symop_operation_xyz
x,y,z
-x,1/2+y,1/2-z
-x,-y,-z
x,1/2-y,1/2+z
loop_
_atom_site_type_symbol
_atom_site_label
_atom_site_fract_x
_atom_site_fract_y
_atom_site_fract_z
Si Si1 0.399481 0.365592 0.097207
Si Si2 0.004714 0.730235 0.295723
Si Si3 0.187090 0.056131 0.362498
Si Si4 0.531224 0.868330 0.138051
Si Si5 0.797576 0.285437 0.501153
O O1 0.201403 0.266031 0.114651
O O2 0.404013 0.649533 0.131808
O O3 0.606776 0.318847 0.008407
O O4 0.429549 0.149422 0.152037
O O5 0.018951 0.439429 0.260791
O O6 0.164745 0.846997 0.306681
O O7 0.377124 0.240036 0.317646
O O8 0.995282 0.240549 0.412628
O O9 0.190513 0.882892 0.431303
O O10 0.730343 0.926293 0.044116
#
# Coordination Sequence:
#
# PCOD9244381 Si02
#       5
#     4   4   4   4   4
#     4   9  20  40  63  90 130 159 211 267 318 383
#     4  12  28  45  62  89 135 179 219 257 323 391
#     4  10  20  40  69  96 129 166 211 267 324 389
#     4   9  18  38  64  96 123 155 205 262 325 377
#     4   8  19  38  70  99 124 156 217 271 333 370
#
# _framework density 29.360848000000001
#
# number of rings (size 3 to 8) (size 9 to 14) (size 15 to 20)
#    1.200    1.200    0.000    1.800    2.800    0.800 
#    0.000   13.000    0.000    0.000    0.000    0.000 
#    0.000    0.000    0.000    0.000    0.000    0.000 
#
# Total GULP energy -112019.252689 kJ/mol
# GULP energy per Si atom -5600.962634 kJ/mol
# Density = 2.929402 g / cm^3
# Si number density = 29.360848 Si / 1000 Ang^3
#
#
#
# Elastic Constant Matrix: (Units=GPa)
#
#
# Indices 1 2 3 4 5 6 
#
# 1 104.0268 8.7147 7.0532 0.0000 -7.9800 0.0000
# 2 8.7147 148.7779 21.3870 0.0000 10.9331 0.0000
# 3 7.0532 21.3870 81.1186 0.0000 13.2255 0.0000
# 4 0.0000 0.0000 0.0000 34.4622 0.0000 -15.8854
# 5 -7.9800 10.9331 13.2255 0.0000 44.8738 0.0000
# 6 0.0000 0.0000 0.0000 -15.8854 0.0000 37.2129
#
#
#
# Elastic Compliance Matrix: (Units=1/GPa)
#
#
# Indices 1 2 3 4 5 6 
#
# 1 0.009905 -0.000590 -0.001068 0.000000 0.002220 0.000000
# 2 -0.000590 0.007085 -0.001595 0.000000 -0.001361 0.000000
# 3 -0.001068 -0.001595 0.013455 0.000000 -0.003767 0.000000
# 4 0.000000 0.000000 0.000000 0.036126 0.000000 0.015421
# 5 0.002220 -0.001361 -0.003767 0.000000 0.024121 0.000000
# 6 0.000000 0.000000 0.000000 0.015421 0.000000 0.033455
#
#
# Mechanical properties :
#
#
# Convention : Reuss Voigt Hill
#
# Bulk Modulus (GPa) = 41.76981 45.35922 43.56451
# Shear Modulus (GPa) = 36.06652 43.09434 39.58043
#
# Velocity S-wave (km/s) = 3.50864 3.83528 3.67559
# Velocity P-wave (km/s) = 5.53817 5.92409 5.73438
#
# Compressibility (1/GPa) = 0.02394074
#
# Stress axis : x y z
#
# Youngs Moduli (GPa) = 100.95921 141.13803 74.32131
#
# Poissons Ratio (x) = 0.08325 0.07935
# Poissons Ratio (y) = 0.05955 0.11853
# Poissons Ratio (z) = 0.10779 0.22509
#
# Static dielectric constant tensor:
#      x y z
#    x 2.321660 0.000000 -0.057040 
#    y 0.000000 2.267320 0.000000 
#    z -0.057040 0.000000 2.483560 
# 
# From -- ./inp_files/64040.got.cif
#   From: 2010.05.17/outbox.cif.g08.bks.cpg/sg14_33_cif.got.tgz:64040.got - 2010.06.03 17:49:19.
