data_PCOD9244350
_publ_section_title
;
Structure prediction by ZEFSAII (Michael W. Deem and Ramdas Pophale) SiO2 
 PCOD9244350
Probable space group: P 21/C
;
_chemical_formula_sum "Si O2"
_cell_formula_units_Z 28
_cell_length_a 12.738609
_cell_length_b 9.689112
_cell_length_c 21.022782
_cell_angle_alpha 90.000000
_cell_angle_beta 25.378281
_cell_angle_gamma 90.000000
_cell_volume 1112.092513
_symmetry_space_group_name_H-M "P 21/C"
_symmetry_group_IT_number 14
_symmetry_cell_setting 'monoclinic'
loop_
_space_group_symop_operation_xyz
x,y,z
-x,1/2+y,1/2-z
-x,-y,-z
x,1/2-y,1/2+z
loop_
_atom_site_type_symbol
_atom_site_label
_atom_site_fract_x
_atom_site_fract_y
_atom_site_fract_z
Si Si1 0.759367 0.511234 0.407922
Si Si2 0.381983 0.749036 0.813278
Si Si3 0.223588 0.999778 0.735062
Si Si4 0.365089 0.219023 0.453565
Si Si5 0.025991 0.007911 0.337586
Si Si6 0.000000 0.500000 0.000000
Si Si7 0.000000 0.500000 0.500000
Si Si8 0.410300 0.774009 0.441232
O O1 0.367780 0.361348 0.488296
O O2 0.672871 0.364629 0.480615
O O3 0.042556 0.524244 0.276321
O O4 0.765806 0.522118 0.328738
O O5 0.594376 0.755545 0.644179
O O6 0.493475 0.751878 0.822594
O O7 0.222585 0.611215 0.893412
O O8 0.208086 0.879099 0.896324
O O9 0.071164 0.008583 0.884086
O O10 0.374161 0.141101 0.643543
O O11 0.421304 0.879269 0.637332
O O12 0.111341 0.137763 0.598761
O O13 0.824739 0.126514 0.435847
O O14 0.093704 0.010967 0.374125
#
# Coordination Sequence:
#
# PCOD9244350 Si02
#       8
#     4   4   4   4   4   2   2   4
#     4  12  24  47  75 101 147 190 233 300 360 421
#     4  10  22  41  67 104 140 182 238 296 340 428
#     4  10  24  43  69 105 145 186 237 291 356 418
#     4  10  25  42  71 107 137 186 242 287 355 429
#     4  10  24  47  70 100 144 184 236 297 360 424
#     4  10  24  44  72 100 138 186 230 298 358 420
#     4  10  20  40  68 100 134 196 232 286 358 400
#     4  10  23  43  67 109 140 186 239 288 353 428
#
# _framework density 25.177761
#
# number of rings (size 3 to 8) (size 9 to 14) (size 15 to 20)
#    0.000    1.714    1.429    0.857    6.000    5.714 
#    2.571    0.714    3.143    0.000    0.000    0.000 
#    0.000    0.000    0.000    0.000    0.000    0.000 
#
# Total GULP energy -156186.005071 kJ/mol
# GULP energy per Si atom -5578.071610 kJ/mol
# Density = 2.512046 g / cm^3
# Si number density = 25.177761 Si / 1000 Ang^3
#
#
#
# Elastic Constant Matrix: (Units=GPa)
#
#
# Indices 1 2 3 4 5 6 
#
# 1 100.0644 25.8641 31.7340 0.0000 28.0063 0.0000
# 2 25.8641 102.6046 38.7200 0.0000 15.3904 0.0000
# 3 31.7340 38.7200 60.3560 0.0000 31.5148 0.0000
# 4 0.0000 0.0000 0.0000 31.9060 0.0000 0.4828
# 5 28.0063 15.3904 31.5148 0.0000 54.5221 0.0000
# 6 0.0000 0.0000 0.0000 0.4828 0.0000 3.8293
#
#
#
# Elastic Compliance Matrix: (Units=1/GPa)
#
#
# Indices 1 2 3 4 5 6 
#
# 1 0.012608 -0.001137 -0.003847 0.000000 -0.003932 0.000000
# 2 -0.001137 0.013064 -0.008826 0.000000 0.001998 0.000000
# 3 -0.003847 -0.008826 0.031396 0.000000 -0.013680 0.000000
# 4 0.000000 0.000000 0.000000 0.031402 0.000000 -0.003959
# 5 -0.003932 0.001998 -0.013680 0.000000 0.027704 0.000000
# 6 0.000000 0.000000 0.000000 -0.003959 0.000000 0.261643
#
#
# Mechanical properties :
#
#
# Convention : Reuss Voigt Hill
#
# Bulk Modulus (GPa) = 33.95769 50.62905 42.29337
# Shear Modulus (GPa) = 12.04085 29.16527 20.60306
#
# Velocity S-wave (km/s) = 2.18923 3.40718 2.86370
# Velocity P-wave (km/s) = 4.46170 5.96916 5.26961
#
# Compressibility (1/GPa) = 0.02944841
#
# Stress axis : x y z
#
# Youngs Moduli (GPa) = 79.31620 76.54724 31.85071
#
# Poissons Ratio (x) = 0.08701 0.12252
# Poissons Ratio (y) = 0.09016 0.28113
# Poissons Ratio (z) = 0.30510 0.67564
#
# Static dielectric constant tensor:
#      x y z
#    x 1.973120 0.000000 -0.027540 
#    y 0.000000 1.958180 0.000000 
#    z -0.027540 0.000000 2.007360 
# 
# From -- ./inp_files/67344.got.cif
#   From: 2010.05.17/outbox.cif.g08.bks.cpg/sg14_34_cif.got.tgz:67344.got - 2010.06.03 17:49:19.
