data_PCOD9244353
_publ_section_title
;
Structure prediction by ZEFSAII (Michael W. Deem and Ramdas Pophale) SiO2 
 PCOD9244353
Probable space group: P 21/C
;
_chemical_formula_sum "Si O2"
_cell_formula_units_Z 32
_cell_length_a 11.332644
_cell_length_b 16.315944
_cell_length_c 17.508769
_cell_angle_alpha 90.000000
_cell_angle_beta 151.056951
_cell_angle_gamma 90.000000
_cell_volume 1566.717185
_symmetry_space_group_name_H-M "P 21/C"
_symmetry_group_IT_number 14
_symmetry_cell_setting 'monoclinic'
loop_
_space_group_symop_operation_xyz
x,y,z
-x,1/2+y,1/2-z
-x,-y,-z
x,1/2-y,1/2+z
loop_
_atom_site_type_symbol
_atom_site_label
_atom_site_fract_x
_atom_site_fract_y
_atom_site_fract_z
Si Si1 0.048383 0.458942 0.445248
Si Si2 0.461865 0.959943 0.395218
Si Si3 0.222921 0.461572 0.200017
Si Si4 0.469584 0.923240 0.711952
Si Si5 0.274334 0.899546 0.968937
Si Si6 0.029073 0.397950 0.853630
Si Si7 0.122362 0.200968 0.548416
Si Si8 0.680656 0.241418 0.883320
O O1 0.285853 0.405443 0.599307
O O2 0.124841 0.532465 0.431980
O O3 0.000000 0.500000 0.500000
O O4 0.804812 0.421127 0.270799
O O5 0.476868 0.026839 0.335180
O O6 0.500000 0.000000 0.500000
O O7 0.690239 0.900844 0.512428
O O8 0.317013 0.518873 0.183389
O O9 0.454721 0.436448 0.382427
O O10 0.133213 0.377781 0.111231
O O11 0.039537 0.514722 0.146576
O O12 0.351290 0.838013 0.621216
O O13 0.146670 0.885401 0.816753
O O14 0.286785 0.816805 0.025457
O O15 0.001780 0.329728 0.902344
O O16 0.410389 0.218594 0.698374
O O17 0.931851 0.265724 0.476934
#
# Coordination Sequence:
#
# PCOD9244353 Si02
#       8
#     4   4   4   4   4   4   4   4
#     4   9  20  36  62  89 119 161 208 252 306 372
#     4  11  21  34  60 101 126 155 202 269 322 365
#     4  10  20  42  68  96 116 164 225 266 309 377
#     4  10  20  40  68  88 120 167 222 259 303 386
#     4  10  23  40  62  91 131 162 201 270 324 380
#     4  12  21  39  66  94 129 159 214 270 322 373
#     4  11  24  41  67  93 126 172 219 266 314 396
#     4  11  25  42  62  89 128 176 211 253 329 384
#
# _framework density 20.424873000000002
#
# number of rings (size 3 to 8) (size 9 to 14) (size 15 to 20)
#    0.000    1.500    3.750    1.500    5.250    0.000 
#    0.000    5.000    0.000    0.000    0.000    0.000 
#    0.000    0.000    0.000    0.000    0.000    0.000 
#
# Total GULP energy -178524.610154 kJ/mol
# GULP energy per Si atom -5578.894067 kJ/mol
# Density = 2.037839 g / cm^3
# Si number density = 20.424873 Si / 1000 Ang^3
#
#
#
# Elastic Constant Matrix: (Units=GPa)
#
#
# Indices 1 2 3 4 5 6 
#
# 1 59.1764 9.3167 53.3269 0.0000 -0.6847 0.0000
# 2 9.3167 51.5799 23.4270 0.0000 1.0194 0.0000
# 3 53.3269 23.4270 169.3986 0.0000 -6.8262 0.0000
# 4 0.0000 0.0000 0.0000 17.6391 0.0000 6.3023
# 5 -0.6847 1.0194 -6.8262 0.0000 42.8221 0.0000
# 6 0.0000 0.0000 0.0000 6.3023 0.0000 27.0532
#
#
#
# Elastic Compliance Matrix: (Units=1/GPa)
#
#
# Indices 1 2 3 4 5 6 
#
# 1 0.023660 -0.000919 -0.007352 0.000000 -0.000772 0.000000
# 2 -0.000919 0.020761 -0.002619 0.000000 -0.000926 0.000000
# 3 -0.007352 -0.002619 0.008633 0.000000 0.001321 0.000000
# 4 0.000000 0.000000 0.000000 0.061839 0.000000 -0.014406
# 5 -0.000772 -0.000926 0.001321 0.000000 0.023573 0.000000
# 6 0.000000 0.000000 0.000000 -0.014406 0.000000 0.040320
#
#
# Mechanical properties :
#
#
# Convention : Reuss Voigt Hill
#
# Bulk Modulus (GPa) = 31.97605 50.25513 41.11559
# Shear Modulus (GPa) = 23.69762 30.44185 27.06973
#
# Velocity S-wave (km/s) = 3.40991 3.86480 3.64446
# Velocity P-wave (km/s) = 5.58505 6.67636 6.15494
#
# Compressibility (1/GPa) = 0.03127341
#
# Stress axis : x y z
#
# Youngs Moduli (GPa) = 42.26587 48.16652 115.83273
#
# Poissons Ratio (x) = 0.04427 0.85161
# Poissons Ratio (y) = 0.03885 0.30339
# Poissons Ratio (z) = 0.31074 0.12616
#
# Static dielectric constant tensor:
#      x y z
#    x 1.746380 0.000000 0.076290 
#    y 0.000000 1.724070 0.000000 
#    z 0.076290 0.000000 1.781590 
# 
# From -- ./inp_files/58024.got.cif
#   From: 2010.05.17/outbox.cif.g08.bks.cpg/sg14_30_cif.got.tgz:58024.got - 2010.06.03 17:49:19.
