data_PCOD9244468
_publ_section_title
;
Structure prediction by ZEFSAII (Michael W. Deem and Ramdas Pophale) SiO2 
 PCOD9244468
Probable space group: P 21/C
;
_chemical_formula_sum "Si O2"
_cell_formula_units_Z 32
_cell_length_a 6.416556
_cell_length_b 10.820040
_cell_length_c 20.469955
_cell_angle_alpha 90.000000
_cell_angle_beta 69.650361
_cell_angle_gamma 90.000000
_cell_volume 1332.477205
_symmetry_space_group_name_H-M "P 21/C"
_symmetry_group_IT_number 14
_symmetry_cell_setting 'monoclinic'
loop_
_space_group_symop_operation_xyz
x,y,z
-x,1/2+y,1/2-z
-x,-y,-z
x,1/2-y,1/2+z
loop_
_atom_site_type_symbol
_atom_site_label
_atom_site_fract_x
_atom_site_fract_y
_atom_site_fract_z
Si Si1 0.168158 0.193955 0.494182
Si Si2 0.592357 0.694829 0.832266
Si Si3 0.487609 0.160854 0.807162
Si Si4 0.211687 0.053286 0.158271
Si Si5 0.946646 0.001886 0.304826
Si Si6 0.640895 0.314496 0.907205
Si Si7 0.993999 0.881954 0.088116
Si Si8 0.817515 0.042907 0.601618
O O1 0.431738 0.190378 0.478547
O O2 0.086719 0.325011 0.472810
O O3 0.007959 0.145276 0.567960
O O4 0.144833 0.081309 0.443835
O O5 0.495261 0.703792 0.769266
O O6 0.637878 0.825736 0.860178
O O7 0.828450 0.625515 0.799944
O O8 0.413463 0.609392 0.888441
O O9 0.534230 0.275036 0.849835
O O10 0.233681 0.120408 0.846414
O O11 0.645544 0.055429 0.821729
O O12 0.117522 0.006982 0.098803
O O13 0.009789 0.073631 0.232024
O O14 0.166702 0.992138 0.324453
O O15 0.776601 0.064761 0.374078
O O16 0.826990 0.219257 0.909281
#
# Coordination Sequence:
#
# PCOD9244468 Si02
#       8
#     4   4   4   4   4   4   4   4
#     4  10  22  41  66  89 129 170 222 264 318 383
#     4  12  25  39  61  95 133 166 209 265 329 393
#     4  10  22  38  61  90 124 168 206 255 325 387
#     4  11  25  38  62  95 129 166 210 263 331 400
#     4  12  23  37  61  96 128 164 205 266 336 376
#     4  10  21  36  64  92 122 163 212 257 310 390
#     4  10  20  41  64  90 121 170 212 259 316 384
#     4  11  24  40  60  97 131 170 210 275 322 374
#
# _framework density 24.015419000000001
#
# number of rings (size 3 to 8) (size 9 to 14) (size 15 to 20)
#    0.000    1.250    5.000    0.750    5.250    2.500 
#    0.000    0.625    0.000    7.500    0.000    0.000 
#    0.000    0.000    0.000    0.000    0.000    0.000 
#
# Total GULP energy -178609.950866 kJ/mol
# GULP energy per Si atom -5581.560965 kJ/mol
# Density = 2.396076 g / cm^3
# Si number density = 24.015419 Si / 1000 Ang^3
#
#
#
# Elastic Constant Matrix: (Units=GPa)
#
#
# Indices 1 2 3 4 5 6 
#
# 1 98.8175 28.0292 19.9576 0.0000 -9.4300 0.0000
# 2 28.0292 60.5697 12.5026 0.0000 10.3692 0.0000
# 3 19.9576 12.5026 48.4906 0.0000 12.9057 0.0000
# 4 0.0000 0.0000 0.0000 16.5133 0.0000 3.3317
# 5 -9.4300 10.3692 12.9057 0.0000 27.7856 0.0000
# 6 0.0000 0.0000 0.0000 3.3317 0.0000 39.4827
#
#
#
# Elastic Compliance Matrix: (Units=1/GPa)
#
#
# Indices 1 2 3 4 5 6 
#
# 1 0.014629 -0.007180 -0.007080 0.000000 0.010933 0.000000
# 2 -0.007180 0.021604 0.000204 0.000000 -0.010594 0.000000
# 3 -0.007080 0.000204 0.027549 0.000000 -0.015275 0.000000
# 4 0.000000 0.000000 0.000000 0.061606 0.000000 -0.005199
# 5 0.010933 -0.010594 -0.015275 0.000000 0.050748 0.000000
# 6 0.000000 0.000000 0.000000 -0.005199 0.000000 0.025766
#
#
# Mechanical properties :
#
#
# Convention : Reuss Voigt Hill
#
# Bulk Modulus (GPa) = 28.03325 36.53962 32.28643
# Shear Modulus (GPa) = 20.66936 26.58224 23.62580
#
# Velocity S-wave (km/s) = 2.93690 3.33059 3.13992
# Velocity P-wave (km/s) = 4.81652 5.48075 5.15933
#
# Compressibility (1/GPa) = 0.03567192
#
# Stress axis : x y z
#
# Youngs Moduli (GPa) = 68.35552 46.28769 36.29904
#
# Poissons Ratio (x) = 0.33235 0.25698
# Poissons Ratio (y) = 0.49080 -0.00742
# Poissons Ratio (z) = 0.48393 -0.00947
#
# Static dielectric constant tensor:
#      x y z
#    x 1.969590 0.000000 -0.044060 
#    y 0.000000 1.904280 0.000000 
#    z -0.044060 0.000000 1.929000 
# 
# From -- ./inp_files/71299.got.cif
#   From: 2010.05.17/outbox.cif.g08.bks.cpg/sg14_36_cif.got.tgz:71299.got - 2010.06.03 17:49:19.
