data_PCOD9244327
_publ_section_title
;
Structure prediction by ZEFSAII (Michael W. Deem and Ramdas Pophale) SiO2 
 PCOD9244327
Probable space group: P 21/C
;
_chemical_formula_sum "Si O2"
_cell_formula_units_Z 28
_cell_length_a 11.899068
_cell_length_b 6.933040
_cell_length_c 19.927523
_cell_angle_alpha 90.000000
_cell_angle_beta 141.411455
_cell_angle_gamma 90.000000
_cell_volume 1025.373207
_symmetry_space_group_name_H-M "P 21/C"
_symmetry_group_IT_number 14
_symmetry_cell_setting 'monoclinic'
loop_
_space_group_symop_operation_xyz
x,y,z
-x,1/2+y,1/2-z
-x,-y,-z
x,1/2-y,1/2+z
loop_
_atom_site_type_symbol
_atom_site_label
_atom_site_fract_x
_atom_site_fract_y
_atom_site_fract_z
Si Si1 0.619942 0.775066 0.937629
Si Si2 0.500000 0.500000 0.000000
Si Si3 0.033397 0.751759 0.648844
Si Si4 0.188313 0.821341 0.860707
Si Si5 0.597831 0.863957 0.277540
Si Si6 0.222292 0.728226 0.608955
Si Si7 0.500000 0.000000 0.000000
Si Si8 0.935397 0.711109 0.861673
O O1 0.577926 0.592513 0.967697
O O2 0.832604 0.806322 0.038102
O O3 0.570351 0.727189 0.838586
O O4 0.512077 0.943016 0.924288
O O5 0.612707 0.284910 0.036367
O O6 0.107311 0.720406 0.757680
O O7 0.161406 0.657400 0.653358
O O8 0.038598 0.983547 0.641350
O O9 0.038755 0.810927 0.847888
O O10 0.274787 0.029934 0.888420
O O11 0.392481 0.880011 0.157800
O O12 0.727091 0.758012 0.284535
O O13 0.707566 0.054626 0.347775
O O14 0.051728 0.735777 0.481344
#
# Coordination Sequence:
#
# PCOD9244327 Si02
#       8
#     4   2   4   4   4   4   2   4
#     4  11  21  44  67 100 143 183 228 294 345 426
#     4  10  20  40  66  94 136 184 232 272 352 422
#     4  11  22  42  71  96 136 182 237 280 355 408
#     4  11  24  42  66 102 138 182 232 296 351 422
#     4  11  23  45  72 100 137 185 236 289 360 419
#     4  11  22  44  73  99 135 189 233 291 356 426
#     4  10  26  40  62 100 140 172 228 290 346 398
#     4  11  23  46  70 102 137 186 239 289 350 436
#
# _framework density 27.307130999999998
#
# number of rings (size 3 to 8) (size 9 to 14) (size 15 to 20)
#    0.000    1.143    4.286    2.571    2.000    3.429 
#    7.714    1.429    0.000    0.000    0.000    0.000 
#    0.000    0.000    0.000    0.000    0.000    0.000 
#
# Total GULP energy -155949.984138 kJ/mol
# GULP energy per Si atom -5569.642291 kJ/mol
# Density = 2.724498 g / cm^3
# Si number density = 27.307131 Si / 1000 Ang^3
#
#
#
# Elastic Constant Matrix: (Units=GPa)
#
#
# Indices 1 2 3 4 5 6 
#
# 1 250.6530 10.8789 44.2858 0.0000 14.9108 0.0000
# 2 10.8789 64.5033 -1.2458 0.0000 -13.3634 0.0000
# 3 44.2858 -1.2458 82.2752 0.0000 25.2854 0.0000
# 4 0.0000 0.0000 0.0000 32.0184 0.0000 6.3381
# 5 14.9108 -13.3634 25.2854 0.0000 41.7816 0.0000
# 6 0.0000 0.0000 0.0000 6.3381 0.0000 39.3028
#
#
#
# Elastic Compliance Matrix: (Units=1/GPa)
#
#
# Indices 1 2 3 4 5 6 
#
# 1 0.004458 -0.000902 -0.002255 0.000000 -0.000515 0.000000
# 2 -0.000902 0.016981 -0.001260 0.000000 0.006515 0.000000
# 3 -0.002255 -0.001260 0.016247 0.000000 -0.009431 0.000000
# 4 0.000000 0.000000 0.000000 0.032262 0.000000 -0.005203
# 5 -0.000515 0.006515 -0.009431 0.000000 0.031909 0.000000
# 6 0.000000 0.000000 0.000000 -0.005203 0.000000 0.026282
#
#
# Mechanical properties :
#
#
# Convention : Reuss Voigt Hill
#
# Bulk Modulus (GPa) = 34.65905 56.14105 45.40005
# Shear Modulus (GPa) = 34.10879 45.52141 39.81510
#
# Velocity S-wave (km/s) = 3.53807 4.08734 3.82258
# Velocity P-wave (km/s) = 5.42314 6.54820 6.01204
#
# Compressibility (1/GPa) = 0.02885249
#
# Stress axis : x y z
#
# Youngs Moduli (GPa) = 224.32836 58.89041 61.54862
#
# Poissons Ratio (x) = 0.05312 0.13879
# Poissons Ratio (y) = 0.20235 0.07753
# Poissons Ratio (z) = 0.50584 0.07418
#
# Static dielectric constant tensor:
#      x y z
#    x 2.854020 0.000000 -0.295190 
#    y 0.000000 1.795690 0.000000 
#    z -0.295190 0.000000 2.285410 
# 
# From -- ./inp_files/59058.got.cif
#   From: 2010.05.17/outbox.cif.g08.bks.cpg/sg14_30_cif.got.tgz:59058.got - 2010.06.03 17:49:19.
