data_PCOD9244628
_publ_section_title
;
Structure prediction by ZEFSAII (Michael W. Deem and Ramdas Pophale) SiO2 
 PCOD9244628
Probable space group: P 21/C
;
_chemical_formula_sum "Si O2"
_cell_formula_units_Z 30
_cell_length_a 10.742596
_cell_length_b 12.849690
_cell_length_c 20.894718
_cell_angle_alpha 90.000000
_cell_angle_beta 153.357993
_cell_angle_gamma 90.000000
_cell_volume 1293.355996
_symmetry_space_group_name_H-M "P 21/C"
_symmetry_group_IT_number 14
_symmetry_cell_setting 'monoclinic'
loop_
_space_group_symop_operation_xyz
x,y,z
-x,1/2+y,1/2-z
-x,-y,-z
x,1/2-y,1/2+z
loop_
_atom_site_type_symbol
_atom_site_label
_atom_site_fract_x
_atom_site_fract_y
_atom_site_fract_z
Si Si1 0.880850 0.662031 0.896586
Si Si2 0.258424 0.446497 0.928580
Si Si3 0.621721 0.506507 0.873899
Si Si4 0.823378 0.898550 0.900649
Si Si5 0.500000 0.500000 0.500000
Si Si6 0.367576 0.136535 0.051002
Si Si7 0.927779 0.251041 0.269514
Si Si8 0.151362 0.370256 0.264559
O O1 0.660648 0.599064 0.839758
O O2 0.939884 0.781506 0.944110
O O3 0.798091 0.666396 0.783634
O O4 0.141214 0.582945 0.021451
O O5 0.352475 0.441980 0.045038
O O6 0.500000 0.500000 0.000000
O O7 0.152988 0.337271 0.855652
O O8 0.973878 0.513128 0.795579
O O9 0.344452 0.440257 0.737426
O O10 0.620896 0.884821 0.868510
O O11 0.000000 0.000000 0.000000
O O12 0.617082 0.531753 0.483167
O O13 0.408716 0.383604 0.430341
O O14 0.636576 0.204921 0.157200
O O15 0.075479 0.188262 0.895819
O O16 0.915135 0.313375 0.197539
#
# Coordination Sequence:
#
# PCOD9244628 Si02
#       8
#     4   4   4   4   2   4   4   4
#     4  10  24  47  71 100 146 193 239 299 362 446
#     4  11  23  42  68 101 139 182 238 293 357 437
#     4  10  25  46  73  99 141 197 234 297 375 428
#     4  12  29  44  72 110 143 189 250 303 364 448
#     4  10  20  42  66 100 136 184 232 300 350 436
#     4  11  25  43  71 101 146 186 240 299 367 433
#     4  11  24  43  71 104 139 191 235 295 367 432
#     4  10  22  41  68 101 137 185 233 291 367 416
#
# _framework density 23.19547
#
# number of rings (size 3 to 8) (size 9 to 14) (size 15 to 20)
#    0.000    1.333    1.333    2.400    9.333    4.267 
#    2.400    0.000    0.000    0.000    0.000    0.000 
#    0.000    0.000    0.000    0.000    0.000    0.000 
#
# Total GULP energy -167007.553553 kJ/mol
# GULP energy per Si atom -5566.918452 kJ/mol
# Density = 2.314268 g / cm^3
# Si number density = 23.195470 Si / 1000 Ang^3
#
#
#
# Elastic Constant Matrix: (Units=GPa)
#
#
# Indices 1 2 3 4 5 6 
#
# 1 63.9831 36.0546 -2.1985 0.0000 -2.3195 0.0000
# 2 36.0546 109.7718 30.5750 0.0000 -6.8836 0.0000
# 3 -2.1985 30.5750 39.8364 0.0000 7.5774 0.0000
# 4 0.0000 0.0000 0.0000 18.7140 0.0000 4.0349
# 5 -2.3195 -6.8836 7.5774 0.0000 24.5135 0.0000
# 6 0.0000 0.0000 0.0000 4.0349 0.0000 29.9473
#
#
#
# Elastic Compliance Matrix: (Units=1/GPa)
#
#
# Indices 1 2 3 4 5 6 
#
# 1 0.021401 -0.009901 0.009481 0.000000 -0.003686 0.000000
# 2 -0.009901 0.017189 -0.015383 0.000000 0.008645 0.000000
# 3 0.009481 -0.015383 0.040463 0.000000 -0.015930 0.000000
# 4 0.000000 0.000000 0.000000 0.055035 0.000000 -0.007415
# 5 -0.003686 0.008645 -0.015930 0.000000 0.047797 0.000000
# 6 0.000000 0.000000 0.000000 -0.007415 0.000000 0.034391
#
#
# Mechanical properties :
#
#
# Convention : Reuss Voigt Hill
#
# Bulk Modulus (GPa) = 21.07646 38.05038 29.56342
# Shear Modulus (GPa) = 18.96121 24.57899 21.77010
#
# Velocity S-wave (km/s) = 2.86222 3.25875 3.06690
# Velocity P-wave (km/s) = 4.47540 5.53165 5.03132
#
# Compressibility (1/GPa) = 0.04744629
#
# Stress axis : x y z
#
# Youngs Moduli (GPa) = 46.72771 58.17770 24.71390
#
# Poissons Ratio (x) = 0.57602 -0.23432
# Poissons Ratio (y) = 0.46265 0.38018
# Poissons Ratio (z) = -0.44305 0.89497
#
# Static dielectric constant tensor:
#      x y z
#    x 1.869980 0.000000 0.011180 
#    y 0.000000 1.871660 0.000000 
#    z 0.011180 0.000000 1.881720 
# 
# From -- ./inp_files/67433.got.cif
#   From: 2010.05.17/outbox.cif.g08.bks.cpg/sg14_34_cif.got.tgz:67433.got - 2010.06.03 17:49:19.
