data_PCOD9244666
_publ_section_title
;
Structure prediction by ZEFSAII (Michael W. Deem and Ramdas Pophale) SiO2 
 PCOD9244666
Probable space group: P 21/C
;
_chemical_formula_sum "Si O2"
_cell_formula_units_Z 30
_cell_length_a 6.888560
_cell_length_b 27.177690
_cell_length_c 8.547611
_cell_angle_alpha 90.000000
_cell_angle_beta 122.080972
_cell_angle_gamma 90.000000
_cell_volume 1355.882631
_symmetry_space_group_name_H-M "P 21/C"
_symmetry_group_IT_number 14
_symmetry_cell_setting 'monoclinic'
loop_
_space_group_symop_operation_xyz
x,y,z
-x,1/2+y,1/2-z
-x,-y,-z
x,1/2-y,1/2+z
loop_
_atom_site_type_symbol
_atom_site_label
_atom_site_fract_x
_atom_site_fract_y
_atom_site_fract_z
Si Si1 0.019196 0.032480 0.768105
Si Si2 0.627735 0.182378 0.398183
Si Si3 0.397909 0.235860 0.017942
Si Si4 0.651096 0.585121 0.148632
Si Si5 0.388837 0.086862 0.715642
Si Si6 0.162820 0.187569 0.629500
Si Si7 0.879313 0.070421 0.041393
Si Si8 0.500000 0.000000 0.500000
O O1 0.193122 0.060457 0.729058
O O2 0.128336 0.981330 0.872771
O O3 0.774462 0.021394 0.586622
O O4 0.971133 0.064246 0.903738
O O5 0.554989 0.204150 0.199738
O O6 0.543228 0.223442 0.485860
O O7 0.502371 0.130756 0.374016
O O8 0.897482 0.176026 0.525154
O O9 0.214813 0.266062 0.041952
O O10 0.266476 0.201297 0.841389
O O11 0.599899 0.532756 0.204686
O O12 0.916823 0.598939 0.280658
O O13 0.580132 0.561667 0.943693
O O14 0.301827 0.140555 0.629383
O O15 0.624256 0.090792 0.910926
#
# Coordination Sequence:
#
# PCOD9244666 Si02
#       8
#     4   4   4   4   4   4   4   2
#     4  10  22  43  66  93 131 175 217 265 328 376
#     4  11  23  45  67  97 133 168 218 272 325 398
#     4  10  24  45  65  98 128 170 214 269 333 391
#     4  11  24  42  65  97 132 172 216 268 324 389
#     4  12  24  42  65  98 129 171 219 267 325 388
#     4  11  24  42  69  96 127 169 213 268 331 388
#     4  10  24  44  61  94 134 172 219 266 314 391
#     4  10  20  42  68  92 128 176 212 268 322 378
#
# _framework density 22.125810999999999
#
# number of rings (size 3 to 8) (size 9 to 14) (size 15 to 20)
#    0.000    1.333    2.667    2.000    1.867    3.200 
#   16.800    0.000    0.000    0.000    0.000    0.000 
#    0.000    0.000    0.000    0.000    0.000    0.000 
#
# Total GULP energy -167456.591605 kJ/mol
# GULP energy per Si atom -5581.886387 kJ/mol
# Density = 2.207545 g / cm^3
# Si number density = 22.125811 Si / 1000 Ang^3
#
#
#
# Elastic Constant Matrix: (Units=GPa)
#
#
# Indices 1 2 3 4 5 6 
#
# 1 79.7148 31.0261 55.1420 0.0000 37.5698 0.0000
# 2 31.0261 96.7267 39.7126 0.0000 16.3888 0.0000
# 3 55.1420 39.7126 109.5379 0.0000 27.0598 0.0000
# 4 0.0000 0.0000 0.0000 51.0773 0.0000 14.7406
# 5 37.5698 16.3888 27.0598 0.0000 50.1655 0.0000
# 6 0.0000 0.0000 0.0000 14.7406 0.0000 28.2918
#
#
#
# Elastic Compliance Matrix: (Units=1/GPa)
#
#
# Indices 1 2 3 4 5 6 
#
# 1 0.026253 -0.002392 -0.008866 0.000000 -0.014097 0.000000
# 2 -0.002392 0.012513 -0.003190 0.000000 -0.000576 0.000000
# 3 -0.008866 -0.003190 0.014827 0.000000 -0.000316 0.000000
# 4 0.000000 0.000000 0.000000 0.023043 0.000000 -0.012006
# 5 -0.014097 -0.000576 -0.000316 0.000000 0.030850 0.000000
# 6 0.000000 0.000000 0.000000 -0.012006 0.000000 0.041601
#
#
# Mechanical properties :
#
#
# Convention : Reuss Voigt Hill
#
# Bulk Modulus (GPa) = 40.49210 59.74898 50.12054
# Shear Modulus (GPa) = 26.85056 36.58017 31.71536
#
# Velocity S-wave (km/s) = 3.48737 4.07047 3.79015
# Velocity P-wave (km/s) = 5.87845 7.01102 6.46957
#
# Compressibility (1/GPa) = 0.02469618
#
# Stress axis : x y z
#
# Youngs Moduli (GPa) = 38.09116 79.91687 67.44447
#
# Poissons Ratio (x) = 0.19118 0.59796
# Poissons Ratio (y) = 0.09112 0.21515
# Poissons Ratio (z) = 0.33772 0.25494
#
# Static dielectric constant tensor:
#      x y z
#    x 1.834240 0.000000 -0.059290 
#    y 0.000000 1.868870 0.000000 
#    z -0.059290 0.000000 1.887160 
# 
# From -- ./inp_files/7026.got.cif
#   From: 2010.05.17/outbox.cif.g08.bks.cpg/sg14_4_cif.got.tgz:7026.got - 2010.06.03 17:49:19.
