data_PCOD9244056
_publ_section_title
;
Structure prediction by ZEFSAII (Michael W. Deem and Ramdas Pophale) SiO2 
 PCOD9244056
Probable space group: P 21/C
;
_chemical_formula_sum "Si O2"
_cell_formula_units_Z 24
_cell_length_a 8.375640
_cell_length_b 23.640960
_cell_length_c 10.869117
_cell_angle_alpha 90.000000
_cell_angle_beta 149.933632
_cell_angle_gamma 90.000000
_cell_volume 1078.245220
_symmetry_space_group_name_H-M "P 21/C"
_symmetry_group_IT_number 14
_symmetry_cell_setting 'monoclinic'
loop_
_space_group_symop_operation_xyz
x,y,z
-x,1/2+y,1/2-z
-x,-y,-z
x,1/2-y,1/2+z
loop_
_atom_site_type_symbol
_atom_site_label
_atom_site_fract_x
_atom_site_fract_y
_atom_site_fract_z
Si Si1 0.673901 0.071904 0.315528
Si Si2 0.906358 0.170684 0.619072
Si Si3 0.534903 0.384380 0.483927
Si Si4 0.978250 0.302556 0.668747
Si Si5 0.644103 0.348162 0.195207
Si Si6 0.368258 0.050382 0.651596
O O1 0.664731 0.129662 0.385916
O O2 0.455841 0.080045 0.051885
O O3 0.015910 0.062483 0.473453
O O4 0.607439 0.016435 0.350554
O O5 0.871403 0.237661 0.597574
O O6 0.893290 0.150437 0.750865
O O7 0.233478 0.156415 0.766928
O O8 0.822750 0.340241 0.673965
O O9 0.586986 0.429391 0.411329
O O10 0.826242 0.326636 0.439661
O O11 0.355032 0.309290 0.947660
O O12 0.476644 0.408164 0.115592
#
# Coordination Sequence:
#
# PCOD9244056 Si02
#       6
#     4   4   4   4   4   4
#     4  10  20  39  65  92 126 169 219 260 321 384
#     4  11  26  37  63  97 128 166 210 273 321 380
#     4  10  21  41  64  94 122 173 219 260 320 382
#     4  11  25  43  66  89 133 171 215 256 320 394
#     4  11  25  44  65  97 127 171 213 270 327 370
#     4   9  20  40  65  91 125 170 220 263 315 389
#
# _framework density 22.258386000000002
#
# number of rings (size 3 to 8) (size 9 to 14) (size 15 to 20)
#    0.000    1.667    1.667    1.500    7.000    0.667 
#    0.000    0.833    0.000    0.000    0.000    0.000 
#    0.000    0.000    0.000    0.000    0.000    0.000 
#
# Total GULP energy -133699.739869 kJ/mol
# GULP energy per Si atom -5570.822495 kJ/mol
# Density = 2.220773 g / cm^3
# Si number density = 22.258386 Si / 1000 Ang^3
#
#
#
# Elastic Constant Matrix: (Units=GPa)
#
#
# Indices 1 2 3 4 5 6 
#
# 1 44.0884 7.4701 8.7912 0.0000 -5.9970 0.0000
# 2 7.4701 106.8227 26.3495 0.0000 -1.6893 0.0000
# 3 8.7912 26.3495 57.3856 0.0000 -7.6154 0.0000
# 4 0.0000 0.0000 0.0000 7.9934 0.0000 -13.7155
# 5 -5.9970 -1.6893 -7.6154 0.0000 24.0556 0.0000
# 6 0.0000 0.0000 0.0000 -13.7155 0.0000 11.2943
#
#
#
# Elastic Compliance Matrix: (Units=1/GPa)
#
#
# Indices 1 2 3 4 5 6 
#
# 1 0.024053 -0.000969 -0.002560 0.000000 0.005118 0.000000
# 2 -0.000969 0.010612 -0.004862 0.000000 -0.001036 0.000000
# 3 -0.002560 -0.004862 0.020794 0.000000 0.005603 0.000000
# 4 0.000000 0.000000 0.000000 -0.115443 0.000000 -0.140191
# 5 0.005118 -0.001036 0.005603 0.000000 0.044547 0.000000
# 6 0.000000 0.000000 0.000000 -0.140191 0.000000 -0.081703
#
#
# Mechanical properties :
#
#
# Convention : Reuss Voigt Hill
#
# Bulk Modulus (GPa) = 25.85607 32.61313 29.23460
# Shear Modulus (GPa) = -74.11172 19.71439 -27.19867
#
# Velocity S-wave (km/s) = -5.77654 2.97931 -3.49943
# Velocity P-wave (km/s) = 5.73146 5.14965 1.77914
#
# Compressibility (1/GPa) = 0.03867564
#
# Stress axis : x y z
#
# Youngs Moduli (GPa) = 41.57555 94.23391 48.09072
#
# Poissons Ratio (x) = 0.09136 0.12313
# Poissons Ratio (y) = 0.04031 0.23379
# Poissons Ratio (z) = 0.10645 0.45812
#
# Static dielectric constant tensor:
#      x y z
#    x 1.832280 0.000000 0.001740 
#    y 0.000000 1.797060 0.000000 
#    z 0.001740 0.000000 1.987480 
# 
# From -- ./inp_files/22027.got.cif
#   From: 2010.05.17/outbox.cif.g08.bks.cpg/sg14_12_cif.got.tgz:22027.got - 2010.06.03 17:49:19.
