data_PCOD9244632
_publ_section_title
;
Structure prediction by ZEFSAII (Michael W. Deem and Ramdas Pophale) SiO2 
 PCOD9244632
Probable space group: P 21/C
;
_chemical_formula_sum "Si O2"
_cell_formula_units_Z 28
_cell_length_a 7.770801
_cell_length_b 11.821936
_cell_length_c 18.826843
_cell_angle_alpha 90.000000
_cell_angle_beta 134.002361
_cell_angle_gamma 90.000000
_cell_volume 1244.081121
_symmetry_space_group_name_H-M "P 21/C"
_symmetry_group_IT_number 14
_symmetry_cell_setting 'monoclinic'
loop_
_space_group_symop_operation_xyz
x,y,z
-x,1/2+y,1/2-z
-x,-y,-z
x,1/2-y,1/2+z
loop_
_atom_site_type_symbol
_atom_site_label
_atom_site_fract_x
_atom_site_fract_y
_atom_site_fract_z
Si Si1 0.914156 0.369082 0.538920
Si Si2 0.610188 0.503075 0.353526
Si Si3 0.182076 0.827119 0.729680
Si Si4 0.259129 0.062278 0.352145
Si Si5 0.461247 0.897470 0.306158
Si Si6 0.970943 0.840020 0.513790
Si Si7 0.753866 0.359534 0.044637
O O1 0.692196 0.444278 0.449864
O O2 0.843791 0.270485 0.574734
O O3 0.147482 0.446645 0.613105
O O4 0.978723 0.291875 0.488615
O O5 0.420377 0.601284 0.310339
O O6 0.492444 0.415453 0.263993
O O7 0.259467 0.697685 0.755142
O O8 0.072441 0.859324 0.620837
O O9 0.973405 0.862814 0.722867
O O10 0.372647 0.014804 0.313358
O O11 0.194114 0.949329 0.378992
O O12 0.468724 0.131604 0.451737
O O13 0.694308 0.861705 0.417517
O O14 0.880440 0.100106 0.507318
#
# Coordination Sequence:
#
# PCOD9244632 Si02
#       7
#     4   4   4   4   4   4   4
#     4   9  21  40  67  93 119 155 206 266 300 353
#     4  11  22  41  68  94 118 159 210 259 312 354
#     4  12  24  40  62  93 126 161 207 255 305 369
#     4  11  24  36  58  91 130 168 200 239 314 377
#     4  12  24  40  62  93 126 161 207 255 305 369
#     4  10  20  42  66  87 119 158 202 272 292 337
#     4   9  19  41  60  89 119 162 202 258 295 368
#
# _framework density 22.506571000000001
#
# number of rings (size 3 to 8) (size 9 to 14) (size 15 to 20)
#    0.857    0.571    2.857    3.429    0.000    4.000 
#    0.000    0.000    0.000    4.286    0.000    0.000 
#    0.000    0.000    0.000    0.000    0.000    0.000 
#
# Total GULP energy -156320.910929 kJ/mol
# GULP energy per Si atom -5582.889676 kJ/mol
# Density = 2.245534 g / cm^3
# Si number density = 22.506571 Si / 1000 Ang^3
#
#
#
# Elastic Constant Matrix: (Units=GPa)
#
#
# Indices 1 2 3 4 5 6 
#
# 1 38.4050 -6.7974 19.2918 0.0000 6.3231 0.0000
# 2 -6.7974 51.5526 9.9594 0.0000 5.0759 0.0000
# 3 19.2918 9.9594 85.1542 0.0000 8.0377 0.0000
# 4 0.0000 0.0000 0.0000 28.5216 0.0000 1.4128
# 5 6.3231 5.0759 8.0377 0.0000 21.7403 0.0000
# 6 0.0000 0.0000 0.0000 1.4128 0.0000 34.9481
#
#
#
# Elastic Compliance Matrix: (Units=1/GPa)
#
#
# Indices 1 2 3 4 5 6 
#
# 1 0.032180 0.006453 -0.007273 0.000000 -0.008177 0.000000
# 2 0.006453 0.021467 -0.003443 0.000000 -0.005616 0.000000
# 3 -0.007273 -0.003443 0.014007 0.000000 -0.002259 0.000000
# 4 0.000000 0.000000 0.000000 0.035131 0.000000 -0.001420
# 5 -0.008177 -0.005616 -0.002259 0.000000 0.050522 0.000000
# 6 0.000000 0.000000 0.000000 -0.001420 0.000000 0.028671
#
#
# Mechanical properties :
#
#
# Convention : Reuss Voigt Hill
#
# Bulk Modulus (GPa) = 16.91219 24.44658 20.67939
# Shear Modulus (GPa) = 23.78526 27.21922 25.50224
#
# Velocity S-wave (km/s) = 3.25439 3.48140 3.36981
# Velocity P-wave (km/s) = 4.65318 5.20055 4.93446
#
# Compressibility (1/GPa) = 0.05912894
#
# Stress axis : x y z
#
# Youngs Moduli (GPa) = 31.07476 46.58396 71.39229
#
# Poissons Ratio (x) = -0.30063 0.51927
# Poissons Ratio (y) = -0.20054 0.24577
# Poissons Ratio (z) = 0.22602 0.16037
#
# Static dielectric constant tensor:
#      x y z
#    x 1.841930 0.000000 -0.022970 
#    y 0.000000 1.836710 0.000000 
#    z -0.022970 0.000000 1.824840 
# 
# From -- ./inp_files/65633.got.cif
#   From: 2010.05.17/outbox.cif.g08.bks.cpg/sg14_33_cif.got.tgz:65633.got - 2010.06.03 17:49:19.
