data_PCOD9244120
_publ_section_title
;
Structure prediction by ZEFSAII (Michael W. Deem and Ramdas Pophale) SiO2 
 PCOD9244120
Probable space group: P 21/C
;
_chemical_formula_sum "Si O2"
_cell_formula_units_Z 32
_cell_length_a 14.511251
_cell_length_b 13.694132
_cell_length_c 10.907991
_cell_angle_alpha 90.000000
_cell_angle_beta 136.291374
_cell_angle_gamma 90.000000
_cell_volume 1497.809846
_symmetry_space_group_name_H-M "P 21/C"
_symmetry_group_IT_number 14
_symmetry_cell_setting 'monoclinic'
loop_
_space_group_symop_operation_xyz
x,y,z
-x,1/2+y,1/2-z
-x,-y,-z
x,1/2-y,1/2+z
loop_
_atom_site_type_symbol
_atom_site_label
_atom_site_fract_x
_atom_site_fract_y
_atom_site_fract_z
Si Si1 0.623207 0.075283 0.639785
Si Si2 0.762546 0.487088 0.036417
Si Si3 0.906486 0.693776 0.165512
Si Si4 0.402402 0.063289 0.823967
Si Si5 0.206736 0.675358 0.518032
Si Si6 0.150191 0.641132 0.100276
Si Si7 0.139575 0.328882 0.141950
Si Si8 0.382721 0.715208 0.472828
O O1 0.705936 0.084854 0.847168
O O2 0.584011 0.187832 0.572252
O O3 0.500000 0.000000 0.500000
O O4 0.731253 0.050422 0.639885
O O5 0.833945 0.590837 0.113786
O O6 0.627545 0.507568 0.830702
O O7 0.837390 0.413541 0.017342
O O8 0.867433 0.765696 0.240065
O O9 0.064156 0.667250 0.315792
O O10 0.860892 0.731417 0.987072
O O11 0.262649 0.095926 0.752115
O O12 0.479759 0.162296 0.868678
O O13 0.500000 0.000000 0.000000
O O14 0.160511 0.742194 0.587414
O O15 0.305522 0.735858 0.524854
O O16 0.281726 0.635852 0.311056
O O17 0.003188 0.617069 0.003871
#
# Coordination Sequence:
#
# PCOD9244120 Si02
#       8
#     4   4   4   4   4   4   4   4
#     4  11  25  42  65  98 140 178 223 281 345 411
#     4  11  23  43  65  99 135 172 227 287 336 412
#     4  10  23  42  73  98 137 176 232 287 352 407
#     4  11  24  41  63  99 133 176 229 280 337 415
#     4  10  21  41  66  98 125 180 222 275 342 411
#     4  10  20  39  70  92 129 171 228 274 333 399
#     4  10  23  43  67 103 137 180 226 289 347 407
#     4  11  21  41  70  91 131 179 225 270 338 408
#
# _framework density 21.364528
#
# number of rings (size 3 to 8) (size 9 to 14) (size 15 to 20)
#    0.000    1.500    3.750    0.750    1.750    3.500 
#    6.750    1.250    0.000    0.000    0.000    0.000 
#    0.000    0.000    0.000    0.000    0.000    0.000 
#
# Total GULP energy -178200.537013 kJ/mol
# GULP energy per Si atom -5568.766782 kJ/mol
# Density = 2.131590 g / cm^3
# Si number density = 21.364528 Si / 1000 Ang^3
#
#
#
# Elastic Constant Matrix: (Units=GPa)
#
#
# Indices 1 2 3 4 5 6 
#
# 1 88.6448 20.9752 31.8322 0.0000 -0.2127 0.0000
# 2 20.9752 54.4945 28.1712 0.0000 -4.2312 0.0000
# 3 31.8322 28.1712 98.1729 0.0000 9.2294 0.0000
# 4 0.0000 0.0000 0.0000 24.9746 0.0000 -6.5334
# 5 -0.2127 -4.2312 9.2294 0.0000 32.4105 0.0000
# 6 0.0000 0.0000 0.0000 -6.5334 0.0000 26.1738
#
#
#
# Elastic Compliance Matrix: (Units=1/GPa)
#
#
# Indices 1 2 3 4 5 6 
#
# 1 0.013292 -0.003298 -0.003423 0.000000 0.000631 0.000000
# 2 -0.003298 0.023085 -0.005997 0.000000 0.004700 0.000000
# 3 -0.003423 -0.005997 0.013453 0.000000 -0.004636 0.000000
# 4 0.000000 0.000000 0.000000 0.042838 0.000000 0.010693
# 5 0.000631 0.004700 -0.004636 0.000000 0.032792 0.000000
# 6 0.000000 0.000000 0.000000 0.010693 0.000000 0.040875
#
#
# Mechanical properties :
#
#
# Convention : Reuss Voigt Hill
#
# Bulk Modulus (GPa) = 40.99284 44.80772 42.90028
# Shear Modulus (GPa) = 25.01235 27.40070 26.20653
#
# Velocity S-wave (km/s) = 3.42532 3.58513 3.50614
# Velocity P-wave (km/s) = 5.90532 6.17706 6.04272
#
# Compressibility (1/GPa) = 0.02439450
#
# Stress axis : x y z
#
# Youngs Moduli (GPa) = 75.23346 43.31865 74.33461
#
# Poissons Ratio (x) = 0.14285 0.25445
# Poissons Ratio (y) = 0.24809 0.44577
# Poissons Ratio (z) = 0.25752 0.25978
#
# Static dielectric constant tensor:
#      x y z
#    x 1.806790 0.000000 -0.023710 
#    y 0.000000 1.816620 0.000000 
#    z -0.023710 0.000000 1.894190 
# 
# From -- ./inp_files/32791.got.cif
#   From: 2010.05.17/outbox.cif.g08.bks.cpg/sg14_17_cif.got.tgz:32791.got - 2010.06.03 17:49:19.
