data_PCOD9244653
_publ_section_title
;
Structure prediction by ZEFSAII (Michael W. Deem and Ramdas Pophale) SiO2 
 PCOD9244653
Probable space group: P 21/C
;
_chemical_formula_sum "Si O2"
_cell_formula_units_Z 32
_cell_length_a 18.837324
_cell_length_b 14.322769
_cell_length_c 12.865073
_cell_angle_alpha 90.000000
_cell_angle_beta 153.497892
_cell_angle_gamma 90.000000
_cell_volume 1548.880577
_symmetry_space_group_name_H-M "P 21/C"
_symmetry_group_IT_number 14
_symmetry_cell_setting 'monoclinic'
loop_
_space_group_symop_operation_xyz
x,y,z
-x,1/2+y,1/2-z
-x,-y,-z
x,1/2-y,1/2+z
loop_
_atom_site_type_symbol
_atom_site_label
_atom_site_fract_x
_atom_site_fract_y
_atom_site_fract_z
Si Si1 0.483797 0.366381 0.381613
Si Si2 0.260732 0.474189 0.235790
Si Si3 0.073669 0.087937 0.037371
Si Si4 0.893453 0.373664 0.102105
Si Si5 0.674451 0.013453 0.776742
Si Si6 0.625893 0.277517 0.202773
Si Si7 0.661837 0.704077 0.011436
Si Si8 0.795662 0.604011 0.622706
O O1 0.358973 0.391918 0.309093
O O2 0.615092 0.447741 0.560270
O O3 0.560192 0.266224 0.509503
O O4 0.400599 0.362248 0.162071
O O5 0.168070 0.437481 0.215257
O O6 0.164095 0.526081 0.018035
O O7 0.209312 0.045900 0.141749
O O8 0.167754 0.165129 0.226899
O O9 0.943497 0.127136 0.787404
O O10 0.000000 0.000000 0.000000
O O11 0.049158 0.358000 0.234579
O O12 0.751775 0.300351 0.903217
O O13 0.500000 0.000000 0.500000
O O14 0.710343 0.122772 0.811985
O O15 0.707010 0.972735 0.934476
O O16 0.473920 0.291723 0.078561
O O17 0.683984 0.807565 0.996022
#
# Coordination Sequence:
#
# PCOD9244653 Si02
#       8
#     4   4   4   4   4   4   4   4
#     4  10  22  39  68  99 125 174 226 279 326 393
#     4  10  20  42  67  94 133 170 225 276 335 396
#     4  11  26  45  65 101 133 179 219 277 350 394
#     4  10  25  44  65  97 136 172 227 274 339 404
#     4  11  23  43  68  97 138 175 225 273 331 409
#     4  11  23  45  67  98 130 177 224 276 329 400
#     4  12  24  42  69  97 133 173 226 273 333 407
#     4  11  24  41  66 100 132 177 219 279 339 397
#
# _framework density 20.660081999999999
#
# number of rings (size 3 to 8) (size 9 to 14) (size 15 to 20)
#    0.000    1.250    2.500    2.625    3.500    2.000 
#    9.000    0.000    0.000    0.000    0.000    0.000 
#    0.000    0.000    0.000    0.000    0.000    0.000 
#
# Total GULP energy -178685.495883 kJ/mol
# GULP energy per Si atom -5583.921746 kJ/mol
# Density = 2.061306 g / cm^3
# Si number density = 20.660082 Si / 1000 Ang^3
#
#
#
# Elastic Constant Matrix: (Units=GPa)
#
#
# Indices 1 2 3 4 5 6 
#
# 1 47.1374 -3.6304 12.2262 0.0000 -9.8232 0.0000
# 2 -3.6304 73.3398 12.8792 0.0000 -10.3894 0.0000
# 3 12.2262 12.8792 106.0923 0.0000 -20.7345 0.0000
# 4 0.0000 0.0000 0.0000 33.9107 0.0000 2.1452
# 5 -9.8232 -10.3894 -20.7345 0.0000 25.5026 0.0000
# 6 0.0000 0.0000 0.0000 2.1452 0.0000 20.6980
#
#
#
# Elastic Compliance Matrix: (Units=1/GPa)
#
#
# Indices 1 2 3 4 5 6 
#
# 1 0.023663 0.002694 -0.001258 0.000000 0.009189 0.000000
# 2 0.002694 0.014823 -0.000864 0.000000 0.006374 0.000000
# 3 -0.001258 -0.000864 0.011309 0.000000 0.008358 0.000000
# 4 0.000000 0.000000 0.000000 0.029684 0.000000 -0.003076
# 5 0.009189 0.006374 0.008358 0.000000 0.052143 0.000000
# 6 0.000000 0.000000 0.000000 -0.003076 0.000000 0.048633
#
#
# Mechanical properties :
#
#
# Convention : Reuss Voigt Hill
#
# Bulk Modulus (GPa) = 19.63123 29.94663 24.78893
# Shear Modulus (GPa) = 25.49826 29.69524 27.59675
#
# Velocity S-wave (km/s) = 3.51690 3.79532 3.65876
# Velocity P-wave (km/s) = 5.10040 5.80795 5.46564
#
# Compressibility (1/GPa) = 0.05093924
#
# Stress axis : x y z
#
# Youngs Moduli (GPa) = 42.25933 67.46179 88.42405
#
# Poissons Ratio (x) = -0.18175 0.11124
# Poissons Ratio (y) = -0.11385 0.07642
# Poissons Ratio (z) = 0.05317 0.05830
#
# Static dielectric constant tensor:
#      x y z
#    x 1.738850 0.000000 -0.015340 
#    y 0.000000 1.680380 0.000000 
#    z -0.015340 0.000000 1.771450 
# 
# From -- ./inp_files/34194.got.cif
#   From: 2010.05.17/outbox.cif.g08.bks.cpg/sg14_18_cif.got.tgz:34194.got - 2010.06.03 17:49:19.
