data_PCOD9244955
_publ_section_title
;
Structure prediction by ZEFSAII (Michael W. Deem and Ramdas Pophale) SiO2 
 PCOD9244955
Probable space group: P 21/C
;
_chemical_formula_sum "Si O2"
_cell_formula_units_Z 32
_cell_length_a 24.946543
_cell_length_b 5.146553
_cell_length_c 14.439176
_cell_angle_alpha 90.000000
_cell_angle_beta 135.849936
_cell_angle_gamma 90.000000
_cell_volume 1291.264771
_symmetry_space_group_name_H-M "P 21/C"
_symmetry_group_IT_number 14
_symmetry_cell_setting 'monoclinic'
loop_
_space_group_symop_operation_xyz
x,y,z
-x,1/2+y,1/2-z
-x,-y,-z
x,1/2-y,1/2+z
loop_
_atom_site_type_symbol
_atom_site_label
_atom_site_fract_x
_atom_site_fract_y
_atom_site_fract_z
Si Si1 0.377940 0.595582 0.414139
Si Si2 0.775398 0.169099 0.720745
Si Si3 0.145447 0.373969 0.539797
Si Si4 0.987767 0.132537 0.791464
Si Si5 0.538842 0.146563 0.338069
Si Si6 0.318866 0.288789 0.998487
Si Si7 0.179945 0.811295 0.906886
Si Si8 0.286317 0.097305 0.647148
O O1 0.303141 0.781168 0.321783
O O2 0.450900 0.753920 0.542838
O O3 0.360421 0.391790 0.475147
O O4 0.365330 0.463805 0.299473
O O5 0.788683 0.376107 0.656072
O O6 0.841370 0.113301 0.875070
O O7 0.757449 0.912519 0.639146
O O8 0.153432 0.462524 0.442819
O O9 0.221701 0.195747 0.640518
O O10 0.058801 0.276279 0.444488
O O11 0.899916 0.158937 0.713256
O O12 0.996459 0.334721 0.716716
O O13 0.514556 0.396736 0.247458
O O14 0.622642 0.034950 0.415974
O O15 0.305554 0.201977 0.087631
O O16 0.241199 0.637341 0.039921
#
# Coordination Sequence:
#
# PCOD9244955 Si02
#       8
#     4   4   4   4   4   4   4   4
#     4  11  21  40  66  96 129 168 213 258 320 378
#     4  10  21  35  59  92 122 168 216 272 317 380
#     4  11  20  36  61  86 130 168 218 271 331 376
#     4  10  21  37  60  86 123 176 217 264 329 388
#     4  11  23  45  72  94 131 178 201 251 316 376
#     4  10  22  39  65  96 128 166 215 257 316 380
#     4  10  21  38  56  84 128 168 219 270 325 375
#     4  11  21  38  63  96 125 166 214 275 314 373
#
# _framework density 24.781903
#
# number of rings (size 3 to 8) (size 9 to 14) (size 15 to 20)
#    0.000    1.500    5.000    0.750    0.000    0.500 
#    0.000    1.250    0.000    4.500    0.000    0.000 
#    0.000    0.000    0.000    0.000    0.000    0.000 
#
# Total GULP energy -178446.344141 kJ/mol
# GULP energy per Si atom -5576.448254 kJ/mol
# Density = 2.472550 g / cm^3
# Si number density = 24.781903 Si / 1000 Ang^3
#
#
#
# Elastic Constant Matrix: (Units=GPa)
#
#
# Indices 1 2 3 4 5 6 
#
# 1 36.4487 -1.0066 14.1962 0.0000 -5.5023 0.0000
# 2 -1.0066 84.5839 16.2851 0.0000 1.6603 0.0000
# 3 14.1962 16.2851 110.7854 0.0000 2.0750 0.0000
# 4 0.0000 0.0000 0.0000 33.1219 0.0000 5.7689
# 5 -5.5023 1.6603 2.0750 0.0000 38.5004 0.0000
# 6 0.0000 0.0000 0.0000 5.7689 0.0000 28.3360
#
#
#
# Elastic Compliance Matrix: (Units=1/GPa)
#
#
# Indices 1 2 3 4 5 6 
#
# 1 0.029706 0.001045 -0.004043 0.000000 0.004418 0.000000
# 2 0.001045 0.012211 -0.001924 0.000000 -0.000274 0.000000
# 3 -0.004043 -0.001924 0.009847 0.000000 -0.001026 0.000000
# 4 0.000000 0.000000 0.000000 0.031301 0.000000 -0.006373
# 5 0.004418 -0.000274 -0.001026 0.000000 0.026672 0.000000
# 6 0.000000 0.000000 0.000000 -0.006373 0.000000 0.036588
#
#
# Mechanical properties :
#
#
# Convention : Reuss Voigt Hill
#
# Bulk Modulus (GPa) = 23.85464 32.30748 28.08106
# Shear Modulus (GPa) = 29.38717 33.48120 31.43419
#
# Velocity S-wave (km/s) = 3.44733 3.67963 3.56537
# Velocity P-wave (km/s) = 5.04897 5.57834 5.32025
#
# Compressibility (1/GPa) = 0.04192057
#
# Stress axis : x y z
#
# Youngs Moduli (GPa) = 33.66278 81.89489 101.55866
#
# Poissons Ratio (x) = -0.08560 0.41060
# Poissons Ratio (y) = -0.03518 0.19537
# Poissons Ratio (z) = 0.13610 0.15755
#
# Static dielectric constant tensor:
#      x y z
#    x 2.041650 0.000000 0.025940 
#    y 0.000000 2.087890 0.000000 
#    z 0.025940 0.000000 2.044420 
# 
# From -- ./inp_files/52164.got.cif
#   From: 2010.05.17/outbox.cif.g08.bks.cpg/sg14_27_cif.got.tgz:52164.got - 2010.06.03 17:49:19.
