data_PCOD9244169
_publ_section_title
;
Structure prediction by ZEFSAII (Michael W. Deem and Ramdas Pophale) SiO2 
 PCOD9244169
Probable space group: P 21/C
;
_chemical_formula_sum "Si O2"
_cell_formula_units_Z 28
_cell_length_a 5.133325
_cell_length_b 13.916470
_cell_length_c 15.881244
_cell_angle_alpha 90.000000
_cell_angle_beta 70.270771
_cell_angle_gamma 90.000000
_cell_volume 1067.922442
_symmetry_space_group_name_H-M "P 21/C"
_symmetry_group_IT_number 14
_symmetry_cell_setting 'monoclinic'
loop_
_space_group_symop_operation_xyz
x,y,z
-x,1/2+y,1/2-z
-x,-y,-z
x,1/2-y,1/2+z
loop_
_atom_site_type_symbol
_atom_site_label
_atom_site_fract_x
_atom_site_fract_y
_atom_site_fract_z
Si Si1 0.251266 0.944928 0.410920
Si Si2 0.966606 0.781355 0.037367
Si Si3 0.261876 0.457993 0.354263
Si Si4 0.628622 0.618355 0.020996
Si Si5 0.907997 0.679159 0.219645
Si Si6 0.274256 0.686385 0.337011
Si Si7 0.865588 0.453129 0.254524
O O1 0.415690 0.898816 0.470448
O O2 0.179995 0.727898 0.437290
O O3 0.922436 0.929836 0.462314
O O4 0.407972 0.050166 0.393469
O O5 0.905354 0.891710 0.063390
O O6 0.688873 0.727530 0.034985
O O7 0.013925 0.724345 0.120259
O O8 0.219932 0.571772 0.355161
O O9 0.587071 0.447978 0.339927
O O10 0.132322 0.422020 0.278166
O O11 0.590150 0.701928 0.276001
O O12 0.927016 0.562773 0.217932
O O13 0.086051 0.715345 0.278691
O O14 0.252535 0.904503 0.317018
#
# Coordination Sequence:
#
# PCOD9244169 Si02
#       7
#     4   4   4   4   4   4   4
#     4  10  20  40  60  94 132 171 213 275 353 394
#     4  12  25  46  71 104 136 188 230 289 342 415
#     4  10  24  40  68  96 133 184 229 274 347 404
#     4  10  23  35  62  95 129 170 222 274 334 419
#     4  10  24  44  68 100 135 180 230 291 343 406
#     4  10  25  46  68 100 143 177 230 293 344 412
#     4  10  20  43  65  93 133 178 226 283 340 417
#
# _framework density 26.219132999999999
#
# number of rings (size 3 to 8) (size 9 to 14) (size 15 to 20)
#    0.000    1.714    1.429    1.286    0.000   10.286 
#    0.000    4.286    0.000    0.000    0.000    0.000 
#    0.000    0.000    0.000    0.000    0.000    0.000 
#
# Total GULP energy -156499.252024 kJ/mol
# GULP energy per Si atom -5589.259001 kJ/mol
# Density = 2.615946 g / cm^3
# Si number density = 26.219133 Si / 1000 Ang^3
#
#
#
# Elastic Constant Matrix: (Units=GPa)
#
#
# Indices 1 2 3 4 5 6 
#
# 1 204.9217 45.4907 69.5291 0.0000 9.3041 0.0000
# 2 45.4907 77.0695 33.3937 0.0000 17.1469 0.0000
# 3 69.5291 33.3937 149.1256 0.0000 -0.7574 0.0000
# 4 0.0000 0.0000 0.0000 38.1227 0.0000 9.3698
# 5 9.3041 17.1469 -0.7574 0.0000 24.1448 0.0000
# 6 0.0000 0.0000 0.0000 9.3698 0.0000 30.0375
#
#
#
# Elastic Compliance Matrix: (Units=1/GPa)
#
#
# Indices 1 2 3 4 5 6 
#
# 1 0.006274 -0.002523 -0.002364 0.000000 -0.000700 0.000000
# 2 -0.002523 0.018506 -0.003030 0.000000 -0.012265 0.000000
# 3 -0.002364 -0.003030 0.008503 0.000000 0.003329 0.000000
# 4 0.000000 0.000000 0.000000 0.028409 0.000000 -0.008862
# 5 -0.000700 -0.012265 0.003329 0.000000 0.050501 0.000000
# 6 0.000000 0.000000 0.000000 -0.008862 0.000000 0.036056
#
#
# Mechanical properties :
#
#
# Convention : Reuss Voigt Hill
#
# Bulk Modulus (GPa) = 57.30784 80.88266 69.09525
# Shear Modulus (GPa) = 29.42901 37.30788 33.36844
#
# Velocity S-wave (km/s) = 3.35390 3.77626 3.57133
# Velocity P-wave (km/s) = 6.07477 7.06606 6.58908
#
# Compressibility (1/GPa) = 0.01744962
#
# Stress axis : x y z
#
# Youngs Moduli (GPa) = 159.39271 54.03523 117.60275
#
# Poissons Ratio (x) = 0.13635 0.27797
# Poissons Ratio (y) = 0.40220 0.35633
# Poissons Ratio (z) = 0.37675 0.16372
#
# Static dielectric constant tensor:
#      x y z
#    x 1.998770 0.000000 -0.111570 
#    y 0.000000 2.527790 0.000000 
#    z -0.111570 0.000000 2.384470 
# 
# From -- ./inp_files/75822.got.cif
#   From: 2010.05.17/outbox.cif.g08.bks.cpg/sg14_38_cif.got.tgz:75822.got - 2010.06.03 17:49:19.
