data_PCOD9244260
_publ_section_title
;
Structure prediction by ZEFSAII (Michael W. Deem and Ramdas Pophale) SiO2 
 PCOD9244260
Probable space group: P 21/C
;
_chemical_formula_sum "Si O2"
_cell_formula_units_Z 24
_cell_length_a 5.182787
_cell_length_b 14.019862
_cell_length_c 13.931995
_cell_angle_alpha 90.000000
_cell_angle_beta 107.400533
_cell_angle_gamma 90.000000
_cell_volume 965.999519
_symmetry_space_group_name_H-M "P 21/C"
_symmetry_group_IT_number 14
_symmetry_cell_setting 'monoclinic'
loop_
_space_group_symop_operation_xyz
x,y,z
-x,1/2+y,1/2-z
-x,-y,-z
x,1/2-y,1/2+z
loop_
_atom_site_type_symbol
_atom_site_label
_atom_site_fract_x
_atom_site_fract_y
_atom_site_fract_z
Si Si1 0.248739 0.911749 0.870857
Si Si2 0.332896 0.770970 0.125463
Si Si3 0.112381 0.502131 0.815509
Si Si4 0.764330 0.668005 0.043665
Si Si5 0.293843 0.796781 0.347025
Si Si6 0.241265 0.990619 0.114895
O O1 0.184102 0.801813 0.877943
O O2 0.562752 0.932699 0.910611
O O3 0.071695 0.978873 0.919618
O O4 0.149298 0.948042 0.755133
O O5 0.597460 0.725895 0.107004
O O6 0.345399 0.772000 0.242009
O O7 0.308935 0.882512 0.096108
O O8 0.061310 0.713536 0.066501
O O9 0.214621 0.439853 0.914968
O O10 0.092887 0.613817 0.835520
O O11 0.291934 0.501572 0.737763
O O12 0.571765 0.675747 0.930419
#
# Coordination Sequence:
#
# PCOD9244260 Si02
#       6
#     4   4   4   4   4   4
#     4  10  20  40  64  96 128 175 221 268 335 395
#     4  11  24  45  70  96 143 175 223 284 331 398
#     4   9  22  41  67  98 135 170 224 280 332 401
#     4  12  25  44  68 108 133 178 229 275 335 411
#     4  11  24  45  72  99 136 185 219 282 346 392
#     4   9  20  39  69  92 125 183 214 270 339 381
#
# _framework density 24.844735
#
# number of rings (size 3 to 8) (size 9 to 14) (size 15 to 20)
#    1.000    0.667    1.667    2.500    0.000    2.667 
#    6.000    6.667    0.000    0.000    0.000    0.000 
#    0.000    0.000    0.000    0.000    0.000    0.000 
#
# Total GULP energy -134296.047427 kJ/mol
# GULP energy per Si atom -5595.668643 kJ/mol
# Density = 2.478819 g / cm^3
# Si number density = 24.844735 Si / 1000 Ang^3
#
#
#
# Elastic Constant Matrix: (Units=GPa)
#
#
# Indices 1 2 3 4 5 6 
#
# 1 68.6049 38.7114 -14.0674 0.0000 5.4429 0.0000
# 2 38.7114 169.2509 16.7752 0.0000 3.1713 0.0000
# 3 -14.0674 16.7752 111.0359 0.0000 12.5302 0.0000
# 4 0.0000 0.0000 0.0000 44.4993 0.0000 2.5733
# 5 5.4429 3.1713 12.5302 0.0000 28.8363 0.0000
# 6 0.0000 0.0000 0.0000 2.5733 0.0000 17.1816
#
#
#
# Elastic Compliance Matrix: (Units=1/GPa)
#
#
# Indices 1 2 3 4 5 6 
#
# 1 0.018125 -0.004405 0.003463 0.000000 -0.004441 0.000000
# 2 -0.004405 0.007071 -0.001717 0.000000 0.000800 0.000000
# 3 0.003463 -0.001717 0.010260 0.000000 -0.004923 0.000000
# 4 0.000000 0.000000 0.000000 0.022669 0.000000 -0.003395
# 5 -0.004441 0.000800 -0.004923 0.000000 0.037568 0.000000
# 6 0.000000 0.000000 0.000000 -0.003395 0.000000 0.058710
#
#
# Mechanical properties :
#
#
# Convention : Reuss Voigt Hill
#
# Bulk Modulus (GPa) = 33.18169 47.97000 40.57584
# Shear Modulus (GPa) = 29.45224 38.60162 34.02693
#
# Velocity S-wave (km/s) = 3.44677 3.94599 3.70480
# Velocity P-wave (km/s) = 5.40601 6.33332 5.88795
#
# Compressibility (1/GPa) = 0.03013710
#
# Stress axis : x y z
#
# Youngs Moduli (GPa) = 55.17378 141.41900 97.46830
#
# Poissons Ratio (x) = 0.62302 -0.33753
# Poissons Ratio (y) = 0.24307 0.16732
# Poissons Ratio (z) = -0.19107 0.24278
#
# Static dielectric constant tensor:
#      x y z
#    x 1.882910 0.000000 -0.004310 
#    y 0.000000 1.906450 0.000000 
#    z -0.004310 0.000000 2.187210 
# 
# From -- ./inp_files/37268.got.cif
#   From: 2010.05.17/outbox.cif.g08.bks.cpg/sg14_19_cif.got.tgz:37268.got - 2010.06.03 17:49:19.
