data_PCOD9244109
_publ_section_title
;
Structure prediction by ZEFSAII (Michael W. Deem and Ramdas Pophale) SiO2 
 PCOD9244109
Probable space group: P 21/C
;
_chemical_formula_sum "Si O2"
_cell_formula_units_Z 26
_cell_length_a 17.511756
_cell_length_b 7.200661
_cell_length_c 9.008288
_cell_angle_alpha 90.000000
_cell_angle_beta 52.349208
_cell_angle_gamma 90.000000
_cell_volume 899.355810
_symmetry_space_group_name_H-M "P 21/C"
_symmetry_group_IT_number 14
_symmetry_cell_setting 'monoclinic'
loop_
_space_group_symop_operation_xyz
x,y,z
-x,1/2+y,1/2-z
-x,-y,-z
x,1/2-y,1/2+z
loop_
_atom_site_type_symbol
_atom_site_label
_atom_site_fract_x
_atom_site_fract_y
_atom_site_fract_z
Si Si1 0.368565 0.964191 0.351630
Si Si2 0.605667 0.063119 0.336381
Si Si3 0.293884 0.047148 0.067349
Si Si4 0.808651 0.344797 0.871328
Si Si5 0.076360 0.906587 0.049642
Si Si6 0.921739 0.642283 0.173531
Si Si7 0.500000 0.500000 0.500000
O O1 0.404269 0.778961 0.213393
O O2 0.354691 0.947559 0.543972
O O3 0.255803 0.980955 0.450900
O O4 0.462344 0.083334 0.203464
O O5 0.500000 0.000000 0.500000
O O6 0.662844 0.935084 0.152126
O O7 0.192668 0.148165 0.229195
O O8 0.388366 0.062124 0.059946
O O9 0.253658 0.838491 0.094561
O O10 0.846646 0.409181 0.670381
O O11 0.890539 0.262410 0.880091
O O12 0.974676 0.838726 0.106950
O O13 0.080216 0.079181 0.152822
O O14 0.000000 0.500000 0.000000
#
# Coordination Sequence:
#
# PCOD9244109 Si02
#       7
#     4   4   4   4   4   4   2
#     4  11  22  36  66  94 128 167 236 270 335 397
#     4  11  22  41  62  91 128 176 220 278 323 413
#     4  10  21  41  67  98 139 174 233 283 346 405
#     4  10  20  39  68  97 123 178 238 273 322 432
#     4  11  21  41  72 100 134 180 226 287 350 402
#     4  11  23  43  70 103 141 175 229 298 345 417
#     4  12  22  38  68 102 132 186 220 290 352 404
#
# _framework density 28.909579999999998
#
# number of rings (size 3 to 8) (size 9 to 14) (size 15 to 20)
#    0.000    1.231    4.615    5.538    0.000    0.615 
#    0.000    1.538    3.385    0.000    0.000    0.000 
#    0.000    0.000    0.000    0.000    0.000    0.000 
#
# Total GULP energy -144859.673218 kJ/mol
# GULP energy per Si atom -5571.525893 kJ/mol
# Density = 2.884378 g / cm^3
# Si number density = 28.909580 Si / 1000 Ang^3
#
#
#
# Elastic Constant Matrix: (Units=GPa)
#
#
# Indices 1 2 3 4 5 6 
#
# 1 154.1994 8.5534 60.5569 0.0000 -36.0476 0.0000
# 2 8.5534 62.4216 37.1512 0.0000 -18.0829 0.0000
# 3 60.5569 37.1512 254.6134 0.0000 -34.5366 0.0000
# 4 0.0000 0.0000 0.0000 -67.5504 0.0000 63.7223
# 5 -36.0476 -18.0829 -34.5366 0.0000 42.2901 0.0000
# 6 0.0000 0.0000 0.0000 63.7223 0.0000 -11.1925
#
#
#
# Elastic Compliance Matrix: (Units=1/GPa)
#
#
# Indices 1 2 3 4 5 6 
#
# 1 0.008524 0.001614 -0.001331 0.000000 0.006869 0.000000
# 2 0.001614 0.019362 -0.002136 0.000000 0.007910 0.000000
# 3 -0.001331 -0.002136 0.004811 0.000000 0.001881 0.000000
# 4 0.000000 0.000000 0.000000 0.003387 0.000000 0.019284
# 5 0.006869 0.007910 0.001881 0.000000 0.034420 0.000000
# 6 0.000000 0.000000 0.000000 0.019284 0.000000 0.020442
#
#
# Mechanical properties :
#
#
# Convention : Reuss Voigt Hill
#
# Bulk Modulus (GPa) = 34.49393 75.97305 55.23349
# Shear Modulus (GPa) = 47.93159 17.04096 32.48627
#
# Velocity S-wave (km/s) = 4.07625 2.43051 3.35583
# Velocity P-wave (km/s) = 5.84055 5.84919 5.84487
#
# Compressibility (1/GPa) = 0.02899061
#
# Stress axis : x y z
#
# Youngs Moduli (GPa) = 117.31428 51.64820 207.86031
#
# Poissons Ratio (x) = -0.08336 0.27669
# Poissons Ratio (y) = -0.18936 0.44400
# Poissons Ratio (z) = 0.15616 0.11032
#
# Static dielectric constant tensor:
#      x y z
#    x 2.515890 0.000000 0.310900 
#    y 0.000000 2.490890 0.000000 
#    z 0.310900 0.000000 1.935660 
# 
# From -- ./inp_files/17760.got.cif
#   From: 2010.05.17/outbox.cif.g08.bks.cpg/sg14_9_cif.got.tgz:17760.got - 2010.06.03 17:49:19.
