data_PCOD9244383
_publ_section_title
;
Structure prediction by ZEFSAII (Michael W. Deem and Ramdas Pophale) SiO2 
 PCOD9244383
Probable space group: P 21/C
;
_chemical_formula_sum "Si O2"
_cell_formula_units_Z 16
_cell_length_a 14.046329
_cell_length_b 10.532858
_cell_length_c 12.783884
_cell_angle_alpha 90.000000
_cell_angle_beta 159.767554
_cell_angle_gamma 90.000000
_cell_volume 654.084793
_symmetry_space_group_name_H-M "P 21/C"
_symmetry_group_IT_number 14
_symmetry_cell_setting 'monoclinic'
loop_
_space_group_symop_operation_xyz
x,y,z
-x,1/2+y,1/2-z
-x,-y,-z
x,1/2-y,1/2+z
loop_
_atom_site_type_symbol
_atom_site_label
_atom_site_fract_x
_atom_site_fract_y
_atom_site_fract_z
Si Si1 0.793541 0.740963 0.228179
Si Si2 0.459311 0.097363 0.862162
Si Si3 0.928190 0.509809 0.731971
Si Si4 0.685897 0.072856 0.775436
O O1 0.674867 0.783385 0.218679
O O2 0.885832 0.862752 0.255312
O O3 0.053426 0.647860 0.502975
O O4 0.530585 0.675810 0.902636
O O5 0.242655 0.032254 0.561221
O O6 0.500000 0.000000 0.000000
O O7 0.753603 0.101189 0.110873
O O8 0.807967 0.514745 0.492406
O O9 0.500000 0.000000 0.500000
#
# Coordination Sequence:
#
# PCOD9244383 Si02
#       4
#     4   4   4   4
#     4  11  23  43  68  94 132 177 215 273 337 379
#     4  10  20  40  69  97 124 164 226 276 314 386
#     4  11  23  42  67  98 129 174 228 267 319 405
#     4  12  27  43  63  99 138 171 216 272 333 398
#
# _framework density 24.461659999999998
#
# number of rings (size 3 to 8) (size 9 to 14) (size 15 to 20)
#    0.000    1.000    0.000    9.750    0.000    6.000 
#    0.000    0.000    0.000    0.000    0.000    0.000 
#    0.000    0.000    0.000    0.000    0.000    0.000 
#
# Total GULP energy -89571.053840 kJ/mol
# GULP energy per Si atom -5598.190865 kJ/mol
# Density = 2.440598 g / cm^3
# Si number density = 24.461660 Si / 1000 Ang^3
#
#
#
# Elastic Constant Matrix: (Units=GPa)
#
#
# Indices 1 2 3 4 5 6 
#
# 1 61.0301 28.2283 17.2832 0.0000 6.2024 0.0000
# 2 28.2283 80.3006 23.7630 0.0000 0.9121 0.0000
# 3 17.2832 23.7630 144.8093 0.0000 -0.1013 0.0000
# 4 0.0000 0.0000 0.0000 38.4693 0.0000 5.7887
# 5 6.2024 0.9121 -0.1013 0.0000 56.3695 0.0000
# 6 0.0000 0.0000 0.0000 5.7887 0.0000 30.8456
#
#
#
# Elastic Compliance Matrix: (Units=1/GPa)
#
#
# Indices 1 2 3 4 5 6 
#
# 1 0.020036 -0.006634 -0.001304 0.000000 -0.002100 0.000000
# 2 -0.006634 0.015288 -0.001717 0.000000 0.000479 0.000000
# 3 -0.001304 -0.001717 0.007343 0.000000 0.000184 0.000000
# 4 0.000000 0.000000 0.000000 0.026750 0.000000 -0.005020
# 5 -0.002100 0.000479 0.000184 0.000000 0.017964 0.000000
# 6 0.000000 0.000000 0.000000 -0.005020 0.000000 0.033362
#
#
# Mechanical properties :
#
#
# Convention : Reuss Voigt Hill
#
# Bulk Modulus (GPa) = 42.81163 47.18766 44.99964
# Shear Modulus (GPa) = 33.82087 39.59458 36.70773
#
# Velocity S-wave (km/s) = 3.72238 4.02760 3.87799
# Velocity P-wave (km/s) = 6.00119 6.40008 6.20384
#
# Compressibility (1/GPa) = 0.02335814
#
# Stress axis : x y z
#
# Youngs Moduli (GPa) = 49.90931 65.41206 136.18180
#
# Poissons Ratio (x) = 0.43392 0.17762
# Poissons Ratio (y) = 0.33108 0.23377
# Poissons Ratio (z) = 0.06510 0.11229
#
# Static dielectric constant tensor:
#      x y z
#    x 1.977030 0.000000 -0.028620 
#    y 0.000000 2.034090 0.000000 
#    z -0.028620 0.000000 1.875990 
# 
# From -- ./inp_files/32444.got.cif
#   From: 2010.05.17/outbox.cif.g08.bks.cpg/sg14_17_cif.got.tgz:32444.got - 2010.06.03 17:49:19.
