data_PCOD9244557
_publ_section_title
;
Structure prediction by ZEFSAII (Michael W. Deem and Ramdas Pophale) SiO2 
 PCOD9244557
Probable space group: P 21/C
;
_chemical_formula_sum "Si O2"
_cell_formula_units_Z 32
_cell_length_a 17.386373
_cell_length_b 12.850833
_cell_length_c 13.792251
_cell_angle_alpha 90.000000
_cell_angle_beta 150.313659
_cell_angle_gamma 90.000000
_cell_volume 1526.164306
_symmetry_space_group_name_H-M "P 21/C"
_symmetry_group_IT_number 14
_symmetry_cell_setting 'monoclinic'
loop_
_space_group_symop_operation_xyz
x,y,z
-x,1/2+y,1/2-z
-x,-y,-z
x,1/2-y,1/2+z
loop_
_atom_site_type_symbol
_atom_site_label
_atom_site_fract_x
_atom_site_fract_y
_atom_site_fract_z
Si Si1 0.234077 0.762678 0.995629
Si Si2 0.072737 0.920187 0.965369
Si Si3 0.743041 0.972916 0.666589
Si Si4 0.342043 0.281616 0.824080
Si Si5 0.064672 0.152973 0.880427
Si Si6 0.485158 0.341690 0.318084
Si Si7 0.424135 0.563039 0.204906
Si Si8 0.288299 0.195786 0.970536
O O1 0.097084 0.710364 0.783847
O O2 0.155126 0.835061 0.989578
O O3 0.351202 0.827715 0.056443
O O4 0.332940 0.664097 0.144468
O O5 0.178317 0.944553 0.174661
O O6 0.893376 0.901971 0.799959
O O7 0.059100 0.030713 0.894844
O O8 0.627508 0.895731 0.597593
O O9 0.660608 0.026494 0.486165
O O10 0.193588 0.298619 0.592321
O O11 0.470991 0.229876 0.897364
O O12 0.303307 0.209028 0.872752
O O13 0.122431 0.172735 0.834289
O O14 0.439754 0.460785 0.287479
O O15 0.361263 0.296199 0.104408
O O16 0.596282 0.603488 0.370182
#
# Coordination Sequence:
#
# PCOD9244557 Si02
#       8
#     4   4   4   4   4   4   4   4
#     4  11  23  41  66 100 134 180 222 276 347 399
#     4  10  21  39  67  99 134 165 224 290 329 400
#     4  10  20  41  70  99 128 173 232 285 336 395
#     4  10  21  40  67  93 128 177 222 281 336 403
#     4  10  21  39  65  95 130 172 222 279 339 401
#     4  10  23  42  62  95 135 180 221 278 337 405
#     4  11  22  42  65  97 139 174 224 281 340 409
#     4  10  21  40  63  94 131 175 221 272 346 397
#
# _framework density 20.967599
#
# number of rings (size 3 to 8) (size 9 to 14) (size 15 to 20)
#    0.000    1.750    2.500    1.500    1.750    1.500 
#   13.500    6.875    0.000    3.000    0.000    0.000 
#    0.000    0.000    0.000    0.000    0.000    0.000 
#
# Total GULP energy -178740.266951 kJ/mol
# GULP energy per Si atom -5585.633342 kJ/mol
# Density = 2.091988 g / cm^3
# Si number density = 20.967599 Si / 1000 Ang^3
#
#
#
# Elastic Constant Matrix: (Units=GPa)
#
#
# Indices 1 2 3 4 5 6 
#
# 1 114.5248 50.9271 24.1257 0.0000 -2.7539 0.0000
# 2 50.9271 106.5945 33.5293 0.0000 1.3463 0.0000
# 3 24.1257 33.5293 43.4812 0.0000 7.6709 0.0000
# 4 0.0000 0.0000 0.0000 24.4134 0.0000 3.1564
# 5 -2.7539 1.3463 7.6709 0.0000 18.4795 0.0000
# 6 0.0000 0.0000 0.0000 3.1564 0.0000 35.6851
#
#
#
# Elastic Compliance Matrix: (Units=1/GPa)
#
#
# Indices 1 2 3 4 5 6 
#
# 1 0.011546 -0.004422 -0.003623 0.000000 0.003547 0.000000
# 2 -0.004422 0.014269 -0.008902 0.000000 0.001997 0.000000
# 3 -0.003623 -0.008902 0.034371 0.000000 -0.014159 0.000000
# 4 0.000000 0.000000 0.000000 0.041435 0.000000 -0.003665
# 5 0.003547 0.001997 -0.014159 0.000000 0.060374 0.000000
# 6 0.000000 0.000000 0.000000 -0.003665 0.000000 0.028347
#
#
# Mechanical properties :
#
#
# Convention : Reuss Voigt Hill
#
# Bulk Modulus (GPa) = 38.03200 53.52942 45.78071
# Shear Modulus (GPa) = 21.45935 26.11682 23.78809
#
# Velocity S-wave (km/s) = 3.20262 3.53311 3.37191
# Velocity P-wave (km/s) = 5.64389 6.49837 6.08614
#
# Compressibility (1/GPa) = 0.02629365
#
# Stress axis : x y z
#
# Youngs Moduli (GPa) = 86.60682 70.08318 29.09469
#
# Poissons Ratio (x) = 0.30990 0.10540
# Poissons Ratio (y) = 0.38296 0.25899
# Poissons Ratio (z) = 0.31373 0.62386
#
# Static dielectric constant tensor:
#      x y z
#    x 1.766320 0.000000 0.011480 
#    y 0.000000 1.800030 0.000000 
#    z 0.011480 0.000000 1.748750 
# 
# From -- ./inp_files/49034.got.cif
#   From: 2010.05.17/outbox.cif.g08.bks.cpg/sg14_25_cif.got.tgz:49034.got - 2010.06.03 17:49:19.
