data_PCOD9244485
_publ_section_title
;
Structure prediction by ZEFSAII (Michael W. Deem and Ramdas Pophale) SiO2 
 PCOD9244485
Probable space group: P 21/C
;
_chemical_formula_sum "Si O2"
_cell_formula_units_Z 24
_cell_length_a 9.065676
_cell_length_b 9.980790
_cell_length_c 12.715034
_cell_angle_alpha 90.000000
_cell_angle_beta 104.715846
_cell_angle_gamma 90.000000
_cell_volume 1112.750552
_symmetry_space_group_name_H-M "P 21/C"
_symmetry_group_IT_number 14
_symmetry_cell_setting 'monoclinic'
loop_
_space_group_symop_operation_xyz
x,y,z
-x,1/2+y,1/2-z
-x,-y,-z
x,1/2-y,1/2+z
loop_
_atom_site_type_symbol
_atom_site_label
_atom_site_fract_x
_atom_site_fract_y
_atom_site_fract_z
Si Si1 0.089942 0.848258 0.332550
Si Si2 0.403913 0.078311 0.257444
Si Si3 0.318155 0.727966 0.718521
Si Si4 0.810367 0.749984 0.419032
Si Si5 0.031621 0.613621 0.591905
Si Si6 0.674509 0.547976 0.034081
O O1 0.211156 0.745774 0.301295
O O2 0.944899 0.787447 0.363284
O O3 0.038693 0.926996 0.215924
O O4 0.191628 0.939642 0.426813
O O5 0.565238 0.153398 0.279603
O O6 0.295106 0.133576 0.145767
O O7 0.327384 0.122582 0.353548
O O8 0.400636 0.916380 0.251781
O O9 0.192032 0.692459 0.606639
O O10 0.894322 0.713212 0.543051
O O11 0.706214 0.872697 0.433968
O O12 0.000000 0.500000 0.500000
O O13 0.500000 0.500000 0.000000
#
# Coordination Sequence:
#
# PCOD9244485 Si02
#       6
#     4   4   4   4   4   4
#     4   9  22  40  60 100 126 170 224 273 319 403
#     4  11  22  45  64  98 133 171 217 273 334 401
#     4   9  22  43  67  92 137 172 213 278 324 399
#     4  12  21  39  70  90 130 172 222 275 337 385
#     4  10  20  41  65  94 128 171 217 281 328 384
#     4  11  24  41  64  92 134 177 216 269 335 405
#
# _framework density 21.568176000000001
#
# number of rings (size 3 to 8) (size 9 to 14) (size 15 to 20)
#    1.000    0.667    1.667    3.500    2.333    0.000 
#    3.000    2.500    0.000    0.000    0.000    0.000 
#    0.000    0.000    0.000    0.000    0.000    0.000 
#
# Total GULP energy -133704.579332 kJ/mol
# GULP energy per Si atom -5571.024139 kJ/mol
# Density = 2.151909 g / cm^3
# Si number density = 21.568176 Si / 1000 Ang^3
#
#
#
# Elastic Constant Matrix: (Units=GPa)
#
#
# Indices 1 2 3 4 5 6 
#
# 1 99.1751 38.7957 13.0105 0.0000 10.4819 0.0000
# 2 38.7957 42.2417 17.1935 0.0000 1.8151 0.0000
# 3 13.0105 17.1935 84.3400 0.0000 27.8831 0.0000
# 4 0.0000 0.0000 0.0000 30.4222 0.0000 3.5230
# 5 10.4819 1.8151 27.8831 0.0000 46.8259 0.0000
# 6 0.0000 0.0000 0.0000 3.5230 0.0000 29.5900
#
#
#
# Elastic Compliance Matrix: (Units=1/GPa)
#
#
# Indices 1 2 3 4 5 6 
#
# 1 0.016429 -0.015761 0.002107 0.000000 -0.004321 0.000000
# 2 -0.015761 0.041203 -0.008226 0.000000 0.006829 0.000000
# 3 0.002107 -0.008226 0.016509 0.000000 -0.009984 0.000000
# 4 0.000000 0.000000 0.000000 0.033330 0.000000 -0.003968
# 5 -0.004321 0.006829 -0.009984 0.000000 0.028003 0.000000
# 6 0.000000 0.000000 0.000000 -0.003968 0.000000 0.034268
#
#
# Mechanical properties :
#
#
# Convention : Reuss Voigt Hill
#
# Bulk Modulus (GPa) = 32.91401 40.41736 36.66569
# Shear Modulus (GPa) = 22.35855 31.81809 27.08832
#
# Velocity S-wave (km/s) = 3.22319 3.84504 3.54777
# Velocity P-wave (km/s) = 5.39866 6.20423 5.81541
#
# Compressibility (1/GPa) = 0.03038220
#
# Stress axis : x y z
#
# Youngs Moduli (GPa) = 60.86900 24.27012 60.57210
#
# Poissons Ratio (x) = 0.38251 -0.12764
# Poissons Ratio (y) = 0.95933 0.49827
# Poissons Ratio (z) = -0.12827 0.19965
#
# Static dielectric constant tensor:
#      x y z
#    x 1.789220 0.000000 0.026520 
#    y 0.000000 1.851620 0.000000 
#    z 0.026520 0.000000 1.865870 
# 
# From -- ./inp_files/39366.got.cif
#   From: 2010.05.17/outbox.cif.g08.bks.cpg/sg14_20_cif.got.tgz:39366.got - 2010.06.03 17:49:19.
