data_PCOD9244051
_publ_section_title
;
Structure prediction by ZEFSAII (Michael W. Deem and Ramdas Pophale) SiO2 
 PCOD9244051
Probable space group: P 21/C
;
_chemical_formula_sum "Si O2"
_cell_formula_units_Z 24
_cell_length_a 24.151837
_cell_length_b 9.061879
_cell_length_c 17.038896
_cell_angle_alpha 90.000000
_cell_angle_beta 18.626661
_cell_angle_gamma 90.000000
_cell_volume 1191.091676
_symmetry_space_group_name_H-M "P 21/C"
_symmetry_group_IT_number 14
_symmetry_cell_setting 'monoclinic'
loop_
_space_group_symop_operation_xyz
x,y,z
-x,1/2+y,1/2-z
-x,-y,-z
x,1/2-y,1/2+z
loop_
_atom_site_type_symbol
_atom_site_label
_atom_site_fract_x
_atom_site_fract_y
_atom_site_fract_z
Si Si1 0.311745 0.715430 0.827191
Si Si2 0.042084 0.573507 0.077745
Si Si3 0.686082 0.807939 0.793701
Si Si4 0.225237 0.460191 0.429950
Si Si5 0.103869 0.215134 0.846690
Si Si6 0.895515 0.052618 0.259210
O O1 0.490970 0.636643 0.565009
O O2 0.166776 0.685876 0.956260
O O3 0.234060 0.646025 0.011758
O O4 0.338082 0.892211 0.788056
O O5 0.868358 0.558404 0.361383
O O6 0.982281 0.641216 0.076071
O O7 0.157529 0.424996 0.926067
O O8 0.688979 0.687686 0.719828
O O9 0.735038 0.738560 0.812157
O O10 0.064564 0.480019 0.585246
O O11 0.160112 0.103867 0.701872
O O12 0.958425 0.144391 0.099060
#
# Coordination Sequence:
#
# PCOD9244051 Si02
#       6
#     4   4   4   4   4   4
#     4  11  22  40  60  91 124 156 199 257 307 350
#     4  11  21  39  65  88 115 164 207 245 293 379
#     4  11  24  38  59  96 126 150 200 262 311 352
#     4  10  20  39  65  86 117 164 207 236 299 374
#     4  10  20  40  61  85 118 160 211 242 301 367
#     4   9  20  38  64  85 116 166 206 247 294 376
#
# _framework density 20.149584000000001
#
# number of rings (size 3 to 8) (size 9 to 14) (size 15 to 20)
#    0.000    1.667    1.667    4.500    2.333    0.000 
#    6.000    0.000    0.000    0.000    0.000    0.000 
#    0.000    0.000    0.000    0.000    0.000    0.000 
#
# Total GULP energy -133793.232885 kJ/mol
# GULP energy per Si atom -5574.718037 kJ/mol
# Density = 2.010372 g / cm^3
# Si number density = 20.149584 Si / 1000 Ang^3
#
#
#
# Elastic Constant Matrix: (Units=GPa)
#
#
# Indices 1 2 3 4 5 6 
#
# 1 59.5455 37.6805 21.9986 0.0000 23.7840 0.0000
# 2 37.6805 101.1297 28.4248 0.0000 21.0140 0.0000
# 3 21.9986 28.4248 82.9772 0.0000 16.8552 0.0000
# 4 0.0000 0.0000 0.0000 19.9419 0.0000 7.1098
# 5 23.7840 21.0140 16.8552 0.0000 16.7644 0.0000
# 6 0.0000 0.0000 0.0000 7.1098 0.0000 22.2277
#
#
#
# Elastic Compliance Matrix: (Units=1/GPa)
#
#
# Indices 1 2 3 4 5 6 
#
# 1 0.040218 -0.004392 0.001651 0.000000 -0.053213 0.000000
# 2 -0.004392 0.013996 -0.001674 0.000000 -0.009630 0.000000
# 3 0.001651 -0.001674 0.015377 0.000000 -0.015705 0.000000
# 4 0.000000 0.000000 0.000000 0.056600 0.000000 -0.018104
# 5 -0.053213 -0.009630 -0.015705 0.000000 0.163006 0.000000
# 6 0.000000 0.000000 0.000000 -0.018104 0.000000 0.050780
#
#
# Mechanical properties :
#
#
# Convention : Reuss Voigt Hill
#
# Bulk Modulus (GPa) = 16.45762 46.65115 31.55439
# Shear Modulus (GPa) = 13.54790 22.15669 17.85229
#
# Velocity S-wave (km/s) = 2.59582 3.31963 2.97978
# Velocity P-wave (km/s) = 4.14365 6.15597 5.24718
#
# Compressibility (1/GPa) = 0.06076211
#
# Stress axis : x y z
#
# Youngs Moduli (GPa) = 24.86477 71.44743 65.03068
#
# Poissons Ratio (x) = 0.31378 -0.10738
# Poissons Ratio (y) = 0.10920 0.10886
# Poissons Ratio (z) = -0.04106 0.11961
#
# Static dielectric constant tensor:
#      x y z
#    x 1.704260 0.000000 0.023500 
#    y 0.000000 1.817620 0.000000 
#    z 0.023500 0.000000 1.676020 
# 
# From -- ./inp_files/56976.got.cif
#   From: 2010.05.17/outbox.cif.g08.bks.cpg/sg14_29_cif.got.tgz:56976.got - 2010.06.03 17:49:19.
