data_PCOD9244971
_publ_section_title
;
Structure prediction by ZEFSAII (Michael W. Deem and Ramdas Pophale) SiO2 
 PCOD9244971
Probable space group: P 21/C
;
_chemical_formula_sum "Si O2"
_cell_formula_units_Z 32
_cell_length_a 27.502699
_cell_length_b 5.054426
_cell_length_c 31.754675
_cell_angle_alpha 90.000000
_cell_angle_beta 19.634239
_cell_angle_gamma 90.000000
_cell_volume 1483.244708
_symmetry_space_group_name_H-M "P 21/C"
_symmetry_group_IT_number 14
_symmetry_cell_setting 'monoclinic'
loop_
_space_group_symop_operation_xyz
x,y,z
-x,1/2+y,1/2-z
-x,-y,-z
x,1/2-y,1/2+z
loop_
_atom_site_type_symbol
_atom_site_label
_atom_site_fract_x
_atom_site_fract_y
_atom_site_fract_z
Si Si1 0.930235 0.184291 0.326230
Si Si2 0.957861 0.791627 0.172402
Si Si3 0.636548 0.127666 0.024939
Si Si4 0.858680 0.773408 0.630559
Si Si5 0.860764 0.111292 0.055962
Si Si6 0.243922 0.701554 0.665504
Si Si7 0.321361 0.775867 0.691848
Si Si8 0.537498 0.134461 0.339719
O O1 0.770966 0.273872 0.442629
O O2 0.036346 0.384575 0.214487
O O3 0.966154 0.224850 0.345630
O O4 0.870237 0.529918 0.229877
O O5 0.843142 0.027782 0.271163
O O6 0.074261 0.885797 0.043268
O O7 0.507483 0.337875 0.133997
O O8 0.580668 0.837020 0.080763
O O9 0.683716 0.127704 0.937512
O O10 0.857656 0.668397 0.583419
O O11 0.788742 0.521738 0.712738
O O12 0.023787 0.785175 0.511585
O O13 0.759291 0.016866 0.724431
O O14 0.695818 0.203342 0.193060
O O15 0.348837 0.736953 0.620072
O O16 0.449793 0.835871 0.619717
#
# Coordination Sequence:
#
# PCOD9244971 Si02
#       8
#     4   4   4   4   4   4   4   4
#     4  12  23  45  73  96 118 159 217 278 332 370
#     4  12  23  41  67 105 119 156 214 291 322 356
#     4  12  25  44  63  92 129 172 215 260 321 397
#     4  10  21  35  64  91 131 173 219 263 303 363
#     4  10  22  40  63  96 131 170 216 260 314 370
#     4  12  23  39  67  96 132 158 219 272 320 364
#     4  11  21  40  60  98 130 175 215 258 315 371
#     4  11  26  40  62  90 138 182 203 241 322 403
#
# _framework density 21.574323
#
# number of rings (size 3 to 8) (size 9 to 14) (size 15 to 20)
#    0.000    0.750    5.000    3.000    0.000    9.500 
#    0.000    1.250    0.000    0.000    0.000    0.000 
#    0.000    0.000    0.000    0.000    0.000    0.000 
#
# Total GULP energy -179103.275302 kJ/mol
# GULP energy per Si atom -5596.977353 kJ/mol
# Density = 2.152522 g / cm^3
# Si number density = 21.574323 Si / 1000 Ang^3
#
#
#
# Elastic Constant Matrix: (Units=GPa)
#
#
# Indices 1 2 3 4 5 6 
#
# 1 57.7900 -8.6797 8.2031 0.0000 3.5632 0.0000
# 2 -8.6797 75.6222 -10.8940 0.0000 1.0340 0.0000
# 3 8.2031 -10.8940 37.0576 0.0000 -7.3791 0.0000
# 4 0.0000 0.0000 0.0000 30.2834 0.0000 -8.4015
# 5 3.5632 1.0340 -7.3791 0.0000 37.6161 0.0000
# 6 0.0000 0.0000 0.0000 -8.4015 0.0000 16.1676
#
#
#
# Elastic Compliance Matrix: (Units=1/GPa)
#
#
# Indices 1 2 3 4 5 6 
#
# 1 0.018277 0.001542 -0.004106 0.000000 -0.002579 0.000000
# 2 0.001542 0.013945 0.003801 0.000000 0.000216 0.000000
# 3 -0.004106 0.003801 0.030250 0.000000 0.006219 0.000000
# 4 0.000000 0.000000 0.000000 0.038584 0.000000 0.020050
# 5 -0.002579 0.000216 0.006219 0.000000 0.028043 0.000000
# 6 0.000000 0.000000 0.000000 0.020050 0.000000 0.072271
#
#
# Mechanical properties :
#
#
# Convention : Reuss Voigt Hill
#
# Bulk Modulus (GPa) = 15.39744 16.41426 15.90585
# Shear Modulus (GPa) = 22.67108 28.93612 25.80360
#
# Velocity S-wave (km/s) = 3.24518 3.66625 3.46212
# Velocity P-wave (km/s) = 4.60369 5.05437 4.83429
#
# Compressibility (1/GPa) = 0.06494584
#
# Stress axis : x y z
#
# Youngs Moduli (GPa) = 54.71216 71.70907 33.05804
#
# Poissons Ratio (x) = -0.11054 0.13575
# Poissons Ratio (y) = -0.08434 -0.12567
# Poissons Ratio (z) = 0.22467 -0.27260
#
# Static dielectric constant tensor:
#      x y z
#    x 1.781940 0.000000 0.008670 
#    y 0.000000 1.806240 0.000000 
#    z 0.008670 0.000000 1.795890 
# 
# From -- ./inp_files/80748.got.cif
#   From: 2010.05.17/outbox.cif.g08.bks.cpg/sg14_41_cif.got.tgz:80748.got - 2010.06.03 17:49:19.
