data_PCOD9244998
_publ_section_title
;
Structure prediction by ZEFSAII (Michael W. Deem and Ramdas Pophale) SiO2 
 PCOD9244998
Probable space group: P 21/C
;
_chemical_formula_sum "Si O2"
_cell_formula_units_Z 32
_cell_length_a 19.581699
_cell_length_b 7.908628
_cell_length_c 24.607971
_cell_angle_alpha 90.000000
_cell_angle_beta 22.407218
_cell_angle_gamma 90.000000
_cell_volume 1452.664188
_symmetry_space_group_name_H-M "P 21/C"
_symmetry_group_IT_number 14
_symmetry_cell_setting 'monoclinic'
loop_
_space_group_symop_operation_xyz
x,y,z
-x,1/2+y,1/2-z
-x,-y,-z
x,1/2-y,1/2+z
loop_
_atom_site_type_symbol
_atom_site_label
_atom_site_fract_x
_atom_site_fract_y
_atom_site_fract_z
Si Si1 0.479552 0.149597 0.733849
Si Si2 0.932419 0.263497 0.040785
Si Si3 0.536482 0.683054 0.430863
Si Si4 0.829628 0.624887 0.782422
Si Si5 0.213786 0.620043 0.453006
Si Si6 0.275780 0.712837 0.205559
Si Si7 0.710444 0.592099 0.203455
Si Si8 0.432091 0.024503 0.441306
O O1 0.646326 0.227470 0.642546
O O2 0.390279 0.309946 0.769398
O O3 0.327067 0.050337 0.879132
O O4 0.547796 0.020232 0.636570
O O5 0.859973 0.118083 0.054781
O O6 0.892708 0.260195 0.134009
O O7 0.827937 0.432949 0.099648
O O8 0.143286 0.279586 0.878694
O O9 0.704535 0.734145 0.345496
O O10 0.368631 0.658868 0.594926
O O11 0.581642 0.553866 0.349253
O O12 0.480571 0.851113 0.437579
O O13 0.778349 0.452667 0.788401
O O14 0.756865 0.593678 0.896980
O O15 0.040517 0.649118 0.618224
O O16 0.421175 0.655070 0.143708
#
# Coordination Sequence:
#
# PCOD9244998 Si02
#       8
#     4   4   4   4   4   4   4   4
#     4  11  23  39  57  78 113 151 188 234 280 336
#     4  11  21  33  55  86 115 147 185 231 276 336
#     4   8  15  30  55  84 110 138 175 231 276 324
#     4   9  17  32  58  84 107 140 187 225 281 333
#     4  12  23  37  58  81 113 152 193 229 280 337
#     4   9  16  30  56  88 108 137 184 226 279 333
#     4  10  21  36  54  82 118 145 184 232 284 326
#     4   8  16  33  56  80 108 139 179 231 273 332
#
# _framework density 22.028490000000001
#
# number of rings (size 3 to 8) (size 9 to 14) (size 15 to 20)
#    0.000    2.250    2.500    3.000    0.000    1.500 
#    0.000    1.250    2.750    3.000    0.000    0.000 
#    0.000    0.000    0.000    0.000    0.000    0.000 
#
# Total GULP energy -178551.629276 kJ/mol
# GULP energy per Si atom -5579.738415 kJ/mol
# Density = 2.197835 g / cm^3
# Si number density = 22.028490 Si / 1000 Ang^3
#
#
#
# Elastic Constant Matrix: (Units=GPa)
#
#
# Indices 1 2 3 4 5 6 
#
# 1 36.8786 4.4221 -0.0516 0.0000 -7.0654 0.0000
# 2 4.4221 38.8348 10.0448 0.0000 -9.2335 0.0000
# 3 -0.0516 10.0448 73.4179 0.0000 5.3908 0.0000
# 4 0.0000 0.0000 0.0000 20.5898 0.0000 -0.3599
# 5 -7.0654 -9.2335 5.3908 0.0000 28.6597 0.0000
# 6 0.0000 0.0000 0.0000 -0.3599 0.0000 25.0124
#
#
#
# Elastic Compliance Matrix: (Units=1/GPa)
#
#
# Indices 1 2 3 4 5 6 
#
# 1 0.028568 -0.001631 -0.000239 0.000000 0.006562 0.000000
# 2 -0.001631 0.029554 -0.004780 0.000000 0.010019 0.000000
# 3 -0.000239 -0.004780 0.014593 0.000000 -0.004344 0.000000
# 4 0.000000 0.000000 0.000000 0.048580 0.000000 0.000699
# 5 0.006562 0.010019 -0.004344 0.000000 0.040555 0.000000
# 6 0.000000 0.000000 0.000000 0.000699 0.000000 0.039990
#
#
# Mechanical properties :
#
#
# Convention : Reuss Voigt Hill
#
# Bulk Modulus (GPa) = 16.83040 19.77356 18.30198
# Shear Modulus (GPa) = 21.28140 23.83345 22.55743
#
# Velocity S-wave (km/s) = 3.11156 3.29285 3.20349
# Velocity P-wave (km/s) = 4.53497 4.84283 4.69143
#
# Compressibility (1/GPa) = 0.05941631
#
# Stress axis : x y z
#
# Youngs Moduli (GPa) = 35.00361 33.83588 68.52379
#
# Poissons Ratio (x) = 0.05519 0.01635
# Poissons Ratio (y) = 0.05709 0.32757
# Poissons Ratio (z) = 0.00835 0.16175
#
# Static dielectric constant tensor:
#      x y z
#    x 1.802480 0.000000 0.045100 
#    y 0.000000 1.873880 0.000000 
#    z 0.045100 0.000000 1.833920 
# 
# From -- ./inp_files/77977.got.cif
#   From: 2010.05.17/outbox.cif.g08.bks.cpg/sg14_39_cif.got.tgz:77977.got - 2010.06.03 17:49:19.
