data_PCOD9244375
_publ_section_title
;
Structure prediction by ZEFSAII (Michael W. Deem and Ramdas Pophale) SiO2 
 PCOD9244375
Probable space group: P 21/C
;
_chemical_formula_sum "Si O2"
_cell_formula_units_Z 30
_cell_length_a 7.077051
_cell_length_b 17.481902
_cell_length_c 12.231048
_cell_angle_alpha 90.000000
_cell_angle_beta 48.174138
_cell_angle_gamma 90.000000
_cell_volume 1127.620576
_symmetry_space_group_name_H-M "P 21/C"
_symmetry_group_IT_number 14
_symmetry_cell_setting 'monoclinic'
loop_
_space_group_symop_operation_xyz
x,y,z
-x,1/2+y,1/2-z
-x,-y,-z
x,1/2-y,1/2+z
loop_
_atom_site_type_symbol
_atom_site_label
_atom_site_fract_x
_atom_site_fract_y
_atom_site_fract_z
Si Si1 0.596707 0.471659 0.207250
Si Si2 0.000056 0.559494 0.758849
Si Si3 0.124199 0.282840 0.092465
Si Si4 0.655601 0.251009 0.900105
Si Si5 0.743852 0.633568 0.168589
Si Si6 0.807386 0.136372 0.022054
Si Si7 0.000000 0.000000 0.000000
Si Si8 0.241759 0.590217 0.077999
O O1 0.763986 0.449272 0.248902
O O2 0.725478 0.550955 0.117305
O O3 0.306745 0.485627 0.348725
O O4 0.645855 0.415352 0.087786
O O5 0.115699 0.562669 0.590726
O O6 0.870744 0.639582 0.836640
O O7 0.799122 0.491861 0.852203
O O8 0.832080 0.260569 0.226412
O O9 0.361422 0.226728 0.023820
O O10 0.167225 0.303797 0.950279
O O11 0.810994 0.209092 0.938460
O O12 0.621957 0.342064 0.914003
O O13 0.473014 0.644087 0.325277
O O14 0.957393 0.622521 0.175953
O O15 0.976186 0.096753 0.049449
#
# Coordination Sequence:
#
# PCOD9244375 Si02
#       8
#     4   4   4   4   4   4   2   4
#     4  10  20  40  69 108 133 187 232 304 353 436
#     4  10  21  43  75  96 143 182 245 294 366 431
#     4  11  23  47  65 100 137 190 230 301 354 454
#     4  11  27  42  68  98 146 182 242 288 381 425
#     4  10  20  42  69  95 135 172 243 281 363 423
#     4  10  24  45  66 103 143 189 234 315 358 443
#     4  10  24  40  70 106 150 172 248 290 370 420
#     4  11  21  39  71 101 131 190 234 299 355 438
#
# _framework density 26.604693000000001
#
# number of rings (size 3 to 8) (size 9 to 14) (size 15 to 20)
#    0.000    1.600    2.667    1.600    3.733    8.533 
#    0.000    5.333    0.000    0.000    0.000    0.000 
#    0.000    0.000    0.000    0.000    0.000    0.000 
#
# Total GULP energy -167163.557546 kJ/mol
# GULP energy per Si atom -5572.118585 kJ/mol
# Density = 2.654414 g / cm^3
# Si number density = 26.604693 Si / 1000 Ang^3
#
#
#
# Elastic Constant Matrix: (Units=GPa)
#
#
# Indices 1 2 3 4 5 6 
#
# 1 85.4295 27.3162 46.3246 0.0000 -22.2639 0.0000
# 2 27.3162 63.0289 42.3114 0.0000 -12.8649 0.0000
# 3 46.3246 42.3114 198.0138 0.0000 -26.1261 0.0000
# 4 0.0000 0.0000 0.0000 37.2761 0.0000 -5.0963
# 5 -22.2639 -12.8649 -26.1261 0.0000 37.8575 0.0000
# 6 0.0000 0.0000 0.0000 -5.0963 0.0000 33.6698
#
#
#
# Elastic Compliance Matrix: (Units=1/GPa)
#
#
# Indices 1 2 3 4 5 6 
#
# 1 0.015804 -0.004219 -0.001935 0.000000 0.006526 0.000000
# 2 -0.004219 0.020193 -0.003025 0.000000 0.002293 0.000000
# 3 -0.001935 -0.003025 0.006451 0.000000 0.002286 0.000000
# 4 0.000000 0.000000 0.000000 0.027394 0.000000 0.004146
# 5 0.006526 0.002293 0.002286 0.000000 0.032609 0.000000
# 6 0.000000 0.000000 0.000000 0.004146 0.000000 0.030328
#
#
# Mechanical properties :
#
#
# Convention : Reuss Voigt Hill
#
# Bulk Modulus (GPa) = 41.51015 64.26408 52.88712
# Shear Modulus (GPa) = 31.41355 37.12868 34.27112
#
# Velocity S-wave (km/s) = 3.43994 3.73978 3.59299
# Velocity P-wave (km/s) = 5.60482 6.54642 6.09383
#
# Compressibility (1/GPa) = 0.02409049
#
# Stress axis : x y z
#
# Youngs Moduli (GPa) = 63.27379 49.52202 155.01787
#
# Poissons Ratio (x) = 0.20891 0.29995
# Poissons Ratio (y) = 0.26693 0.46898
# Poissons Ratio (z) = 0.12243 0.14982
#
# Static dielectric constant tensor:
#      x y z
#    x -0.399760 0.000000 -0.866130 
#    y 0.000000 2.055000 0.000000 
#    z -0.866130 0.000000 1.764640 
# 
# From -- ./inp_files/41790.got.cif
#   From: 2010.05.17/outbox.cif.g08.bks.cpg/sg14_21_cif.got.tgz:41790.got - 2010.06.03 17:49:19.
