data_PCOD9244729
_publ_section_title
;
Structure prediction by ZEFSAII (Michael W. Deem and Ramdas Pophale) SiO2 
 PCOD9244729
Probable space group: P 21/C
;
_chemical_formula_sum "Si O2"
_cell_formula_units_Z 32
_cell_length_a 19.683661
_cell_length_b 14.637533
_cell_length_c 13.697963
_cell_angle_alpha 90.000000
_cell_angle_beta 159.522072
_cell_angle_gamma 90.000000
_cell_volume 1380.725397
_symmetry_space_group_name_H-M "P 21/C"
_symmetry_group_IT_number 14
_symmetry_cell_setting 'monoclinic'
loop_
_space_group_symop_operation_xyz
x,y,z
-x,1/2+y,1/2-z
-x,-y,-z
x,1/2-y,1/2+z
loop_
_atom_site_type_symbol
_atom_site_label
_atom_site_fract_x
_atom_site_fract_y
_atom_site_fract_z
Si Si1 0.444172 0.645382 0.232340
Si Si2 0.551898 0.999396 0.725127
Si Si3 0.555031 0.831894 0.093463
Si Si4 0.201413 0.673216 0.374843
Si Si5 0.894764 0.780519 0.080566
Si Si6 0.888101 0.129364 0.456923
Si Si7 0.188512 0.466816 0.615455
Si Si8 0.824164 0.507956 0.028976
O O1 0.559515 0.583861 0.310961
O O2 0.570468 0.671915 0.496994
O O3 0.332308 0.734365 0.041257
O O4 0.288766 0.575175 0.071060
O O5 0.652105 0.091893 0.898614
O O6 0.324867 0.014052 0.390931
O O7 0.669550 0.974697 0.786432
O O8 0.672471 0.747012 0.290994
O O9 0.665273 0.917392 0.289339
O O10 0.332080 0.836676 0.821039
O O11 0.035491 0.701205 0.229327
O O12 0.090564 0.640102 0.128686
O O13 0.973627 0.809580 0.291175
O O14 0.895786 0.864475 0.005515
O O15 0.901784 0.031186 0.529354
O O16 0.004584 0.531108 0.342381
#
# Coordination Sequence:
#
# PCOD9244729 Si02
#       8
#     4   4   4   4   4   4   4   4
#     4  11  23  42  64  98 132 169 228 276 324 407
#     4  11  25  41  69  98 132 184 220 270 344 396
#     4  11  21  40  71  89 131 175 220 276 337 391
#     4  12  23  44  67  96 136 177 224 274 337 399
#     4  11  24  44  64 100 132 177 223 276 331 394
#     4  10  23  42  65  94 134 170 226 275 329 399
#     4  10  23  44  63  94 142 170 221 280 328 397
#     4  10  20  43  64  94 127 171 219 281 330 386
#
# _framework density 23.176224000000001
#
# number of rings (size 3 to 8) (size 9 to 14) (size 15 to 20)
#    0.000    1.250    3.750    4.500    1.750    4.500 
#    4.500    4.375    0.000    0.000    0.000    0.000 
#    0.000    0.000    0.000    0.000    0.000    0.000 
#
# Total GULP energy -178899.870027 kJ/mol
# GULP energy per Si atom -5590.620938 kJ/mol
# Density = 2.312347 g / cm^3
# Si number density = 23.176224 Si / 1000 Ang^3
#
#
#
# Elastic Constant Matrix: (Units=GPa)
#
#
# Indices 1 2 3 4 5 6 
#
# 1 52.0468 21.1282 13.2010 0.0000 -10.3274 0.0000
# 2 21.1282 57.4688 8.8639 0.0000 -12.9949 0.0000
# 3 13.2010 8.8639 143.5300 0.0000 -29.0431 0.0000
# 4 0.0000 0.0000 0.0000 -131.5328 0.0000 -27.1935
# 5 -10.3274 -12.9949 -29.0431 0.0000 28.1607 0.0000
# 6 0.0000 0.0000 0.0000 -27.1935 0.0000 11.7361
#
#
#
# Elastic Compliance Matrix: (Units=1/GPa)
#
#
# Indices 1 2 3 4 5 6 
#
# 1 0.023301 -0.007480 -0.000822 0.000000 0.004246 0.000000
# 2 -0.007480 0.021898 0.001043 0.000000 0.008437 0.000000
# 3 -0.000822 0.001043 0.008865 0.000000 0.009322 0.000000
# 4 0.000000 0.000000 0.000000 -0.005140 0.000000 -0.011910
# 5 0.004246 0.008437 0.009322 0.000000 0.050576 0.000000
# 6 0.000000 0.000000 0.000000 -0.011910 0.000000 0.057610
#
#
# Mechanical properties :
#
#
# Convention : Reuss Voigt Hill
#
# Bulk Modulus (GPa) = 25.28721 37.71464 31.50092
# Shear Modulus (GPa) = 27.05521 -4.33704 11.35908
#
# Velocity S-wave (km/s) = 3.42039 -1.36945 2.21626
# Velocity P-wave (km/s) = 5.15104 3.71588 4.49116
#
# Compressibility (1/GPa) = 0.03954569
#
# Stress axis : x y z
#
# Youngs Moduli (GPa) = 42.91702 45.66718 112.80636
#
# Poissons Ratio (x) = 0.34157 0.09273
# Poissons Ratio (y) = 0.32100 -0.11764
# Poissons Ratio (z) = 0.03528 -0.04763
#
# Static dielectric constant tensor:
#      x y z
#    x 1.914710 0.000000 0.022790 
#    y 0.000000 1.920610 0.000000 
#    z 0.022790 0.000000 1.873730 
# 
# From -- ./inp_files/50724.got.cif
#   From: 2010.05.17/outbox.cif.g08.bks.cpg/sg14_26_cif.got.tgz:50724.got - 2010.06.03 17:49:19.
