data_PCOD9244277
_publ_section_title
;
Structure prediction by ZEFSAII (Michael W. Deem and Ramdas Pophale) SiO2 
 PCOD9244277
Probable space group: P 21/C
;
_chemical_formula_sum "Si O2"
_cell_formula_units_Z 32
_cell_length_a 11.370570
_cell_length_b 16.197493
_cell_length_c 17.495790
_cell_angle_alpha 90.000000
_cell_angle_beta 29.865206
_cell_angle_gamma 90.000000
_cell_volume 1604.571617
_symmetry_space_group_name_H-M "P 21/C"
_symmetry_group_IT_number 14
_symmetry_cell_setting 'monoclinic'
loop_
_space_group_symop_operation_xyz
x,y,z
-x,1/2+y,1/2-z
-x,-y,-z
x,1/2-y,1/2+z
loop_
_atom_site_type_symbol
_atom_site_label
_atom_site_fract_x
_atom_site_fract_y
_atom_site_fract_z
Si Si1 0.096110 0.353582 0.011903
Si Si2 0.250013 0.456414 0.144917
Si Si3 0.466361 0.367539 0.550008
Si Si4 0.144525 0.521720 0.755032
Si Si5 0.083891 0.025685 0.036456
Si Si6 0.378760 0.207821 0.502461
Si Si7 0.151045 0.687761 0.360824
Si Si8 0.433561 0.888270 0.843195
O O1 0.208656 0.313562 0.026522
O O2 0.308182 0.382348 0.838732
O O3 0.933169 0.431202 0.124972
O O4 0.947464 0.277434 0.064072
O O5 0.091476 0.482501 0.162342
O O6 0.101542 0.484815 0.301135
O O7 0.500000 0.500000 0.000000
O O8 0.303546 0.359639 0.107664
O O9 0.264490 0.432748 0.687720
O O10 0.670430 0.417826 0.391456
O O11 0.374817 0.296214 0.545741
O O12 0.571596 0.341115 0.572942
O O13 0.049537 0.124370 0.057058
O O14 0.334261 0.981726 0.912017
O O15 0.000000 0.000000 0.000000
O O16 0.641934 0.193884 0.319555
O O17 0.265548 0.650780 0.373231
#
# Coordination Sequence:
#
# PCOD9244277 Si02
#       8
#     4   4   4   4   4   4   4   4
#     4  10  22  42  65  91 129 169 216 261 313 399
#     4  11  21  39  63  93 124 162 220 264 308 384
#     4  11  22  41  64  95 130 169 208 266 328 374
#     4  10  23  39  66  93 129 170 210 260 326 384
#     4  10  21  37  62  87 123 161 204 263 322 369
#     4  10  22  36  65  93 122 161 216 266 311 377
#     4  10  20  40  65  90 116 171 210 257 321 379
#     4  10  23  41  61  91 132 164 208 269 320 379
#
# _framework density 19.943017000000001
#
# number of rings (size 3 to 8) (size 9 to 14) (size 15 to 20)
#    0.000    1.750    3.750    0.000    3.500    2.500 
#    0.000    0.000    2.750    0.000    0.000    0.000 
#    0.000    0.000    0.000    0.000    0.000    0.000 
#
# Total GULP energy -178558.014890 kJ/mol
# GULP energy per Si atom -5579.937965 kJ/mol
# Density = 1.989763 g / cm^3
# Si number density = 19.943017 Si / 1000 Ang^3
#
#
#
# Elastic Constant Matrix: (Units=GPa)
#
#
# Indices 1 2 3 4 5 6 
#
# 1 41.5999 22.4660 14.4734 0.0000 5.9144 0.0000
# 2 22.4660 82.3503 33.2353 0.0000 -1.2090 0.0000
# 3 14.4734 33.2353 78.0535 0.0000 0.9397 0.0000
# 4 0.0000 0.0000 0.0000 27.1134 0.0000 -2.1011
# 5 5.9144 -1.2090 0.9397 0.0000 33.7170 0.0000
# 6 0.0000 0.0000 0.0000 -2.1011 0.0000 22.6037
#
#
#
# Elastic Compliance Matrix: (Units=1/GPa)
#
#
# Indices 1 2 3 4 5 6 
#
# 1 0.029495 -0.007177 -0.002348 0.000000 -0.005366 0.000000
# 2 -0.007177 0.016426 -0.005688 0.000000 0.002007 0.000000
# 3 -0.002348 -0.005688 0.015672 0.000000 -0.000229 0.000000
# 4 0.000000 0.000000 0.000000 0.037150 0.000000 0.003453
# 5 -0.005366 0.002007 -0.000229 0.000000 0.030678 0.000000
# 6 0.000000 0.000000 0.000000 0.003453 0.000000 0.044562
#
#
# Mechanical properties :
#
#
# Convention : Reuss Voigt Hill
#
# Bulk Modulus (GPa) = 32.08651 38.03923 35.06287
# Shear Modulus (GPa) = 23.27776 25.47541 24.37658
#
# Velocity S-wave (km/s) = 3.42016 3.57796 3.49995
# Velocity P-wave (km/s) = 5.63211 6.01535 5.82688
#
# Compressibility (1/GPa) = 0.03116574
#
# Stress axis : x y z
#
# Youngs Moduli (GPa) = 33.90452 60.87848 63.80924
#
# Poissons Ratio (x) = 0.43695 0.14985
# Poissons Ratio (y) = 0.24335 0.36292
# Poissons Ratio (z) = 0.07962 0.34625
#
# Static dielectric constant tensor:
#      x y z
#    x 1.702110 0.000000 -0.009900 
#    y 0.000000 1.721440 0.000000 
#    z -0.009900 0.000000 1.662020 
# 
# From -- ./inp_files/57993.got.cif
#   From: 2010.05.17/outbox.cif.g08.bks.cpg/sg14_29_cif.got.tgz:57993.got - 2010.06.03 17:49:19.
