data_PCOD9244555
_publ_section_title
;
Structure prediction by ZEFSAII (Michael W. Deem and Ramdas Pophale) SiO2 
 PCOD9244555
Probable space group: P 21/C
;
_chemical_formula_sum "Si O2"
_cell_formula_units_Z 32
_cell_length_a 6.212754
_cell_length_b 14.354109
_cell_length_c 16.241778
_cell_angle_alpha 90.000000
_cell_angle_beta 85.581781
_cell_angle_gamma 90.000000
_cell_volume 1444.113926
_symmetry_space_group_name_H-M "P 21/C"
_symmetry_group_IT_number 14
_symmetry_cell_setting 'monoclinic'
loop_
_space_group_symop_operation_xyz
x,y,z
-x,1/2+y,1/2-z
-x,-y,-z
x,1/2-y,1/2+z
loop_
_atom_site_type_symbol
_atom_site_label
_atom_site_fract_x
_atom_site_fract_y
_atom_site_fract_z
Si Si1 0.292381 0.035224 0.556636
Si Si2 0.770979 0.735973 0.694767
Si Si3 0.128683 0.911043 0.198913
Si Si4 0.023605 0.361855 0.929431
Si Si5 0.549887 0.358335 0.178312
Si Si6 0.743114 0.274377 0.540148
Si Si7 0.871914 0.031957 0.085028
Si Si8 0.472979 0.117233 0.930843
O O1 0.178008 0.110071 0.500608
O O2 0.371416 0.078994 0.639334
O O3 0.500000 0.000000 0.500000
O O4 0.131702 0.950005 0.577777
O O5 0.846876 0.834556 0.656919
O O6 0.574677 0.719624 0.763581
O O7 0.686662 0.682303 0.616157
O O8 0.976899 0.677947 0.720065
O O9 0.286459 0.920099 0.272231
O O10 0.297563 0.891177 0.120767
O O11 0.976619 0.991386 0.165413
O O12 0.879870 0.274268 0.963701
O O13 0.680702 0.307183 0.103414
O O14 0.867501 0.357014 0.582720
O O15 0.530565 0.326762 0.511398
O O16 0.640931 0.982974 0.073862
O O17 0.000000 0.000000 0.000000
#
# Coordination Sequence:
#
# PCOD9244555 Si02
#       8
#     4   4   4   4   4   4   4   4
#     4  11  25  48  75 103 137 194 246 303 351 429
#     4  10  22  43  70  99 137 184 224 294 359 415
#     4  10  22  44  65  96 146 186 218 293 359 412
#     4  11  24  45  79 100 135 185 253 292 352 431
#     4  11  26  43  70 100 150 180 238 300 357 418
#     4  12  22  42  75 104 132 185 243 291 343 434
#     4  11  22  40  71 104 139 182 233 284 352 422
#     4  10  20  41  70  98 136 177 228 284 349 421
#
# _framework density 22.158915
#
# number of rings (size 3 to 8) (size 9 to 14) (size 15 to 20)
#    0.000    1.250    3.750    1.875    1.750    0.000 
#    0.000   10.000    0.000    0.000    0.000    0.000 
#    0.000    0.000    0.000    0.000    0.000    0.000 
#
# Total GULP energy -178782.770420 kJ/mol
# GULP energy per Si atom -5586.961576 kJ/mol
# Density = 2.210848 g / cm^3
# Si number density = 22.158915 Si / 1000 Ang^3
#
#
#
# Elastic Constant Matrix: (Units=GPa)
#
#
# Indices 1 2 3 4 5 6 
#
# 1 82.5848 20.4195 25.0065 0.0000 20.6786 0.0000
# 2 20.4195 73.7207 20.7387 0.0000 21.3408 0.0000
# 3 25.0065 20.7387 79.2858 0.0000 26.2482 0.0000
# 4 0.0000 0.0000 0.0000 21.0242 0.0000 -5.8966
# 5 20.6786 21.3408 26.2482 0.0000 49.0551 0.0000
# 6 0.0000 0.0000 0.0000 -5.8966 0.0000 28.9708
#
#
#
# Elastic Compliance Matrix: (Units=1/GPa)
#
#
# Indices 1 2 3 4 5 6 
#
# 1 0.014393 -0.002151 -0.002768 0.000000 -0.003650 0.000000
# 2 -0.002151 0.016168 -0.001850 0.000000 -0.005137 0.000000
# 3 -0.002768 -0.001850 0.016184 0.000000 -0.006688 0.000000
# 4 0.000000 0.000000 0.000000 0.050444 0.000000 0.010267
# 5 -0.003650 -0.005137 -0.006688 0.000000 0.027737 0.000000
# 6 0.000000 0.000000 0.000000 0.010267 0.000000 0.036607
#
#
# Mechanical properties :
#
#
# Convention : Reuss Voigt Hill
#
# Bulk Modulus (GPa) = 30.11551 40.88007 35.49779
# Shear Modulus (GPa) = 26.86146 31.10513 28.98330
#
# Velocity S-wave (km/s) = 3.48547 3.75070 3.62052
# Velocity P-wave (km/s) = 5.46061 6.10292 5.79068
#
# Compressibility (1/GPa) = 0.03320548
#
# Stress axis : x y z
#
# Youngs Moduli (GPa) = 69.47891 61.85038 61.79074
#
# Poissons Ratio (x) = 0.13305 0.17106
# Poissons Ratio (y) = 0.14946 0.11431
# Poissons Ratio (z) = 0.19235 0.11442
#
# Static dielectric constant tensor:
#      x y z
#    x 1.851850 0.000000 0.016250 
#    y 0.000000 1.834990 0.000000 
#    z 0.016250 0.000000 1.825860 
# 
# From -- ./inp_files/53307.got.cif
#   From: 2010.05.17/outbox.cif.g08.bks.cpg/sg14_27_cif.got.tgz:53307.got - 2010.06.03 17:49:19.
