data_PCOD9244099
_publ_section_title
;
Structure prediction by ZEFSAII (Michael W. Deem and Ramdas Pophale) SiO2 
 PCOD9244099
Probable space group: P 21/C
;
_chemical_formula_sum "Si O2"
_cell_formula_units_Z 28
_cell_length_a 5.644693
_cell_length_b 12.629957
_cell_length_c 20.013651
_cell_angle_alpha 90.000000
_cell_angle_beta 107.792663
_cell_angle_gamma 90.000000
_cell_volume 1358.571015
_symmetry_space_group_name_H-M "P 21/C"
_symmetry_group_IT_number 14
_symmetry_cell_setting 'monoclinic'
loop_
_space_group_symop_operation_xyz
x,y,z
-x,1/2+y,1/2-z
-x,-y,-z
x,1/2-y,1/2+z
loop_
_atom_site_type_symbol
_atom_site_label
_atom_site_fract_x
_atom_site_fract_y
_atom_site_fract_z
Si Si1 0.046529 0.517820 0.768048
Si Si2 0.250310 0.665740 0.674913
Si Si3 0.406298 0.509682 0.362277
Si Si4 0.941727 0.689156 0.854515
Si Si5 0.671240 0.689094 0.211242
Si Si6 0.520709 0.759582 0.920759
Si Si7 0.243639 0.311128 0.421444
O O1 0.130578 0.617984 0.730961
O O2 0.949807 0.568840 0.827830
O O3 0.263953 0.432707 0.792526
O O4 0.826597 0.467281 0.705612
O O5 0.418533 0.568652 0.664458
O O6 0.394234 0.772709 0.704691
O O7 0.054052 0.688054 0.599476
O O8 0.522682 0.618573 0.395655
O O9 0.319372 0.433506 0.415311
O O10 0.232041 0.720333 0.892990
O O11 0.835291 0.762806 0.785368
O O12 0.733522 0.701543 0.894669
O O13 0.713225 0.747813 0.143987
O O14 0.613360 0.761477 0.004977
#
# Coordination Sequence:
#
# PCOD9244099 Si02
#       7
#     4   4   4   4   4   4   4
#     4  11  22  41  66 105 131 177 237 291 337 406
#     4  10  20  39  67  96 133 175 229 284 347 407
#     4  10  21  39  70  97 135 175 225 288 354 406
#     4  12  25  44  67 100 136 177 232 284 336 409
#     4  11  22  42  71  95 136 185 225 286 339 407
#     4  12  27  43  67 103 142 179 222 290 349 403
#     4  10  24  42  64  98 140 177 228 276 353 416
#
# _framework density 20.609888999999999
#
# number of rings (size 3 to 8) (size 9 to 14) (size 15 to 20)
#    0.000    1.143    5.714    2.143    6.000    1.714 
#    0.000    1.429    0.000    0.000    0.000    0.000 
#    0.000    0.000    0.000    0.000    0.000    0.000 
#
# Total GULP energy -156238.220911 kJ/mol
# GULP energy per Si atom -5579.936461 kJ/mol
# Density = 2.056298 g / cm^3
# Si number density = 20.609889 Si / 1000 Ang^3
#
#
#
# Elastic Constant Matrix: (Units=GPa)
#
#
# Indices 1 2 3 4 5 6 
#
# 1 92.1168 9.1328 39.1588 0.0000 10.8397 0.0000
# 2 9.1328 50.2664 22.9688 0.0000 4.2667 0.0000
# 3 39.1588 22.9688 93.7651 0.0000 10.8054 0.0000
# 4 0.0000 0.0000 0.0000 14.4961 0.0000 4.4456
# 5 10.8397 4.2667 10.8054 0.0000 20.5325 0.0000
# 6 0.0000 0.0000 0.0000 4.4456 0.0000 27.0237
#
#
#
# Elastic Compliance Matrix: (Units=1/GPa)
#
#
# Indices 1 2 3 4 5 6 
#
# 1 0.013575 0.000302 -0.005227 0.000000 -0.004479 0.000000
# 2 0.000302 0.022477 -0.005403 0.000000 -0.001987 0.000000
# 3 -0.005227 -0.005403 0.014610 0.000000 -0.003806 0.000000
# 4 0.000000 0.000000 0.000000 0.072649 0.000000 -0.011951
# 5 -0.004479 -0.001987 -0.003806 0.000000 0.053484 0.000000
# 6 0.000000 0.000000 0.000000 -0.011951 0.000000 0.038971
#
#
# Mechanical properties :
#
#
# Convention : Reuss Voigt Hill
#
# Bulk Modulus (GPa) = 33.32715 42.07433 37.70074
# Shear Modulus (GPa) = 20.29030 23.40300 21.84665
#
# Velocity S-wave (km/s) = 3.14107 3.37341 3.25931
# Velocity P-wave (km/s) = 5.41855 5.96927 5.70056
#
# Compressibility (1/GPa) = 0.03000556
#
# Stress axis : x y z
#
# Youngs Moduli (GPa) = 73.66544 44.49054 68.44554
#
# Poissons Ratio (x) = -0.01345 0.35778
# Poissons Ratio (y) = -0.02227 0.36982
# Poissons Ratio (z) = 0.38506 0.24039
#
# Static dielectric constant tensor:
#      x y z
#    x 1.879350 0.000000 -0.009180 
#    y 0.000000 1.715370 0.000000 
#    z -0.009180 0.000000 1.733440 
# 
# From -- ./inp_files/63366.got.cif
#   From: 2010.05.17/outbox.cif.g08.bks.cpg/sg14_32_cif.got.tgz:63366.got - 2010.06.03 17:49:19.
