data_PCOD9244754
_publ_section_title
;
Structure prediction by ZEFSAII (Michael W. Deem and Ramdas Pophale) SiO2 
 PCOD9244754
Probable space group: P 21/C
;
_chemical_formula_sum "Si O2"
_cell_formula_units_Z 28
_cell_length_a 16.021146
_cell_length_b 5.219018
_cell_length_c 14.861200
_cell_angle_alpha 90.000000
_cell_angle_beta 68.677216
_cell_angle_gamma 90.000000
_cell_volume 1157.553002
_symmetry_space_group_name_H-M "P 21/C"
_symmetry_group_IT_number 14
_symmetry_cell_setting 'monoclinic'
loop_
_space_group_symop_operation_xyz
x,y,z
-x,1/2+y,1/2-z
-x,-y,-z
x,1/2-y,1/2+z
loop_
_atom_site_type_symbol
_atom_site_label
_atom_site_fract_x
_atom_site_fract_y
_atom_site_fract_z
Si Si1 0.645406 0.563803 0.051188
Si Si2 0.474358 0.008371 0.707348
Si Si3 0.029787 0.253928 0.039472
Si Si4 0.962251 0.012035 0.244371
Si Si5 0.287727 0.746809 0.300541
Si Si6 0.788496 0.945828 0.019604
Si Si7 0.776010 0.199433 0.362462
O O1 0.538700 0.543275 0.097059
O O2 0.677683 0.434323 0.133588
O O3 0.688044 0.845314 0.040783
O O4 0.693287 0.434019 0.947174
O O5 0.511169 0.798573 0.765471
O O6 0.370758 0.936852 0.740457
O O7 0.986695 0.207072 0.152896
O O8 0.137479 0.271204 0.004737
O O9 0.000000 0.500000 0.000000
O O10 0.000000 0.000000 0.000000
O O11 0.856061 0.008816 0.304225
O O12 0.005332 0.226857 0.296184
O O13 0.213544 0.588405 0.384493
O O14 0.252227 0.842783 0.218578
O O15 0.813930 0.114370 0.924197
#
# Coordination Sequence:
#
# PCOD9244754 Si02
#       7
#     4   4   4   4   4   4   4
#     4  10  23  42  69  95 139 181 225 292 347 418
#     4  10  20  43  70 100 138 185 231 281 352 416
#     4  12  27  44  71  99 132 183 235 283 344 417
#     4  12  25  46  66  94 139 179 221 286 347 403
#     4  10  23  42  70 100 135 183 230 284 350 423
#     4  11  23  45  67  97 140 179 229 291 348 409
#     4  11  25  42  66 103 135 181 234 290 350 416
#
# _framework density 24.188953999999999
#
# number of rings (size 3 to 8) (size 9 to 14) (size 15 to 20)
#    0.000    1.143    2.857    2.571    6.000    1.714 
#    0.000    0.714    0.000    0.000    0.000    0.000 
#    0.000    0.000    0.000    0.000    0.000    0.000 
#
# Total GULP energy -156329.727263 kJ/mol
# GULP energy per Si atom -5583.204545 kJ/mol
# Density = 2.413390 g / cm^3
# Si number density = 24.188954 Si / 1000 Ang^3
#
#
#
# Elastic Constant Matrix: (Units=GPa)
#
#
# Indices 1 2 3 4 5 6 
#
# 1 50.3751 -5.6887 34.8028 0.0000 -11.9115 0.0000
# 2 -5.6887 76.8915 -2.5165 0.0000 -1.1530 0.0000
# 3 34.8028 -2.5165 99.8199 0.0000 -21.0927 0.0000
# 4 0.0000 0.0000 0.0000 24.8392 0.0000 -9.1914
# 5 -11.9115 -1.1530 -21.0927 0.0000 30.4167 0.0000
# 6 0.0000 0.0000 0.0000 -9.1914 0.0000 27.1471
#
#
#
# Elastic Compliance Matrix: (Units=1/GPa)
#
#
# Indices 1 2 3 4 5 6 
#
# 1 0.026954 0.001794 -0.008328 0.000000 0.004848 0.000000
# 2 0.001794 0.013154 -0.000047 0.000000 0.001169 0.000000
# 3 -0.008328 -0.000047 0.014331 0.000000 0.006675 0.000000
# 4 0.000000 0.000000 0.000000 0.046025 0.000000 0.015583
# 5 0.004848 0.001169 0.006675 0.000000 0.039448 0.000000
# 6 0.000000 0.000000 0.000000 0.015583 0.000000 0.042113
#
#
# Mechanical properties :
#
#
# Convention : Reuss Voigt Hill
#
# Bulk Modulus (GPa) = 24.22631 31.14239 27.68435
# Shear Modulus (GPa) = 23.92977 29.84653 26.88815
#
# Velocity S-wave (km/s) = 3.14870 3.51649 3.33767
# Velocity P-wave (km/s) = 4.82248 5.42127 5.13062
#
# Compressibility (1/GPa) = 0.04127743
#
# Stress axis : x y z
#
# Youngs Moduli (GPa) = 37.10085 76.02206 69.77974
#
# Poissons Ratio (x) = -0.13640 0.58111
# Poissons Ratio (y) = -0.06657 0.00328
# Poissons Ratio (z) = 0.30897 0.00357
#
# Static dielectric constant tensor:
#      x y z
#    x 1.975950 0.000000 0.102250 
#    y 0.000000 1.740360 0.000000 
#    z 0.102250 0.000000 2.076740 
# 
# From -- ./inp_files/47920.got.cif
#   From: 2010.05.17/outbox.cif.g08.bks.cpg/sg14_24_cif.got.tgz:47920.got - 2010.06.03 17:49:19.
