data_PCOD9244111
_publ_section_title
;
Structure prediction by ZEFSAII (Michael W. Deem and Ramdas Pophale) SiO2 
 PCOD9244111
Probable space group: P 21/C
;
_chemical_formula_sum "Si O2"
_cell_formula_units_Z 32
_cell_length_a 9.412351
_cell_length_b 28.997616
_cell_length_c 11.371612
_cell_angle_alpha 90.000000
_cell_angle_beta 25.914797
_cell_angle_gamma 90.000000
_cell_volume 1356.431157
_symmetry_space_group_name_H-M "P 21/C"
_symmetry_group_IT_number 14
_symmetry_cell_setting 'monoclinic'
loop_
_space_group_symop_operation_xyz
x,y,z
-x,1/2+y,1/2-z
-x,-y,-z
x,1/2-y,1/2+z
loop_
_atom_site_type_symbol
_atom_site_label
_atom_site_fract_x
_atom_site_fract_y
_atom_site_fract_z
Si Si1 0.458601 0.177261 0.903784
Si Si2 0.398597 0.536987 0.752574
Si Si3 0.097121 0.138867 0.520135
Si Si4 0.641814 0.722392 0.283161
Si Si5 0.808472 0.889376 0.085571
Si Si6 0.509156 0.635465 0.058262
Si Si7 0.649023 0.557458 0.310499
Si Si8 0.222089 0.724931 0.401298
O O1 0.230282 0.150427 0.985002
O O2 0.744824 0.141760 0.724738
O O3 0.605368 0.225596 0.748830
O O4 0.302764 0.193014 0.141460
O O5 0.633057 0.565836 0.662058
O O6 0.446104 0.552181 0.580461
O O7 0.457246 0.482110 0.701856
O O8 0.024030 0.545889 0.064792
O O9 0.189003 0.192698 0.443944
O O10 0.180552 0.124230 0.589861
O O11 0.329583 0.107003 0.266967
O O12 0.842597 0.768546 0.153765
O O13 0.280819 0.720583 0.498643
O O14 0.624868 0.871926 0.339185
O O15 0.192293 0.895890 0.818949
O O16 0.369719 0.685376 0.207405
#
# Coordination Sequence:
#
# PCOD9244111 Si02
#       8
#     4   4   4   4   4   4   4   4
#     4  11  24  39  70  87 125 169 225 273 312 393
#     4  10  21  38  68 103 132 167 223 273 324 391
#     4  10  23  43  62  98 126 178 217 269 325 396
#     4  10  23  40  64  90 126 165 222 270 325 389
#     4  12  25  44  65 100 130 174 218 275 334 390
#     4  11  28  42  66  91 139 174 212 273 339 392
#     4  10  20  39  69 100 132 172 218 276 323 387
#     4  10  24  41  59  91 122 169 217 266 327 384
#
# _framework density 23.59132
#
# number of rings (size 3 to 8) (size 9 to 14) (size 15 to 20)
#    0.000    1.500    1.250    2.250   10.500    2.000 
#    0.000    1.250    0.000    0.000    0.000    0.000 
#    0.000    0.000    0.000    0.000    0.000    0.000 
#
# Total GULP energy -178626.721383 kJ/mol
# GULP energy per Si atom -5582.085043 kJ/mol
# Density = 2.353762 g / cm^3
# Si number density = 23.591320 Si / 1000 Ang^3
#
#
#
# Elastic Constant Matrix: (Units=GPa)
#
#
# Indices 1 2 3 4 5 6 
#
# 1 97.2059 -12.7956 14.4837 0.0000 1.5169 0.0000
# 2 -12.7956 48.1739 -8.9047 0.0000 7.1165 0.0000
# 3 14.4837 -8.9047 49.1397 0.0000 15.1170 0.0000
# 4 0.0000 0.0000 0.0000 25.2746 0.0000 -0.1770
# 5 1.5169 7.1165 15.1170 0.0000 35.0754 0.0000
# 6 0.0000 0.0000 0.0000 -0.1770 0.0000 21.5288
#
#
#
# Elastic Compliance Matrix: (Units=1/GPa)
#
#
# Indices 1 2 3 4 5 6 
#
# 1 0.011026 0.002344 -0.002919 0.000000 0.000306 0.000000
# 2 0.002344 0.023557 0.005856 0.000000 -0.007405 0.000000
# 3 -0.002919 0.005856 0.026053 0.000000 -0.012290 0.000000
# 4 0.000000 0.000000 0.000000 0.039568 0.000000 0.000325
# 5 0.000306 -0.007405 -0.012290 0.000000 0.035296 0.000000
# 6 0.000000 0.000000 0.000000 0.000325 0.000000 0.046452
#
#
# Mechanical properties :
#
#
# Convention : Reuss Voigt Hill
#
# Bulk Modulus (GPa) = 14.04554 20.00958 17.02756
# Shear Modulus (GPa) = 25.62492 29.82485 27.72488
#
# Velocity S-wave (km/s) = 3.29933 3.55946 3.43186
# Velocity P-wave (km/s) = 4.52557 5.03916 4.78925
#
# Compressibility (1/GPa) = 0.07119697
#
# Stress axis : x y z
#
# Youngs Moduli (GPa) = 90.69335 42.45021 38.38389
#
# Poissons Ratio (x) = -0.09950 0.11205
# Poissons Ratio (y) = -0.21258 -0.22477
# Poissons Ratio (z) = 0.26475 -0.24858
#
# Static dielectric constant tensor:
#      x y z
#    x 1.984910 0.000000 -0.039910 
#    y 0.000000 1.941640 0.000000 
#    z -0.039910 0.000000 1.926540 
# 
# From -- ./inp_files/27139.got.cif
#   From: 2010.05.17/outbox.cif.g08.bks.cpg/sg14_14_cif.got.tgz:27139.got - 2010.06.03 17:49:19.
