data_PCOD9244990
_publ_section_title
;
Structure prediction by ZEFSAII (Michael W. Deem and Ramdas Pophale) SiO2 
 PCOD9244990
Probable space group: P 21/C
;
_chemical_formula_sum "Si O2"
_cell_formula_units_Z 24
_cell_length_a 5.029268
_cell_length_b 25.416728
_cell_length_c 8.055962
_cell_angle_alpha 90.000000
_cell_angle_beta 64.726792
_cell_angle_gamma 90.000000
_cell_volume 931.206188
_symmetry_space_group_name_H-M "P 21/C"
_symmetry_group_IT_number 14
_symmetry_cell_setting 'monoclinic'
loop_
_space_group_symop_operation_xyz
x,y,z
-x,1/2+y,1/2-z
-x,-y,-z
x,1/2-y,1/2+z
loop_
_atom_site_type_symbol
_atom_site_label
_atom_site_fract_x
_atom_site_fract_y
_atom_site_fract_z
Si Si1 0.080845 0.673333 0.344418
Si Si2 0.741566 0.172664 0.659729
Si Si3 0.537556 0.526696 0.216940
Si Si4 0.834395 0.771664 0.240658
Si Si5 0.816546 0.066005 0.492490
Si Si6 0.484327 0.383756 0.557048
O O1 0.393107 0.651022 0.319912
O O2 0.997063 0.716344 0.227546
O O3 0.957076 0.702097 0.542562
O O4 0.861149 0.624845 0.373325
O O5 0.515707 0.220357 0.681377
O O6 0.744847 0.127490 0.521509
O O7 0.056523 0.193784 0.632289
O O8 0.627798 0.141607 0.855396
O O9 0.628447 0.465891 0.181606
O O10 0.454937 0.556279 0.408012
O O11 0.288475 0.538843 0.148802
O O12 0.838745 0.555548 0.074417
#
# Coordination Sequence:
#
# PCOD9244990 Si02
#       6
#     4   4   4   4   4   4
#     4  10  21  36  54  79 109 141 181 225 268 319
#     4  10  21  37  56  80 110 143 181 224 269 322
#     4  10  21  37  57  83 112 142 181 226 271 323
#     4  10  21  36  54  79 109 141 181 225 268 319
#     4  10  21  37  57  83 112 142 181 226 271 323
#     4  10  21  37  56  80 110 143 181 224 269 322
#
# _framework density 25.773026000000002
#
# number of rings (size 3 to 8) (size 9 to 14) (size 15 to 20)
#    0.000    2.000    0.000    3.000    0.000    4.667 
#    0.000    0.000    0.000   12.000    0.000    0.000 
#    0.000    0.000    0.000    0.000    0.000    0.000 
#
# Total GULP energy -134208.549086 kJ/mol
# GULP energy per Si atom -5592.022879 kJ/mol
# Density = 2.571437 g / cm^3
# Si number density = 25.773026 Si / 1000 Ang^3
#
#
#
# Elastic Constant Matrix: (Units=GPa)
#
#
# Indices 1 2 3 4 5 6 
#
# 1 126.6472 7.7191 9.3760 0.0000 13.0260 0.0000
# 2 7.7191 102.0531 -15.9526 0.0000 11.9013 0.0000
# 3 9.3760 -15.9526 50.2368 0.0000 21.4328 0.0000
# 4 0.0000 0.0000 0.0000 41.3803 0.0000 9.1896
# 5 13.0260 11.9013 21.4328 0.0000 23.8059 0.0000
# 6 0.0000 0.0000 0.0000 9.1896 0.0000 38.4654
#
#
#
# Elastic Compliance Matrix: (Units=1/GPa)
#
#
# Indices 1 2 3 4 5 6 
#
# 1 0.008380 0.000094 0.000718 0.000000 -0.005279 0.000000
# 2 0.000094 0.013677 0.011796 0.000000 -0.017509 0.000000
# 3 0.000718 0.011796 0.042541 0.000000 -0.044590 0.000000
# 4 0.000000 0.000000 0.000000 0.025520 0.000000 -0.006097
# 5 -0.005279 -0.017509 -0.044590 0.000000 0.093793 0.000000
# 6 0.000000 0.000000 0.000000 -0.006097 0.000000 0.027454
#
#
# Mechanical properties :
#
#
# Convention : Reuss Voigt Hill
#
# Bulk Modulus (GPa) = 11.13416 31.24690 21.19053
# Shear Modulus (GPa) = 23.13862 39.24996 31.19429
#
# Velocity S-wave (km/s) = 2.99956 3.90668 3.48278
# Velocity P-wave (km/s) = 4.04053 5.70085 4.94093
#
# Compressibility (1/GPa) = 0.08981366
#
# Stress axis : x y z
#
# Youngs Moduli (GPa) = 119.33172 73.11309 23.50661
#
# Poissons Ratio (x) = -0.00687 -0.01687
# Poissons Ratio (y) = -0.01121 -0.27728
# Poissons Ratio (z) = -0.08567 -0.86242
#
# Static dielectric constant tensor:
#      x y z
#    x 1.892790 0.000000 0.030760 
#    y 0.000000 2.039710 0.000000 
#    z 0.030760 0.000000 2.128810 
# 
# From -- ./inp_files/6236.got.cif
#   From: 2010.05.17/outbox.cif.g08.bks.cpg/sg14_4_cif.got.tgz:6236.got - 2010.06.03 17:49:19.
