data_PCOD9244040
_publ_section_title
;
Structure prediction by ZEFSAII (Michael W. Deem and Ramdas Pophale) SiO2 
 PCOD9244040
Probable space group: P 21/C
;
_chemical_formula_sum "Si O2"
_cell_formula_units_Z 28
_cell_length_a 6.217353
_cell_length_b 29.677833
_cell_length_c 8.925629
_cell_angle_alpha 90.000000
_cell_angle_beta 54.888735
_cell_angle_gamma 90.000000
_cell_volume 1347.253451
_symmetry_space_group_name_H-M "P 21/C"
_symmetry_group_IT_number 14
_symmetry_cell_setting 'monoclinic'
loop_
_space_group_symop_operation_xyz
x,y,z
-x,1/2+y,1/2-z
-x,-y,-z
x,1/2-y,1/2+z
loop_
_atom_site_type_symbol
_atom_site_label
_atom_site_fract_x
_atom_site_fract_y
_atom_site_fract_z
Si Si1 0.622578 0.549835 0.471535
Si Si2 0.154436 0.735080 0.159106
Si Si3 0.313262 0.052599 0.709707
Si Si4 0.889617 0.029403 0.405547
Si Si5 0.638380 0.311540 0.212139
Si Si6 0.139712 0.618276 0.668736
Si Si7 0.053516 0.188932 0.968223
O O1 0.500000 0.500000 0.500000
O O2 0.732652 0.552595 0.595050
O O3 0.383554 0.584660 0.554120
O O4 0.863003 0.556180 0.260370
O O5 0.333271 0.768613 0.187364
O O6 0.011227 0.704614 0.339148
O O7 0.303591 0.705107 0.977659
O O8 0.969639 0.767584 0.132521
O O9 0.627089 0.056329 0.557261
O O10 0.130203 0.090799 0.712850
O O11 0.212320 0.005793 0.679081
O O12 0.000000 0.000000 0.500000
O O13 0.828751 0.349627 0.200106
O O14 0.345813 0.329595 0.342799
O O15 0.133633 0.651411 0.527808
#
# Coordination Sequence:
#
# PCOD9244040 Si02
#       7
#     4   4   4   4   4   4   4
#     4  12  23  43  68  89 126 171 224 274 333 386
#     4   9  20  38  68  94 122 170 216 253 314 398
#     4  11  23  42  65  92 123 167 218 271 329 383
#     4  11  23  41  68  94 116 163 227 269 326 392
#     4  10  20  40  64  95 132 167 212 262 320 385
#     4  11  24  40  61  93 137 170 210 275 329 385
#     4  10  20  39  64  95 128 168 210 261 321 383
#
# _framework density 20.783024000000001
#
# number of rings (size 3 to 8) (size 9 to 14) (size 15 to 20)
#    0.000    1.429    2.857    2.143    0.000    0.000 
#    0.000   14.286    0.000    0.000    0.000    0.000 
#    0.000    0.000    0.000    0.000    0.000    0.000 
#
# Total GULP energy -156502.317304 kJ/mol
# GULP energy per Si atom -5589.368475 kJ/mol
# Density = 2.073572 g / cm^3
# Si number density = 20.783024 Si / 1000 Ang^3
#
#
#
# Elastic Constant Matrix: (Units=GPa)
#
#
# Indices 1 2 3 4 5 6 
#
# 1 89.1129 24.0439 51.2751 0.0000 -0.2781 0.0000
# 2 24.0439 78.5521 37.0497 0.0000 0.8771 0.0000
# 3 51.2751 37.0497 127.0757 0.0000 8.9159 0.0000
# 4 0.0000 0.0000 0.0000 -7.6099 0.0000 -4.9971
# 5 -0.2781 0.8771 8.9159 0.0000 34.7150 0.0000
# 6 0.0000 0.0000 0.0000 -4.9971 0.0000 4.5197
#
#
#
# Elastic Compliance Matrix: (Units=1/GPa)
#
#
# Indices 1 2 3 4 5 6 
#
# 1 0.014967 -0.001968 -0.005578 0.000000 0.001602 0.000000
# 2 -0.001968 0.015038 -0.003628 0.000000 0.000536 0.000000
# 3 -0.005578 -0.003628 0.011379 0.000000 -0.002876 0.000000
# 4 0.000000 0.000000 0.000000 -0.076134 0.000000 -0.084175
# 5 0.001602 0.000536 -0.002876 0.000000 0.029544 0.000000
# 6 0.000000 0.000000 0.000000 -0.084175 0.000000 0.128188
#
#
# Mechanical properties :
#
#
# Convention : Reuss Voigt Hill
#
# Bulk Modulus (GPa) = 52.53004 57.71979 55.12492
# Shear Modulus (GPa) = 32.96515 18.48312 25.72413
#
# Velocity S-wave (km/s) = 3.98698 2.98541 3.52198
# Velocity P-wave (km/s) = 6.82092 6.30210 6.56664
#
# Compressibility (1/GPa) = 0.01903673
#
# Stress axis : x y z
#
# Youngs Moduli (GPa) = 66.81253 66.49826 87.87781
#
# Poissons Ratio (x) = 0.13089 0.49017
# Poissons Ratio (y) = 0.13151 0.31880
# Poissons Ratio (z) = 0.37267 0.24124
#
# Static dielectric constant tensor:
#      x y z
#    x 1.757410 0.000000 0.000790 
#    y 0.000000 1.751990 0.000000 
#    z 0.000790 0.000000 1.711130 
# 
# From -- ./inp_files/6740.got.cif
#   From: 2010.05.17/outbox.cif.g08.bks.cpg/sg14_4_cif.got.tgz:6740.got - 2010.06.03 17:49:19.
