data_PCOD9244523
_publ_section_title
;
Structure prediction by ZEFSAII (Michael W. Deem and Ramdas Pophale) SiO2 
 PCOD9244523
Probable space group: P 21/C
;
_chemical_formula_sum "Si O2"
_cell_formula_units_Z 32
_cell_length_a 8.804488
_cell_length_b 14.890929
_cell_length_c 11.219476
_cell_angle_alpha 90.000000
_cell_angle_beta 87.228208
_cell_angle_gamma 90.000000
_cell_volume 1469.230987
_symmetry_space_group_name_H-M "P 21/C"
_symmetry_group_IT_number 14
_symmetry_cell_setting 'monoclinic'
loop_
_space_group_symop_operation_xyz
x,y,z
-x,1/2+y,1/2-z
-x,-y,-z
x,1/2-y,1/2+z
loop_
_atom_site_type_symbol
_atom_site_label
_atom_site_fract_x
_atom_site_fract_y
_atom_site_fract_z
Si Si1 0.321954 0.302390 0.567475
Si Si2 0.267705 0.507093 0.570963
Si Si3 0.673561 0.332199 0.605621
Si Si4 0.746656 0.716582 0.680552
Si Si5 0.204202 0.853662 0.421121
Si Si6 0.488469 0.924849 0.260776
Si Si7 0.727296 0.436942 0.828922
Si Si8 0.015301 0.072608 0.764784
O O1 0.269471 0.403198 0.538704
O O2 0.504424 0.302611 0.574098
O O3 0.255781 0.277576 0.700170
O O4 0.274181 0.244387 0.452526
O O5 0.288214 0.575156 0.461904
O O6 0.409123 0.523742 0.654670
O O7 0.115362 0.534056 0.645852
O O8 0.790450 0.253742 0.567899
O O9 0.683403 0.354461 0.744740
O O10 0.603064 0.650316 0.708014
O O11 0.897362 0.656425 0.680962
O O12 0.353764 0.879113 0.338918
O O13 0.222579 0.900364 0.546579
O O14 0.062586 0.891244 0.352939
O O15 0.584232 0.995346 0.334960
O O16 0.864248 0.495173 0.768899
#
# Coordination Sequence:
#
# PCOD9244523 Si02
#       8
#     4   4   4   4   4   4   4   4
#     4  12  25  45  75 107 142 184 240 298 353 411
#     4  11  23  45  73  98 140 186 236 281 347 428
#     4  12  25  40  74 107 132 184 239 297 344 415
#     4  11  25  45  71 103 146 182 234 298 349 421
#     4  11  25  42  70 101 145 180 234 296 352 419
#     4  10  20  41  68 101 133 183 234 287 343 411
#     4  11  24  43  68 100 140 185 235 285 359 422
#     4  10  26  48  69 101 140 189 232 285 360 430
#
# _framework density 21.780100999999998
#
# number of rings (size 3 to 8) (size 9 to 14) (size 15 to 20)
#    0.000    1.000    3.750    2.625    5.250    4.000 
#   11.250    0.000    0.000    0.000    0.000    0.000 
#    0.000    0.000    0.000    0.000    0.000    0.000 
#
# Total GULP energy -179100.503174 kJ/mol
# GULP energy per Si atom -5596.890724 kJ/mol
# Density = 2.173053 g / cm^3
# Si number density = 21.780101 Si / 1000 Ang^3
#
#
#
# Elastic Constant Matrix: (Units=GPa)
#
#
# Indices 1 2 3 4 5 6 
#
# 1 62.5608 7.4045 27.3604 0.0000 27.4435 0.0000
# 2 7.4045 57.8893 20.9975 0.0000 5.8724 0.0000
# 3 27.3604 20.9975 129.2485 0.0000 31.9372 0.0000
# 4 0.0000 0.0000 0.0000 28.4307 0.0000 -0.8920
# 5 27.4435 5.8724 31.9372 0.0000 29.8381 0.0000
# 6 0.0000 0.0000 0.0000 -0.8920 0.0000 14.9144
#
#
#
# Elastic Compliance Matrix: (Units=1/GPa)
#
#
# Indices 1 2 3 4 5 6 
#
# 1 0.026897 -0.001143 0.000747 0.000000 -0.025313 0.000000
# 2 -0.001143 0.018412 -0.002874 0.000000 0.000504 0.000000
# 3 0.000747 -0.002874 0.010980 0.000000 -0.011873 0.000000
# 4 0.000000 0.000000 0.000000 0.035239 0.000000 0.002108
# 5 -0.025313 0.000504 -0.011873 0.000000 0.069405 0.000000
# 6 0.000000 0.000000 0.000000 0.002108 0.000000 0.067175
#
#
# Mechanical properties :
#
#
# Convention : Reuss Voigt Hill
#
# Bulk Modulus (GPa) = 20.10133 40.13594 30.11864
# Shear Modulus (GPa) = 19.90194 27.56571 23.73382
#
# Velocity S-wave (km/s) = 3.02614 3.56144 3.30464
# Velocity P-wave (km/s) = 4.63241 5.94808 5.33099
#
# Compressibility (1/GPa) = 0.04974795
#
# Stress axis : x y z
#
# Youngs Moduli (GPa) = 37.17868 54.31299 91.07710
#
# Poissons Ratio (x) = 0.06211 -0.06801
# Poissons Ratio (y) = 0.04251 0.26172
# Poissons Ratio (z) = -0.02776 0.15607
#
# Static dielectric constant tensor:
#      x y z
#    x 1.761490 0.000000 0.001090 
#    y 0.000000 1.787460 0.000000 
#    z 0.001090 0.000000 1.811710 
# 
# From -- ./inp_files/25509.got.cif
#   From: 2010.05.17/outbox.cif.g08.bks.cpg/sg14_13_cif.got.tgz:25509.got - 2010.06.03 17:49:19.
