data_PCOD9244215
_publ_section_title
;
Structure prediction by ZEFSAII (Michael W. Deem and Ramdas Pophale) SiO2 
 PCOD9244215
Probable space group: P 21/C
;
_chemical_formula_sum "Si O2"
_cell_formula_units_Z 28
_cell_length_a 10.041206
_cell_length_b 18.192263
_cell_length_c 7.338962
_cell_angle_alpha 90.000000
_cell_angle_beta 55.520095
_cell_angle_gamma 90.000000
_cell_volume 1105.110238
_symmetry_space_group_name_H-M "P 21/C"
_symmetry_group_IT_number 14
_symmetry_cell_setting 'monoclinic'
loop_
_space_group_symop_operation_xyz
x,y,z
-x,1/2+y,1/2-z
-x,-y,-z
x,1/2-y,1/2+z
loop_
_atom_site_type_symbol
_atom_site_label
_atom_site_fract_x
_atom_site_fract_y
_atom_site_fract_z
Si Si1 0.619770 0.426018 0.230772
Si Si2 0.966924 0.725350 0.569486
Si Si3 0.581893 0.913805 0.600626
Si Si4 0.282549 0.116800 0.899392
Si Si5 0.764773 0.125991 0.252564
Si Si6 0.899468 0.634095 0.983524
Si Si7 0.862021 0.028345 0.852960
O O1 0.457180 0.377307 0.361438
O O2 0.281620 0.562430 0.660726
O O3 0.561284 0.505911 0.203035
O O4 0.737321 0.396518 0.981783
O O5 0.815100 0.689886 0.576925
O O6 0.956422 0.684150 0.769555
O O7 0.954773 0.812452 0.599498
O O8 0.134836 0.699677 0.351152
O O9 0.670604 0.918328 0.335139
O O10 0.414923 0.873348 0.692638
O O11 0.708317 0.872301 0.628603
O O12 0.173710 0.057406 0.091802
O O13 0.856690 0.065195 0.057487
O O14 0.977799 0.555692 0.875868
#
# Coordination Sequence:
#
# PCOD9244215 Si02
#       7
#     4   4   4   4   4   4   4
#     4  11  21  37  66  97 124 154 204 258 308 371
#     4  10  24  43  62  85 127 170 207 258 309 371
#     4  10  20  40  64  92 126 159 204 258 317 369
#     4  10  20  40  63  91 126 161 203 257 318 362
#     4  10  21  41  62  87 126 160 199 255 308 365
#     4  10  25  42  60  89 127 164 213 252 310 377
#     4  11  22  38  63  97 121 161 204 257 311 368
#
# _framework density 25.336838
#
# number of rings (size 3 to 8) (size 9 to 14) (size 15 to 20)
#    0.000    1.714    2.857    1.286    4.000    3.429 
#    2.571    2.857    0.000    0.000    0.000    0.000 
#    0.000    0.000    0.000    0.000    0.000    0.000 
#
# Total GULP energy -156781.183679 kJ/mol
# GULP energy per Si atom -5599.327989 kJ/mol
# Density = 2.527917 g / cm^3
# Si number density = 25.336838 Si / 1000 Ang^3
#
#
#
# Elastic Constant Matrix: (Units=GPa)
#
#
# Indices 1 2 3 4 5 6 
#
# 1 94.3329 16.5832 23.4547 0.0000 -11.9687 0.0000
# 2 16.5832 72.2087 21.6140 0.0000 -9.4646 0.0000
# 3 23.4547 21.6140 95.3728 0.0000 13.4329 0.0000
# 4 0.0000 0.0000 0.0000 17.6101 0.0000 -4.6127
# 5 -11.9687 -9.4646 13.4329 0.0000 43.9399 0.0000
# 6 0.0000 0.0000 0.0000 -4.6127 0.0000 45.8045
#
#
#
# Elastic Compliance Matrix: (Units=1/GPa)
#
#
# Indices 1 2 3 4 5 6 
#
# 1 0.012150 -0.001285 -0.003264 0.000000 0.004031 0.000000
# 2 -0.001285 0.015862 -0.003878 0.000000 0.004252 0.000000
# 3 -0.003264 -0.003878 0.012968 0.000000 -0.005689 0.000000
# 4 0.000000 0.000000 0.000000 0.058324 0.000000 0.005873
# 5 0.004031 0.004252 -0.005689 0.000000 0.026511 0.000000
# 6 0.000000 0.000000 0.000000 0.005873 0.000000 0.022423
#
#
# Mechanical properties :
#
#
# Convention : Reuss Voigt Hill
#
# Bulk Modulus (GPa) = 41.44951 42.80201 42.12576
# Shear Modulus (GPa) = 28.87938 34.82174 31.85056
#
# Velocity S-wave (km/s) = 3.37978 3.71125 3.54939
# Velocity P-wave (km/s) = 5.62365 5.94090 5.78445
#
# Compressibility (1/GPa) = 0.02412574
#
# Stress axis : x y z
#
# Youngs Moduli (GPa) = 82.30664 63.04443 77.11270
#
# Poissons Ratio (x) = 0.08100 0.25173
# Poissons Ratio (y) = 0.10575 0.29901
# Poissons Ratio (z) = 0.26869 0.24446
#
# Static dielectric constant tensor:
#      x y z
#    x 2.060920 0.000000 0.047500 
#    y 0.000000 1.988310 0.000000 
#    z 0.047500 0.000000 2.068910 
# 
# From -- ./inp_files/32574.got.cif
#   From: 2010.05.17/outbox.cif.g08.bks.cpg/sg14_17_cif.got.tgz:32574.got - 2010.06.03 17:49:19.
