data_PCOD9244275
_publ_section_title
;
Structure prediction by ZEFSAII (Michael W. Deem and Ramdas Pophale) SiO2 
 PCOD9244275
Probable space group: P 21/C
;
_chemical_formula_sum "Si O2"
_cell_formula_units_Z 28
_cell_length_a 11.007994
_cell_length_b 8.486782
_cell_length_c 15.353929
_cell_angle_alpha 90.000000
_cell_angle_beta 99.699153
_cell_angle_gamma 90.000000
_cell_volume 1413.898199
_symmetry_space_group_name_H-M "P 21/C"
_symmetry_group_IT_number 14
_symmetry_cell_setting 'monoclinic'
loop_
_space_group_symop_operation_xyz
x,y,z
-x,1/2+y,1/2-z
-x,-y,-z
x,1/2-y,1/2+z
loop_
_atom_site_type_symbol
_atom_site_label
_atom_site_fract_x
_atom_site_fract_y
_atom_site_fract_z
Si Si1 0.377777 0.605559 0.973020
Si Si2 0.753087 0.319698 0.874508
Si Si3 0.747379 0.787855 0.554859
Si Si4 0.407900 0.663001 0.789720
Si Si5 0.994271 0.682922 0.523862
Si Si6 0.807176 0.811698 0.377880
Si Si7 0.640345 0.707540 0.217737
O O1 0.267200 0.478272 0.943995
O O2 0.395177 0.710009 0.889464
O O3 0.500000 0.500000 0.000000
O O4 0.346245 0.690366 0.059036
O O5 0.696824 0.240227 0.782516
O O6 0.781809 0.503918 0.862831
O O7 0.876317 0.239115 0.924506
O O8 0.722316 0.751759 0.449783
O O9 0.661993 0.729841 0.622547
O O10 0.886093 0.723927 0.580090
O O11 0.396629 0.474489 0.790230
O O12 0.537128 0.704318 0.760735
O O13 0.000000 0.500000 0.500000
O O14 0.942832 0.776721 0.432446
O O15 0.767284 0.723683 0.286574
#
# Coordination Sequence:
#
# PCOD9244275 Si02
#       7
#     4   4   4   4   4   4   4
#     4  10  20  40  65  89 125 169 209 252 321 390
#     4  11  21  41  60  90 123 164 209 260 319 379
#     4   8  20  37  62  83 122 165 201 248 323 368
#     4  11  23  36  63  90 125 161 213 265 316 381
#     4  10  21  41  62  89 122 162 212 258 309 381
#     4   9  20  38  63  83 120 164 203 253 318 377
#     4  11  20  41  58  90 119 160 206 265 313 372
#
# _framework density 19.803404
#
# number of rings (size 3 to 8) (size 9 to 14) (size 15 to 20)
#    0.857    1.143    0.000    5.571    0.000    0.000 
#    7.714    1.429    0.000    0.000    0.000    0.000 
#    0.000    0.000    0.000    0.000    0.000    0.000 
#
# Total GULP energy -156009.234477 kJ/mol
# GULP energy per Si atom -5571.758374 kJ/mol
# Density = 1.975833 g / cm^3
# Si number density = 19.803404 Si / 1000 Ang^3
#
#
#
# Elastic Constant Matrix: (Units=GPa)
#
#
# Indices 1 2 3 4 5 6 
#
# 1 80.6661 31.4637 21.8902 0.0000 11.6846 0.0000
# 2 31.4637 46.8510 30.5003 0.0000 -1.6332 0.0000
# 3 21.8902 30.5003 90.8941 0.0000 4.7792 0.0000
# 4 0.0000 0.0000 0.0000 30.2756 0.0000 7.2191
# 5 11.6846 -1.6332 4.7792 0.0000 34.2788 0.0000
# 6 0.0000 0.0000 0.0000 7.2191 0.0000 31.1306
#
#
#
# Elastic Compliance Matrix: (Units=1/GPa)
#
#
# Indices 1 2 3 4 5 6 
#
# 1 0.018264 -0.012636 0.000202 0.000000 -0.006856 0.000000
# 2 -0.012636 0.036284 -0.009519 0.000000 0.007363 0.000000
# 3 0.000202 -0.009519 0.014280 0.000000 -0.002513 0.000000
# 4 0.000000 0.000000 0.000000 0.034963 0.000000 -0.008108
# 5 -0.006856 0.007363 -0.002513 0.000000 0.032211 0.000000
# 6 0.000000 0.000000 0.000000 -0.008108 0.000000 0.034003
#
#
# Mechanical properties :
#
#
# Convention : Reuss Voigt Hill
#
# Bulk Modulus (GPa) = 40.12707 42.90218 41.51463
# Shear Modulus (GPa) = 22.50052 28.10746 25.30399
#
# Velocity S-wave (km/s) = 3.37441 3.77148 3.57845
# Velocity P-wave (km/s) = 5.95725 6.37781 6.17112
#
# Compressibility (1/GPa) = 0.02492083
#
# Stress axis : x y z
#
# Youngs Moduli (GPa) = 54.75386 27.56043 70.02973
#
# Poissons Ratio (x) = 0.34825 -0.01415
# Poissons Ratio (y) = 0.69186 0.66664
# Poissons Ratio (z) = -0.01106 0.26236
#
# Static dielectric constant tensor:
#      x y z
#    x 1.730850 0.000000 -0.009900 
#    y 0.000000 1.684200 0.000000 
#    z -0.009900 0.000000 1.737280 
# 
# From -- ./inp_files/56840.got.cif
#   From: 2010.05.17/outbox.cif.g08.bks.cpg/sg14_29_cif.got.tgz:56840.got - 2010.06.03 17:49:19.
