data_PCOD9244472
_publ_section_title
;
Structure prediction by ZEFSAII (Michael W. Deem and Ramdas Pophale) SiO2 
 PCOD9244472
Probable space group: P 21/C
;
_chemical_formula_sum "Si O2"
_cell_formula_units_Z 32
_cell_length_a 6.411620
_cell_length_b 15.537995
_cell_length_c 13.616069
_cell_angle_alpha 90.000000
_cell_angle_beta 89.899342
_cell_angle_gamma 90.000000
_cell_volume 1356.481345
_symmetry_space_group_name_H-M "P 21/C"
_symmetry_group_IT_number 14
_symmetry_cell_setting 'monoclinic'
loop_
_space_group_symop_operation_xyz
x,y,z
-x,1/2+y,1/2-z
-x,-y,-z
x,1/2-y,1/2+z
loop_
_atom_site_type_symbol
_atom_site_label
_atom_site_fract_x
_atom_site_fract_y
_atom_site_fract_z
Si Si1 0.826495 0.072908 0.521142
Si Si2 0.168170 0.735246 0.868010
Si Si3 0.827336 0.097846 0.201988
Si Si4 0.482069 0.648127 0.135968
Si Si5 0.160646 0.867827 0.163585
Si Si6 0.508984 0.307858 0.491827
Si Si7 0.780296 0.516983 0.216515
Si Si8 0.192492 0.453090 0.441792
O O1 0.916286 0.167074 0.551153
O O2 0.646734 0.089645 0.442135
O O3 0.727511 0.039801 0.622115
O O4 0.000000 0.000000 0.500000
O O5 0.052172 0.826935 0.857437
O O6 0.162642 0.686433 0.763726
O O7 0.396585 0.765769 0.909056
O O8 0.686391 0.152225 0.276453
O O9 0.978655 0.039974 0.267898
O O10 0.722111 0.032161 0.125286
O O11 0.570248 0.729051 0.076118
O O12 0.667972 0.604195 0.193707
O O13 0.285551 0.831261 0.072300
O O14 0.926987 0.888178 0.131539
O O15 0.271323 0.958675 0.190529
O O16 0.358829 0.391170 0.495494
O O17 0.000000 0.500000 0.500000
#
# Coordination Sequence:
#
# PCOD9244472 Si02
#       8
#     4   4   4   4   4   4   4   4
#     4  10  20  41  64  95 133 180 223 280 350 411
#     4  10  23  40  68 100 140 183 235 292 351 417
#     4  11  22  42  65  95 135 180 227 287 350 407
#     4  11  22  38  66  98 130 177 232 280 348 409
#     4  10  22  45  66  97 145 180 232 289 350 423
#     4  11  24  44  69  99 142 184 232 298 351 424
#     4  10  22  38  65  95 131 176 228 278 337 416
#     4  11  26  45  70 104 139 192 240 289 368 433
#
# _framework density 23.590447999999999
#
# number of rings (size 3 to 8) (size 9 to 14) (size 15 to 20)
#    0.000    1.500    2.500    1.875    1.750    4.000 
#    2.250    1.250    0.000    0.000    0.000    0.000 
#    0.000    0.000    0.000    0.000    0.000    0.000 
#
# Total GULP energy -178271.254104 kJ/mol
# GULP energy per Si atom -5570.976691 kJ/mol
# Density = 2.353675 g / cm^3
# Si number density = 23.590448 Si / 1000 Ang^3
#
#
#
# Elastic Constant Matrix: (Units=GPa)
#
#
# Indices 1 2 3 4 5 6 
#
# 1 33.7427 27.5551 30.6622 0.0000 15.5431 0.0000
# 2 27.5551 117.4367 38.9805 0.0000 18.7700 0.0000
# 3 30.6622 38.9805 101.5999 0.0000 29.7647 0.0000
# 4 0.0000 0.0000 0.0000 30.9861 0.0000 -13.1245
# 5 15.5431 18.7700 29.7647 0.0000 24.4024 0.0000
# 6 0.0000 0.0000 0.0000 -13.1245 0.0000 17.7481
#
#
#
# Elastic Compliance Matrix: (Units=1/GPa)
#
#
# Indices 1 2 3 4 5 6 
#
# 1 0.049722 -0.006384 -0.007339 0.000000 -0.017807 0.000000
# 2 -0.006384 0.010917 -0.001545 0.000000 -0.002446 0.000000
# 3 -0.007339 -0.001545 0.017011 0.000000 -0.014886 0.000000
# 4 0.000000 0.000000 0.000000 0.046991 0.000000 0.034749
# 5 -0.017807 -0.002446 -0.014886 0.000000 0.072361 0.000000
# 6 0.000000 0.000000 0.000000 0.034749 0.000000 0.082041
#
#
# Mechanical properties :
#
#
# Convention : Reuss Voigt Hill
#
# Bulk Modulus (GPa) = 21.22587 49.68611 35.45599
# Shear Modulus (GPa) = 15.37116 24.99941 20.18528
#
# Velocity S-wave (km/s) = 2.55538 3.25887 2.92833
# Velocity P-wave (km/s) = 4.20997 5.93869 5.14742
#
# Compressibility (1/GPa) = 0.04711231
#
# Stress axis : x y z
#
# Youngs Moduli (GPa) = 20.11195 91.59968 58.78397
#
# Poissons Ratio (x) = 0.58480 0.43144
# Poissons Ratio (y) = 0.12840 0.09083
# Poissons Ratio (z) = 0.14761 0.14154
#
# Static dielectric constant tensor:
#      x y z
#    x 3.379370 0.000000 -1.970860 
#    y 0.000000 2.010710 0.000000 
#    z -1.970860 0.000000 4.460950 
# 
# From -- ./inp_files/40979.got.cif
#   From: 2010.05.17/outbox.cif.g08.bks.cpg/sg14_21_cif.got.tgz:40979.got - 2010.06.03 17:49:19.
