data_PCOD9244269
_publ_section_title
;
Structure prediction by ZEFSAII (Michael W. Deem and Ramdas Pophale) SiO2 
 PCOD9244269
Probable space group: P 21/C
;
_chemical_formula_sum "Si O2"
_cell_formula_units_Z 28
_cell_length_a 23.316420
_cell_length_b 11.599159
_cell_length_c 11.770252
_cell_angle_alpha 90.000000
_cell_angle_beta 155.848443
_cell_angle_gamma 90.000000
_cell_volume 1302.442297
_symmetry_space_group_name_H-M "P 21/C"
_symmetry_group_IT_number 14
_symmetry_cell_setting 'monoclinic'
loop_
_space_group_symop_operation_xyz
x,y,z
-x,1/2+y,1/2-z
-x,-y,-z
x,1/2-y,1/2+z
loop_
_atom_site_type_symbol
_atom_site_label
_atom_site_fract_x
_atom_site_fract_y
_atom_site_fract_z
Si Si1 0.576287 0.066815 0.740092
Si Si2 0.997370 0.837066 0.600451
Si Si3 0.164017 0.455454 0.385027
Si Si4 0.526198 0.326908 0.598338
Si Si5 0.218500 0.279543 0.099667
Si Si6 0.914641 0.613866 0.367054
Si Si7 0.602911 0.940632 0.353365
O O1 0.593660 0.201461 0.737681
O O2 0.486956 0.055789 0.693729
O O3 0.500000 0.000000 0.500000
O O4 0.725237 0.002606 0.007032
O O5 0.954955 0.890456 0.402321
O O6 0.865733 0.824035 0.444956
O O7 0.023057 0.703000 0.622179
O O8 0.107823 0.929795 0.846171
O O9 0.220530 0.356170 0.569928
O O10 0.479676 0.356778 0.384849
O O11 0.606900 0.434764 0.798207
O O12 0.377676 0.319648 0.394715
O O13 0.140364 0.337153 0.851785
O O14 0.000000 0.500000 0.500000
O O15 0.764780 0.597819 0.159922
#
# Coordination Sequence:
#
# PCOD9244269 Si02
#       7
#     4   4   4   4   4   4   4
#     4  12  24  38  67  93 126 161 211 259 313 378
#     4  10  22  40  63  81 127 160 199 257 298 365
#     4  10  23  41  58  97 118 162 212 244 311 370
#     4  10  22  42  64  92 124 163 210 259 316 369
#     4  10  20  40  65  85 120 162 199 249 315 360
#     4  10  23  38  61  90 119 157 206 250 302 366
#     4  10  24  42  64  91 128 166 207 259 319 371
#
# _framework density 21.498073999999999
#
# number of rings (size 3 to 8) (size 9 to 14) (size 15 to 20)
#    0.000    1.714    1.429    1.714    6.000    0.000 
#    0.000    4.286    0.000    0.000    0.000    0.000 
#    0.000    0.000    0.000    0.000    0.000    0.000 
#
# Total GULP energy -156159.039754 kJ/mol
# GULP energy per Si atom -5577.108563 kJ/mol
# Density = 2.144914 g / cm^3
# Si number density = 21.498074 Si / 1000 Ang^3
#
#
#
# Elastic Constant Matrix: (Units=GPa)
#
#
# Indices 1 2 3 4 5 6 
#
# 1 99.0379 35.8815 7.3523 0.0000 10.0408 0.0000
# 2 35.8815 145.4176 33.6610 0.0000 7.2091 0.0000
# 3 7.3523 33.6610 34.3318 0.0000 7.0459 0.0000
# 4 0.0000 0.0000 0.0000 26.6821 0.0000 14.0061
# 5 10.0408 7.2091 7.0459 0.0000 23.3255 0.0000
# 6 0.0000 0.0000 0.0000 14.0061 0.0000 20.3782
#
#
#
# Elastic Compliance Matrix: (Units=1/GPa)
#
#
# Indices 1 2 3 4 5 6 
#
# 1 0.011510 -0.002924 0.001315 0.000000 -0.004448 0.000000
# 2 -0.002924 0.009639 -0.009031 0.000000 0.001008 0.000000
# 3 0.001315 -0.009031 0.039705 0.000000 -0.009768 0.000000
# 4 0.000000 0.000000 0.000000 0.058632 0.000000 -0.040298
# 5 -0.004448 0.001008 -0.009768 0.000000 0.047426 0.000000
# 6 0.000000 0.000000 0.000000 -0.040298 0.000000 0.076770
#
#
# Mechanical properties :
#
#
# Convention : Reuss Voigt Hill
#
# Bulk Modulus (GPa) = 25.26940 48.06408 36.66674
# Shear Modulus (GPa) = 17.97574 27.53666 22.75620
#
# Velocity S-wave (km/s) = 2.89477 3.58283 3.25702
# Velocity P-wave (km/s) = 4.79090 6.28662 5.58902
#
# Compressibility (1/GPa) = 0.03957356
#
# Stress axis : x y z
#
# Youngs Moduli (GPa) = 86.88247 103.74808 25.18552
#
# Poissons Ratio (x) = 0.30334 -0.03311
# Poissons Ratio (y) = 0.25403 0.22745
# Poissons Ratio (z) = -0.11423 0.93695
#
# Static dielectric constant tensor:
#      x y z
#    x 1.791840 0.000000 0.001240 
#    y 0.000000 1.824950 0.000000 
#    z 0.001240 0.000000 1.817390 
# 
# From -- ./inp_files/35207.got.cif
#   From: 2010.05.17/outbox.cif.g08.bks.cpg/sg14_18_cif.got.tgz:35207.got - 2010.06.03 17:49:19.
