data_PCOD9244802
_publ_section_title
;
Structure prediction by ZEFSAII (Michael W. Deem and Ramdas Pophale) SiO2 
 PCOD9244802
Probable space group: P 21/C
;
_chemical_formula_sum "Si O2"
_cell_formula_units_Z 28
_cell_length_a 19.893876
_cell_length_b 10.769105
_cell_length_c 16.377812
_cell_angle_alpha 90.000000
_cell_angle_beta 161.588648
_cell_angle_gamma 90.000000
_cell_volume 1108.199497
_symmetry_space_group_name_H-M "P 21/C"
_symmetry_group_IT_number 14
_symmetry_cell_setting 'monoclinic'
loop_
_space_group_symop_operation_xyz
x,y,z
-x,1/2+y,1/2-z
-x,-y,-z
x,1/2-y,1/2+z
loop_
_atom_site_type_symbol
_atom_site_label
_atom_site_fract_x
_atom_site_fract_y
_atom_site_fract_z
Si Si1 0.742438 0.325764 0.430925
Si Si2 0.620442 0.653898 0.535255
Si Si3 0.884366 0.341386 0.294037
Si Si4 0.895176 0.844734 0.200766
Si Si5 0.746849 0.024665 0.789062
Si Si6 0.507725 0.025757 0.267115
Si Si7 0.945348 0.573023 0.020793
O O1 0.573325 0.246982 0.183668
O O2 0.668166 0.623017 0.399553
O O3 0.821154 0.433668 0.463090
O O4 0.583232 0.392129 0.311740
O O5 0.049242 0.738621 0.823868
O O6 0.527577 0.543650 0.370387
O O7 0.709212 0.616504 0.725114
O O8 0.788489 0.367056 0.272260
O O9 0.115878 0.403300 0.570120
O O10 0.913779 0.196994 0.307487
O O11 0.731487 0.423164 0.057886
O O12 0.811486 0.795461 0.194226
O O13 0.011214 0.975045 0.357687
O O14 0.500000 0.000000 0.500000
O O15 0.000000 0.500000 0.000000
#
# Coordination Sequence:
#
# PCOD9244802 Si02
#       7
#     4   4   4   4   4   4   4
#     4  12  23  45  68  97 142 177 241 287 356 426
#     4   9  23  43  67  96 135 184 229 290 352 413
#     4  11  24  42  71 103 146 177 234 303 346 432
#     4   9  24  44  66  98 135 181 231 293 347 428
#     4  11  23  41  69 106 135 185 229 289 360 424
#     4  10  25  43  66 105 137 189 228 292 370 404
#     4  10  20  44  70  94 133 185 233 277 354 411
#
# _framework density 25.266210000000001
#
# number of rings (size 3 to 8) (size 9 to 14) (size 15 to 20)
#    0.857    0.857    1.429    2.571    6.000    1.714 
#    0.000    2.857    0.000    0.000    0.000    0.000 
#    0.000    0.000    0.000    0.000    0.000    0.000 
#
# Total GULP energy -156192.713615 kJ/mol
# GULP energy per Si atom -5578.311201 kJ/mol
# Density = 2.520870 g / cm^3
# Si number density = 25.266210 Si / 1000 Ang^3
#
#
#
# Elastic Constant Matrix: (Units=GPa)
#
#
# Indices 1 2 3 4 5 6 
#
# 1 71.9728 34.8110 17.7129 0.0000 3.6450 0.0000
# 2 34.8110 102.1256 34.4837 0.0000 14.8580 0.0000
# 3 17.7129 34.4837 158.4589 0.0000 7.2252 0.0000
# 4 0.0000 0.0000 0.0000 38.7721 0.0000 7.3711
# 5 3.6450 14.8580 7.2252 0.0000 36.5860 0.0000
# 6 0.0000 0.0000 0.0000 7.3711 0.0000 24.2692
#
#
#
# Elastic Compliance Matrix: (Units=1/GPa)
#
#
# Indices 1 2 3 4 5 6 
#
# 1 0.016723 -0.005574 -0.000690 0.000000 0.000734 0.000000
# 2 -0.005574 0.013000 -0.002009 0.000000 -0.004327 0.000000
# 3 -0.000690 -0.002009 0.006846 0.000000 -0.000468 0.000000
# 4 0.000000 0.000000 0.000000 0.027372 0.000000 -0.008314
# 5 0.000734 -0.004327 -0.000468 0.000000 0.029109 0.000000
# 6 0.000000 0.000000 0.000000 -0.008314 0.000000 0.043730
#
#
# Mechanical properties :
#
#
# Convention : Reuss Voigt Hill
#
# Bulk Modulus (GPa) = 49.94026 56.28582 53.11304
# Shear Modulus (GPa) = 31.25015 36.29545 33.77280
#
# Velocity S-wave (km/s) = 3.52068 3.79426 3.66003
# Velocity P-wave (km/s) = 6.02789 6.44365 6.23924
#
# Compressibility (1/GPa) = 0.02002392
#
# Stress axis : x y z
#
# Youngs Moduli (GPa) = 59.79893 76.92513 146.06401
#
# Poissons Ratio (x) = 0.42878 0.10075
# Poissons Ratio (y) = 0.33332 0.29338
# Poissons Ratio (z) = 0.04125 0.15451
#
# Static dielectric constant tensor:
#      x y z
#    x 1.997010 0.000000 -0.001600 
#    y 0.000000 2.183020 0.000000 
#    z -0.001600 0.000000 2.009970 
# 
# From -- ./inp_files/61326.got.cif
#   From: 2010.05.17/outbox.cif.g08.bks.cpg/sg14_31_cif.got.tgz:61326.got - 2010.06.03 17:49:19.
