data_PCOD9244809
_publ_section_title
;
Structure prediction by ZEFSAII (Michael W. Deem and Ramdas Pophale) SiO2 
 PCOD9244809
Probable space group: P 21/C
;
_chemical_formula_sum "Si O2"
_cell_formula_units_Z 30
_cell_length_a 11.966793
_cell_length_b 7.897125
_cell_length_c 14.587009
_cell_angle_alpha 90.000000
_cell_angle_beta 110.303602
_cell_angle_gamma 90.000000
_cell_volume 1292.868498
_symmetry_space_group_name_H-M "P 21/C"
_symmetry_group_IT_number 14
_symmetry_cell_setting 'monoclinic'
loop_
_space_group_symop_operation_xyz
x,y,z
-x,1/2+y,1/2-z
-x,-y,-z
x,1/2-y,1/2+z
loop_
_atom_site_type_symbol
_atom_site_label
_atom_site_fract_x
_atom_site_fract_y
_atom_site_fract_z
Si Si1 0.500000 0.500000 0.500000
Si Si2 0.160628 0.130502 0.219475
Si Si3 0.589587 0.761604 0.180381
Si Si4 0.914980 0.762948 0.991182
Si Si5 0.365110 0.867884 0.726684
Si Si6 0.830075 0.377596 0.979725
Si Si7 0.937843 0.567263 0.695483
Si Si8 0.270731 0.688861 0.385834
O O1 0.464003 0.328454 0.429998
O O2 0.358402 0.556471 0.461510
O O3 0.294894 0.143695 0.292245
O O4 0.152518 0.132093 0.106858
O O5 0.097456 0.303930 0.235236
O O6 0.075320 0.987062 0.235762
O O7 0.487537 0.678274 0.212633
O O8 0.630523 0.935201 0.242906
O O9 0.861590 0.575115 0.984061
O O10 0.913960 0.849350 0.089724
O O11 0.050712 0.733683 0.996643
O O12 0.256827 0.834949 0.628499
O O13 0.345179 0.768024 0.815805
O O14 0.764100 0.333970 0.054656
O O15 0.849458 0.407963 0.678669
#
# Coordination Sequence:
#
# PCOD9244809 Si02
#       8
#     2   4   4   4   4   4   4   4
#     4  10  20  44  72 100 142 194 240 298 358 422
#     4  12  26  48  71 109 145 192 242 308 366 449
#     4  11  24  46  73 103 149 191 248 296 364 434
#     4  11  26  44  70 105 145 191 238 305 367 452
#     4  11  24  46  67 106 142 191 237 305 356 434
#     4  11  23  44  71 102 146 188 243 299 369 431
#     4  12  27  45  74 106 144 187 245 303 377 433
#     4  11  23  44  73 101 143 192 243 306 363 434
#
# _framework density 23.204215999999999
#
# number of rings (size 3 to 8) (size 9 to 14) (size 15 to 20)
#    0.000    0.800    6.667    0.400    5.600    3.200 
#    2.400    0.667    0.000    0.000    0.000    0.000 
#    0.000    0.000    0.000    0.000    0.000    0.000 
#
# Total GULP energy -167537.868239 kJ/mol
# GULP energy per Si atom -5584.595608 kJ/mol
# Density = 2.315140 g / cm^3
# Si number density = 23.204216 Si / 1000 Ang^3
#
#
#
# Elastic Constant Matrix: (Units=GPa)
#
#
# Indices 1 2 3 4 5 6 
#
# 1 133.5027 16.5133 9.8654 0.0000 1.8015 0.0000
# 2 16.5133 34.3587 0.5964 0.0000 -13.6420 0.0000
# 3 9.8654 0.5964 19.8268 0.0000 3.6774 0.0000
# 4 0.0000 0.0000 0.0000 20.7596 0.0000 -9.4819
# 5 1.8015 -13.6420 3.6774 0.0000 24.0107 0.0000
# 6 0.0000 0.0000 0.0000 -9.4819 0.0000 43.6002
#
#
#
# Elastic Compliance Matrix: (Units=1/GPa)
#
#
# Indices 1 2 3 4 5 6 
#
# 1 0.008432 -0.005207 -0.003472 0.000000 -0.003060 0.000000
# 2 -0.005207 0.041335 -0.003171 0.000000 0.024361 0.000000
# 3 -0.003472 -0.003171 0.054082 0.000000 -0.009824 0.000000
# 4 0.000000 0.000000 0.000000 0.053483 0.000000 0.011631
# 5 -0.003060 0.024361 -0.009824 0.000000 0.057224 0.000000
# 6 0.000000 0.000000 0.000000 0.011631 0.000000 0.025465
#
#
# Mechanical properties :
#
#
# Convention : Reuss Voigt Hill
#
# Bulk Modulus (GPa) = 12.47666 26.84870 19.66268
# Shear Modulus (GPa) = 17.21544 28.38831 22.80187
#
# Velocity S-wave (km/s) = 2.72676 3.50152 3.13814
# Velocity P-wave (km/s) = 3.91180 5.28614 4.65003
#
# Compressibility (1/GPa) = 0.08014966
#
# Stress axis : x y z
#
# Youngs Moduli (GPa) = 118.59000 24.19252 18.49056
#
# Poissons Ratio (x) = 0.12598 0.06419
# Poissons Ratio (y) = 0.61753 0.05863
# Poissons Ratio (z) = 0.41171 0.07671
#
# Static dielectric constant tensor:
#      x y z
#    x 1.827920 0.000000 0.003500 
#    y 0.000000 1.895650 0.000000 
#    z 0.003500 0.000000 1.866130 
# 
# From -- ./inp_files/43765.got.cif
#   From: 2010.05.17/outbox.cif.g08.bks.cpg/sg14_22_cif.got.tgz:43765.got - 2010.06.03 17:49:19.
