data_PCOD9244276
_publ_section_title
;
Structure prediction by ZEFSAII (Michael W. Deem and Ramdas Pophale) SiO2 
 PCOD9244276
Probable space group: P 21/C
;
_chemical_formula_sum "Si O2"
_cell_formula_units_Z 32
_cell_length_a 6.323995
_cell_length_b 17.648875
_cell_length_c 15.823286
_cell_angle_alpha 90.000000
_cell_angle_beta 71.091005
_cell_angle_gamma 90.000000
_cell_volume 1670.752790
_symmetry_space_group_name_H-M "P 21/C"
_symmetry_group_IT_number 14
_symmetry_cell_setting 'monoclinic'
loop_
_space_group_symop_operation_xyz
x,y,z
-x,1/2+y,1/2-z
-x,-y,-z
x,1/2-y,1/2+z
loop_
_atom_site_type_symbol
_atom_site_label
_atom_site_fract_x
_atom_site_fract_y
_atom_site_fract_z
Si Si1 0.346476 0.209520 0.605191
Si Si2 0.422917 0.866950 0.098985
Si Si3 0.179247 0.736665 0.508376
Si Si4 0.133893 0.356841 0.568479
Si Si5 0.196769 0.513807 0.856238
Si Si6 0.370453 0.396806 0.255139
Si Si7 0.937389 0.007451 0.819996
Si Si8 0.117459 0.121918 0.489565
O O1 0.603197 0.235724 0.571444
O O2 0.190689 0.282808 0.616646
O O3 0.292091 0.161243 0.694206
O O4 0.301251 0.158778 0.527592
O O5 0.273234 0.798570 0.082552
O O6 0.517782 0.854622 0.180313
O O7 0.271670 0.941909 0.122258
O O8 0.635693 0.875108 0.010325
O O9 0.050921 0.670427 0.474666
O O10 0.014633 0.808144 0.535602
O O11 0.063065 0.427420 0.633582
O O12 0.439774 0.549544 0.809615
O O13 0.088089 0.500441 0.778238
O O14 0.206441 0.437003 0.909160
O O15 0.049977 0.574213 0.928243
O O16 0.162706 0.447078 0.311125
#
# Coordination Sequence:
#
# PCOD9244276 Si02
#       8
#     4   4   4   4   4   4   4   4
#     4  10  21  40  64  88 127 163 206 256 316 373
#     4  10  23  40  66  91 122 164 215 256 313 375
#     4  10  21  41  63  90 121 168 207 256 315 367
#     4  10  23  42  64  91 121 168 209 261 313 375
#     4  10  22  38  63  94 123 164 208 257 309 376
#     4  11  22  39  64  93 128 168 206 259 319 376
#     4  11  23  42  63  92 128 161 212 262 317 372
#     4  10  20  40  65  89 126 165 211 254 310 376
#
# _framework density 19.153044999999999
#
# number of rings (size 3 to 8) (size 9 to 14) (size 15 to 20)
#    0.000    1.750    2.500    1.125    0.000    7.500 
#   11.250    0.000    0.000    0.000    0.000    0.000 
#    0.000    0.000    0.000    0.000    0.000    0.000 
#
# Total GULP energy -178776.896112 kJ/mol
# GULP energy per Si atom -5586.778003 kJ/mol
# Density = 1.910945 g / cm^3
# Si number density = 19.153045 Si / 1000 Ang^3
#
#
#
# Elastic Constant Matrix: (Units=GPa)
#
#
# Indices 1 2 3 4 5 6 
#
# 1 95.0728 39.4955 47.6127 0.0000 10.9636 0.0000
# 2 39.4955 108.7202 72.8842 0.0000 22.7863 0.0000
# 3 47.6127 72.8842 86.6527 0.0000 17.8084 0.0000
# 4 0.0000 0.0000 0.0000 19.2554 0.0000 3.1169
# 5 10.9636 22.7863 17.8084 0.0000 24.1562 0.0000
# 6 0.0000 0.0000 0.0000 3.1169 0.0000 15.0794
#
#
#
# Elastic Compliance Matrix: (Units=1/GPa)
#
#
# Indices 1 2 3 4 5 6 
#
# 1 0.014530 0.000327 -0.008062 0.000000 -0.000960 0.000000
# 2 0.000327 0.022508 -0.017346 0.000000 -0.008593 0.000000
# 3 -0.008062 -0.017346 0.031167 0.000000 -0.002956 0.000000
# 4 0.000000 0.000000 0.000000 0.053731 0.000000 -0.011106
# 5 -0.000960 -0.008593 -0.002956 0.000000 0.052118 0.000000
# 6 0.000000 0.000000 0.000000 -0.011106 0.000000 0.068611
#
#
# Mechanical properties :
#
#
# Convention : Reuss Voigt Hill
#
# Bulk Modulus (GPa) = 55.41679 67.82562 61.62120
# Shear Modulus (GPa) = 16.73126 20.39509 18.56318
#
# Velocity S-wave (km/s) = 2.95881 3.26674 3.11658
# Velocity P-wave (km/s) = 6.37724 7.05111 6.72262
#
# Compressibility (1/GPa) = 0.01804507
#
# Stress axis : x y z
#
# Youngs Moduli (GPa) = 68.82102 44.42814 32.08511
#
# Poissons Ratio (x) = -0.01454 0.25867
# Poissons Ratio (y) = -0.02252 0.55654
# Poissons Ratio (z) = 0.55483 0.77064
#
# Static dielectric constant tensor:
#      x y z
#    x 1.667450 0.000000 0.007380 
#    y 0.000000 1.641720 0.000000 
#    z 0.007380 0.000000 1.648450 
# 
# From -- ./inp_files/37847.got.cif
#   From: 2010.05.17/outbox.cif.g08.bks.cpg/sg14_19_cif.got.tgz:37847.got - 2010.06.03 17:49:19.
