data_PCOD9244562
_publ_section_title
;
Structure prediction by ZEFSAII (Michael W. Deem and Ramdas Pophale) SiO2 
 PCOD9244562
Probable space group: P 21/C
;
_chemical_formula_sum "Si O2"
_cell_formula_units_Z 28
_cell_length_a 16.284317
_cell_length_b 6.203540
_cell_length_c 14.330962
_cell_angle_alpha 90.000000
_cell_angle_beta 120.685686
_cell_angle_gamma 90.000000
_cell_volume 1245.009672
_symmetry_space_group_name_H-M "P 21/C"
_symmetry_group_IT_number 14
_symmetry_cell_setting 'monoclinic'
loop_
_space_group_symop_operation_xyz
x,y,z
-x,1/2+y,1/2-z
-x,-y,-z
x,1/2-y,1/2+z
loop_
_atom_site_type_symbol
_atom_site_label
_atom_site_fract_x
_atom_site_fract_y
_atom_site_fract_z
Si Si1 0.131460 0.822690 0.268533
Si Si2 0.615231 0.638235 0.379020
Si Si3 0.792106 0.585495 0.030166
Si Si4 0.926825 0.517078 0.630973
Si Si5 0.084296 0.820733 0.534043
Si Si6 0.560935 0.429860 0.167785
Si Si7 0.566234 0.309680 0.497066
O O1 0.136925 0.601467 0.328804
O O2 0.122915 0.773639 0.154267
O O3 0.200962 0.987393 0.361715
O O4 0.026153 0.913347 0.234012
O O5 0.689603 0.820784 0.448241
O O6 0.625780 0.538931 0.282964
O O7 0.511310 0.753822 0.327975
O O8 0.626677 0.437552 0.456271
O O9 0.868134 0.777581 0.065130
O O10 0.827429 0.418842 0.972906
O O11 0.950500 0.365743 0.556582
O O12 0.000000 0.000000 0.500000
O O13 0.612380 0.305194 0.113349
O O14 0.497648 0.624619 0.088140
O O15 0.500000 0.500000 0.500000
#
# Coordination Sequence:
#
# PCOD9244562 Si02
#       7
#     4   4   4   4   4   4   4
#     4  11  21  40  65  91 133 179 217 283 344 399
#     4  11  22  43  69  97 139 175 227 284 340 410
#     4  11  26  40  64 104 132 174 234 281 337 416
#     4  11  21  40  66  91 126 175 227 268 340 408
#     4  11  23  40  68  96 130 181 231 274 343 416
#     4  10  20  41  73  95 129 183 221 281 353 406
#     4   9  20  39  68 100 124 174 230 266 341 416
#
# _framework density 22.489785999999999
#
# number of rings (size 3 to 8) (size 9 to 14) (size 15 to 20)
#    0.000    1.429    4.286    1.286    0.000    2.286 
#    0.000   11.429    0.000    0.000    0.000    0.000 
#    0.000    0.000    0.000    0.000    0.000    0.000 
#
# Total GULP energy -156462.809529 kJ/mol
# GULP energy per Si atom -5587.957483 kJ/mol
# Density = 2.243860 g / cm^3
# Si number density = 22.489786 Si / 1000 Ang^3
#
#
#
# Elastic Constant Matrix: (Units=GPa)
#
#
# Indices 1 2 3 4 5 6 
#
# 1 33.4653 12.5947 26.0435 0.0000 -2.4224 0.0000
# 2 12.5947 84.0830 34.7810 0.0000 -14.4127 0.0000
# 3 26.0435 34.7810 138.4450 0.0000 -22.0027 0.0000
# 4 0.0000 0.0000 0.0000 49.1275 0.0000 -7.5611
# 5 -2.4224 -14.4127 -22.0027 0.0000 29.5590 0.0000
# 6 0.0000 0.0000 0.0000 -7.5611 0.0000 28.8465
#
#
#
# Elastic Compliance Matrix: (Units=1/GPa)
#
#
# Indices 1 2 3 4 5 6 
#
# 1 0.035915 -0.003296 -0.006482 0.000000 -0.003489 0.000000
# 2 -0.003296 0.014131 -0.002130 0.000000 0.005034 0.000000
# 3 -0.006482 -0.002130 0.009899 0.000000 0.005799 0.000000
# 4 0.000000 0.000000 0.000000 0.021211 0.000000 0.005560
# 5 -0.003489 0.005034 0.005799 0.000000 0.040316 0.000000
# 6 0.000000 0.000000 0.000000 0.005560 0.000000 0.036123
#
#
# Mechanical properties :
#
#
# Convention : Reuss Voigt Hill
#
# Bulk Modulus (GPa) = 27.67984 44.75907 36.21946
# Shear Modulus (GPa) = 25.84590 33.67820 29.76205
#
# Velocity S-wave (km/s) = 3.39370 3.87394 3.64175
# Velocity P-wave (km/s) = 5.26220 6.32100 5.81575
#
# Compressibility (1/GPa) = 0.03612738
#
# Stress axis : x y z
#
# Youngs Moduli (GPa) = 27.84387 70.76783 101.01825
#
# Poissons Ratio (x) = 0.23327 0.65485
# Poissons Ratio (y) = 0.09178 0.21515
# Poissons Ratio (z) = 0.18050 0.15072
#
# Static dielectric constant tensor:
#      x y z
#    x 1.875340 0.000000 -0.023160 
#    y 0.000000 1.841510 0.000000 
#    z -0.023160 0.000000 1.829180 
# 
# From -- ./inp_files/48043.got.cif
#   From: 2010.05.17/outbox.cif.g08.bks.cpg/sg14_25_cif.got.tgz:48043.got - 2010.06.03 17:49:19.
