data_PCOD9244362
_publ_section_title
;
Structure prediction by ZEFSAII (Michael W. Deem and Ramdas Pophale) SiO2 
 PCOD9244362
Probable space group: P 21/C
;
_chemical_formula_sum "Si O2"
_cell_formula_units_Z 28
_cell_length_a 12.200251
_cell_length_b 13.874672
_cell_length_c 12.068528
_cell_angle_alpha 90.000000
_cell_angle_beta 148.992955
_cell_angle_gamma 90.000000
_cell_volume 1052.383401
_symmetry_space_group_name_H-M "P 21/C"
_symmetry_group_IT_number 14
_symmetry_cell_setting 'monoclinic'
loop_
_space_group_symop_operation_xyz
x,y,z
-x,1/2+y,1/2-z
-x,-y,-z
x,1/2-y,1/2+z
loop_
_atom_site_type_symbol
_atom_site_label
_atom_site_fract_x
_atom_site_fract_y
_atom_site_fract_z
Si Si1 0.237045 0.396434 0.806217
Si Si2 0.986167 0.392718 0.180117
Si Si3 0.605418 0.689461 0.839688
Si Si4 0.963122 0.741923 0.973175
Si Si5 0.638676 0.143693 0.231430
Si Si6 0.626599 0.000102 0.914839
Si Si7 0.377556 0.597351 0.990601
O O1 0.042280 0.352396 0.570701
O O2 0.274900 0.509295 0.834418
O O3 0.254400 0.365703 0.947510
O O4 0.452793 0.350716 0.939039
O O5 0.825244 0.349279 0.132457
O O6 0.219598 0.274981 0.096223
O O7 0.126713 0.473202 0.359712
O O8 0.811196 0.429610 0.940985
O O9 0.471963 0.775088 0.784539
O O10 0.444690 0.610186 0.649252
O O11 0.908307 0.812435 0.307448
O O12 0.196144 0.700113 0.202541
O O13 0.458823 0.065635 0.056565
O O14 0.527761 0.950790 0.717675
#
# Coordination Sequence:
#
# PCOD9244362 Si02
#       7
#     4   4   4   4   4   4   4
#     4  10  21  41  64  90 127 173 210 276 320 374
#     4   9  20  37  63  92 125 169 198 266 325 370
#     4  11  23  42  68  97 126 175 222 261 325 396
#     4  10  22  39  63  91 132 167 213 269 320 385
#     4   9  22  42  58  95 134 163 215 267 316 385
#     4  10  20  40  68  94 131 168 213 262 323 389
#     4   9  20  41  63  93 131 159 220 268 318 390
#
# _framework density 26.606272000000001
#
# number of rings (size 3 to 8) (size 9 to 14) (size 15 to 20)
#    0.857    1.429    0.000    2.571    2.000    1.143 
#    7.714    3.571    0.000    0.000    0.000    0.000 
#    0.000    0.000    0.000    0.000    0.000    0.000 
#
# Total GULP energy -155997.758548 kJ/mol
# GULP energy per Si atom -5571.348520 kJ/mol
# Density = 2.654572 g / cm^3
# Si number density = 26.606272 Si / 1000 Ang^3
#
#
#
# Elastic Constant Matrix: (Units=GPa)
#
#
# Indices 1 2 3 4 5 6 
#
# 1 145.8471 40.8773 27.0357 0.0000 22.0989 0.0000
# 2 40.8773 78.1828 23.9332 0.0000 -0.1593 0.0000
# 3 27.0357 23.9332 67.3676 0.0000 6.8033 0.0000
# 4 0.0000 0.0000 0.0000 34.7678 0.0000 1.5436
# 5 22.0989 -0.1593 6.8033 0.0000 21.5386 0.0000
# 6 0.0000 0.0000 0.0000 1.5436 0.0000 36.2239
#
#
#
# Elastic Compliance Matrix: (Units=1/GPa)
#
#
# Indices 1 2 3 4 5 6 
#
# 1 0.009934 -0.004821 -0.001282 0.000000 -0.009823 0.000000
# 2 -0.004821 0.016757 -0.004680 0.000000 0.006549 0.000000
# 3 -0.001282 -0.004680 0.017448 0.000000 -0.004231 0.000000
# 4 0.000000 0.000000 0.000000 0.028817 0.000000 -0.001228
# 5 -0.009823 0.006549 -0.004231 0.000000 0.057892 0.000000
# 6 0.000000 0.000000 0.000000 -0.001228 0.000000 0.027658
#
#
# Mechanical properties :
#
#
# Convention : Reuss Voigt Hill
#
# Bulk Modulus (GPa) = 44.29979 52.78776 48.54377
# Shear Modulus (GPa) = 26.65299 31.80947 29.23123
#
# Velocity S-wave (km/s) = 3.16849 3.46144 3.31820
# Velocity P-wave (km/s) = 5.48380 5.98823 5.74155
#
# Compressibility (1/GPa) = 0.02257347
#
# Stress axis : x y z
#
# Youngs Moduli (GPa) = 100.66623 59.67549 57.31290
#
# Poissons Ratio (x) = 0.28772 0.07346
# Poissons Ratio (y) = 0.48536 0.26821
# Poissons Ratio (z) = 0.12902 0.27926
#
# Static dielectric constant tensor:
#      x y z
#    x 2.248240 0.000000 -0.023480 
#    y 0.000000 2.071470 0.000000 
#    z -0.023480 0.000000 2.101240 
# 
# From -- ./inp_files/69449.got.cif
#   From: 2010.05.17/outbox.cif.g08.bks.cpg/sg14_35_cif.got.tgz:69449.got - 2010.06.03 17:49:19.
