data_PCOD9244908
_publ_section_title
;
Structure prediction by ZEFSAII (Michael W. Deem and Ramdas Pophale) SiO2 
 PCOD9244908
Probable space group: P 21/C
;
_chemical_formula_sum "Si O2"
_cell_formula_units_Z 32
_cell_length_a 11.816903
_cell_length_b 9.284047
_cell_length_c 14.717045
_cell_angle_alpha 90.000000
_cell_angle_beta 64.143661
_cell_angle_gamma 90.000000
_cell_volume 1452.951858
_symmetry_space_group_name_H-M "P 21/C"
_symmetry_group_IT_number 14
_symmetry_cell_setting 'monoclinic'
loop_
_space_group_symop_operation_xyz
x,y,z
-x,1/2+y,1/2-z
-x,-y,-z
x,1/2-y,1/2+z
loop_
_atom_site_type_symbol
_atom_site_label
_atom_site_fract_x
_atom_site_fract_y
_atom_site_fract_z
Si Si1 0.094404 0.606605 0.419412
Si Si2 0.618085 0.787025 0.796015
Si Si3 0.077226 0.144633 0.488519
Si Si4 0.347833 0.719911 0.362748
Si Si5 0.113401 0.190051 0.266915
Si Si6 0.125327 0.506382 0.206405
Si Si7 0.618378 0.444806 0.838558
Si Si8 0.654200 0.941822 0.591719
O O1 0.217011 0.645431 0.435405
O O2 0.132066 0.541094 0.311070
O O3 0.000000 0.500000 0.500000
O O4 0.015937 0.749965 0.428239
O O5 0.474453 0.825507 0.871597
O O6 0.740708 0.854701 0.801643
O O7 0.625936 0.612409 0.800908
O O8 0.630406 0.843400 0.688956
O O9 0.105360 0.211251 0.378982
O O10 0.209449 0.109388 0.489657
O O11 0.000000 0.000000 0.500000
O O12 0.364767 0.667220 0.251632
O O13 0.335428 0.892152 0.378230
O O14 0.101162 0.336785 0.215423
O O15 0.996818 0.086386 0.288045
O O16 0.265697 0.563799 0.130711
O O17 0.473728 0.424097 0.921019
#
# Coordination Sequence:
#
# PCOD9244908 Si02
#       8
#     4   4   4   4   4   4   4   4
#     4  11  21  36  54  77 108 141 173 213 265 314
#     4   8  16  30  48  73 100 130 173 215 253 299
#     4  11  21  34  54  83 106 136 175 215 261 312
#     4   9  16  28  49  74 100 133 168 214 258 298
#     4  10  21  35  54  78 107 138 174 216 258 310
#     4  10  21  35  55  77 104 140 175 215 260 309
#     4   8  16  30  48  72 100 134 170 210 258 301
#     4   9  16  28  48  75 103 127 170 217 252 302
#
# _framework density 22.024128000000001
#
# number of rings (size 3 to 8) (size 9 to 14) (size 15 to 20)
#    0.000    2.500    2.500    0.000    3.500    1.000 
#    0.000    0.000    0.000    3.000    0.000    0.000 
#    0.000    0.000    0.000    0.000    0.000    0.000 
#
# Total GULP energy -178287.315299 kJ/mol
# GULP energy per Si atom -5571.478603 kJ/mol
# Density = 2.197400 g / cm^3
# Si number density = 22.024128 Si / 1000 Ang^3
#
#
#
# Elastic Constant Matrix: (Units=GPa)
#
#
# Indices 1 2 3 4 5 6 
#
# 1 207.4590 45.5617 34.3406 0.0000 -54.7093 0.0000
# 2 45.5617 53.4672 13.8156 0.0000 -8.3283 0.0000
# 3 34.3406 13.8156 32.6978 0.0000 -23.6584 0.0000
# 4 0.0000 0.0000 0.0000 27.4421 0.0000 -4.6212
# 5 -54.7093 -8.3283 -23.6584 0.0000 45.0602 0.0000
# 6 0.0000 0.0000 0.0000 -4.6212 0.0000 32.7492
#
#
#
# Elastic Compliance Matrix: (Units=1/GPa)
#
#
# Indices 1 2 3 4 5 6 
#
# 1 0.008562 -0.005915 0.000383 0.000000 0.009503 0.000000
# 2 -0.005915 0.025125 -0.010063 0.000000 -0.007821 0.000000
# 3 0.000383 -0.010063 0.053899 0.000000 0.026904 0.000000
# 4 0.000000 0.000000 0.000000 0.037327 0.000000 0.005267
# 5 0.009503 -0.007821 0.026904 0.000000 0.046411 0.000000
# 6 0.000000 0.000000 0.000000 0.005267 0.000000 0.031278
#
#
# Mechanical properties :
#
#
# Convention : Reuss Voigt Hill
#
# Bulk Modulus (GPa) = 17.73135 53.45109 35.59122
# Shear Modulus (GPa) = 19.79480 34.37737 27.08608
#
# Velocity S-wave (km/s) = 3.00121 3.95510 3.51071
# Velocity P-wave (km/s) = 4.48086 6.72154 5.71215
#
# Compressibility (1/GPa) = 0.05639728
#
# Stress axis : x y z
#
# Youngs Moduli (GPa) = 116.79625 39.80066 18.55312
#
# Poissons Ratio (x) = 0.23541 -0.00711
# Poissons Ratio (y) = 0.69081 0.18670
# Poissons Ratio (z) = -0.04474 0.40051
#
# Static dielectric constant tensor:
#      x y z
#    x 1.906260 0.000000 -0.054700 
#    y 0.000000 1.739600 0.000000 
#    z -0.054700 0.000000 1.893010 
# 
# From -- ./inp_files/57257.got.cif
#   From: 2010.05.17/outbox.cif.g08.bks.cpg/sg14_29_cif.got.tgz:57257.got - 2010.06.03 17:49:19.
