data_PCOD9244925
_publ_section_title
;
Structure prediction by ZEFSAII (Michael W. Deem and Ramdas Pophale) SiO2 
 PCOD9244925
Probable space group: P 21/C
;
_chemical_formula_sum "Si O2"
_cell_formula_units_Z 20
_cell_length_a 13.075291
_cell_length_b 12.007915
_cell_length_c 16.956610
_cell_angle_alpha 90.000000
_cell_angle_beta 19.869139
_cell_angle_gamma 90.000000
_cell_volume 904.846086
_symmetry_space_group_name_H-M "P 21/C"
_symmetry_group_IT_number 14
_symmetry_cell_setting 'monoclinic'
loop_
_space_group_symop_operation_xyz
x,y,z
-x,1/2+y,1/2-z
-x,-y,-z
x,1/2-y,1/2+z
loop_
_atom_site_type_symbol
_atom_site_label
_atom_site_fract_x
_atom_site_fract_y
_atom_site_fract_z
Si Si1 0.074547 0.947854 0.360378
Si Si2 0.589604 0.641699 0.986126
Si Si3 0.326920 0.448224 0.247868
Si Si4 0.769496 0.878435 0.883395
Si Si5 0.106909 0.299185 0.533846
O O1 0.885632 0.836062 0.474373
O O2 0.064143 0.042679 0.300035
O O3 0.422036 0.910197 0.119838
O O4 0.000000 0.000000 0.500000
O O5 0.575807 0.545000 0.061377
O O6 0.241008 0.679129 0.236135
O O7 0.671749 0.596997 0.841265
O O8 0.801031 0.746778 0.844668
O O9 0.341527 0.349419 0.300324
O O10 0.000000 0.500000 0.500000
O O11 0.842958 0.873599 0.923402
#
# Coordination Sequence:
#
# PCOD9244925 Si02
#       5
#     4   4   4   4   4
#     4  10  22  41  60  83 121 159 197 250 303 359
#     4   9  19  36  54  79 115 146 186 242 291 349
#     4   9  18  34  56  80 108 142 185 239 293 348
#     4  10  22  38  57  84 116 155 199 242 298 359
#     4  10  21  35  56  85 112 151 199 239 297 361
#
# _framework density 22.103207999999999
#
# number of rings (size 3 to 8) (size 9 to 14) (size 15 to 20)
#    0.000    2.400    0.000    1.200    0.000    8.000 
#    0.000    0.000    0.000    0.000    0.000    0.000 
#    0.000    0.000    0.000    0.000    0.000    0.000 
#
# Total GULP energy -111358.288992 kJ/mol
# GULP energy per Si atom -5567.914450 kJ/mol
# Density = 2.205290 g / cm^3
# Si number density = 22.103208 Si / 1000 Ang^3
#
#
#
# Elastic Constant Matrix: (Units=GPa)
#
#
# Indices 1 2 3 4 5 6 
#
# 1 97.7726 58.2422 47.5798 0.0000 24.9856 0.0000
# 2 58.2422 160.1366 74.7348 0.0000 41.7065 0.0000
# 3 47.5798 74.7348 75.0460 0.0000 45.6879 0.0000
# 4 0.0000 0.0000 0.0000 23.1783 0.0000 11.6375
# 5 24.9856 41.7065 45.6879 0.0000 40.0240 0.0000
# 6 0.0000 0.0000 0.0000 11.6375 0.0000 38.3071
#
#
#
# Elastic Compliance Matrix: (Units=1/GPa)
#
#
# Indices 1 2 3 4 5 6 
#
# 1 0.015334 -0.001746 -0.010697 0.000000 0.004458 0.000000
# 2 -0.001746 0.012028 -0.012799 0.000000 0.003166 0.000000
# 3 -0.010697 -0.012799 0.067754 0.000000 -0.057327 0.000000
# 4 0.000000 0.000000 0.000000 0.050909 0.000000 -0.015466
# 5 0.004458 0.003166 -0.057327 0.000000 0.084342 0.000000
# 6 0.000000 0.000000 0.000000 -0.015466 0.000000 0.030803
#
#
# Mechanical properties :
#
#
# Convention : Reuss Voigt Hill
#
# Bulk Modulus (GPa) = 22.40564 77.11874 49.76219
# Shear Modulus (GPa) = 15.31239 30.46177 22.88708
#
# Velocity S-wave (km/s) = 2.63490 3.71639 3.22135
# Velocity P-wave (km/s) = 4.40634 7.30626 6.03313
#
# Compressibility (1/GPa) = 0.04463162
#
# Stress axis : x y z
#
# Youngs Moduli (GPa) = 65.21311 83.13745 14.75927
#
# Poissons Ratio (x) = 0.14513 0.15789
# Poissons Ratio (y) = 0.11384 0.18891
# Poissons Ratio (z) = 0.69762 1.06411
#
# Static dielectric constant tensor:
#      x y z
#    x 1.851730 0.000000 -0.009340 
#    y 0.000000 2.173110 0.000000 
#    z -0.009340 0.000000 1.797890 
# 
# From -- ./inp_files/36861.got.cif
#   From: 2010.05.17/outbox.cif.g08.bks.cpg/sg14_19_cif.got.tgz:36861.got - 2010.06.03 17:49:19.
