data_PCOD9244020
_publ_section_title
;
Structure prediction by ZEFSAII (Michael W. Deem and Ramdas Pophale) SiO2 
 PCOD9244020
Probable space group: P 21/C
;
_chemical_formula_sum "Si O2"
_cell_formula_units_Z 26
_cell_length_a 9.723784
_cell_length_b 8.862442
_cell_length_c 22.327429
_cell_angle_alpha 90.000000
_cell_angle_beta 145.620357
_cell_angle_gamma 90.000000
_cell_volume 1086.488339
_symmetry_space_group_name_H-M "P 21/C"
_symmetry_group_IT_number 14
_symmetry_cell_setting 'monoclinic'
loop_
_space_group_symop_operation_xyz
x,y,z
-x,1/2+y,1/2-z
-x,-y,-z
x,1/2-y,1/2+z
loop_
_atom_site_type_symbol
_atom_site_label
_atom_site_fract_x
_atom_site_fract_y
_atom_site_fract_z
Si Si1 0.253487 0.793269 0.192954
Si Si2 0.908061 0.814860 0.851580
Si Si3 0.198162 0.964694 0.463026
Si Si4 0.383037 0.965099 0.660926
Si Si5 0.293205 0.164836 0.396402
Si Si6 0.009690 0.052273 0.797444
Si Si7 0.000000 0.500000 0.500000
O O1 0.266536 0.624107 0.174319
O O2 0.164509 0.832223 0.227786
O O3 0.520165 0.870603 0.286691
O O4 0.097370 0.886146 0.088572
O O5 0.633363 0.869414 0.737470
O O6 0.971118 0.859217 0.942057
O O7 0.973960 0.642036 0.864928
O O8 0.073967 0.921400 0.868013
O O9 0.230662 0.972802 0.545827
O O10 0.432053 0.872234 0.521771
O O11 0.234413 0.126873 0.444692
O O12 0.221200 0.334814 0.353677
O O13 0.130820 0.039117 0.303858
#
# Coordination Sequence:
#
# PCOD9244020 Si02
#       7
#     4   4   4   4   4   4   2
#     4  10  20  40  61  90 125 157 205 252 312 364
#     4  10  20  39  64  90 125 161 206 250 316 360
#     4  11  22  41  65  92 124 169 205 262 306 368
#     4  10  21  40  61  95 123 164 199 263 309 370
#     4  11  23  41  65  89 130 162 213 251 309 370
#     4  10  22  42  62  92 122 171 203 261 305 370
#     4   8  16  34  60  80 114 158 186 246 296 368
#
# _framework density 23.930306000000002
#
# number of rings (size 3 to 8) (size 9 to 14) (size 15 to 20)
#    0.000    2.154    4.615    0.923    0.000    1.846 
#   11.077    1.538    0.000    0.000    0.000    0.000 
#    0.000    0.000    0.000    0.000    0.000    0.000 
#
# Total GULP energy -144774.028002 kJ/mol
# GULP energy per Si atom -5568.231846 kJ/mol
# Density = 2.387584 g / cm^3
# Si number density = 23.930306 Si / 1000 Ang^3
#
#
#
# Elastic Constant Matrix: (Units=GPa)
#
#
# Indices 1 2 3 4 5 6 
#
# 1 55.5146 14.1127 14.3278 0.0000 -6.2626 0.0000
# 2 14.1127 115.6132 18.2385 0.0000 2.9429 0.0000
# 3 14.3278 18.2385 72.3491 0.0000 -18.7823 0.0000
# 4 0.0000 0.0000 0.0000 26.2138 0.0000 10.3002
# 5 -6.2626 2.9429 -18.7823 0.0000 33.3552 0.0000
# 6 0.0000 0.0000 0.0000 10.3002 0.0000 37.2732
#
#
#
# Elastic Compliance Matrix: (Units=1/GPa)
#
#
# Indices 1 2 3 4 5 6 
#
# 1 0.019493 -0.002001 -0.002764 0.000000 0.002280 0.000000
# 2 -0.002001 0.009384 -0.002673 0.000000 -0.002709 0.000000
# 3 -0.002764 -0.002673 0.017532 0.000000 0.009589 0.000000
# 4 0.000000 0.000000 0.000000 0.042795 0.000000 -0.011826
# 5 0.002280 -0.002709 0.009589 0.000000 0.036047 0.000000
# 6 0.000000 0.000000 0.000000 -0.011826 0.000000 0.030097
#
#
# Mechanical properties :
#
#
# Convention : Reuss Voigt Hill
#
# Bulk Modulus (GPa) = 31.71197 37.42609 34.56903
# Shear Modulus (GPa) = 27.66482 32.48831 30.07657
#
# Velocity S-wave (km/s) = 3.40377 3.68859 3.54904
# Velocity P-wave (km/s) = 5.35986 5.81502 5.59208
#
# Compressibility (1/GPa) = 0.03153383
#
# Stress axis : x y z
#
# Youngs Moduli (GPa) = 51.30153 106.55986 57.03735
#
# Poissons Ratio (x) = 0.21328 0.15764
# Poissons Ratio (y) = 0.10268 0.15243
# Poissons Ratio (z) = 0.14179 0.28478
#
# Static dielectric constant tensor:
#      x y z
#    x 2.100630 0.000000 0.048290 
#    y 0.000000 1.922220 0.000000 
#    z 0.048290 0.000000 1.874360 
# 
# From -- ./inp_files/72941.got.cif
#   From: 2010.05.17/outbox.cif.g08.bks.cpg/sg14_37_cif.got.tgz:72941.got - 2010.06.03 17:49:19.
