data_PCOD9244943
_publ_section_title
;
Structure prediction by ZEFSAII (Michael W. Deem and Ramdas Pophale) SiO2 
 PCOD9244943
Probable space group: P 21/C
;
_chemical_formula_sum "Si O2"
_cell_formula_units_Z 24
_cell_length_a 5.433955
_cell_length_b 8.210336
_cell_length_c 23.955486
_cell_angle_alpha 90.000000
_cell_angle_beta 107.102828
_cell_angle_gamma 90.000000
_cell_volume 1021.501977
_symmetry_space_group_name_H-M "P 21/C"
_symmetry_group_IT_number 14
_symmetry_cell_setting 'monoclinic'
loop_
_space_group_symop_operation_xyz
x,y,z
-x,1/2+y,1/2-z
-x,-y,-z
x,1/2-y,1/2+z
loop_
_atom_site_type_symbol
_atom_site_label
_atom_site_fract_x
_atom_site_fract_y
_atom_site_fract_z
Si Si1 0.672699 0.934421 0.426777
Si Si2 0.482171 0.843429 0.834144
Si Si3 0.376435 0.171319 0.283978
Si Si4 0.805791 0.639909 0.055488
Si Si5 0.200281 0.846626 0.142087
Si Si6 0.068477 0.866840 0.264308
O O1 0.608836 0.814060 0.371524
O O2 0.713167 0.827181 0.486219
O O3 0.433324 0.051797 0.429487
O O4 0.949048 0.018512 0.434114
O O5 0.531514 0.864298 0.771788
O O6 0.182957 0.779846 0.810516
O O7 0.630046 0.001198 0.868848
O O8 0.603775 0.194573 0.342198
O O9 0.231287 0.340634 0.262672
O O10 0.174138 0.038446 0.292311
O O11 0.936628 0.796425 0.094289
O O12 0.149845 0.864031 0.204828
#
# Coordination Sequence:
#
# PCOD9244943 Si02
#       6
#     4   4   4   4   4   4
#     4  10  23  43  66  93 122 167 214 263 316 384
#     4  10  22  38  58  92 125 165 212 265 320 382
#     4  10  21  37  57  89 128 166 212 254 324 383
#     4  10  23  43  66  92 124 165 217 259 320 380
#     4  10  22  38  59  90 127 163 213 264 321 382
#     4  10  21  35  58  88 126 170 208 260 316 391
#
# _framework density 23.494816
#
# number of rings (size 3 to 8) (size 9 to 14) (size 15 to 20)
#    0.000    2.000    0.000    2.000    7.000    3.333 
#    0.000    0.000    0.000    6.000    0.000    0.000 
#    0.000    0.000    0.000    0.000    0.000    0.000 
#
# Total GULP energy -133699.654235 kJ/mol
# GULP energy per Si atom -5570.818926 kJ/mol
# Density = 2.344134 g / cm^3
# Si number density = 23.494816 Si / 1000 Ang^3
#
#
#
# Elastic Constant Matrix: (Units=GPa)
#
#
# Indices 1 2 3 4 5 6 
#
# 1 97.2865 25.1671 9.0218 0.0000 11.4066 0.0000
# 2 25.1671 78.5090 13.6463 0.0000 1.8325 0.0000
# 3 9.0218 13.6463 50.4206 0.0000 13.4144 0.0000
# 4 0.0000 0.0000 0.0000 32.0741 0.0000 10.0364
# 5 11.4066 1.8325 13.4144 0.0000 31.9260 0.0000
# 6 0.0000 0.0000 0.0000 10.0364 0.0000 37.0697
#
#
#
# Elastic Compliance Matrix: (Units=1/GPa)
#
#
# Indices 1 2 3 4 5 6 
#
# 1 0.011690 -0.003646 -0.000056 0.000000 -0.003944 0.000000
# 2 -0.003646 0.014523 -0.003832 0.000000 0.002079 0.000000
# 3 -0.000056 -0.003832 0.023436 0.000000 -0.009607 0.000000
# 4 0.000000 0.000000 0.000000 0.034064 0.000000 -0.009223
# 5 -0.003944 0.002079 -0.009607 0.000000 0.036649 0.000000
# 6 0.000000 0.000000 0.000000 -0.009223 0.000000 0.029473
#
#
# Mechanical properties :
#
#
# Convention : Reuss Voigt Hill
#
# Bulk Modulus (GPa) = 28.91534 35.76517 32.34026
# Shear Modulus (GPa) = 28.34012 32.10603 30.22308
#
# Velocity S-wave (km/s) = 3.47685 3.70065 3.59049
# Velocity P-wave (km/s) = 5.33402 5.78925 5.56629
#
# Compressibility (1/GPa) = 0.03458371
#
# Stress axis : x y z
#
# Youngs Moduli (GPa) = 85.54656 68.85408 42.66910
#
# Poissons Ratio (x) = 0.25101 0.00238
# Poissons Ratio (y) = 0.31186 0.16349
# Poissons Ratio (z) = 0.00477 0.26382
#
# Static dielectric constant tensor:
#      x y z
#    x 1.964610 0.000000 -0.016650 
#    y 0.000000 2.005110 0.000000 
#    z -0.016650 0.000000 1.898470 
# 
# From -- ./inp_files/70981.got.cif
#   From: 2010.05.17/outbox.cif.g08.bks.cpg/sg14_36_cif.got.tgz:70981.got - 2010.06.03 17:49:19.
