data_PCOD9244346
_publ_section_title
;
Structure prediction by ZEFSAII (Michael W. Deem and Ramdas Pophale) SiO2 
 PCOD9244346
Probable space group: P 21/C
;
_chemical_formula_sum "Si O2"
_cell_formula_units_Z 28
_cell_length_a 9.603803
_cell_length_b 10.509591
_cell_length_c 13.931619
_cell_angle_alpha 90.000000
_cell_angle_beta 112.499356
_cell_angle_gamma 90.000000
_cell_volume 1299.116249
_symmetry_space_group_name_H-M "P 21/C"
_symmetry_group_IT_number 14
_symmetry_cell_setting 'monoclinic'
loop_
_space_group_symop_operation_xyz
x,y,z
-x,1/2+y,1/2-z
-x,-y,-z
x,1/2-y,1/2+z
loop_
_atom_site_type_symbol
_atom_site_label
_atom_site_fract_x
_atom_site_fract_y
_atom_site_fract_z
Si Si1 0.694765 0.675035 0.679430
Si Si2 0.449989 0.782066 0.267305
Si Si3 0.026999 0.342705 0.709526
Si Si4 0.199859 0.576095 0.189702
Si Si5 0.195700 0.955007 0.147618
Si Si6 0.714070 0.810435 0.963036
Si Si7 0.959095 0.282053 0.999281
O O1 0.537242 0.700503 0.689834
O O2 0.807961 0.793158 0.719281
O O3 0.770493 0.562228 0.760771
O O4 0.683503 0.648481 0.563830
O O5 0.355209 0.652607 0.237667
O O6 0.330250 0.896138 0.246205
O O7 0.575866 0.768524 0.382136
O O8 0.059104 0.479338 0.669199
O O9 0.918138 0.356008 0.770005
O O10 0.961356 0.245499 0.613081
O O11 0.127362 0.595957 0.065684
O O12 0.129553 0.838213 0.069753
O O13 0.259941 0.064838 0.095637
O O14 0.868950 0.731199 0.991806
#
# Coordination Sequence:
#
# PCOD9244346 Si02
#       7
#     4   4   4   4   4   4   4
#     4  12  24  41  69  96 133 178 214 271 328 389
#     4  11  25  42  64  99 137 164 218 280 330 386
#     4  11  22  41  69  94 128 172 222 271 323 389
#     4  11  25  41  69 101 128 171 228 270 323 399
#     4  10  21  40  69  92 129 168 221 276 325 385
#     4  11  21  43  68  98 128 177 223 263 333 398
#     4  10  20  40  67  98 127 168 223 274 324 384
#
# _framework density 21.553114999999998
#
# number of rings (size 3 to 8) (size 9 to 14) (size 15 to 20)
#    0.000    1.143    4.286    4.286    2.000    5.143 
#    0.000    0.714    3.143    0.000    0.000    0.000 
#    0.000    0.000    0.000    0.000    0.000    0.000 
#
# Total GULP energy -156599.368424 kJ/mol
# GULP energy per Si atom -5592.834587 kJ/mol
# Density = 2.150406 g / cm^3
# Si number density = 21.553115 Si / 1000 Ang^3
#
#
#
# Elastic Constant Matrix: (Units=GPa)
#
#
# Indices 1 2 3 4 5 6 
#
# 1 69.2505 13.5926 3.2043 0.0000 9.1547 0.0000
# 2 13.5926 45.6778 22.1866 0.0000 0.1574 0.0000
# 3 3.2043 22.1866 69.6945 0.0000 20.5016 0.0000
# 4 0.0000 0.0000 0.0000 33.8357 0.0000 16.4960
# 5 9.1547 0.1574 20.5016 0.0000 29.8482 0.0000
# 6 0.0000 0.0000 0.0000 16.4960 0.0000 22.8792
#
#
#
# Elastic Compliance Matrix: (Units=1/GPa)
#
#
# Indices 1 2 3 4 5 6 
#
# 1 0.016567 -0.006628 0.003550 0.000000 -0.007485 0.000000
# 2 -0.006628 0.029744 -0.012176 0.000000 0.010239 0.000000
# 3 0.003550 -0.012176 0.023012 0.000000 -0.016831 0.000000
# 4 0.000000 0.000000 0.000000 0.045575 0.000000 -0.032860
# 5 -0.007485 0.010239 -0.016831 0.000000 0.047305 0.000000
# 6 0.000000 0.000000 0.000000 -0.032860 0.000000 0.067400
#
#
# Mechanical properties :
#
#
# Convention : Reuss Voigt Hill
#
# Bulk Modulus (GPa) = 25.76382 29.17664 27.47023
# Shear Modulus (GPa) = 18.31180 27.02192 22.66686
#
# Velocity S-wave (km/s) = 2.91797 3.54465 3.24647
# Velocity P-wave (km/s) = 4.83036 5.50629 5.17936
#
# Compressibility (1/GPa) = 0.03881411
#
# Stress axis : x y z
#
# Youngs Moduli (GPa) = 60.36273 33.62059 43.45522
#
# Poissons Ratio (x) = 0.22285 -0.15427
# Poissons Ratio (y) = 0.40010 0.52911
# Poissons Ratio (z) = -0.21429 0.40936
#
# Static dielectric constant tensor:
#      x y z
#    x 1.744950 0.000000 0.009630 
#    y 0.000000 1.796840 0.000000 
#    z 0.009630 0.000000 1.811540 
# 
# From -- ./inp_files/40411.got.cif
#   From: 2010.05.17/outbox.cif.g08.bks.cpg/sg14_21_cif.got.tgz:40411.got - 2010.06.03 17:49:19.
