data_PCOD9244954
_publ_section_title
;
Structure prediction by ZEFSAII (Michael W. Deem and Ramdas Pophale) SiO2 
 PCOD9244954
Probable space group: P 21/C
;
_chemical_formula_sum "Si O2"
_cell_formula_units_Z 32
_cell_length_a 16.239042
_cell_length_b 12.970675
_cell_length_c 11.762080
_cell_angle_alpha 90.000000
_cell_angle_beta 143.393707
_cell_angle_gamma 90.000000
_cell_volume 1477.343289
_symmetry_space_group_name_H-M "P 21/C"
_symmetry_group_IT_number 14
_symmetry_cell_setting 'monoclinic'
loop_
_space_group_symop_operation_xyz
x,y,z
-x,1/2+y,1/2-z
-x,-y,-z
x,1/2-y,1/2+z
loop_
_atom_site_type_symbol
_atom_site_label
_atom_site_fract_x
_atom_site_fract_y
_atom_site_fract_z
Si Si1 0.794132 0.311808 0.457611
Si Si2 0.540074 0.117758 0.545984
Si Si3 0.273249 0.239791 0.724977
Si Si4 0.911152 0.481136 0.736217
Si Si5 0.272763 0.326632 0.473867
Si Si6 0.639864 0.506985 0.723197
Si Si7 0.111991 0.871627 0.560958
Si Si8 0.602736 0.350805 0.865654
O O1 0.652506 0.365660 0.265633
O O2 0.891804 0.399002 0.616291
O O3 0.872146 0.247606 0.446934
O O4 0.727229 0.222626 0.462677
O O5 0.408437 0.191901 0.401761
O O6 0.614598 0.144242 0.511916
O O7 0.500000 0.000000 0.500000
O O8 0.222777 0.288059 0.545432
O O9 0.304391 0.121928 0.724644
O O10 0.214528 0.226706 0.791632
O O11 0.774722 0.553671 0.590842
O O12 0.946224 0.408085 0.883188
O O13 0.029087 0.567960 0.870495
O O14 0.441768 0.318270 0.660713
O O15 0.500000 0.500000 0.500000
O O16 0.738073 0.422983 0.773961
O O17 0.619657 0.462689 0.826796
#
# Coordination Sequence:
#
# PCOD9244954 Si02
#       8
#     4   4   4   4   4   4   4   4
#     4  11  21  40  65  89 126 166 212 273 330 395
#     4  11  23  35  56  93 133 163 205 269 341 388
#     4  11  22  37  59  93 133 167 220 264 336 390
#     4  11  23  43  64  88 129 171 223 274 328 409
#     4  11  22  39  61  96 129 176 216 276 329 393
#     4  11  19  37  64  88 120 159 216 268 322 396
#     4  10  23  41  65  91 119 171 223 263 334 403
#     4  10  21  35  59  92 122 162 212 264 331 392
#
# _framework density 21.660504
#
# number of rings (size 3 to 8) (size 9 to 14) (size 15 to 20)
#    0.000    1.250    3.750    3.000    1.750    4.000 
#    0.000    0.000    0.000    3.750    0.000    0.000 
#    0.000    0.000    0.000    0.000    0.000    0.000 
#
# Total GULP energy -178248.934673 kJ/mol
# GULP energy per Si atom -5570.279209 kJ/mol
# Density = 2.161120 g / cm^3
# Si number density = 21.660504 Si / 1000 Ang^3
#
#
#
# Elastic Constant Matrix: (Units=GPa)
#
#
# Indices 1 2 3 4 5 6 
#
# 1 29.0477 10.1640 13.0697 0.0000 -9.9090 0.0000
# 2 10.1640 97.1191 33.7784 0.0000 -22.8735 0.0000
# 3 13.0697 33.7784 68.8486 0.0000 -13.1912 0.0000
# 4 0.0000 0.0000 0.0000 32.8612 0.0000 -7.9436
# 5 -9.9090 -22.8735 -13.1912 0.0000 26.1859 0.0000
# 6 0.0000 0.0000 0.0000 -7.9436 0.0000 31.7754
#
#
#
# Elastic Compliance Matrix: (Units=1/GPa)
#
#
# Indices 1 2 3 4 5 6 
#
# 1 0.041286 0.000825 -0.005657 0.000000 0.013494 0.000000
# 2 0.000825 0.014472 -0.005285 0.000000 0.010291 0.000000
# 3 -0.005657 -0.005285 0.018702 0.000000 0.002664 0.000000
# 4 0.000000 0.000000 0.000000 0.032388 0.000000 0.008097
# 5 0.013494 0.010291 0.002664 0.000000 0.053626 0.000000
# 6 0.000000 0.000000 0.000000 0.008097 0.000000 0.033495
#
#
# Mechanical properties :
#
#
# Convention : Reuss Voigt Hill
#
# Bulk Modulus (GPa) = 18.44142 34.33775 26.38958
# Shear Modulus (GPa) = 21.52585 27.36473 24.44529
#
# Velocity S-wave (km/s) = 3.15585 3.55821 3.36306
# Velocity P-wave (km/s) = 4.67028 5.72436 5.22398
#
# Compressibility (1/GPa) = 0.05422577
#
# Stress axis : x y z
#
# Youngs Moduli (GPa) = 24.22139 69.09741 53.47070
#
# Poissons Ratio (x) = -0.05698 0.30246
# Poissons Ratio (y) = -0.01997 0.28260
# Poissons Ratio (z) = 0.13701 0.36519
#
# Static dielectric constant tensor:
#      x y z
#    x 1.855630 0.000000 -0.050440 
#    y 0.000000 1.695120 0.000000 
#    z -0.050440 0.000000 1.791500 
# 
# From -- ./inp_files/33951.got.cif
#   From: 2010.05.17/outbox.cif.g08.bks.cpg/sg14_17_cif.got.tgz:33951.got - 2010.06.03 17:49:19.
