data_PCOD9244958
_publ_section_title
;
Structure prediction by ZEFSAII (Michael W. Deem and Ramdas Pophale) SiO2 
 PCOD9244958
Probable space group: P 21/C
;
_chemical_formula_sum "Si O2"
_cell_formula_units_Z 32
_cell_length_a 8.205654
_cell_length_b 8.911908
_cell_length_c 24.070025
_cell_angle_alpha 90.000000
_cell_angle_beta 129.994702
_cell_angle_gamma 90.000000
_cell_volume 1348.491137
_symmetry_space_group_name_H-M "P 21/C"
_symmetry_group_IT_number 14
_symmetry_cell_setting 'monoclinic'
loop_
_space_group_symop_operation_xyz
x,y,z
-x,1/2+y,1/2-z
-x,-y,-z
x,1/2-y,1/2+z
loop_
_atom_site_type_symbol
_atom_site_label
_atom_site_fract_x
_atom_site_fract_y
_atom_site_fract_z
Si Si1 0.640013 0.841374 0.277240
Si Si2 0.976355 0.636556 0.308093
Si Si3 0.738762 0.131349 0.892241
Si Si4 0.598598 0.809724 0.882376
Si Si5 0.505908 0.192121 0.440132
Si Si6 0.344576 0.864541 0.409330
Si Si7 0.910227 0.655238 0.609586
Si Si8 0.855924 0.397842 0.766412
O O1 0.414946 0.865719 0.196761
O O2 0.648649 0.806565 0.344150
O O3 0.743706 0.696635 0.270102
O O4 0.795226 0.979601 0.298508
O O5 0.135804 0.778154 0.343003
O O6 0.998639 0.557663 0.253696
O O7 0.052968 0.519646 0.370599
O O8 0.627329 0.232608 0.915192
O O9 0.970328 0.185545 0.922522
O O10 0.741673 0.958592 0.913970
O O11 0.545862 0.725413 0.927665
O O12 0.370290 0.870971 0.811911
O O13 0.658084 0.147898 0.524639
O O14 0.331166 0.305075 0.427948
O O15 0.381227 0.036865 0.400571
O O16 0.042947 0.754060 0.682942
#
# Coordination Sequence:
#
# PCOD9244958 Si02
#       8
#     4   4   4   4   4   4   4   4
#     4  11  21  38  61  96 136 164 207 260 316 389
#     4  11  22  40  63  93 130 170 213 263 320 387
#     4  11  24  41  66 101 132 169 212 262 322 386
#     4  10  21  40  63  91 131 168 206 261 320 374
#     4  11  25  47  68  91 126 170 220 273 322 376
#     4  10  25  47  66  89 123 172 220 269 322 379
#     4  12  23  40  64 100 130 166 217 261 323 384
#     4  10  21  35  59  92 128 172 207 251 320 380
#
# _framework density 23.730226999999999
#
# number of rings (size 3 to 8) (size 9 to 14) (size 15 to 20)
#    0.000    1.250    2.500    4.500    1.750    5.000 
#    2.250    2.500    0.000    0.000    0.000    0.000 
#    0.000    0.000    0.000    0.000    0.000    0.000 
#
# Total GULP energy -178821.654430 kJ/mol
# GULP energy per Si atom -5588.176701 kJ/mol
# Density = 2.367622 g / cm^3
# Si number density = 23.730227 Si / 1000 Ang^3
#
#
#
# Elastic Constant Matrix: (Units=GPa)
#
#
# Indices 1 2 3 4 5 6 
#
# 1 124.4507 19.6688 19.9007 0.0000 -20.4020 0.0000
# 2 19.6688 87.8052 10.2433 0.0000 -12.5146 0.0000
# 3 19.9007 10.2433 39.1149 0.0000 -12.5280 0.0000
# 4 0.0000 0.0000 0.0000 17.4784 0.0000 -7.4146
# 5 -20.4020 -12.5146 -12.5280 0.0000 31.2034 0.0000
# 6 0.0000 0.0000 0.0000 -7.4146 0.0000 26.1323
#
#
#
# Elastic Compliance Matrix: (Units=1/GPa)
#
#
# Indices 1 2 3 4 5 6 
#
# 1 0.009439 -0.001116 -0.003072 0.000000 0.004491 0.000000
# 2 -0.001116 0.012329 -0.001504 0.000000 0.003611 0.000000
# 3 -0.003072 -0.001504 0.030624 0.000000 0.009684 0.000000
# 4 0.000000 0.000000 0.000000 0.065042 0.000000 0.018455
# 5 0.004491 0.003611 0.009684 0.000000 0.040320 0.000000
# 6 0.000000 0.000000 0.000000 0.018455 0.000000 0.043503
#
#
# Mechanical properties :
#
#
# Convention : Reuss Voigt Hill
#
# Bulk Modulus (GPa) = 24.38555 38.99960 31.69257
# Shear Modulus (GPa) = 22.09346 28.40001 25.24673
#
# Velocity S-wave (km/s) = 3.05458 3.46321 3.26530
# Velocity P-wave (km/s) = 4.76855 5.69755 5.25362
#
# Compressibility (1/GPa) = 0.04100789
#
# Stress axis : x y z
#
# Youngs Moduli (GPa) = 105.94239 81.10954 32.65411
#
# Poissons Ratio (x) = 0.09052 0.10031
# Poissons Ratio (y) = 0.11823 0.04912
# Poissons Ratio (z) = 0.32543 0.12202
#
# Static dielectric constant tensor:
#      x y z
#    x 1.947100 0.000000 0.007050 
#    y 0.000000 1.924320 0.000000 
#    z 0.007050 0.000000 1.923470 
# 
# From -- ./inp_files/79415.got.cif
#   From: 2010.05.17/outbox.cif.g08.bks.cpg/sg14_40_cif.got.tgz:79415.got - 2010.06.03 17:49:19.
