data_PCOD9244502
_publ_section_title
;
Structure prediction by ZEFSAII (Michael W. Deem and Ramdas Pophale) SiO2 
 PCOD9244502
Probable space group: P 21/C
;
_chemical_formula_sum "Si O2"
_cell_formula_units_Z 32
_cell_length_a 26.243086
_cell_length_b 7.996572
_cell_length_c 15.961760
_cell_angle_alpha 90.000000
_cell_angle_beta 24.684412
_cell_angle_gamma 90.000000
_cell_volume 1398.880784
_symmetry_space_group_name_H-M "P 21/C"
_symmetry_group_IT_number 14
_symmetry_cell_setting 'monoclinic'
loop_
_space_group_symop_operation_xyz
x,y,z
-x,1/2+y,1/2-z
-x,-y,-z
x,1/2-y,1/2+z
loop_
_atom_site_type_symbol
_atom_site_label
_atom_site_fract_x
_atom_site_fract_y
_atom_site_fract_z
Si Si1 0.732277 0.687173 0.991999
Si Si2 0.279812 0.402837 0.633175
Si Si3 0.428957 0.012836 0.692921
Si Si4 0.556338 0.066152 0.675046
Si Si5 0.899492 0.078149 0.493503
Si Si6 0.260609 0.808285 0.041434
Si Si7 0.001590 0.910527 0.087707
Si Si8 0.963925 0.223485 0.221447
O O1 0.865459 0.639187 0.825946
O O2 0.759795 0.731378 0.851658
O O3 0.659516 0.826514 0.155691
O O4 0.631325 0.546477 0.127618
O O5 0.425130 0.397596 0.411377
O O6 0.226940 0.522535 0.638672
O O7 0.226471 0.484480 0.795490
O O8 0.522602 0.007653 0.631981
O O9 0.500000 0.000000 0.500000
O O10 0.339469 0.856766 0.842030
O O11 0.645569 0.223142 0.534912
O O12 0.909315 0.178953 0.392887
O O13 0.930906 0.230421 0.510936
O O14 0.986321 0.912699 0.361043
O O15 0.143969 0.712541 0.185199
O O16 0.050706 0.063838 0.072227
O O17 0.000000 0.000000 0.000000
#
# Coordination Sequence:
#
# PCOD9244502 Si02
#       8
#     4   4   4   4   4   4   4   4
#     4  10  21  42  66  96 134 176 232 290 341 429
#     4  10  21  40  66  95 128 180 224 285 336 422
#     4  10  21  39  63  98 137 176 223 284 358 412
#     4  10  20  41  66  95 135 173 230 274 343 421
#     4  12  26  46  69 102 142 185 237 290 367 411
#     4  10  21  41  65  94 133 176 226 280 340 413
#     4  12  25  46  72 102 133 188 245 287 355 427
#     4  12  25  46  67 100 143 181 228 306 351 414
#
# _framework density 22.875430000000001
#
# number of rings (size 3 to 8) (size 9 to 14) (size 15 to 20)
#    0.000    1.500    2.500    6.000    0.000    3.500 
#    4.500    1.250    0.000    0.000    0.000    0.000 
#    0.000    0.000    0.000    0.000    0.000    0.000 
#
# Total GULP energy -178155.009179 kJ/mol
# GULP energy per Si atom -5567.344037 kJ/mol
# Density = 2.282336 g / cm^3
# Si number density = 22.875430 Si / 1000 Ang^3
#
#
#
# Elastic Constant Matrix: (Units=GPa)
#
#
# Indices 1 2 3 4 5 6 
#
# 1 38.2024 9.8278 26.4961 0.0000 2.3601 0.0000
# 2 9.8278 79.5673 7.1987 0.0000 -3.0870 0.0000
# 3 26.4961 7.1987 70.6691 0.0000 8.8838 0.0000
# 4 0.0000 0.0000 0.0000 33.1125 0.0000 3.7914
# 5 2.3601 -3.0870 8.8838 0.0000 36.8771 0.0000
# 6 0.0000 0.0000 0.0000 3.7914 0.0000 26.8897
#
#
#
# Elastic Compliance Matrix: (Units=1/GPa)
#
#
# Indices 1 2 3 4 5 6 
#
# 1 0.036215 -0.003243 -0.013326 0.000000 0.000621 0.000000
# 2 -0.003243 0.013047 -0.000285 0.000000 0.001368 0.000000
# 3 -0.013326 -0.000285 0.019667 0.000000 -0.003909 0.000000
# 4 0.000000 0.000000 0.000000 0.030696 0.000000 -0.004328
# 5 0.000621 0.001368 -0.003909 0.000000 0.028134 0.000000
# 6 0.000000 0.000000 0.000000 -0.004328 0.000000 0.037799
#
#
# Mechanical properties :
#
#
# Convention : Reuss Voigt Hill
#
# Bulk Modulus (GPa) = 28.39216 30.60932 29.50074
# Shear Modulus (GPa) = 23.69598 29.03694 26.36646
#
# Velocity S-wave (km/s) = 3.22199 3.56666 3.39869
# Velocity P-wave (km/s) = 5.12642 5.51102 5.32219
#
# Compressibility (1/GPa) = 0.03522099
#
# Stress axis : x y z
#
# Youngs Moduli (GPa) = 27.61313 76.64324 50.84631
#
# Poissons Ratio (x) = 0.24858 0.67756
# Poissons Ratio (y) = 0.08956 0.01449
# Poissons Ratio (z) = 0.36796 0.02185
#
# Static dielectric constant tensor:
#      x y z
#    x 1.903920 0.000000 0.021920 
#    y 0.000000 2.082800 0.000000 
#    z 0.021920 0.000000 1.893650 
# 
# From -- ./inp_files/51258.got.cif
#   From: 2010.05.17/outbox.cif.g08.bks.cpg/sg14_26_cif.got.tgz:51258.got - 2010.06.03 17:49:19.
