data_PCOD9244790
_publ_section_title
;
Structure prediction by ZEFSAII (Michael W. Deem and Ramdas Pophale) SiO2 
 PCOD9244790
Probable space group: P 21/C
;
_chemical_formula_sum "Si O2"
_cell_formula_units_Z 30
_cell_length_a 10.303456
_cell_length_b 9.427661
_cell_length_c 13.793392
_cell_angle_alpha 90.000000
_cell_angle_beta 68.173186
_cell_angle_gamma 90.000000
_cell_volume 1243.803825
_symmetry_space_group_name_H-M "P 21/C"
_symmetry_group_IT_number 14
_symmetry_cell_setting 'monoclinic'
loop_
_space_group_symop_operation_xyz
x,y,z
-x,1/2+y,1/2-z
-x,-y,-z
x,1/2-y,1/2+z
loop_
_atom_site_type_symbol
_atom_site_label
_atom_site_fract_x
_atom_site_fract_y
_atom_site_fract_z
Si Si1 0.367718 0.476477 0.962116
Si Si2 0.299862 0.711377 0.433169
Si Si3 0.783437 0.548687 0.664059
Si Si4 0.100789 0.098301 0.194077
Si Si5 0.118422 0.420093 0.163208
Si Si6 0.000000 0.500000 0.500000
Si Si7 0.372092 0.940358 0.100629
Si Si8 0.480607 0.248260 0.784150
O O1 0.299528 0.619943 0.938053
O O2 0.427501 0.378540 0.861794
O O3 0.500000 0.500000 0.000000
O O4 0.235982 0.404046 0.050289
O O5 0.197395 0.595180 0.409669
O O6 0.300196 0.664238 0.543510
O O7 0.442130 0.690316 0.331602
O O8 0.800129 0.506575 0.769541
O O9 0.645028 0.639484 0.698229
O O10 0.907601 0.630344 0.576134
O O11 0.264816 0.063370 0.156976
O O12 0.019350 0.015068 0.302009
O O13 0.053000 0.045838 0.100467
O O14 0.074586 0.264246 0.207997
O O15 0.414991 0.845601 0.179462
O O16 0.500000 0.000000 0.000000
#
# Coordination Sequence:
#
# PCOD9244790 Si02
#       8
#     4   4   4   4   4   2   4   4
#     4  12  25  41  68 105 144 186 246 303 355 431
#     4  12  25  41  68 102 141 185 237 294 373 421
#     4  11  24  42  69  97 141 187 237 294 368 432
#     4  11  26  46  75 106 144 199 245 307 372 445
#     4  11  27  47  74 105 147 194 249 303 373 445
#     4  10  20  44  68  96 132 184 240 290 362 436
#     4  12  24  43  73 103 141 188 245 292 372 442
#     4  12  25  43  67 106 144 187 237 307 364 437
#
# _framework density 24.119558000000001
#
# number of rings (size 3 to 8) (size 9 to 14) (size 15 to 20)
#    0.000    0.533    4.000    4.000    3.733    1.067 
#    0.000    0.000    0.000    7.200    0.000    0.000 
#    0.000    0.000    0.000    0.000    0.000    0.000 
#
# Total GULP energy -167170.804700 kJ/mol
# GULP energy per Si atom -5572.360157 kJ/mol
# Density = 2.406466 g / cm^3
# Si number density = 24.119558 Si / 1000 Ang^3
#
#
#
# Elastic Constant Matrix: (Units=GPa)
#
#
# Indices 1 2 3 4 5 6 
#
# 1 45.8450 -5.8506 -2.3884 0.0000 -8.6811 0.0000
# 2 -5.8506 102.3841 -16.0875 0.0000 -12.0107 0.0000
# 3 -2.3884 -16.0875 60.8928 0.0000 -16.6502 0.0000
# 4 0.0000 0.0000 0.0000 43.3409 0.0000 -9.8239
# 5 -8.6811 -12.0107 -16.6502 0.0000 36.8074 0.0000
# 6 0.0000 0.0000 0.0000 -9.8239 0.0000 3.9156
#
#
#
# Elastic Compliance Matrix: (Units=1/GPa)
#
#
# Indices 1 2 3 4 5 6 
#
# 1 0.024012 0.003003 0.004053 0.000000 0.008477 0.000000
# 2 0.003003 0.011513 0.004999 0.000000 0.006727 0.000000
# 3 0.004053 0.004999 0.021236 0.000000 0.012194 0.000000
# 4 0.000000 0.000000 0.000000 0.053494 0.000000 0.134211
# 5 0.008477 0.006727 0.012194 0.000000 0.036879 0.000000
# 6 0.000000 0.000000 0.000000 0.134211 0.000000 0.592111
#
#
# Mechanical properties :
#
#
# Convention : Reuss Voigt Hill
#
# Bulk Modulus (GPa) = 12.36512 17.82988 15.09750
# Shear Modulus (GPa) = 6.73771 32.37601 19.55686
#
# Velocity S-wave (km/s) = 1.67318 3.66773 2.85060
# Velocity P-wave (km/s) = 2.97833 5.03435 4.13613
#
# Compressibility (1/GPa) = 0.08087266
#
# Stress axis : x y z
#
# Youngs Moduli (GPa) = 41.64541 86.85591 47.08966
#
# Poissons Ratio (x) = -0.26087 -0.19086
# Poissons Ratio (y) = -0.12508 -0.23539
# Poissons Ratio (z) = -0.16880 -0.43418
#
# Static dielectric constant tensor:
#      x y z
#    x 1.899370 0.000000 0.210800 
#    y 0.000000 1.814550 0.000000 
#    z 0.210800 0.000000 1.844040 
# 
# From -- ./inp_files/43390.got.cif
#   From: 2010.05.17/outbox.cif.g08.bks.cpg/sg14_22_cif.got.tgz:43390.got - 2010.06.03 17:49:19.
