data_PCOD9244693
_publ_section_title
;
Structure prediction by ZEFSAII (Michael W. Deem and Ramdas Pophale) SiO2 
 PCOD9244693
Probable space group: P 21/C
;
_chemical_formula_sum "Si O2"
_cell_formula_units_Z 20
_cell_length_a 12.571916
_cell_length_b 12.522892
_cell_length_c 7.469517
_cell_angle_alpha 90.000000
_cell_angle_beta 137.261936
_cell_angle_gamma 90.000000
_cell_volume 798.073780
_symmetry_space_group_name_H-M "P 21/C"
_symmetry_group_IT_number 14
_symmetry_cell_setting 'monoclinic'
loop_
_space_group_symop_operation_xyz
x,y,z
-x,1/2+y,1/2-z
-x,-y,-z
x,1/2-y,1/2+z
loop_
_atom_site_type_symbol
_atom_site_label
_atom_site_fract_x
_atom_site_fract_y
_atom_site_fract_z
Si Si1 0.844633 0.452367 0.711303
Si Si2 0.708249 0.090514 0.396353
Si Si3 0.605403 0.630828 0.278770
Si Si4 0.959888 0.376028 0.487140
Si Si5 0.297934 0.355275 0.978285
O O1 0.744301 0.388429 0.734802
O O2 0.743237 0.551644 0.511797
O O3 0.889726 0.378904 0.598929
O O4 0.000000 0.500000 0.000000
O O5 0.273072 0.038431 0.562391
O O6 0.835020 0.147533 0.679967
O O7 0.540202 0.113484 0.270896
O O8 0.643094 0.755698 0.339620
O O9 0.588031 0.612333 0.044484
O O10 0.000000 0.500000 0.500000
O O11 0.128035 0.320358 0.688960
#
# Coordination Sequence:
#
# PCOD9244693 Si02
#       5
#     4   4   4   4   4
#     4  12  21  40  73  97 130 177 225 270 342 408
#     4  11  23  45  71  99 136 178 225 282 342 394
#     4  12  25  42  68 101 140 178 224 281 342 400
#     4  10  20  42  70  94 126 175 222 274 332 398
#     4  11  23  43  67  97 135 180 226 273 336 404
#
# _framework density 25.06034
#
# number of rings (size 3 to 8) (size 9 to 14) (size 15 to 20)
#    0.000    0.800    8.000    2.400    0.000    0.000 
#    0.000    6.000    0.000    0.000    0.000    0.000 
#    0.000    0.000    0.000    0.000    0.000    0.000 
#
# Total GULP energy -112079.604470 kJ/mol
# GULP energy per Si atom -5603.980224 kJ/mol
# Density = 2.500330 g / cm^3
# Si number density = 25.060340 Si / 1000 Ang^3
#
#
#
# Elastic Constant Matrix: (Units=GPa)
#
#
# Indices 1 2 3 4 5 6 
#
# 1 205.5638 20.6997 0.6723 0.0000 -13.8785 0.0000
# 2 20.6997 79.8162 16.6720 0.0000 0.1261 0.0000
# 3 0.6723 16.6720 21.6276 0.0000 2.3177 0.0000
# 4 0.0000 0.0000 0.0000 6.7613 0.0000 -9.9625
# 5 -13.8785 0.1261 2.3177 0.0000 46.7525 0.0000
# 6 0.0000 0.0000 0.0000 -9.9625 0.0000 21.2801
#
#
#
# Elastic Compliance Matrix: (Units=1/GPa)
#
#
# Indices 1 2 3 4 5 6 
#
# 1 0.005113 -0.001504 0.000842 0.000000 0.001480 0.000000
# 2 -0.001504 0.015389 -0.011827 0.000000 0.000098 0.000000
# 3 0.000842 -0.011827 0.055593 0.000000 -0.002474 0.000000
# 4 0.000000 0.000000 0.000000 0.476821 0.000000 0.223230
# 5 0.001480 0.000098 -0.002474 0.000000 0.021951 0.000000
# 6 0.000000 0.000000 0.000000 0.223230 0.000000 0.151500
#
#
# Mechanical properties :
#
#
# Convention : Reuss Voigt Hill
#
# Bulk Modulus (GPa) = 19.56280 42.56617 31.06448
# Shear Modulus (GPa) = 6.50716 32.88968 19.69842
#
# Velocity S-wave (km/s) = 1.61314 3.62666 2.80668
# Velocity P-wave (km/s) = 3.36049 5.87871 4.78812
#
# Compressibility (1/GPa) = 0.05111742
#
# Stress axis : x y z
#
# Youngs Moduli (GPa) = 195.56719 64.98089 17.98790
#
# Poissons Ratio (x) = 0.09775 -0.01515
# Poissons Ratio (y) = 0.29420 0.21274
# Poissons Ratio (z) = -0.16468 0.76851
#
# Static dielectric constant tensor:
#      x y z
#    x 1.981090 0.000000 0.009750 
#    y 0.000000 2.497250 0.000000 
#    z 0.009750 0.000000 2.032210 
# 
# From -- ./inp_files/13635.got.cif
#   From: 2010.05.17/outbox.cif.g08.bks.cpg/sg14_7_cif.got.tgz:13635.got - 2010.06.03 17:49:19.
