data_PCOD9244049
_publ_section_title
;
Structure prediction by ZEFSAII (Michael W. Deem and Ramdas Pophale) SiO2 
 PCOD9244049
Probable space group: P 21/C
;
_chemical_formula_sum "Si O2"
_cell_formula_units_Z 24
_cell_length_a 10.926132
_cell_length_b 11.274593
_cell_length_c 11.159001
_cell_angle_alpha 90.000000
_cell_angle_beta 126.385049
_cell_angle_gamma 90.000000
_cell_volume 1106.661349
_symmetry_space_group_name_H-M "P 21/C"
_symmetry_group_IT_number 14
_symmetry_cell_setting 'monoclinic'
loop_
_space_group_symop_operation_xyz
x,y,z
-x,1/2+y,1/2-z
-x,-y,-z
x,1/2-y,1/2+z
loop_
_atom_site_type_symbol
_atom_site_label
_atom_site_fract_x
_atom_site_fract_y
_atom_site_fract_z
Si Si1 0.225235 0.286963 0.774330
Si Si2 0.123659 0.861530 0.866546
Si Si3 0.112388 0.035230 0.672154
Si Si4 0.283359 0.521992 0.675351
Si Si5 0.821937 0.103282 0.628623
Si Si6 0.416257 0.425169 0.058386
O O1 0.213766 0.153182 0.717550
O O2 0.276451 0.382181 0.703339
O O3 0.056984 0.331720 0.721332
O O4 0.343072 0.309776 0.952948
O O5 0.206562 0.735715 0.929148
O O6 0.173176 0.915437 0.767091
O O7 0.182526 0.946664 0.004296
O O8 0.997138 0.076171 0.710629
O O9 0.000000 0.000000 0.500000
O O10 0.215080 0.585236 0.753985
O O11 0.454663 0.574192 0.766674
O O12 0.724775 0.010237 0.494741
O O13 0.500000 0.500000 0.000000
#
# Coordination Sequence:
#
# PCOD9244049 Si02
#       6
#     4   4   4   4   4   4
#     4   9  19  36  60  81 113 153 193 237 294 347
#     4  11  21  34  59  90 112 151 193 242 292 353
#     4  11  23  35  54  90 124 151 190 254 297 341
#     4  10  20  39  65  83 114 155 205 237 290 361
#     4   9  20  37  58  82 117 149 190 237 299 340
#     4   8  16  39  61  81 110 154 195 240 287 353
#
# _framework density 21.686851999999998
#
# number of rings (size 3 to 8) (size 9 to 14) (size 15 to 20)
#    0.000    2.667    3.333    0.500    4.667    1.333 
#    3.000    3.333    0.000   10.000    0.000    0.000 
#    0.000    0.000    0.000    0.000    0.000    0.000 
#
# Total GULP energy -133648.864405 kJ/mol
# GULP energy per Si atom -5568.702684 kJ/mol
# Density = 2.163749 g / cm^3
# Si number density = 21.686852 Si / 1000 Ang^3
#
#
#
# Elastic Constant Matrix: (Units=GPa)
#
#
# Indices 1 2 3 4 5 6 
#
# 1 24.5744 0.1648 19.4261 0.0000 9.0767 0.0000
# 2 0.1648 95.0533 24.5689 0.0000 5.3484 0.0000
# 3 19.4261 24.5689 106.5120 0.0000 9.5167 0.0000
# 4 0.0000 0.0000 0.0000 25.8526 0.0000 2.9642
# 5 9.0767 5.3484 9.5167 0.0000 22.4314 0.0000
# 6 0.0000 0.0000 0.0000 2.9642 0.0000 19.5475
#
#
#
# Elastic Compliance Matrix: (Units=1/GPa)
#
#
# Indices 1 2 3 4 5 6 
#
# 1 0.054922 0.003328 -0.009072 0.000000 -0.019169 0.000000
# 2 0.003328 0.011447 -0.002997 0.000000 -0.002805 0.000000
# 3 -0.009072 -0.002997 0.011790 0.000000 -0.000616 0.000000
# 4 0.000000 0.000000 0.000000 0.039365 0.000000 -0.005969
# 5 -0.019169 -0.002805 -0.000616 0.000000 0.053267 0.000000
# 6 0.000000 0.000000 0.000000 -0.005969 0.000000 0.052063
#
#
# Mechanical properties :
#
#
# Convention : Reuss Voigt Hill
#
# Bulk Modulus (GPa) = 16.48065 34.93991 25.71028
# Shear Modulus (GPa) = 19.18941 25.69828 22.44385
#
# Velocity S-wave (km/s) = 2.97785 3.44607 3.22049
# Velocity P-wave (km/s) = 4.40901 5.65509 5.07047
#
# Compressibility (1/GPa) = 0.06067721
#
# Stress axis : x y z
#
# Youngs Moduli (GPa) = 18.20771 87.35855 84.82098
#
# Poissons Ratio (x) = -0.29075 0.76949
# Poissons Ratio (y) = -0.06060 0.25420
# Poissons Ratio (z) = 0.16518 0.26180
#
# Static dielectric constant tensor:
#      x y z
#    x 1.896390 0.000000 0.024110 
#    y 0.000000 1.919290 0.000000 
#    z 0.024110 0.000000 1.834340 
# 
# From -- ./inp_files/29207.got.cif
#   From: 2010.05.17/outbox.cif.g08.bks.cpg/sg14_15_cif.got.tgz:29207.got - 2010.06.03 17:49:19.
