data_PCOD9244016
_publ_section_title
;
Structure prediction by ZEFSAII (Michael W. Deem and Ramdas Pophale) SiO2 
 PCOD9244016
Probable space group: P 21/C
;
_chemical_formula_sum "Si O2"
_cell_formula_units_Z 32
_cell_length_a 23.311207
_cell_length_b 13.813218
_cell_length_c 8.906884
_cell_angle_alpha 90.000000
_cell_angle_beta 148.980142
_cell_angle_gamma 90.000000
_cell_volume 1478.002504
_symmetry_space_group_name_H-M "P 21/C"
_symmetry_group_IT_number 14
_symmetry_cell_setting 'monoclinic'
loop_
_space_group_symop_operation_xyz
x,y,z
-x,1/2+y,1/2-z
-x,-y,-z
x,1/2-y,1/2+z
loop_
_atom_site_type_symbol
_atom_site_label
_atom_site_fract_x
_atom_site_fract_y
_atom_site_fract_z
Si Si1 0.550037 0.343763 0.390166
Si Si2 0.114760 0.042087 0.323602
Si Si3 0.166093 0.268548 0.368763
Si Si4 0.661676 0.008732 0.324885
Si Si5 0.224346 0.866297 0.186187
Si Si6 0.689346 0.202233 0.921802
Si Si7 0.015719 0.074278 0.402652
Si Si8 0.315662 0.192299 0.469628
O O1 0.601072 0.345524 0.337985
O O2 0.565357 0.448232 0.504156
O O3 0.624304 0.276188 0.665771
O O4 0.427869 0.296991 0.125724
O O5 0.133985 0.156145 0.326173
O O6 0.102117 0.036765 0.473609
O O7 0.222289 0.984393 0.507127
O O8 0.000000 0.000000 0.000000
O O9 0.266282 0.271673 0.471623
O O10 0.213945 0.319706 0.625007
O O11 0.061456 0.325300 0.070258
O O12 0.681752 0.069476 0.521839
O O13 0.655077 0.898203 0.359216
O O14 0.232064 0.763834 0.290343
O O15 0.245971 0.860697 0.056353
O O16 0.103385 0.909926 0.940536
O O17 0.000000 0.000000 0.500000
#
# Coordination Sequence:
#
# PCOD9244016 Si02
#       8
#     4   4   4   4   4   4   4   4
#     4  10  20  39  64  90 121 169 216 269 330 383
#     4  11  24  43  65  95 133 175 216 265 332 398
#     4  11  25  42  65  95 133 169 222 271 323 402
#     4  10  22  39  62  90 129 163 214 270 321 393
#     4  10  21  39  58  90 123 159 202 260 317 385
#     4   9  21  37  62  90 121 155 209 265 320 382
#     4  12  26  40  65  95 130 174 213 262 329 391
#     4  11  22  42  63  88 125 168 215 269 326 385
#
# _framework density 21.650842999999998
#
# number of rings (size 3 to 8) (size 9 to 14) (size 15 to 20)
#    0.000    1.500    2.500    1.875    5.250    1.000 
#    0.000    0.625    0.000    0.000    0.000    0.000 
#    0.000    0.000    0.000    0.000    0.000    0.000 
#
# Total GULP energy -178589.753520 kJ/mol
# GULP energy per Si atom -5580.929797 kJ/mol
# Density = 2.160156 g / cm^3
# Si number density = 21.650843 Si / 1000 Ang^3
#
#
#
# Elastic Constant Matrix: (Units=GPa)
#
#
# Indices 1 2 3 4 5 6 
#
# 1 143.3434 15.5246 17.3490 0.0000 -11.0054 0.0000
# 2 15.5246 43.1821 -0.2371 0.0000 -1.3424 0.0000
# 3 17.3490 -0.2371 59.1666 0.0000 2.7630 0.0000
# 4 0.0000 0.0000 0.0000 18.6129 0.0000 -2.0758
# 5 -11.0054 -1.3424 2.7630 0.0000 34.1139 0.0000
# 6 0.0000 0.0000 0.0000 -2.0758 0.0000 22.8123
#
#
#
# Elastic Compliance Matrix: (Units=1/GPa)
#
#
# Indices 1 2 3 4 5 6 
#
# 1 0.007762 -0.002723 -0.002408 0.000000 0.002592 0.000000
# 2 -0.002723 0.024142 0.000895 0.000000 -0.000001 0.000000
# 3 -0.002408 0.000895 0.017713 0.000000 -0.002176 0.000000
# 4 0.000000 0.000000 0.000000 0.054277 0.000000 0.004939
# 5 0.002592 -0.000001 -0.002176 0.000000 0.030326 0.000000
# 6 0.000000 0.000000 0.000000 0.004939 0.000000 0.044285
#
#
# Mechanical properties :
#
#
# Convention : Reuss Voigt Hill
#
# Bulk Modulus (GPa) = 24.30454 34.55169 29.42811
# Shear Modulus (GPa) = 24.91401 29.31152 27.11277
#
# Velocity S-wave (km/s) = 3.39590 3.68343 3.54259
# Velocity P-wave (km/s) = 5.16006 5.83810 5.50952
#
# Compressibility (1/GPa) = 0.04114458
#
# Stress axis : x y z
#
# Youngs Moduli (GPa) = 128.83974 41.42229 56.45675
#
# Poissons Ratio (x) = 0.11279 0.13594
# Poissons Ratio (y) = 0.35084 -0.05054
# Poissons Ratio (z) = 0.31022 -0.03708
#
# Static dielectric constant tensor:
#      x y z
#    x 1.826460 0.000000 0.005740 
#    y 0.000000 1.812730 0.000000 
#    z 0.005740 0.000000 1.771840 
# 
# From -- ./inp_files/19553.got.cif
#   From: 2010.05.17/outbox.cif.g08.bks.cpg/sg14_10_cif.got.tgz:19553.got - 2010.06.03 17:49:19.
