data_PCOD9244228
_publ_section_title
;
Structure prediction by ZEFSAII (Michael W. Deem and Ramdas Pophale) SiO2 
 PCOD9244228
Probable space group: P 21/C
;
_chemical_formula_sum "Si O2"
_cell_formula_units_Z 32
_cell_length_a 19.128741
_cell_length_b 18.726627
_cell_length_c 9.988125
_cell_angle_alpha 90.000000
_cell_angle_beta 29.095386
_cell_angle_gamma 90.000000
_cell_volume 1739.814477
_symmetry_space_group_name_H-M "P 21/C"
_symmetry_group_IT_number 14
_symmetry_cell_setting 'monoclinic'
loop_
_space_group_symop_operation_xyz
x,y,z
-x,1/2+y,1/2-z
-x,-y,-z
x,1/2-y,1/2+z
loop_
_atom_site_type_symbol
_atom_site_label
_atom_site_fract_x
_atom_site_fract_y
_atom_site_fract_z
Si Si1 0.378685 0.340782 0.822941
Si Si2 0.517492 0.337186 0.858072
Si Si3 0.342895 0.966329 0.762785
Si Si4 0.561014 0.173326 0.752269
Si Si5 0.859657 0.546011 0.195563
Si Si6 0.868449 0.943032 0.364766
Si Si7 0.188900 0.932713 0.749780
Si Si8 0.683343 0.676348 0.553516
O O1 0.454547 0.370771 0.828408
O O2 0.497385 0.338512 0.506906
O O3 0.314686 0.262189 0.965051
O O4 0.248632 0.387104 0.987925
O O5 0.638528 0.383971 0.726342
O O6 0.575337 0.259106 0.721485
O O7 0.386421 0.333205 0.183157
O O8 0.265652 0.970349 0.748800
O O9 0.500000 0.000000 0.500000
O O10 0.260964 0.006544 0.016954
O O11 0.704857 0.130273 0.476184
O O12 0.436358 0.151482 0.854896
O O13 0.826971 0.629506 0.290226
O O14 0.849223 0.542255 0.053578
O O15 0.000000 0.500000 0.000000
O O16 0.839066 0.013522 0.326044
O O17 0.029035 0.913736 0.068332
#
# Coordination Sequence:
#
# PCOD9244228 Si02
#       8
#     4   4   4   4   4   4   4   4
#     4  10  22  38  66  92 117 162 205 253 308 371
#     4  10  21  37  66  93 121 156 210 257 312 362
#     4  12  22  39  64  91 122 165 206 260 312 364
#     4  10  20  40  64  91 121 157 208 264 305 359
#     4  12  24  41  62  90 125 164 212 251 304 379
#     4  11  25  43  60  88 129 166 204 249 313 378
#     4  11  24  42  60  87 129 163 200 258 313 360
#     4  10  20  40  64  88 124 159 207 258 306 364
#
# _framework density 18.392766000000002
#
# number of rings (size 3 to 8) (size 9 to 14) (size 15 to 20)
#    0.000    1.250    5.000    0.750    1.750    0.500 
#    2.250    0.000    0.000    0.000    0.000    0.000 
#    0.000    0.000    0.000    0.000    0.000    0.000 
#
# Total GULP energy -178447.513111 kJ/mol
# GULP energy per Si atom -5576.484785 kJ/mol
# Density = 1.835090 g / cm^3
# Si number density = 18.392766 Si / 1000 Ang^3
#
#
#
# Elastic Constant Matrix: (Units=GPa)
#
#
# Indices 1 2 3 4 5 6 
#
# 1 95.4776 12.3700 41.0761 0.0000 21.7185 0.0000
# 2 12.3700 57.9487 38.8223 0.0000 1.7037 0.0000
# 3 41.0761 38.8223 111.5041 0.0000 4.8101 0.0000
# 4 0.0000 0.0000 0.0000 32.0662 0.0000 -2.4108
# 5 21.7185 1.7037 4.8101 0.0000 30.6099 0.0000
# 6 0.0000 0.0000 0.0000 -2.4108 0.0000 27.8401
#
#
#
# Elastic Compliance Matrix: (Units=1/GPa)
#
#
# Indices 1 2 3 4 5 6 
#
# 1 0.014887 0.000653 -0.005290 0.000000 -0.009768 0.000000
# 2 0.000653 0.022535 -0.008067 0.000000 -0.000450 0.000000
# 3 -0.005290 -0.008067 0.013637 0.000000 0.002060 0.000000
# 4 0.000000 0.000000 0.000000 0.031390 0.000000 0.002718
# 5 -0.009768 -0.000450 0.002060 0.000000 0.039301 0.000000
# 6 0.000000 0.000000 0.000000 0.002718 0.000000 0.036155
#
#
# Mechanical properties :
#
#
# Convention : Reuss Voigt Hill
#
# Bulk Modulus (GPa) = 38.98514 49.94081 44.46298
# Shear Modulus (GPa) = 26.06031 29.61404 27.83717
#
# Velocity S-wave (km/s) = 3.76823 4.01695 3.89457
# Velocity P-wave (km/s) = 6.33835 6.98039 6.66710
#
# Compressibility (1/GPa) = 0.02565080
#
# Stress axis : x y z
#
# Youngs Moduli (GPa) = 67.17356 44.37545 73.32971
#
# Poissons Ratio (x) = -0.02900 0.38793
# Poissons Ratio (y) = -0.04390 0.59157
# Poissons Ratio (z) = 0.35536 0.35799
#
# Static dielectric constant tensor:
#      x y z
#    x 1.639910 0.000000 -0.008110 
#    y 0.000000 1.670810 0.000000 
#    z -0.008110 0.000000 1.596240 
# 
# From -- ./inp_files/18229.got.cif
#   From: 2010.05.17/outbox.cif.g08.bks.cpg/sg14_10_cif.got.tgz:18229.got - 2010.06.03 17:49:19.
