data_PCOD9244360
_publ_section_title
;
Structure prediction by ZEFSAII (Michael W. Deem and Ramdas Pophale) SiO2 
 PCOD9244360
Probable space group: P 21/C
;
_chemical_formula_sum "Si O2"
_cell_formula_units_Z 24
_cell_length_a 14.175440
_cell_length_b 16.685921
_cell_length_c 9.899597
_cell_angle_alpha 90.000000
_cell_angle_beta 32.343972
_cell_angle_gamma 90.000000
_cell_volume 1252.733680
_symmetry_space_group_name_H-M "P 21/C"
_symmetry_group_IT_number 14
_symmetry_cell_setting 'monoclinic'
loop_
_space_group_symop_operation_xyz
x,y,z
-x,1/2+y,1/2-z
-x,-y,-z
x,1/2-y,1/2+z
loop_
_atom_site_type_symbol
_atom_site_label
_atom_site_fract_x
_atom_site_fract_y
_atom_site_fract_z
Si Si1 0.017961 0.904641 0.467064
Si Si2 0.750966 0.165517 0.574705
Si Si3 0.367793 0.401146 0.574107
Si Si4 0.536452 0.554686 0.242588
Si Si5 0.822381 0.450582 0.744578
Si Si6 0.759345 0.145310 0.047531
O O1 0.161537 0.872106 0.397998
O O2 0.083172 0.883728 0.239295
O O3 0.824114 0.869170 0.731503
O O4 0.000000 0.000000 0.500000
O O5 0.833691 0.116272 0.349416
O O6 0.779322 0.259969 0.539566
O O7 0.540675 0.149950 0.830621
O O8 0.402783 0.484987 0.454665
O O9 0.370967 0.417047 0.731269
O O10 0.422422 0.622623 0.308524
O O11 0.675531 0.513219 0.974781
O O12 0.765346 0.403362 0.679451
O O13 0.000000 0.500000 0.500000
#
# Coordination Sequence:
#
# PCOD9244360 Si02
#       6
#     4   4   4   4   4   4
#     4  12  21  42  75  92 121 178 227 258 319 403
#     4  11  25  44  63  97 139 168 216 278 329 379
#     4  10  20  41  69  94 120 173 225 260 310 408
#     4  10  20  40  68  94 124 171 222 261 328 391
#     4  11  24  41  65  99 133 172 223 271 319 401
#     4  12  23  42  65  95 139 169 210 285 336 370
#
# _framework density 19.158102
#
# number of rings (size 3 to 8) (size 9 to 14) (size 15 to 20)
#    0.000    1.000    3.333    5.500    0.000    0.000 
#    9.000    0.000    0.000    0.000    0.000    0.000 
#    0.000    0.000    0.000    0.000    0.000    0.000 
#
# Total GULP energy -134113.444369 kJ/mol
# GULP energy per Si atom -5588.060182 kJ/mol
# Density = 1.911450 g / cm^3
# Si number density = 19.158102 Si / 1000 Ang^3
#
#
#
# Elastic Constant Matrix: (Units=GPa)
#
#
# Indices 1 2 3 4 5 6 
#
# 1 49.4976 20.2215 41.7219 0.0000 6.8484 0.0000
# 2 20.2215 122.3907 46.4572 0.0000 4.7443 0.0000
# 3 41.7219 46.4572 125.0235 0.0000 1.7953 0.0000
# 4 0.0000 0.0000 0.0000 3.9540 0.0000 -7.0763
# 5 6.8484 4.7443 1.7953 0.0000 37.5844 0.0000
# 6 0.0000 0.0000 0.0000 -7.0763 0.0000 19.1246
#
#
#
# Elastic Compliance Matrix: (Units=1/GPa)
#
#
# Indices 1 2 3 4 5 6 
#
# 1 0.029088 -0.001122 -0.009222 0.000000 -0.004718 0.000000
# 2 -0.001122 0.009596 -0.003179 0.000000 -0.000855 0.000000
# 3 -0.009222 -0.003179 0.012236 0.000000 0.001497 0.000000
# 4 0.000000 0.000000 0.000000 0.748676 0.000000 0.277018
# 5 -0.004718 -0.000855 0.001497 0.000000 0.027503 0.000000
# 6 0.000000 0.000000 0.000000 0.277018 0.000000 0.154789
#
#
# Mechanical properties :
#
#
# Convention : Reuss Voigt Hill
#
# Bulk Modulus (GPa) = 41.88928 57.07925 49.48426
# Shear Modulus (GPa) = 4.91695 24.70001 14.80848
#
# Velocity S-wave (km/s) = 1.60377 3.59454 2.78324
# Velocity P-wave (km/s) = 5.03408 6.86193 6.01781
#
# Compressibility (1/GPa) = 0.02387246
#
# Stress axis : x y z
#
# Youngs Moduli (GPa) = 34.37876 104.21262 81.72788
#
# Poissons Ratio (x) = 0.11698 0.75370
# Poissons Ratio (y) = 0.03859 0.25980
# Poissons Ratio (z) = 0.31704 0.33127
#
# Static dielectric constant tensor:
#      x y z
#    x 1.678450 0.000000 -0.008350 
#    y 0.000000 1.577570 0.000000 
#    z -0.008350 0.000000 1.679250 
# 
# From -- ./inp_files/16607.got.cif
#   From: 2010.05.17/outbox.cif.g08.bks.cpg/sg14_9_cif.got.tgz:16607.got - 2010.06.03 17:49:19.
