data_PCOD9244701
_publ_section_title
;
Structure prediction by ZEFSAII (Michael W. Deem and Ramdas Pophale) SiO2 
 PCOD9244701
Probable space group: P 21/C
;
_chemical_formula_sum "Si O2"
_cell_formula_units_Z 24
_cell_length_a 16.395808
_cell_length_b 7.394771
_cell_length_c 8.168359
_cell_angle_alpha 90.000000
_cell_angle_beta 69.754119
_cell_angle_gamma 90.000000
_cell_volume 929.170269
_symmetry_space_group_name_H-M "P 21/C"
_symmetry_group_IT_number 14
_symmetry_cell_setting 'monoclinic'
loop_
_space_group_symop_operation_xyz
x,y,z
-x,1/2+y,1/2-z
-x,-y,-z
x,1/2-y,1/2+z
loop_
_atom_site_type_symbol
_atom_site_label
_atom_site_fract_x
_atom_site_fract_y
_atom_site_fract_z
Si Si1 0.461311 0.701137 0.561271
Si Si2 0.832620 0.140303 0.483417
Si Si3 0.613644 0.950309 0.537795
Si Si4 0.101260 0.998927 0.887578
Si Si5 0.276285 0.610162 0.650751
Si Si6 0.720411 0.832324 0.143672
O O1 0.434411 0.854923 0.443810
O O2 0.532706 0.689269 0.112486
O O3 0.363445 0.657785 0.686337
O O4 0.684215 0.638362 0.112935
O O5 0.870719 0.328504 0.521076
O O6 0.890140 0.032349 0.314584
O O7 0.803347 0.059952 0.676344
O O8 0.752667 0.207955 0.425569
O O9 0.659449 0.907724 0.330199
O O10 0.500000 0.000000 0.000000
O O11 0.177361 0.144881 0.878390
O O12 0.000000 0.000000 0.000000
O O13 0.292510 0.458348 0.506054
#
# Coordination Sequence:
#
# PCOD9244701 Si02
#       6
#     4   4   4   4   4   4
#     4  11  23  45  72 107 145 204 266 322 387 478
#     4   9  20  40  72 104 140 202 259 315 399 491
#     4  11  26  45  68 109 153 197 265 332 395 479
#     4  10  22  43  72 108 148 198 264 328 408 498
#     4  10  20  42  71  98 142 200 257 302 389 473
#     4  11  25  46  66 103 150 202 254 331 409 472
#
# _framework density 25.829497
#
# number of rings (size 3 to 8) (size 9 to 14) (size 15 to 20)
#    0.000    1.667    1.667    3.000    0.000    8.000 
#    3.000    7.500    0.000    0.000    0.000    0.000 
#    0.000    0.000    0.000    0.000    0.000    0.000 
#
# Total GULP energy -134010.130391 kJ/mol
# GULP energy per Si atom -5583.755433 kJ/mol
# Density = 2.577071 g / cm^3
# Si number density = 25.829497 Si / 1000 Ang^3
#
#
#
# Elastic Constant Matrix: (Units=GPa)
#
#
# Indices 1 2 3 4 5 6 
#
# 1 111.1898 37.4480 57.3276 0.0000 -16.1494 0.0000
# 2 37.4480 184.7345 59.8243 0.0000 -0.2712 0.0000
# 3 57.3276 59.8243 194.6728 0.0000 -13.8103 0.0000
# 4 0.0000 0.0000 0.0000 35.3869 0.0000 17.6160
# 5 -16.1494 -0.2712 -13.8103 0.0000 42.6343 0.0000
# 6 0.0000 0.0000 0.0000 17.6160 0.0000 28.8957
#
#
#
# Elastic Compliance Matrix: (Units=1/GPa)
#
#
# Indices 1 2 3 4 5 6 
#
# 1 0.011344 -0.001434 -0.002657 0.000000 0.003427 0.000000
# 2 -0.001434 0.006206 -0.001556 0.000000 -0.001008 0.000000
# 3 -0.002657 -0.001556 0.006474 0.000000 0.001081 0.000000
# 4 0.000000 0.000000 0.000000 0.040572 0.000000 -0.024734
# 5 0.003427 -0.001008 0.001081 0.000000 0.025097 0.000000
# 6 0.000000 0.000000 0.000000 -0.024734 0.000000 0.049686
#
#
# Mechanical properties :
#
#
# Convention : Reuss Voigt Hill
#
# Bulk Modulus (GPa) = 78.55460 88.86633 83.71046
# Shear Modulus (GPa) = 32.27497 43.78320 38.02909
#
# Velocity S-wave (km/s) = 3.53872 4.12161 3.84123
# Velocity P-wave (km/s) = 6.86844 7.55843 7.22168
#
# Compressibility (1/GPa) = 0.01273000
#
# Stress axis : x y z
#
# Youngs Moduli (GPa) = 88.15037 161.12234 154.45952
#
# Poissons Ratio (x) = 0.23108 0.41037
# Poissons Ratio (y) = 0.12643 0.24041
# Poissons Ratio (z) = 0.23420 0.25078
#
# Static dielectric constant tensor:
#      x y z
#    x 2.217200 0.000000 0.115700 
#    y 0.000000 2.149980 0.000000 
#    z 0.115700 0.000000 2.090290 
# 
# From -- ./inp_files/18839.got.cif
#   From: 2010.05.17/outbox.cif.g08.bks.cpg/sg14_10_cif.got.tgz:18839.got - 2010.06.03 17:49:19.
