data_PCOD9244712
_publ_section_title
;
Structure prediction by ZEFSAII (Michael W. Deem and Ramdas Pophale) SiO2 
 PCOD9244712
Probable space group: P 21/C
;
_chemical_formula_sum "Si O2"
_cell_formula_units_Z 20
_cell_length_a 14.639870
_cell_length_b 10.810482
_cell_length_c 7.873483
_cell_angle_alpha 90.000000
_cell_angle_beta 145.614870
_cell_angle_gamma 90.000000
_cell_volume 703.732483
_symmetry_space_group_name_H-M "P 21/C"
_symmetry_group_IT_number 14
_symmetry_cell_setting 'monoclinic'
loop_
_space_group_symop_operation_xyz
x,y,z
-x,1/2+y,1/2-z
-x,-y,-z
x,1/2-y,1/2+z
loop_
_atom_site_type_symbol
_atom_site_label
_atom_site_fract_x
_atom_site_fract_y
_atom_site_fract_z
Si Si1 0.762237 0.004853 0.588482
Si Si2 0.764064 0.681322 0.407454
Si Si3 0.448168 0.628911 0.004032
Si Si4 0.882391 0.280336 0.461767
Si Si5 0.182721 0.507640 0.214143
O O1 0.599237 0.084257 0.377933
O O2 0.784481 0.967701 0.429298
O O3 0.895191 0.110383 0.842120
O O4 0.765491 0.893811 0.731227
O O5 0.579646 0.730734 0.149529
O O6 0.747194 0.591436 0.547851
O O7 0.940235 0.745819 0.696143
O O8 0.500000 0.500000 0.000000
O O9 0.265629 0.660725 0.658447
O O10 0.797420 0.154553 0.272275
O O11 0.000000 0.500000 0.000000
#
# Coordination Sequence:
#
# PCOD9244712 Si02
#       5
#     4   4   4   4   4
#     4   9  21  39  68 109 153 199 259 327 372 472
#     4  10  20  42  75 109 153 210 253 325 402 452
#     4   8  18  39  72 110 148 199 258 323 379 465
#     4   9  21  38  70 113 155 197 260 319 386 471
#     4  10  22  39  68 110 151 199 260 315 389 463
#
# _framework density 28.419889999999999
#
# number of rings (size 3 to 8) (size 9 to 14) (size 15 to 20)
#    1.200    1.600    0.000    0.000    2.800    4.000 
#    0.000    4.000    8.800    6.000    0.000    4.200 
#    0.000    0.000    0.000    0.000    0.000    0.000 
#
# Total GULP energy -111386.853315 kJ/mol
# GULP energy per Si atom -5569.342666 kJ/mol
# Density = 2.835520 g / cm^3
# Si number density = 28.419890 Si / 1000 Ang^3
#
#
#
# Elastic Constant Matrix: (Units=GPa)
#
#
# Indices 1 2 3 4 5 6 
#
# 1 239.3091 32.0679 93.0488 0.0000 12.0714 0.0000
# 2 32.0679 113.3271 33.0092 0.0000 4.8392 0.0000
# 3 93.0488 33.0092 118.5330 0.0000 12.7856 0.0000
# 4 0.0000 0.0000 0.0000 54.3248 0.0000 21.9962
# 5 12.0714 4.8392 12.7856 0.0000 73.8254 0.0000
# 6 0.0000 0.0000 0.0000 21.9962 0.0000 39.8139
#
#
#
# Elastic Compliance Matrix: (Units=1/GPa)
#
#
# Indices 1 2 3 4 5 6 
#
# 1 0.006030 -0.000354 -0.004617 0.000000 -0.000163 0.000000
# 2 -0.000354 0.009626 -0.002385 0.000000 -0.000160 0.000000
# 3 -0.004617 -0.002385 0.012867 0.000000 -0.001317 0.000000
# 4 0.000000 0.000000 0.000000 0.023712 0.000000 -0.013100
# 5 -0.000163 -0.000160 -0.001317 0.000000 0.013811 0.000000
# 6 0.000000 0.000000 0.000000 -0.013100 0.000000 0.032355
#
#
# Mechanical properties :
#
#
# Convention : Reuss Voigt Hill
#
# Bulk Modulus (GPa) = 72.41397 87.49123 79.95260
# Shear Modulus (GPa) = 42.47506 54.46237 48.46872
#
# Velocity S-wave (km/s) = 3.87014 4.38236 4.13419
# Velocity P-wave (km/s) = 6.74581 7.51391 7.14020
#
# Compressibility (1/GPa) = 0.01380949
#
# Stress axis : x y z
#
# Youngs Moduli (GPa) = 165.84868 103.88681 77.71767
#
# Poissons Ratio (x) = 0.03682 0.35882
# Poissons Ratio (y) = 0.05878 0.18537
# Poissons Ratio (z) = 0.76572 0.24779
#
# Static dielectric constant tensor:
#      x y z
#    x 2.291760 0.000000 0.079180 
#    y 0.000000 2.358840 0.000000 
#    z 0.079180 0.000000 2.526070 
# 
# From -- ./inp_files/17941.got.cif
#   From: 2010.05.17/outbox.cif.g08.bks.cpg/sg14_9_cif.got.tgz:17941.got - 2010.06.03 17:49:19.
