data_PCOD9244871
_publ_section_title
;
Structure prediction by ZEFSAII (Michael W. Deem and Ramdas Pophale) SiO2 
 PCOD9244871
Probable space group: P 21/C
;
_chemical_formula_sum "Si O2"
_cell_formula_units_Z 22
_cell_length_a 10.812944
_cell_length_b 5.662627
_cell_length_c 25.517067
_cell_angle_alpha 90.000000
_cell_angle_beta 149.591034
_cell_angle_gamma 90.000000
_cell_volume 790.838811
_symmetry_space_group_name_H-M "P 21/C"
_symmetry_group_IT_number 14
_symmetry_cell_setting 'monoclinic'
loop_
_space_group_symop_operation_xyz
x,y,z
-x,1/2+y,1/2-z
-x,-y,-z
x,1/2-y,1/2+z
loop_
_atom_site_type_symbol
_atom_site_label
_atom_site_fract_x
_atom_site_fract_y
_atom_site_fract_z
Si Si1 0.026517 0.587967 0.690773
Si Si2 0.275300 0.100049 0.621550
Si Si3 0.500000 0.000000 0.500000
Si Si4 0.346403 0.579215 0.365526
Si Si5 0.176929 0.899710 0.130731
Si Si6 0.526773 0.142957 0.405480
O O1 0.134403 0.838402 0.748820
O O2 0.019433 0.580681 0.626290
O O3 0.232543 0.404507 0.786782
O O4 0.778073 0.569535 0.632715
O O5 0.539552 0.106508 0.746868
O O6 0.143460 0.860723 0.593721
O O7 0.348201 0.030408 0.589093
O O8 0.157086 0.353571 0.591742
O O9 0.562151 0.191590 0.570156
O O10 0.639232 0.144181 0.505080
O O11 0.528654 0.425965 0.396947
#
# Coordination Sequence:
#
# PCOD9244871 Si02
#       6
#     4   4   2   4   4   4
#     4  10  21  33  61  88 125 149 203 250 324 359
#     4   9  19  32  55  81 119 154 206 244 302 361
#     4  10  24  38  58  86 120 166 204 246 316 366
#     4  11  21  38  58  95 118 165 195 266 306 381
#     4   9  19  32  52  87 116 159 192 254 305 363
#     4  10  21  37  59  85 119 157 203 252 304 370
#
# _framework density 27.818563999999999
#
# number of rings (size 3 to 8) (size 9 to 14) (size 15 to 20)
#    0.000    2.182    1.818    0.545   15.273    0.000 
#    0.000    0.000    0.000    2.182    0.000    0.000 
#    0.000    0.000    0.000    0.000    0.000    0.000 
#
# Total GULP energy -122495.928422 kJ/mol
# GULP energy per Si atom -5567.996746 kJ/mol
# Density = 2.775525 g / cm^3
# Si number density = 27.818564 Si / 1000 Ang^3
#
#
#
# Elastic Constant Matrix: (Units=GPa)
#
#
# Indices 1 2 3 4 5 6 
#
# 1 127.7117 66.9571 32.6687 0.0000 -38.1375 0.0000
# 2 66.9571 128.2508 36.5841 0.0000 -27.1170 0.0000
# 3 32.6687 36.5841 73.5500 0.0000 -3.1891 0.0000
# 4 0.0000 0.0000 0.0000 45.7791 0.0000 -2.6292
# 5 -38.1375 -27.1170 -3.1891 0.0000 52.8637 0.0000
# 6 0.0000 0.0000 0.0000 -2.6292 0.0000 46.8068
#
#
#
# Elastic Compliance Matrix: (Units=1/GPa)
#
#
# Indices 1 2 3 4 5 6 
#
# 1 0.013067 -0.004404 -0.003311 0.000000 0.006968 0.000000
# 2 -0.004404 0.011721 -0.003761 0.000000 0.002608 0.000000
# 3 -0.003311 -0.003761 0.016794 0.000000 -0.003305 0.000000
# 4 0.000000 0.000000 0.000000 0.021915 0.000000 0.001231
# 5 0.006968 0.002608 -0.003305 0.000000 0.025082 0.000000
# 6 0.000000 0.000000 0.000000 0.001231 0.000000 0.021434
#
#
# Mechanical properties :
#
#
# Convention : Reuss Voigt Hill
#
# Bulk Modulus (GPa) = 53.67716 66.88134 60.27925
# Shear Modulus (GPa) = 35.92622 41.97678 38.95150
#
# Velocity S-wave (km/s) = 3.59757 3.88873 3.74598
# Velocity P-wave (km/s) = 6.04930 6.65261 6.35811
#
# Compressibility (1/GPa) = 0.01862990
#
# Stress axis : x y z
#
# Youngs Moduli (GPa) = 76.52889 85.31877 59.54435
#
# Poissons Ratio (x) = 0.37576 0.19716
# Poissons Ratio (y) = 0.33705 0.22393
# Poissons Ratio (z) = 0.25340 0.32086
#
# Static dielectric constant tensor:
#      x y z
#    x 2.278040 0.000000 -0.016520 
#    y 0.000000 2.221820 0.000000 
#    z -0.016520 0.000000 2.270490 
# 
# From -- ./inp_files/42631.got.cif
#   From: 2010.05.17/outbox.cif.g08.bks.cpg/sg14_22_cif.got.tgz:42631.got - 2010.06.03 17:49:19.
