data_PCOD9244739
_publ_section_title
;
Structure prediction by ZEFSAII (Michael W. Deem and Ramdas Pophale) SiO2 
 PCOD9244739
Probable space group: P 21/C
;
_chemical_formula_sum "Si O2"
_cell_formula_units_Z 26
_cell_length_a 8.688940
_cell_length_b 8.886446
_cell_length_c 20.711757
_cell_angle_alpha 90.000000
_cell_angle_beta 132.584397
_cell_angle_gamma 90.000000
_cell_volume 1177.485776
_symmetry_space_group_name_H-M "P 21/C"
_symmetry_group_IT_number 14
_symmetry_cell_setting 'monoclinic'
loop_
_space_group_symop_operation_xyz
x,y,z
-x,1/2+y,1/2-z
-x,-y,-z
x,1/2-y,1/2+z
loop_
_atom_site_type_symbol
_atom_site_label
_atom_site_fract_x
_atom_site_fract_y
_atom_site_fract_z
Si Si1 0.879747 0.157705 0.798989
Si Si2 0.548313 0.207404 0.957421
Si Si3 0.076262 0.044334 0.301504
Si Si4 0.557100 0.677811 0.318798
Si Si5 0.757587 0.606839 0.511746
Si Si6 0.683237 0.868829 0.240538
Si Si7 0.500000 0.500000 0.000000
O O1 0.641948 0.210457 0.732829
O O2 0.992672 0.289131 0.790104
O O3 0.006158 0.147179 0.901851
O O4 0.916340 0.004980 0.770531
O O5 0.396242 0.177585 0.976866
O O6 0.420545 0.191383 0.854899
O O7 0.632225 0.372335 0.994828
O O8 0.713633 0.071220 0.002628
O O9 0.302389 0.021891 0.395549
O O10 0.906916 0.938609 0.288306
O O11 0.682332 0.669475 0.421650
O O12 0.686323 0.743516 0.296293
O O13 0.460768 0.512373 0.279998
#
# Coordination Sequence:
#
# PCOD9244739 Si02
#       7
#     4   4   4   4   4   4   2
#     4  11  23  41  66  98 128 176 219 275 330 397
#     4  10  21  39  67  92 131 167 219 270 330 392
#     4  11  23  39  66  97 130 167 225 270 335 391
#     4  10  24  42  68  91 138 174 222 270 340 392
#     4  10  20  43  66  92 128 179 216 268 330 402
#     4  10  22  46  62  95 132 181 214 275 333 402
#     4  12  22  36  62 108 122 154 222 282 320 382
#
# _framework density 22.080946999999998
#
# number of rings (size 3 to 8) (size 9 to 14) (size 15 to 20)
#    0.000    1.538    3.077    0.923    4.308    3.692 
#    2.769    3.077    0.000    0.000    0.000    0.000 
#    0.000    0.000    0.000    0.000    0.000    0.000 
#
# Total GULP energy -144863.689412 kJ/mol
# GULP energy per Si atom -5571.680362 kJ/mol
# Density = 2.203069 g / cm^3
# Si number density = 22.080947 Si / 1000 Ang^3
#
#
#
# Elastic Constant Matrix: (Units=GPa)
#
#
# Indices 1 2 3 4 5 6 
#
# 1 23.3041 70.6798 21.2934 0.0000 -19.6438 0.0000
# 2 70.6798 16.9115 75.4726 0.0000 -19.6059 0.0000
# 3 21.2934 75.4726 139.4560 0.0000 -8.7837 0.0000
# 4 0.0000 0.0000 0.0000 4.2090 0.0000 -9.0371
# 5 -19.6438 -19.6059 -8.7837 0.0000 30.6044 0.0000
# 6 0.0000 0.0000 0.0000 -9.0371 0.0000 38.3730
#
#
#
# Elastic Compliance Matrix: (Units=1/GPa)
#
#
# Indices 1 2 3 4 5 6 
#
# 1 0.011211 0.017964 -0.010444 0.000000 0.015706 0.000000
# 2 0.017964 -0.003192 -0.000425 0.000000 0.009363 0.000000
# 3 -0.010444 -0.000425 0.008714 0.000000 -0.004475 0.000000
# 4 0.000000 0.000000 0.000000 0.480621 0.000000 0.113190
# 5 0.015706 0.009363 -0.004475 0.000000 0.047470 0.000000
# 6 0.000000 0.000000 0.000000 0.113190 0.000000 0.052717
#
#
# Mechanical properties :
#
#
# Convention : Reuss Voigt Hill
#
# Bulk Modulus (GPa) = 32.34129 57.17370 44.75750
# Shear Modulus (GPa) = 8.42234 15.45233 11.93733
#
# Velocity S-wave (km/s) = 1.95514 2.64825 2.32764
# Velocity P-wave (km/s) = 4.44694 5.94138 5.24763
#
# Compressibility (1/GPa) = 0.03092022
#
# Stress axis : x y z
#
# Youngs Moduli (GPa) = 89.19681 -313.23535 114.76100
#
# Poissons Ratio (x) = 5.62681 1.19860
# Poissons Ratio (y) = -1.60229 0.04881
# Poissons Ratio (z) = 0.93160 -0.13324
#
# Static dielectric constant tensor:
#      x y z
#    x 1.830750 0.000000 0.017820 
#    y 0.000000 1.895500 0.000000 
#    z 0.017820 0.000000 1.773680 
# 
# From -- ./inp_files/65041.got.cif
#   From: 2010.05.17/outbox.cif.g08.bks.cpg/sg14_33_cif.got.tgz:65041.got - 2010.06.03 17:49:19.
