data_PCOD9244092
_publ_section_title
;
Structure prediction by ZEFSAII (Michael W. Deem and Ramdas Pophale) SiO2 
 PCOD9244092
Probable space group: P 21/C
;
_chemical_formula_sum "Si O2"
_cell_formula_units_Z 28
_cell_length_a 11.987534
_cell_length_b 8.016510
_cell_length_c 15.258494
_cell_angle_alpha 90.000000
_cell_angle_beta 131.952980
_cell_angle_gamma 90.000000
_cell_volume 1090.488184
_symmetry_space_group_name_H-M "P 21/C"
_symmetry_group_IT_number 14
_symmetry_cell_setting 'monoclinic'
loop_
_space_group_symop_operation_xyz
x,y,z
-x,1/2+y,1/2-z
-x,-y,-z
x,1/2-y,1/2+z
loop_
_atom_site_type_symbol
_atom_site_label
_atom_site_fract_x
_atom_site_fract_y
_atom_site_fract_z
Si Si1 0.709075 0.919600 0.912966
Si Si2 0.437057 0.083714 0.354654
Si Si3 0.263939 0.781255 0.335171
Si Si4 0.404277 0.455001 0.335433
Si Si5 0.974207 0.352443 0.154095
Si Si6 0.990940 0.498391 0.346426
Si Si7 0.257806 0.462542 0.069716
O O1 0.659119 0.926506 0.786138
O O2 0.572275 0.002800 0.892605
O O3 0.728874 0.728530 0.953059
O O4 0.870076 0.997109 0.015923
O O5 0.381100 0.932612 0.385742
O O6 0.410526 0.269351 0.376987
O O7 0.604637 0.056367 0.405863
O O8 0.128467 0.849644 0.200517
O O9 0.341256 0.607526 0.357609
O O10 0.177057 0.779600 0.380499
O O11 0.297968 0.461127 0.193332
O O12 0.037211 0.459739 0.268605
O O13 0.903872 0.462621 0.040356
O O14 0.069861 0.188459 0.183216
#
# Coordination Sequence:
#
# PCOD9244092 Si02
#       7
#     4   4   4   4   4   4   4
#     4  10  20  39  67  93 126 165 209 255 323 375
#     4  10  21  39  65  96 123 164 206 268 312 362
#     4  10  24  42  62  96 128 157 225 260 302 382
#     4  10  21  41  67  97 123 163 213 266 311 369
#     4  10  23  41  60  89 123 177 202 257 319 374
#     4  10  23  41  62  86 128 172 206 255 317 382
#     4  10  20  39  67  92 128 162 210 257 321 375
#
# _framework density 25.676573999999999
#
# number of rings (size 3 to 8) (size 9 to 14) (size 15 to 20)
#    0.857    1.143    1.429    1.714    4.000    2.286 
#    0.000    2.857    0.000    0.000    0.000    0.000 
#    0.000    0.000    0.000    0.000    0.000    0.000 
#
# Total GULP energy -156625.938382 kJ/mol
# GULP energy per Si atom -5593.783514 kJ/mol
# Density = 2.561813 g / cm^3
# Si number density = 25.676574 Si / 1000 Ang^3
#
#
#
# Elastic Constant Matrix: (Units=GPa)
#
#
# Indices 1 2 3 4 5 6 
#
# 1 75.5182 38.6215 9.2501 0.0000 11.3762 0.0000
# 2 38.6215 176.3660 22.3608 0.0000 1.1689 0.0000
# 3 9.2501 22.3608 83.0872 0.0000 -0.6809 0.0000
# 4 0.0000 0.0000 0.0000 40.0469 0.0000 5.9171
# 5 11.3762 1.1689 -0.6809 0.0000 21.3441 0.0000
# 6 0.0000 0.0000 0.0000 5.9171 0.0000 33.9533
#
#
#
# Elastic Compliance Matrix: (Units=1/GPa)
#
#
# Indices 1 2 3 4 5 6 
#
# 1 0.016399 -0.003410 -0.000978 0.000000 -0.008585 0.000000
# 2 -0.003410 0.006582 -0.001380 0.000000 0.001413 0.000000
# 3 -0.000978 -0.001380 0.012524 0.000000 0.000997 0.000000
# 4 0.000000 0.000000 0.000000 0.025631 0.000000 -0.004467
# 5 -0.008585 0.001413 0.000997 0.000000 0.051381 0.000000
# 6 0.000000 0.000000 0.000000 -0.004467 0.000000 0.030231
#
#
# Mechanical properties :
#
#
# Convention : Reuss Voigt Hill
#
# Bulk Modulus (GPa) = 41.72231 52.82625 47.27428
# Shear Modulus (GPa) = 30.81191 36.71814 33.76503
#
# Velocity S-wave (km/s) = 3.46786 3.78567 3.63024
# Velocity P-wave (km/s) = 5.68500 6.30292 6.00191
#
# Compressibility (1/GPa) = 0.02396799
#
# Stress axis : x y z
#
# Youngs Moduli (GPa) = 60.97953 151.91936 79.84613
#
# Poissons Ratio (x) = 0.51807 0.07811
# Poissons Ratio (y) = 0.20795 0.11021
# Poissons Ratio (z) = 0.05966 0.20969
#
# Static dielectric constant tensor:
#      x y z
#    x 2.019380 0.000000 0.011050 
#    y 0.000000 2.032710 0.000000 
#    z 0.011050 0.000000 2.044710 
# 
# From -- ./inp_files/68021.got.cif
#   From: 2010.05.17/outbox.cif.g08.bks.cpg/sg14_35_cif.got.tgz:68021.got - 2010.06.03 17:49:19.
