data_PCOD9244370
_publ_section_title
;
Structure prediction by ZEFSAII (Michael W. Deem and Ramdas Pophale) SiO2 
 PCOD9244370
Probable space group: P 21/C
;
_chemical_formula_sum "Si O2"
_cell_formula_units_Z 30
_cell_length_a 7.769890
_cell_length_b 29.232750
_cell_length_c 5.513505
_cell_angle_alpha 90.000000
_cell_angle_beta 107.255374
_cell_angle_gamma 90.000000
_cell_volume 1195.947476
_symmetry_space_group_name_H-M "P 21/C"
_symmetry_group_IT_number 14
_symmetry_cell_setting 'monoclinic'
loop_
_space_group_symop_operation_xyz
x,y,z
-x,1/2+y,1/2-z
-x,-y,-z
x,1/2-y,1/2+z
loop_
_atom_site_type_symbol
_atom_site_label
_atom_site_fract_x
_atom_site_fract_y
_atom_site_fract_z
Si Si1 0.500000 0.500000 0.000000
Si Si2 0.718823 0.731477 0.785640
Si Si3 0.393815 0.132751 0.900544
Si Si4 0.796491 0.367499 0.338848
Si Si5 0.179508 0.042681 0.668182
Si Si6 0.873107 0.266956 0.501886
Si Si7 0.863771 0.452477 0.654607
Si Si8 0.396690 0.904897 0.630565
O O1 0.307983 0.486244 0.043067
O O2 0.442857 0.554852 0.965605
O O3 0.640003 0.758402 0.519584
O O4 0.706127 0.678770 0.708600
O O5 0.927354 0.745946 0.895772
O O6 0.589676 0.136371 0.851535
O O7 0.275321 0.089090 0.781271
O O8 0.440502 0.125451 0.204539
O O9 0.887054 0.321161 0.462615
O O10 0.899164 0.413574 0.469697
O O11 0.761372 0.373365 0.038326
O O12 0.002202 0.051215 0.435548
O O13 0.154553 0.007340 0.886909
O O14 0.785204 0.255078 0.724420
O O15 0.669826 0.434670 0.667910
#
# Coordination Sequence:
#
# PCOD9244370 Si02
#       8
#     2   4   4   4   4   4   4   4
#     4  10  20  40  68  96 146 182 232 280 358 414
#     4  10  25  46  71 103 137 183 240 308 367 435
#     4  11  25  41  72  98 139 180 241 295 365 434
#     4  11  24  43  71  98 138 181 240 288 363 434
#     4  10  21  43  66 102 142 184 233 293 354 435
#     4  10  25  46  71  98 136 187 232 304 368 428
#     4   9  23  41  66 100 141 185 234 286 354 438
#     4  10  23  41  65 101 137 189 231 292 349 439
#
# _framework density 25.084714000000002
#
# number of rings (size 3 to 8) (size 9 to 14) (size 15 to 20)
#    0.000    1.867    1.333    0.000   11.200    3.733 
#    4.800    2.000    0.000    0.000    0.000    0.000 
#    0.000    0.000    0.000    0.000    0.000    0.000 
#
# Total GULP energy -167037.591473 kJ/mol
# GULP energy per Si atom -5567.919716 kJ/mol
# Density = 2.502762 g / cm^3
# Si number density = 25.084714 Si / 1000 Ang^3
#
#
#
# Elastic Constant Matrix: (Units=GPa)
#
#
# Indices 1 2 3 4 5 6 
#
# 1 65.5357 27.3267 2.9535 0.0000 23.7865 0.0000
# 2 27.3267 214.1148 82.6091 0.0000 16.5096 0.0000
# 3 2.9535 82.6091 123.8970 0.0000 -2.3736 0.0000
# 4 0.0000 0.0000 0.0000 -5.0963 0.0000 -16.2220
# 5 23.7865 16.5096 -2.3736 0.0000 17.0213 0.0000
# 6 0.0000 0.0000 0.0000 -16.2220 0.0000 4.9590
#
#
#
# Elastic Compliance Matrix: (Units=1/GPa)
#
#
# Indices 1 2 3 4 5 6 
#
# 1 0.031273 0.000012 -0.001595 0.000000 -0.043936 0.000000
# 2 0.000012 0.007156 -0.004918 0.000000 -0.007643 0.000000
# 3 -0.001595 -0.004918 0.011553 0.000000 0.008610 0.000000
# 4 0.000000 0.000000 0.000000 -0.017193 0.000000 -0.056243
# 5 -0.043936 -0.007643 0.008610 0.000000 0.128763 0.000000
# 6 0.000000 0.000000 0.000000 -0.056243 0.000000 0.017669
#
#
# Mechanical properties :
#
#
# Convention : Reuss Voigt Hill
#
# Bulk Modulus (GPa) = 27.04202 69.92513 48.48358
# Shear Modulus (GPa) = 24.44409 22.75401 23.59905
#
# Velocity S-wave (km/s) = 3.12502 3.01506 3.07053
# Velocity P-wave (km/s) = 4.88106 6.32905 5.65162
#
# Compressibility (1/GPa) = 0.03697949
#
# Stress axis : x y z
#
# Youngs Moduli (GPa) = 31.97684 139.75254 86.55691
#
# Poissons Ratio (x) = -0.00168 0.13807
# Poissons Ratio (y) = -0.00038 0.42566
# Poissons Ratio (z) = 0.05101 0.68726
#
# Static dielectric constant tensor:
#      x y z
#    x 1.991190 0.000000 -0.089770 
#    y 0.000000 1.916950 0.000000 
#    z -0.089770 0.000000 2.102470 
# 
# From -- ./inp_files/2292.got.cif
#   From: 2010.05.17/outbox.cif.g08.bks.cpg/sg14_2_cif.got.tgz:2292.got - 2010.06.03 17:49:19.
