data_PCOD9244930
_publ_section_title
;
Structure prediction by ZEFSAII (Michael W. Deem and Ramdas Pophale) SiO2 
 PCOD9244930
Probable space group: P 21/C
;
_chemical_formula_sum "Si O2"
_cell_formula_units_Z 32
_cell_length_a 10.019456
_cell_length_b 29.985018
_cell_length_c 5.281200
_cell_angle_alpha 90.000000
_cell_angle_beta 92.850347
_cell_angle_gamma 90.000000
_cell_volume 1584.686801
_symmetry_space_group_name_H-M "P 21/C"
_symmetry_group_IT_number 14
_symmetry_cell_setting 'monoclinic'
loop_
_space_group_symop_operation_xyz
x,y,z
-x,1/2+y,1/2-z
-x,-y,-z
x,1/2-y,1/2+z
loop_
_atom_site_type_symbol
_atom_site_label
_atom_site_fract_x
_atom_site_fract_y
_atom_site_fract_z
Si Si1 0.925791 0.969305 0.794131
Si Si2 0.701212 0.905176 0.910666
Si Si3 0.444203 0.546321 0.387473
Si Si4 0.664102 0.123999 0.748983
Si Si5 0.637286 0.771686 0.136499
Si Si6 0.811505 0.451271 0.983424
Si Si7 0.370260 0.362073 0.080009
Si Si8 0.313524 0.776143 0.090651
O O1 0.838920 0.930825 0.906463
O O2 0.043430 0.949333 0.632940
O O3 0.826654 0.004569 0.654028
O O4 0.000000 0.000000 0.000000
O O5 0.578283 0.933568 0.780058
O O6 0.697067 0.866145 0.700453
O O7 0.669985 0.897492 0.204176
O O8 0.500000 0.500000 0.500000
O O9 0.392365 0.586067 0.566335
O O10 0.315747 0.538506 0.203606
O O11 0.775316 0.095871 0.609798
O O12 0.532769 0.137608 0.571867
O O13 0.711927 0.170594 0.878309
O O14 0.682076 0.736147 0.353697
O O15 0.671046 0.817597 0.275815
O O16 0.475323 0.771711 0.102716
O O17 0.265619 0.747319 0.327912
#
# Coordination Sequence:
#
# PCOD9244930 Si02
#       8
#     4   4   4   4   4   4   4   4
#     4  11  26  42  58  83 119 167 216 254 302 366
#     4  11  23  38  60  84 125 157 204 252 304 357
#     4  11  23  37  60  91 127 166 209 258 315 372
#     4  10  21  35  58  90 125 160 207 256 316 376
#     4   9  16  29  51  79 119 155 186 232 303 368
#     4  11  23  40  63  82 122 164 213 258 310 367
#     4  10  21  35  56  90 120 156 198 251 301 369
#     4   9  19  32  54  84 123 160 195 249 316 377
#
# _framework density 20.193263000000002
#
# number of rings (size 3 to 8) (size 9 to 14) (size 15 to 20)
#    0.000    1.750    1.250    3.000    8.750    4.000 
#    0.000    0.000    0.000    0.000    0.000    5.250 
#    0.000    0.000    0.000    0.000    0.000    0.000 
#
# Total GULP energy -178250.767226 kJ/mol
# GULP energy per Si atom -5570.336476 kJ/mol
# Density = 2.014730 g / cm^3
# Si number density = 20.193263 Si / 1000 Ang^3
#
#
#
# Elastic Constant Matrix: (Units=GPa)
#
#
# Indices 1 2 3 4 5 6 
#
# 1 127.6128 0.2249 32.9107 0.0000 -41.1709 0.0000
# 2 0.2249 119.7896 14.1760 0.0000 9.0863 0.0000
# 3 32.9107 14.1760 66.8700 0.0000 -11.4769 0.0000
# 4 0.0000 0.0000 0.0000 37.5096 0.0000 -0.0617
# 5 -41.1709 9.0863 -11.4769 0.0000 42.2503 0.0000
# 6 0.0000 0.0000 0.0000 -0.0617 0.0000 14.7122
#
#
#
# Elastic Compliance Matrix: (Units=1/GPa)
#
#
# Indices 1 2 3 4 5 6 
#
# 1 0.012502 -0.000375 -0.004163 0.000000 0.011133 0.000000
# 2 -0.000375 0.008823 -0.002175 0.000000 -0.002854 0.000000
# 3 -0.004163 -0.002175 0.017672 0.000000 0.001212 0.000000
# 4 0.000000 0.000000 0.000000 0.026660 0.000000 0.000112
# 5 0.011133 -0.002854 0.001212 0.000000 0.035460 0.000000
# 6 0.000000 0.000000 0.000000 0.000112 0.000000 0.067971
#
#
# Mechanical properties :
#
#
# Convention : Reuss Voigt Hill
#
# Bulk Modulus (GPa) = 39.10836 45.43283 42.27060
# Shear Modulus (GPa) = 26.17278 36.69181 31.43229
#
# Velocity S-wave (km/s) = 3.60406 4.26729 3.94962
# Velocity P-wave (km/s) = 6.06037 6.84306 6.46358
#
# Compressibility (1/GPa) = 0.02556998
#
# Stress axis : x y z
#
# Youngs Moduli (GPa) = 79.98683 113.34523 56.58568
#
# Poissons Ratio (x) = 0.04254 0.23555
# Poissons Ratio (y) = 0.03002 0.12310
# Poissons Ratio (z) = 0.33297 0.24658
#
# Static dielectric constant tensor:
#      x y z
#    x 1.755290 0.000000 0.019250 
#    y 0.000000 1.837290 0.000000 
#    z 0.019250 0.000000 1.822040 
# 
# From -- ./inp_files/2242.got.cif
#   From: 2010.05.17/outbox.cif.g08.bks.cpg/sg14_2_cif.got.tgz:2242.got - 2010.06.03 17:49:19.
