data_PCOD9244774
_publ_section_title
;
Structure prediction by ZEFSAII (Michael W. Deem and Ramdas Pophale) SiO2 
 PCOD9244774
Probable space group: P 21/C
;
_chemical_formula_sum "Si O2"
_cell_formula_units_Z 24
_cell_length_a 19.272595
_cell_length_b 9.314551
_cell_length_c 15.350296
_cell_angle_alpha 90.000000
_cell_angle_beta 160.057431
_cell_angle_gamma 90.000000
_cell_volume 939.880545
_symmetry_space_group_name_H-M "P 21/C"
_symmetry_group_IT_number 14
_symmetry_cell_setting 'monoclinic'
loop_
_space_group_symop_operation_xyz
x,y,z
-x,1/2+y,1/2-z
-x,-y,-z
x,1/2-y,1/2+z
loop_
_atom_site_type_symbol
_atom_site_label
_atom_site_fract_x
_atom_site_fract_y
_atom_site_fract_z
Si Si1 0.508954 0.235996 0.174037
Si Si2 0.563437 0.416677 0.400052
Si Si3 0.202389 0.524255 0.567441
Si Si4 0.789421 0.750552 0.339143
Si Si5 0.160567 0.760048 0.159577
Si Si6 0.007063 0.981627 0.349650
O O1 0.462587 0.305335 0.213276
O O2 0.676371 0.346326 0.334850
O O3 0.557563 0.066825 0.236556
O O4 0.335668 0.242478 0.896874
O O5 0.639698 0.328287 0.574571
O O6 0.783488 0.472667 0.622108
O O7 0.298133 0.369873 0.700523
O O8 0.176211 0.587173 0.632814
O O9 0.022138 0.483602 0.288483
O O10 0.822562 0.902630 0.423517
O O11 0.019410 0.718213 0.577462
O O12 0.058572 0.660583 0.964479
#
# Coordination Sequence:
#
# PCOD9244774 Si02
#       6
#     4   4   4   4   4   4
#     4  11  23  43  62  93 132 169 216 268 332 385
#     4  10  22  41  66  90 127 177 215 267 325 390
#     4  11  25  37  62 102 130 157 212 279 326 382
#     4  11  21  43  67  90 125 174 215 264 323 390
#     4  11  21  43  67  90 127 171 223 262 320 391
#     4  10  20  44  66  87 126 174 219 260 318 387
#
# _framework density 25.535157000000002
#
# number of rings (size 3 to 8) (size 9 to 14) (size 15 to 20)
#    0.000    1.333    3.333    3.000    2.333    0.667 
#    6.000    0.000    0.000    0.000    0.000    0.000 
#    0.000    0.000    0.000    0.000    0.000    0.000 
#
# Total GULP energy -134135.035250 kJ/mol
# GULP energy per Si atom -5588.959802 kJ/mol
# Density = 2.547704 g / cm^3
# Si number density = 25.535157 Si / 1000 Ang^3
#
#
#
# Elastic Constant Matrix: (Units=GPa)
#
#
# Indices 1 2 3 4 5 6 
#
# 1 58.0653 44.4309 28.0171 0.0000 -10.6503 0.0000
# 2 44.4309 158.9497 61.7716 0.0000 0.0617 0.0000
# 3 28.0171 61.7716 106.5483 0.0000 -32.3243 0.0000
# 4 0.0000 0.0000 0.0000 27.9633 0.0000 -31.9173
# 5 -10.6503 0.0617 -32.3243 0.0000 36.5866 0.0000
# 6 0.0000 0.0000 0.0000 -31.9173 0.0000 19.5571
#
#
#
# Elastic Compliance Matrix: (Units=1/GPa)
#
#
# Indices 1 2 3 4 5 6 
#
# 1 0.023528 -0.006356 -0.000575 0.000000 0.006352 0.000000
# 2 -0.006356 0.010813 -0.007056 0.000000 -0.008102 0.000000
# 3 -0.000575 -0.007056 0.018553 0.000000 0.016236 0.000000
# 4 0.000000 0.000000 0.000000 -0.041449 0.000000 -0.067646
# 5 0.006352 -0.008102 0.016236 0.000000 0.043539 0.000000
# 6 0.000000 0.000000 0.000000 -0.067646 0.000000 -0.059266
#
#
# Mechanical properties :
#
#
# Convention : Reuss Voigt Hill
#
# Bulk Modulus (GPa) = 40.12698 65.77805 52.95252
# Shear Modulus (GPa) = 156.26282 29.44430 92.85356
#
# Velocity S-wave (km/s) = 7.83122 3.39940 6.03672
# Velocity P-wave (km/s) = 9.87518 6.42056 8.32895
#
# Compressibility (1/GPa) = 0.02492089
#
# Stress axis : x y z
#
# Youngs Moduli (GPa) = 42.50301 92.48125 53.90052
#
# Poissons Ratio (x) = 0.58778 0.03099
# Poissons Ratio (y) = 0.27013 0.38030
# Poissons Ratio (z) = 0.02444 0.65251
#
# Static dielectric constant tensor:
#      x y z
#    x 2.127870 0.000000 0.098870 
#    y 0.000000 1.944030 0.000000 
#    z 0.098870 0.000000 2.010680 
# 
# From -- ./inp_files/61737.got.cif
#   From: 2010.05.17/outbox.cif.g08.bks.cpg/sg14_31_cif.got.tgz:61737.got - 2010.06.03 17:49:19.
