data_PCOD9244922
_publ_section_title
;
Structure prediction by ZEFSAII (Michael W. Deem and Ramdas Pophale) SiO2 
 PCOD9244922
Probable space group: P 21/C
;
_chemical_formula_sum "Si O2"
_cell_formula_units_Z 32
_cell_length_a 19.721501
_cell_length_b 5.323293
_cell_length_c 31.108760
_cell_angle_alpha 90.000000
_cell_angle_beta 29.346605
_cell_angle_gamma 90.000000
_cell_volume 1600.590857
_symmetry_space_group_name_H-M "P 21/C"
_symmetry_group_IT_number 14
_symmetry_cell_setting 'monoclinic'
loop_
_space_group_symop_operation_xyz
x,y,z
-x,1/2+y,1/2-z
-x,-y,-z
x,1/2-y,1/2+z
loop_
_atom_site_type_symbol
_atom_site_label
_atom_site_fract_x
_atom_site_fract_y
_atom_site_fract_z
Si Si1 0.322478 0.480949 0.361084
Si Si2 0.531264 0.752295 0.509513
Si Si3 0.985319 0.895847 0.186942
Si Si4 0.753302 0.222528 0.806892
Si Si5 0.144837 0.555438 0.836511
Si Si6 0.027894 0.926957 0.066985
Si Si7 0.619490 0.479263 0.226283
Si Si8 0.833459 0.904819 0.841144
O O1 0.172832 0.509930 0.464927
O O2 0.452710 0.483019 0.322058
O O3 0.344884 0.726448 0.319462
O O4 0.336435 0.226496 0.325302
O O5 0.500000 0.500000 0.500000
O O6 0.409654 0.747921 0.612156
O O7 0.694267 0.750494 0.428133
O O8 0.500000 0.000000 0.500000
O O9 0.946700 0.697172 0.244877
O O10 0.052468 0.857488 0.103611
O O11 0.837811 0.021381 0.257416
O O12 0.090000 0.066133 0.156274
O O13 0.822453 0.043654 0.732813
O O14 0.777912 0.136210 0.842600
O O15 0.289693 0.535844 0.781143
O O16 0.050829 0.324563 0.905072
O O17 0.068370 0.824357 0.884906
#
# Coordination Sequence:
#
# PCOD9244922 Si02
#       8
#     4   4   4   4   4   4   4   4
#     4  10  22  42  64  90 125 157 199 252 301 373
#     4  10  21  35  56  80 108 149 198 244 291 346
#     4  11  21  35  59  83 117 159 201 248 302 355
#     4  10  21  37  55  82 119 155 198 249 296 350
#     4  11  23  38  62  91 125 161 201 250 307 366
#     4  11  24  39  60  92 126 158 203 256 305 360
#     4  10  22  41  66  90 121 163 200 243 311 368
#     4  11  20  36  58  80 114 159 203 243 301 352
#
# _framework density 19.992618
#
# number of rings (size 3 to 8) (size 9 to 14) (size 15 to 20)
#    0.000    1.500    3.750    1.500    0.000    4.000 
#    0.000    0.000    0.000    6.000    0.000    0.000 
#    0.000    0.000    0.000    0.000    0.000    0.000 
#
# Total GULP energy -178205.227292 kJ/mol
# GULP energy per Si atom -5568.913353 kJ/mol
# Density = 1.994711 g / cm^3
# Si number density = 19.992618 Si / 1000 Ang^3
#
#
#
# Elastic Constant Matrix: (Units=GPa)
#
#
# Indices 1 2 3 4 5 6 
#
# 1 72.7557 8.0952 -0.0658 0.0000 -16.4075 0.0000
# 2 8.0952 102.6805 13.0286 0.0000 -7.5973 0.0000
# 3 -0.0658 13.0286 75.4171 0.0000 -12.7537 0.0000
# 4 0.0000 0.0000 0.0000 27.1943 0.0000 -5.3425
# 5 -16.4075 -7.5973 -12.7537 0.0000 18.5097 0.0000
# 6 0.0000 0.0000 0.0000 -5.3425 0.0000 20.3815
#
#
#
# Elastic Compliance Matrix: (Units=1/GPa)
#
#
# Indices 1 2 3 4 5 6 
#
# 1 0.017794 -0.000485 0.003094 0.000000 0.017706 0.000000
# 2 -0.000485 0.010150 -0.001270 0.000000 0.002861 0.000000
# 3 0.003094 -0.001270 0.015685 0.000000 0.013028 0.000000
# 4 0.000000 0.000000 0.000000 0.038769 0.000000 0.010162
# 5 0.017706 0.002861 0.013028 0.000000 0.079871 0.000000
# 6 0.000000 0.000000 0.000000 0.010162 0.000000 0.051728
#
#
# Mechanical properties :
#
#
# Convention : Reuss Voigt Hill
#
# Bulk Modulus (GPa) = 21.59580 32.55214 27.07397
# Shear Modulus (GPa) = 22.05013 28.53678 25.29345
#
# Velocity S-wave (km/s) = 3.32462 3.78215 3.56074
# Velocity P-wave (km/s) = 5.05596 5.94897 5.52056
#
# Compressibility (1/GPa) = 0.04630530
#
# Stress axis : x y z
#
# Youngs Moduli (GPa) = 56.19775 98.52186 63.75565
#
# Poissons Ratio (x) = 0.04782 -0.19723
# Poissons Ratio (y) = 0.02728 0.08098
# Poissons Ratio (z) = -0.17385 0.12513
#
# Static dielectric constant tensor:
#      x y z
#    x 1.753580 0.000000 -0.007700 
#    y 0.000000 1.771850 0.000000 
#    z -0.007700 0.000000 1.761650 
# 
# From -- ./inp_files/80332.got.cif
#   From: 2010.05.17/outbox.cif.g08.bks.cpg/sg14_41_cif.got.tgz:80332.got - 2010.06.03 17:49:19.
