data_PCOD9244365
_publ_section_title
;
Structure prediction by ZEFSAII (Michael W. Deem and Ramdas Pophale) SiO2 
 PCOD9244365
Probable space group: P 21/C
;
_chemical_formula_sum "Si O2"
_cell_formula_units_Z 22
_cell_length_a 23.037462
_cell_length_b 7.411996
_cell_length_c 13.564223
_cell_angle_alpha 90.000000
_cell_angle_beta 157.603730
_cell_angle_gamma 90.000000
_cell_volume 882.472776
_symmetry_space_group_name_H-M "P 21/C"
_symmetry_group_IT_number 14
_symmetry_cell_setting 'monoclinic'
loop_
_space_group_symop_operation_xyz
x,y,z
-x,1/2+y,1/2-z
-x,-y,-z
x,1/2-y,1/2+z
loop_
_atom_site_type_symbol
_atom_site_label
_atom_site_fract_x
_atom_site_fract_y
_atom_site_fract_z
Si Si1 0.302022 0.877129 0.637554
Si Si2 0.073099 0.463215 0.942356
Si Si3 0.500000 0.000000 0.500000
Si Si4 0.509178 0.777439 0.131921
Si Si5 0.184610 0.065752 0.106726
Si Si6 0.216436 0.741286 0.300905
O O1 0.220012 0.778269 0.421056
O O2 0.192066 0.962317 0.545825
O O3 0.400843 0.039721 0.745544
O O4 0.411818 0.742502 0.873481
O O5 0.912289 0.490650 0.637457
O O6 0.117704 0.258362 0.029715
O O7 0.107627 0.585971 0.090252
O O8 0.406549 0.091239 0.248852
O O9 0.360100 0.079072 0.353515
O O10 0.387874 0.793344 0.027595
O O11 0.166882 0.923781 0.166923
#
# Coordination Sequence:
#
# PCOD9244365 Si02
#       6
#     4   4   2   4   4   4
#     4  10  21  42  65  95 135 183 228 281 356 408
#     4  11  22  44  68  94 142 186 223 301 348 412
#     4  10  20  40  68  96 126 182 234 268 352 420
#     4   9  20  39  65  93 135 178 216 296 339 404
#     4  11  22  42  68  99 138 183 234 286 355 408
#     4  10  23  40  65 101 132 183 241 277 348 430
#
# _framework density 24.929946999999999
#
# number of rings (size 3 to 8) (size 9 to 14) (size 15 to 20)
#    0.000    1.818    3.636    0.000    0.000    3.636 
#    3.273    0.909    0.000    0.000    0.000    0.000 
#    0.000    0.000    0.000    0.000    0.000    0.000 
#
# Total GULP energy -122918.592907 kJ/mol
# GULP energy per Si atom -5587.208768 kJ/mol
# Density = 2.487320 g / cm^3
# Si number density = 24.929947 Si / 1000 Ang^3
#
#
#
# Elastic Constant Matrix: (Units=GPa)
#
#
# Indices 1 2 3 4 5 6 
#
# 1 94.0578 60.4769 37.2992 0.0000 -3.1662 0.0000
# 2 60.4769 147.9342 48.9167 0.0000 -14.9215 0.0000
# 3 37.2992 48.9167 79.6189 0.0000 -9.3580 0.0000
# 4 0.0000 0.0000 0.0000 38.3838 0.0000 1.1667
# 5 -3.1662 -14.9215 -9.3580 0.0000 34.5456 0.0000
# 6 0.0000 0.0000 0.0000 1.1667 0.0000 28.4567
#
#
#
# Elastic Compliance Matrix: (Units=1/GPa)
#
#
# Indices 1 2 3 4 5 6 
#
# 1 0.015602 -0.005125 -0.004393 0.000000 -0.001974 0.000000
# 2 -0.005125 0.010352 -0.003603 0.000000 0.003025 0.000000
# 3 -0.004393 -0.003603 0.017147 0.000000 0.002686 0.000000
# 4 0.000000 0.000000 0.000000 0.026085 0.000000 -0.001070
# 5 -0.001974 0.003025 0.002686 0.000000 0.030801 0.000000
# 6 0.000000 0.000000 0.000000 -0.001070 0.000000 0.035185
#
#
# Mechanical properties :
#
#
# Convention : Reuss Voigt Hill
#
# Bulk Modulus (GPa) = 59.31413 68.33294 63.82354
# Shear Modulus (GPa) = 29.93408 31.93843 30.93626
#
# Velocity S-wave (km/s) = 3.46891 3.58317 3.52650
# Velocity P-wave (km/s) = 6.31573 6.67744 6.49910
#
# Compressibility (1/GPa) = 0.01685939
#
# Stress axis : x y z
#
# Youngs Moduli (GPa) = 64.09231 96.60345 58.31877
#
# Poissons Ratio (x) = 0.49510 0.25617
# Poissons Ratio (y) = 0.32848 0.21014
# Poissons Ratio (z) = 0.28153 0.34810
#
# Static dielectric constant tensor:
#      x y z
#    x 2.023200 0.000000 0.052210 
#    y 0.000000 2.290240 0.000000 
#    z 0.052210 0.000000 2.115120 
# 
# From -- ./inp_files/51883.got.cif
#   From: 2010.05.17/outbox.cif.g08.bks.cpg/sg14_26_cif.got.tgz:51883.got - 2010.06.03 17:49:19.
