data_PCOD9244078
_publ_section_title
;
Structure prediction by ZEFSAII (Michael W. Deem and Ramdas Pophale) SiO2 
 PCOD9244078
Probable space group: P 21/C
;
_chemical_formula_sum "Si O2"
_cell_formula_units_Z 20
_cell_length_a 8.713270
_cell_length_b 13.213156
_cell_length_c 19.049675
_cell_angle_alpha 90.000000
_cell_angle_beta 27.504051
_cell_angle_gamma 90.000000
_cell_volume 1012.837763
_symmetry_space_group_name_H-M "P 21/C"
_symmetry_group_IT_number 14
_symmetry_cell_setting 'monoclinic'
loop_
_space_group_symop_operation_xyz
x,y,z
-x,1/2+y,1/2-z
-x,-y,-z
x,1/2-y,1/2+z
loop_
_atom_site_type_symbol
_atom_site_label
_atom_site_fract_x
_atom_site_fract_y
_atom_site_fract_z
Si Si1 0.165670 0.273380 0.710131
Si Si2 0.256472 0.138307 0.797985
Si Si3 0.491377 0.113999 0.470460
Si Si4 0.352493 0.824154 0.871411
Si Si5 0.340668 0.055168 0.381290
O O1 0.060712 0.198234 0.816434
O O2 0.314785 0.197129 0.592076
O O3 0.436170 0.340725 0.642670
O O4 0.863948 0.343042 0.808956
O O5 0.594278 0.205002 0.665591
O O6 0.368739 0.028767 0.729659
O O7 0.022926 0.143423 0.960747
O O8 0.316327 0.108805 0.466019
O O9 0.500000 0.000000 0.500000
O O10 0.538031 0.877242 0.732434
O O11 0.000000 0.000000 0.500000
#
# Coordination Sequence:
#
# PCOD9244078 Si02
#       5
#     4   4   4   4   4
#     4  10  21  43  69  94 130 178 221 276 333 397
#     4  10  20  41  66  92 131 173 220 272 338 389
#     4  12  23  44  69  97 134 181 225 275 339 404
#     4  10  20  39  66  91 133 170 216 276 335 394
#     4  12  25  40  66 100 132 178 223 278 340 400
#
# _framework density 19.746499
#
# number of rings (size 3 to 8) (size 9 to 14) (size 15 to 20)
#    1.200    0.000    4.000    3.000    0.000    3.200 
#    0.000    6.000    0.000    0.000    0.000    0.000 
#    0.000    0.000    0.000    0.000    0.000    0.000 
#
# Total GULP energy -111373.064021 kJ/mol
# GULP energy per Si atom -5568.653201 kJ/mol
# Density = 1.970156 g / cm^3
# Si number density = 19.746499 Si / 1000 Ang^3
#
#
#
# Elastic Constant Matrix: (Units=GPa)
#
#
# Indices 1 2 3 4 5 6 
#
# 1 75.9479 13.2939 13.2373 0.0000 4.7327 0.0000
# 2 13.2939 62.6867 2.4939 0.0000 0.6973 0.0000
# 3 13.2373 2.4939 73.2119 0.0000 12.3539 0.0000
# 4 0.0000 0.0000 0.0000 43.5479 0.0000 -0.0725
# 5 4.7327 0.6973 12.3539 0.0000 27.4985 0.0000
# 6 0.0000 0.0000 0.0000 -0.0725 0.0000 27.0936
#
#
#
# Elastic Compliance Matrix: (Units=1/GPa)
#
#
# Indices 1 2 3 4 5 6 
#
# 1 0.014147 -0.002896 -0.002230 0.000000 -0.001360 0.000000
# 2 -0.002896 0.016568 -0.000058 0.000000 0.000105 0.000000
# 3 -0.002230 -0.000058 0.015147 0.000000 -0.006420 0.000000
# 4 0.000000 0.000000 0.000000 0.022963 0.000000 0.000061
# 5 -0.001360 0.000105 -0.006420 0.000000 0.039481 0.000000
# 6 0.000000 0.000000 0.000000 0.000061 0.000000 0.036909
#
#
# Mechanical properties :
#
#
# Convention : Reuss Voigt Hill
#
# Bulk Modulus (GPa) = 28.17426 29.98852 29.08139
# Shear Modulus (GPa) = 29.86564 31.81608 30.84086
#
# Velocity S-wave (km/s) = 3.89325 4.01836 3.95630
# Velocity P-wave (km/s) = 5.87442 6.06213 5.96901
#
# Compressibility (1/GPa) = 0.03549339
#
# Stress axis : x y z
#
# Youngs Moduli (GPa) = 70.68495 60.35831 66.01771
#
# Poissons Ratio (x) = 0.17482 0.14721
# Poissons Ratio (y) = 0.20473 0.00385
# Poissons Ratio (z) = 0.15762 0.00352
#
# Static dielectric constant tensor:
#      x y z
#    x 1.719250 0.000000 -0.010500 
#    y 0.000000 1.761330 0.000000 
#    z -0.010500 0.000000 1.700120 
# 
# From -- ./inp_files/12533.got.cif
#   From: 2010.05.17/outbox.cif.g08.bks.cpg/sg14_7_cif.got.tgz:12533.got - 2010.06.03 17:49:19.
