data_PCOD9244490
_publ_section_title
;
Structure prediction by ZEFSAII (Michael W. Deem and Ramdas Pophale) SiO2 
 PCOD9244490
Probable space group: P 21/C
;
_chemical_formula_sum "Si O2"
_cell_formula_units_Z 32
_cell_length_a 14.527500
_cell_length_b 17.002962
_cell_length_c 17.657278
_cell_angle_alpha 90.000000
_cell_angle_beta 22.130516
_cell_angle_gamma 90.000000
_cell_volume 1643.066835
_symmetry_space_group_name_H-M "P 21/C"
_symmetry_group_IT_number 14
_symmetry_cell_setting 'monoclinic'
loop_
_space_group_symop_operation_xyz
x,y,z
-x,1/2+y,1/2-z
-x,-y,-z
x,1/2-y,1/2+z
loop_
_atom_site_type_symbol
_atom_site_label
_atom_site_fract_x
_atom_site_fract_y
_atom_site_fract_z
Si Si1 0.842725 0.580349 0.941523
Si Si2 0.414866 0.625188 0.381028
Si Si3 0.210010 0.310646 0.608445
Si Si4 0.418158 0.075657 0.517112
Si Si5 0.308985 0.776694 0.740520
Si Si6 0.805246 0.271416 0.337852
Si Si7 0.963965 0.807060 0.130936
Si Si8 0.299755 0.487873 0.587554
O O1 0.648586 0.605270 0.152473
O O2 0.725587 0.555286 0.950677
O O3 0.001648 0.657616 0.802711
O O4 0.034523 0.514322 0.820749
O O5 0.359780 0.548425 0.473759
O O6 0.411877 0.700546 0.440676
O O7 0.195416 0.647973 0.491670
O O8 0.455424 0.262344 0.397479
O O9 0.973970 0.302304 0.733407
O O10 0.117393 0.264761 0.753797
O O11 0.284004 0.399287 0.569775
O O12 0.630641 0.133187 0.325648
O O13 0.254281 0.130500 0.697152
O O14 0.500000 0.000000 0.500000
O O15 0.283025 0.733839 0.680172
O O16 0.064098 0.774862 0.975821
O O17 0.500000 0.500000 0.500000
#
# Coordination Sequence:
#
# PCOD9244490 Si02
#       8
#     4   4   4   4   4   4   4   4
#     4  11  21  43  63  88 128 171 204 255 321 371
#     4  10  20  41  66  84 126 170 203 250 328 369
#     4  10  21  40  59  87 130 156 206 263 305 374
#     4  11  23  40  62  93 128 165 210 260 311 376
#     4  11  22  39  66  94 119 163 212 258 313 380
#     4  10  21  38  62  89 122 160 205 266 314 367
#     4  10  20  42  65  90 123 168 207 262 317 372
#     4  11  24  39  61  94 125 164 206 259 313 376
#
# _framework density 19.475774000000001
#
# number of rings (size 3 to 8) (size 9 to 14) (size 15 to 20)
#    0.000    1.500    6.250    1.500    1.750    5.000 
#    2.250    0.000    0.000    0.000    0.000    0.000 
#    0.000    0.000    0.000    0.000    0.000    0.000 
#
# Total GULP energy -178500.456414 kJ/mol
# GULP energy per Si atom -5578.139263 kJ/mol
# Density = 1.943145 g / cm^3
# Si number density = 19.475774 Si / 1000 Ang^3
#
#
#
# Elastic Constant Matrix: (Units=GPa)
#
#
# Indices 1 2 3 4 5 6 
#
# 1 70.0825 19.3353 21.9761 0.0000 -3.1731 0.0000
# 2 19.3353 72.3664 6.4194 0.0000 -3.6748 0.0000
# 3 21.9761 6.4194 100.2849 0.0000 20.6004 0.0000
# 4 0.0000 0.0000 0.0000 15.5772 0.0000 -2.6926
# 5 -3.1731 -3.6748 20.6004 0.0000 24.0790 0.0000
# 6 0.0000 0.0000 0.0000 -2.6926 0.0000 24.4301
#
#
#
# Elastic Compliance Matrix: (Units=1/GPa)
#
#
# Indices 1 2 3 4 5 6 
#
# 1 0.017044 -0.003856 -0.004645 0.000000 0.005632 0.000000
# 2 -0.003856 0.015017 -0.000586 0.000000 0.002285 0.000000
# 3 -0.004645 -0.000586 0.013553 0.000000 -0.012296 0.000000
# 4 0.000000 0.000000 0.000000 0.065443 0.000000 0.007213
# 5 0.005632 0.002285 -0.012296 0.000000 0.053141 0.000000
# 6 0.000000 0.000000 0.000000 0.007213 0.000000 0.041728
#
#
# Mechanical properties :
#
#
# Convention : Reuss Voigt Hill
#
# Bulk Modulus (GPa) = 36.44206 37.57727 37.00966
# Shear Modulus (GPa) = 21.43658 25.81746 23.62702
#
# Velocity S-wave (km/s) = 3.32125 3.64486 3.48681
# Velocity P-wave (km/s) = 5.78444 6.08683 5.93756
#
# Compressibility (1/GPa) = 0.02744082
#
# Stress axis : x y z
#
# Youngs Moduli (GPa) = 58.67071 66.59218 73.78488
#
# Poissons Ratio (x) = 0.25678 0.34273
# Poissons Ratio (y) = 0.22623 0.04321
# Poissons Ratio (z) = 0.27253 0.03899
#
# Static dielectric constant tensor:
#      x y z
#    x 1.730480 0.000000 0.005250 
#    y 0.000000 1.675820 0.000000 
#    z 0.005250 0.000000 1.719900 
# 
# From -- ./inp_files/59715.got.cif
#   From: 2010.05.17/outbox.cif.g08.bks.cpg/sg14_30_cif.got.tgz:59715.got - 2010.06.03 17:49:19.
