data_PCOD9244833
_publ_section_title
;
Structure prediction by ZEFSAII (Michael W. Deem and Ramdas Pophale) SiO2 
 PCOD9244833
Probable space group: P 21/C
;
_chemical_formula_sum "Si O2"
_cell_formula_units_Z 30
_cell_length_a 12.563627
_cell_length_b 8.108730
_cell_length_c 31.659196
_cell_angle_alpha 90.000000
_cell_angle_beta 23.592548
_cell_angle_gamma 90.000000
_cell_volume 1290.854302
_symmetry_space_group_name_H-M "P 21/C"
_symmetry_group_IT_number 14
_symmetry_cell_setting 'monoclinic'
loop_
_space_group_symop_operation_xyz
x,y,z
-x,1/2+y,1/2-z
-x,-y,-z
x,1/2-y,1/2+z
loop_
_atom_site_type_symbol
_atom_site_label
_atom_site_fract_x
_atom_site_fract_y
_atom_site_fract_z
Si Si1 0.577518 0.942167 0.517645
Si Si2 0.548155 0.986771 0.194234
Si Si3 0.590104 0.130182 0.090777
Si Si4 0.003455 0.105608 0.409543
Si Si5 0.000000 0.000000 0.500000
Si Si6 0.198576 0.426347 0.229913
Si Si7 0.406617 0.919401 0.077360
Si Si8 0.382630 0.606155 0.243493
O O1 0.376490 0.003492 0.626939
O O2 0.568754 0.747929 0.523311
O O3 0.500000 0.000000 0.500000
O O4 0.858164 0.027112 0.423179
O O5 0.423368 0.803366 0.235265
O O6 0.667274 0.032888 0.105378
O O7 0.709121 0.021310 0.178909
O O8 0.309736 0.117414 0.288324
O O9 0.357307 0.262118 0.185514
O O10 0.474861 0.025309 0.093917
O O11 0.845689 0.234629 0.982678
O O12 0.961736 0.979402 0.463297
O O13 0.320265 0.039960 0.375231
O O14 0.204133 0.549434 0.268373
O O15 0.907957 0.391549 0.316395
O O16 0.500000 0.000000 0.000000
#
# Coordination Sequence:
#
# PCOD9244833 Si02
#       8
#     4   4   4   4   2   4   4   4
#     4  11  24  44  68  97 138 184 231 285 354 416
#     4  11  26  43  76 104 139 188 240 291 364 435
#     4  11  24  45  71 105 140 185 236 295 360 420
#     4  10  24  44  72  97 146 184 231 297 357 422
#     4  10  20  46  70  94 136 182 230 286 360 408
#     4  11  24  45  70  97 141 186 227 296 355 414
#     4  12  27  42  68 103 138 181 243 286 348 428
#     4  11  23  47  71 104 140 187 238 295 360 431
#
# _framework density 23.240421000000001
#
# number of rings (size 3 to 8) (size 9 to 14) (size 15 to 20)
#    0.000    1.067    2.667    4.000    9.333    0.000 
#    0.000    2.667    0.000    0.000    0.000    0.000 
#    0.000    0.000    0.000    0.000    0.000    0.000 
#
# Total GULP energy -167209.839233 kJ/mol
# GULP energy per Si atom -5573.661308 kJ/mol
# Density = 2.318752 g / cm^3
# Si number density = 23.240421 Si / 1000 Ang^3
#
#
#
# Elastic Constant Matrix: (Units=GPa)
#
#
# Indices 1 2 3 4 5 6 
#
# 1 -4807.6054-4306.2921 1186.1266 0.0004 2710.9757 0.0006
# 2 -4306.2921-3692.4665 1037.1940 0.0004 2364.0721 0.0005
# 3 1186.1266 1037.1940 -215.4443 -0.0001 -638.0396 -0.0001
# 4 0.0004 0.0004 -0.0001 24.0968 -0.0003 17.9871
# 5 2710.9757 2364.0721 -638.0396 -0.0003-1406.5970 -0.0004
# 6 0.0006 0.0005 -0.0001 17.9871 -0.0004 58.3835
#
#
#
# Elastic Compliance Matrix: (Units=1/GPa)
#
#
# Indices 1 2 3 4 5 6 
#
# 1 0.005194 -0.004510 0.000917 0.000000 0.002015 0.000000
# 2 -0.004510 0.007702 0.001004 0.000000 0.003797 0.000000
# 3 0.000917 0.001004 0.014535 0.000000 -0.003140 0.000000
# 4 0.000000 0.000000 0.000000 0.053893 0.000000 -0.016604
# 5 0.002015 0.003797 -0.003140 0.000000 0.010979 0.000000
# 6 0.000000 0.000000 0.000000 -0.016604 0.000000 0.022243
#
#
# Mechanical properties :
#
#
# Convention : Reuss Voigt Hill
#
# Bulk Modulus (GPa) = 44.93899 -1431.27325 -693.16713
# Shear Modulus (GPa) = 39.32545 -706.99299 -333.83377
#
# Velocity S-wave (km/s) = 4.11799 -17.46049 -11.99814
# Velocity P-wave (km/s) = 6.47990 31.99506 22.15508
#
# Compressibility (1/GPa) = 0.02225239
#
# Stress axis : x y z
#
# Youngs Moduli (GPa) = 192.52646 129.83539 68.79711
#
# Poissons Ratio (x) = 0.58555 -0.06307
# Poissons Ratio (y) = 0.86829 -0.06905
# Poissons Ratio (z) = -0.17649 -0.13031
#
# Static dielectric constant tensor:
#      x y z
#    x 1.985270 0.000000 -0.038400 
#    y 0.000000 1.886140 0.000000 
#    z -0.038400 0.000000 1.861910 
# 
# From -- ./inp_files/79954.got.cif
#   From: 2010.05.17/outbox.cif.g08.bks.cpg/sg14_40_cif.got.tgz:79954.got - 2010.06.03 17:49:19.
