data_PCOD9244855
_publ_section_title
;
Structure prediction by ZEFSAII (Michael W. Deem and Ramdas Pophale) SiO2 
 PCOD9244855
Probable space group: P 21/C
;
_chemical_formula_sum "Si O2"
_cell_formula_units_Z 20
_cell_length_a 5.311488
_cell_length_b 22.148557
_cell_length_c 9.072056
_cell_angle_alpha 90.000000
_cell_angle_beta 46.720790
_cell_angle_gamma 90.000000
_cell_volume 776.983159
_symmetry_space_group_name_H-M "P 21/C"
_symmetry_group_IT_number 14
_symmetry_cell_setting 'monoclinic'
loop_
_space_group_symop_operation_xyz
x,y,z
-x,1/2+y,1/2-z
-x,-y,-z
x,1/2-y,1/2+z
loop_
_atom_site_type_symbol
_atom_site_label
_atom_site_fract_x
_atom_site_fract_y
_atom_site_fract_z
Si Si1 0.997050 0.043762 0.283154
Si Si2 0.553784 0.980766 0.232453
Si Si3 0.669134 0.171326 0.392918
Si Si4 0.404578 0.154946 0.813043
Si Si5 0.944947 0.726943 0.013403
O O1 0.733177 0.028519 0.522996
O O2 0.887472 0.002382 0.189485
O O3 0.373317 0.029239 0.197286
O O4 0.893875 0.111614 0.283954
O O5 0.600255 0.844782 0.364061
O O6 0.594063 0.914723 0.143477
O O7 0.913562 0.219844 0.377119
O O8 0.421170 0.194020 0.363595
O O9 0.772505 0.188384 0.689853
O O10 0.125369 0.202430 0.985645
#
# Coordination Sequence:
#
# PCOD9244855 Si02
#       5
#     4   4   4   4   4
#     4   9  16  28  45  73  98 120 149 211 254 280
#     4   9  17  25  48  68 102 117 156 199 258 279
#     4   9  20  32  51  74 105 125 167 200 251 290
#     4   9  22  33  50  76 103 131 165 200 242 298
#     4  10  21  32  51  70 106 131 166 197 241 295
#
# _framework density 25.740583000000001
#
# number of rings (size 3 to 8) (size 9 to 14) (size 15 to 20)
#    1.200    1.600    0.000    1.200   11.200    0.000 
#    0.000    0.000    0.000    0.000    0.000    8.400 
#    0.000    0.000    0.000    0.000    0.000    0.000 
#
# Total GULP energy -111697.169157 kJ/mol
# GULP energy per Si atom -5584.858458 kJ/mol
# Density = 2.568200 g / cm^3
# Si number density = 25.740583 Si / 1000 Ang^3
#
#
#
# Elastic Constant Matrix: (Units=GPa)
#
#
# Indices 1 2 3 4 5 6 
#
# 1 151.6517 55.5724 15.9913 0.0000 -22.0326 0.0000
# 2 55.5724 181.5867 10.8911 0.0000 -11.8004 0.0000
# 3 15.9913 10.8911 66.4772 0.0000 -1.6316 0.0000
# 4 0.0000 0.0000 0.0000 44.5268 0.0000 -0.8214
# 5 -22.0326 -11.8004 -1.6316 0.0000 37.4345 0.0000
# 6 0.0000 0.0000 0.0000 -0.8214 0.0000 38.3764
#
#
#
# Elastic Compliance Matrix: (Units=1/GPa)
#
#
# Indices 1 2 3 4 5 6 
#
# 1 0.008121 -0.002133 -0.001505 0.000000 0.004042 0.000000
# 2 -0.002133 0.006234 -0.000491 0.000000 0.000689 0.000000
# 3 -0.001505 -0.000491 0.015476 0.000000 -0.000366 0.000000
# 4 0.000000 0.000000 0.000000 0.022467 0.000000 0.000481
# 5 0.004042 0.000689 -0.000366 0.000000 0.029293 0.000000
# 6 0.000000 0.000000 0.000000 0.000481 0.000000 0.026068
#
#
# Mechanical properties :
#
#
# Convention : Reuss Voigt Hill
#
# Bulk Modulus (GPa) = 46.35285 62.73615 54.54450
# Shear Modulus (GPa) = 40.61420 45.21826 42.91623
#
# Velocity S-wave (km/s) = 3.97650 4.19584 4.08764
# Velocity P-wave (km/s) = 6.25541 6.92089 6.59655
#
# Compressibility (1/GPa) = 0.02157364
#
# Stress axis : x y z
#
# Youngs Moduli (GPa) = 123.13015 160.41411 64.61484
#
# Poissons Ratio (x) = 0.34209 0.09725
# Poissons Ratio (y) = 0.26258 0.03175
# Poissons Ratio (z) = 0.18532 0.07883
#
# Static dielectric constant tensor:
#      x y z
#    x 1.898410 0.000000 0.007920 
#    y 0.000000 1.983730 0.000000 
#    z 0.007920 0.000000 2.272720 
# 
# From -- ./inp_files/26311.got.cif
#   From: 2010.05.17/outbox.cif.g08.bks.cpg/sg14_14_cif.got.tgz:26311.got - 2010.06.03 17:49:19.
