data_PCOD9244651
_publ_section_title
;
Structure prediction by ZEFSAII (Michael W. Deem and Ramdas Pophale) SiO2 
 PCOD9244651
Probable space group: P 21/C
;
_chemical_formula_sum "Si O2"
_cell_formula_units_Z 20
_cell_length_a 8.431104
_cell_length_b 7.709314
_cell_length_c 19.182811
_cell_angle_alpha 90.000000
_cell_angle_beta 138.434580
_cell_angle_gamma 90.000000
_cell_volume 827.250125
_symmetry_space_group_name_H-M "P 21/C"
_symmetry_group_IT_number 14
_symmetry_cell_setting 'monoclinic'
loop_
_space_group_symop_operation_xyz
x,y,z
-x,1/2+y,1/2-z
-x,-y,-z
x,1/2-y,1/2+z
loop_
_atom_site_type_symbol
_atom_site_label
_atom_site_fract_x
_atom_site_fract_y
_atom_site_fract_z
Si Si1 0.913113 0.196906 0.050180
Si Si2 0.392634 0.270534 0.153884
Si Si3 0.769392 0.580733 0.601134
Si Si4 0.294682 0.051856 0.486395
Si Si5 0.584675 0.585325 0.683585
O O1 0.890741 0.394882 0.069456
O O2 0.127405 0.187422 0.066273
O O3 0.940691 0.062075 0.122934
O O4 0.663436 0.152434 0.931470
O O5 0.410939 0.330385 0.239135
O O6 0.573547 0.120958 0.192097
O O7 0.398459 0.419520 0.098200
O O8 0.500000 0.500000 0.500000
O O9 0.795608 0.761387 0.569266
O O10 0.779474 0.615068 0.686928
O O11 0.500000 0.000000 0.500000
#
# Coordination Sequence:
#
# PCOD9244651 Si02
#       5
#     4   4   4   4   4
#     4  11  23  45  69  99 130 174 225 272 329 394
#     4  12  25  42  68 103 130 176 225 275 327 393
#     4  10  20  42  67  92 129 178 213 268 341 387
#     4  12  21  40  72  93 132 179 216 265 339 396
#     4  11  23  43  65  95 138 171 219 277 331 393
#
# _framework density 24.176485
#
# number of rings (size 3 to 8) (size 9 to 14) (size 15 to 20)
#    0.000    0.800    8.000    2.400    0.000    0.000 
#    3.600    0.000    0.000    0.000    0.000    0.000 
#    0.000    0.000    0.000    0.000    0.000    0.000 
#
# Total GULP energy -111917.456567 kJ/mol
# GULP energy per Si atom -5595.872828 kJ/mol
# Density = 2.412146 g / cm^3
# Si number density = 24.176485 Si / 1000 Ang^3
#
#
#
# Elastic Constant Matrix: (Units=GPa)
#
#
# Indices 1 2 3 4 5 6 
#
# 1 105.6154 20.2471 30.9853 0.0000 -43.4583 0.0000
# 2 20.2471 152.6492 25.3952 0.0000 -26.2598 0.0000
# 3 30.9853 25.3952 99.6948 0.0000 -50.8156 0.0000
# 4 0.0000 0.0000 0.0000 30.3442 0.0000 -20.6342
# 5 -43.4583 -26.2598 -50.8156 0.0000 46.9435 0.0000
# 6 0.0000 0.0000 0.0000 -20.6342 0.0000 46.9020
#
#
#
# Elastic Compliance Matrix: (Units=1/GPa)
#
#
# Indices 1 2 3 4 5 6 
#
# 1 0.016829 0.000629 0.006090 0.000000 0.022524 0.000000
# 2 0.000629 0.007283 0.000720 0.000000 0.005436 0.000000
# 3 0.006090 0.000720 0.024615 0.000000 0.032686 0.000000
# 4 0.000000 0.000000 0.000000 0.047023 0.000000 0.020687
# 5 0.022524 0.005436 0.032686 0.000000 0.080576 0.000000
# 6 0.000000 0.000000 0.000000 0.020687 0.000000 0.030422
#
#
# Mechanical properties :
#
#
# Convention : Reuss Voigt Hill
#
# Bulk Modulus (GPa) = 15.72194 56.80160 36.26177
# Shear Modulus (GPa) = 23.46635 43.59340 33.52988
#
# Velocity S-wave (km/s) = 3.11887 4.25094 3.72812
# Velocity P-wave (km/s) = 4.41440 6.90214 5.79338
#
# Compressibility (1/GPa) = 0.06360537
#
# Stress axis : x y z
#
# Youngs Moduli (GPa) = 59.42089 137.30889 40.62623
#
# Poissons Ratio (x) = -0.08643 -0.24741
# Poissons Ratio (y) = -0.03740 -0.02925
# Poissons Ratio (z) = -0.36187 -0.09887
#
# Static dielectric constant tensor:
#      x y z
#    x 1.869740 0.000000 0.019120 
#    y 0.000000 1.967100 0.000000 
#    z 0.019120 0.000000 2.028920 
# 
# From -- ./inp_files/54349.got.cif
#   From: 2010.05.17/outbox.cif.g08.bks.cpg/sg14_28_cif.got.tgz:54349.got - 2010.06.03 17:49:19.
