data_PCOD9244341
_publ_section_title
;
Structure prediction by ZEFSAII (Michael W. Deem and Ramdas Pophale) SiO2 
 PCOD9244341
Probable space group: P 21/C
;
_chemical_formula_sum "Si O2"
_cell_formula_units_Z 32
_cell_length_a 20.633803
_cell_length_b 13.489252
_cell_length_c 15.046938
_cell_angle_alpha 90.000000
_cell_angle_beta 18.270404
_cell_angle_gamma 90.000000
_cell_volume 1312.972355
_symmetry_space_group_name_H-M "P 21/C"
_symmetry_group_IT_number 14
_symmetry_cell_setting 'monoclinic'
loop_
_space_group_symop_operation_xyz
x,y,z
-x,1/2+y,1/2-z
-x,-y,-z
x,1/2-y,1/2+z
loop_
_atom_site_type_symbol
_atom_site_label
_atom_site_fract_x
_atom_site_fract_y
_atom_site_fract_z
Si Si1 0.292453 0.990167 0.047966
Si Si2 0.784799 0.328572 0.060462
Si Si3 0.856282 0.484303 0.546892
Si Si4 0.346269 0.711326 0.572820
Si Si5 0.472816 0.094807 0.650407
Si Si6 0.315135 0.168217 0.147823
Si Si7 0.018025 0.816795 0.876041
Si Si8 0.090908 0.056679 0.580806
O O1 0.377401 0.900338 0.997001
O O2 0.236855 0.084941 0.180931
O O3 0.096322 0.950552 0.247195
O O4 0.450940 0.034937 0.770172
O O5 0.770324 0.291672 0.180348
O O6 0.554963 0.312536 0.321658
O O7 0.942104 0.291720 0.780071
O O8 0.825455 0.445743 0.015130
O O9 0.708087 0.551911 0.676228
O O10 0.999828 0.565076 0.407419
O O11 0.990990 0.416608 0.305681
O O12 0.693044 0.427807 0.819259
O O13 0.539373 0.786640 0.325670
O O14 0.201884 0.766101 0.689489
O O15 0.186527 0.268399 0.316529
O O16 0.270199 0.120500 0.302987
#
# Coordination Sequence:
#
# PCOD9244341 Si02
#       8
#     4   4   4   4   4   4   4   4
#     4  11  23  41  67 100 138 178 233 283 346 404
#     4  11  25  42  68 101 136 176 235 279 343 414
#     4   9  22  44  65  97 135 183 233 270 346 404
#     4  12  24  42  67 100 136 176 230 285 340 410
#     4  10  23  42  70  96 137 186 225 285 337 412
#     4  12  22  41  69  99 134 179 223 286 344 399
#     4  11  25  43  68 100 141 179 224 285 342 414
#     4  10  20  40  67  94 131 182 222 285 337 400
#
# _framework density 24.37218
#
# number of rings (size 3 to 8) (size 9 to 14) (size 15 to 20)
#    0.000    1.250    2.500    3.000    1.750    3.500 
#    0.000    2.500    0.000    0.000    0.000    0.000 
#    0.000    0.000    0.000    0.000    0.000    0.000 
#
# Total GULP energy -179109.710828 kJ/mol
# GULP energy per Si atom -5597.178463 kJ/mol
# Density = 2.431671 g / cm^3
# Si number density = 24.372180 Si / 1000 Ang^3
#
#
#
# Elastic Constant Matrix: (Units=GPa)
#
#
# Indices 1 2 3 4 5 6 
#
# 1 74.3054 28.9787 14.7565 0.0000 19.3178 0.0000
# 2 28.9787 65.0917 18.8359 0.0000 15.9503 0.0000
# 3 14.7565 18.8359 98.2577 0.0000 22.1675 0.0000
# 4 0.0000 0.0000 0.0000 39.6768 0.0000 -3.6162
# 5 19.3178 15.9503 22.1675 0.0000 30.3148 0.0000
# 6 0.0000 0.0000 0.0000 -3.6162 0.0000 26.7264
#
#
#
# Elastic Compliance Matrix: (Units=1/GPa)
#
#
# Indices 1 2 3 4 5 6 
#
# 1 0.017949 -0.006005 0.000387 0.000000 -0.008561 0.000000
# 2 -0.006005 0.019843 -0.001688 0.000000 -0.005379 0.000000
# 3 0.000387 -0.001688 0.012333 0.000000 -0.008376 0.000000
# 4 0.000000 0.000000 0.000000 0.025518 0.000000 0.003453
# 5 -0.008561 -0.005379 -0.008376 0.000000 0.047398 0.000000
# 6 0.000000 0.000000 0.000000 0.003453 0.000000 0.037883
#
#
# Mechanical properties :
#
#
# Convention : Reuss Voigt Hill
#
# Bulk Modulus (GPa) = 28.15970 40.31077 34.23524
# Shear Modulus (GPa) = 26.68456 31.01585 28.85020
#
# Velocity S-wave (km/s) = 3.31248 3.57121 3.44428
# Velocity P-wave (km/s) = 5.11949 5.79485 5.46761
#
# Compressibility (1/GPa) = 0.03551174
#
# Stress axis : x y z
#
# Youngs Moduli (GPa) = 55.71432 50.39543 81.08566
#
# Poissons Ratio (x) = 0.30262 -0.03138
# Poissons Ratio (y) = 0.33456 0.13691
# Poissons Ratio (z) = -0.02156 0.08509
#
# Static dielectric constant tensor:
#      x y z
#    x 1.985400 0.000000 -0.016130 
#    y 0.000000 1.921710 0.000000 
#    z -0.016130 0.000000 1.903880 
# 
# From -- ./inp_files/50670.got.cif
#   From: 2010.05.17/outbox.cif.g08.bks.cpg/sg14_26_cif.got.tgz:50670.got - 2010.06.03 17:49:19.
