data_PCOD9244137
_publ_section_title
;
Structure prediction by ZEFSAII (Michael W. Deem and Ramdas Pophale) SiO2 
 PCOD9244137
Probable space group: P 21/C
;
_chemical_formula_sum "Si O2"
_cell_formula_units_Z 18
_cell_length_a 8.199743
_cell_length_b 4.914580
_cell_length_c 21.647418
_cell_angle_alpha 90.000000
_cell_angle_beta 131.020163
_cell_angle_gamma 90.000000
_cell_volume 658.172470
_symmetry_space_group_name_H-M "P 21/C"
_symmetry_group_IT_number 14
_symmetry_cell_setting 'monoclinic'
loop_
_space_group_symop_operation_xyz
x,y,z
-x,1/2+y,1/2-z
-x,-y,-z
x,1/2-y,1/2+z
loop_
_atom_site_type_symbol
_atom_site_label
_atom_site_fract_x
_atom_site_fract_y
_atom_site_fract_z
Si Si1 0.774589 0.367263 0.842567
Si Si2 0.259415 0.366164 0.741664
Si Si3 0.000000 0.000000 0.000000
Si Si4 0.372424 0.307117 0.036559
Si Si5 0.341303 0.310346 0.392605
O O1 0.518959 0.359027 0.795374
O O2 0.841211 0.662733 0.834038
O O3 0.805406 0.168184 0.791646
O O4 0.895691 0.236959 0.929945
O O5 0.214313 0.272685 0.799932
O O6 0.231085 0.171654 0.054261
O O7 0.441665 0.619437 0.056806
O O8 0.591100 0.125293 0.091576
O O9 0.264797 0.253087 0.942853
#
# Coordination Sequence:
#
# PCOD9244137 Si02
#       5
#     4   4   2   4   4
#     4  10  23  34  61  88 126 161 209 261 336 379
#     4  10  20  40  58  87 119 174 209 255 312 420
#     4  12  24  42  60 104 130 160 210 298 328 392
#     4  10  23  36  65  92 127 165 212 267 335 381
#     4  10  20  42  62  90 121 175 218 255 313 426
#
# _framework density 27.348458999999998
#
# number of rings (size 3 to 8) (size 9 to 14) (size 15 to 20)
#    0.000    1.778    2.222    1.333    6.222    3.556 
#    0.000    2.222    0.000    0.000    0.000    0.000 
#    0.000    0.000    0.000    0.000    0.000    0.000 
#
# Total GULP energy -100375.732036 kJ/mol
# GULP energy per Si atom -5576.429558 kJ/mol
# Density = 2.728621 g / cm^3
# Si number density = 27.348459 Si / 1000 Ang^3
#
#
#
# Elastic Constant Matrix: (Units=GPa)
#
#
# Indices 1 2 3 4 5 6 
#
# 1 76.5129 24.3877 32.0391 0.0000 -28.0365 0.0000
# 2 24.3877 87.7554 -1.7981 0.0000 -11.6159 0.0000
# 3 32.0391 -1.7981 65.0249 0.0000 -20.7269 0.0000
# 4 0.0000 0.0000 0.0000 35.1513 0.0000 -11.9492
# 5 -28.0365 -11.6159 -20.7269 0.0000 48.1328 0.0000
# 6 0.0000 0.0000 0.0000 -11.9492 0.0000 23.6498
#
#
#
# Elastic Compliance Matrix: (Units=1/GPa)
#
#
# Indices 1 2 3 4 5 6 
#
# 1 0.020703 -0.004932 -0.007966 0.000000 0.007439 0.000000
# 2 -0.004932 0.013062 0.003339 0.000000 0.001717 0.000000
# 3 -0.007966 0.003339 0.021065 0.000000 0.005237 0.000000
# 4 0.000000 0.000000 0.000000 0.034348 0.000000 0.017354
# 5 0.007439 0.001717 0.005237 0.000000 0.027778 0.000000
# 6 0.000000 0.000000 0.000000 0.017354 0.000000 0.051052
#
#
# Mechanical properties :
#
#
# Convention : Reuss Voigt Hill
#
# Bulk Modulus (GPa) = 28.00267 37.61671 32.80969
# Shear Modulus (GPa) = 25.12168 33.03108 29.07638
#
# Velocity S-wave (km/s) = 3.03409 3.47909 3.26418
# Velocity P-wave (km/s) = 4.74718 5.47021 5.12147
#
# Compressibility (1/GPa) = 0.03571088
#
# Stress axis : x y z
#
# Youngs Moduli (GPa) = 48.30158 76.55995 47.47128
#
# Poissons Ratio (x) = 0.37760 0.37817
# Poissons Ratio (y) = 0.23823 -0.15849
# Poissons Ratio (z) = 0.38478 -0.25561
#
# Static dielectric constant tensor:
#      x y z
#    x 2.253490 0.000000 -0.004330 
#    y 0.000000 2.017100 0.000000 
#    z -0.004330 0.000000 2.109270 
# 
# From -- ./inp_files/59847.got.cif
#   From: 2010.05.17/outbox.cif.g08.bks.cpg/sg14_30_cif.got.tgz:59847.got - 2010.06.03 17:49:19.
