data_PCOD9244835
_publ_section_title
;
Structure prediction by ZEFSAII (Michael W. Deem and Ramdas Pophale) SiO2 
 PCOD9244835
Probable space group: P 21/C
;
_chemical_formula_sum "Si O2"
_cell_formula_units_Z 30
_cell_length_a 13.771353
_cell_length_b 8.618809
_cell_length_c 19.774197
_cell_angle_alpha 90.000000
_cell_angle_beta 32.433163
_cell_angle_gamma 90.000000
_cell_volume 1258.760179
_symmetry_space_group_name_H-M "P 21/C"
_symmetry_group_IT_number 14
_symmetry_cell_setting 'monoclinic'
loop_
_space_group_symop_operation_xyz
x,y,z
-x,1/2+y,1/2-z
-x,-y,-z
x,1/2-y,1/2+z
loop_
_atom_site_type_symbol
_atom_site_label
_atom_site_fract_x
_atom_site_fract_y
_atom_site_fract_z
Si Si1 0.000000 0.000000 0.000000
Si Si2 0.950249 0.543070 0.104810
Si Si3 0.949614 0.220203 0.151260
Si Si4 0.921366 0.726924 0.722481
Si Si5 0.808355 0.518140 0.393404
Si Si6 0.466744 0.075914 0.178355
Si Si7 0.370823 0.964320 0.637747
Si Si8 0.428244 0.073333 0.743364
O O1 0.933246 0.146915 0.086361
O O2 0.211603 0.063422 0.880325
O O3 0.008295 0.396345 0.114608
O O4 0.019628 0.700596 0.098716
O O5 0.733883 0.556222 0.232034
O O6 0.000000 0.500000 0.000000
O O7 0.749812 0.189701 0.299526
O O8 0.094644 0.116366 0.104380
O O9 0.776791 0.603961 0.779566
O O10 0.065219 0.635216 0.683795
O O11 0.828346 0.866742 0.818220
O O12 0.612279 0.473363 0.536369
O O13 0.488920 0.254523 0.187236
O O14 0.486301 0.979625 0.236383
O O15 0.468807 0.969851 0.652609
O O16 0.500000 0.000000 0.500000
#
# Coordination Sequence:
#
# PCOD9244835 Si02
#       8
#     2   4   4   4   4   4   4   4
#     4  10  20  46  74  92 150 184 234 290 370 428
#     4  12  28  46  71 107 147 194 246 296 372 440
#     4  10  23  42  73  99 139 194 232 292 371 422
#     4  11  26  49  73 105 144 198 240 303 373 440
#     4  11  26  48  76 105 148 188 249 308 365 437
#     4  12  28  43  75 109 145 187 247 310 354 442
#     4  10  24  45  72  97 144 189 239 290 370 436
#     4  11  25  45  71 111 140 191 238 302 366 428
#
# _framework density 23.832975000000001
#
# number of rings (size 3 to 8) (size 9 to 14) (size 15 to 20)
#    0.000    1.067    2.667    1.600   11.200    3.733 
#    0.000    0.000    0.000    0.000    0.000    0.000 
#    0.000    0.000    0.000    0.000    0.000    0.000 
#
# Total GULP energy -167388.377071 kJ/mol
# GULP energy per Si atom -5579.612569 kJ/mol
# Density = 2.377873 g / cm^3
# Si number density = 23.832975 Si / 1000 Ang^3
#
#
#
# Elastic Constant Matrix: (Units=GPa)
#
#
# Indices 1 2 3 4 5 6 
#
# 1 70.9647 22.5873 23.0433 0.0000 18.0685 0.0000
# 2 22.5873 64.5829 -5.6467 0.0000 -1.1860 0.0000
# 3 23.0433 -5.6467 52.0149 0.0000 6.4072 0.0000
# 4 0.0000 0.0000 0.0000 19.9305 0.0000 11.5872
# 5 18.0685 -1.1860 6.4072 0.0000 32.4157 0.0000
# 6 0.0000 0.0000 0.0000 11.5872 0.0000 45.0364
#
#
#
# Elastic Compliance Matrix: (Units=1/GPa)
#
#
# Indices 1 2 3 4 5 6 
#
# 1 0.023044 -0.009124 -0.009815 0.000000 -0.011239 0.000000
# 2 -0.009124 0.019247 0.005553 0.000000 0.004692 0.000000
# 3 -0.009815 0.005553 0.024063 0.000000 0.000918 0.000000
# 4 0.000000 0.000000 0.000000 0.059000 0.000000 -0.015180
# 5 -0.011239 0.004692 0.000918 0.000000 0.037104 0.000000
# 6 0.000000 0.000000 0.000000 -0.015180 0.000000 0.026110
#
#
# Mechanical properties :
#
#
# Convention : Reuss Voigt Hill
#
# Bulk Modulus (GPa) = 25.26329 29.72557 27.49443
# Shear Modulus (GPa) = 21.87871 29.31512 25.59691
#
# Velocity S-wave (km/s) = 3.03314 3.51097 3.28077
# Velocity P-wave (km/s) = 4.78432 5.37917 5.09044
#
# Compressibility (1/GPa) = 0.03958313
#
# Stress axis : x y z
#
# Youngs Moduli (GPa) = 43.39498 51.95685 41.55712
#
# Poissons Ratio (x) = 0.47405 0.40788
# Poissons Ratio (y) = 0.39594 -0.23079
# Poissons Ratio (z) = 0.42592 -0.28854
#
# Static dielectric constant tensor:
#      x y z
#    x 1.909260 0.000000 0.059840 
#    y 0.000000 1.943860 0.000000 
#    z 0.059840 0.000000 1.938790 
# 
# From -- ./inp_files/68334.got.cif
#   From: 2010.05.17/outbox.cif.g08.bks.cpg/sg14_35_cif.got.tgz:68334.got - 2010.06.03 17:49:19.
