data_PCOD9244459
_publ_section_title
;
Structure prediction by ZEFSAII (Michael W. Deem and Ramdas Pophale) SiO2 
 PCOD9244459
Probable space group: P 21/C
;
_chemical_formula_sum "Si O2"
_cell_formula_units_Z 28
_cell_length_a 8.604925
_cell_length_b 16.268308
_cell_length_c 7.676324
_cell_angle_alpha 90.000000
_cell_angle_beta 90.904145
_cell_angle_gamma 90.000000
_cell_volume 1074.456152
_symmetry_space_group_name_H-M "P 21/C"
_symmetry_group_IT_number 14
_symmetry_cell_setting 'monoclinic'
loop_
_space_group_symop_operation_xyz
x,y,z
-x,1/2+y,1/2-z
-x,-y,-z
x,1/2-y,1/2+z
loop_
_atom_site_type_symbol
_atom_site_label
_atom_site_fract_x
_atom_site_fract_y
_atom_site_fract_z
Si Si1 0.141754 0.224597 0.377914
Si Si2 0.302896 0.537054 0.937892
Si Si3 0.518093 0.672677 0.061294
Si Si4 0.181098 0.522424 0.332440
Si Si5 0.825616 0.924067 0.843351
Si Si6 0.072306 0.822989 0.321137
Si Si7 0.324116 0.689222 0.379694
O O1 0.312108 0.209953 0.458521
O O2 0.152444 0.171789 0.198325
O O3 0.061637 0.310555 0.324510
O O4 0.020492 0.179652 0.500229
O O5 0.461354 0.591370 0.955281
O O6 0.245281 0.518911 0.135179
O O7 0.288165 0.459169 0.810711
O O8 0.183274 0.600051 0.843314
O O9 0.463731 0.660865 0.257691
O O10 0.402968 0.747869 0.010838
O O11 0.228615 0.450653 0.466333
O O12 0.244161 0.604591 0.429607
O O13 0.995350 0.534183 0.319661
O O14 0.183992 0.744106 0.299266
#
# Coordination Sequence:
#
# PCOD9244459 Si02
#       7
#     4   4   4   4   4   4   4
#     4  12  24  41  61 104 131 168 212 288 333 388
#     4  10  22  42  66  94 127 182 220 269 324 415
#     4  10  23  39  64  91 137 166 222 267 337 399
#     4  10  21  39  63  98 124 164 229 276 316 390
#     4  11  23  39  67  97 136 166 221 278 339 377
#     4  11  22  39  66  94 127 165 231 271 325 381
#     4  10  20  41  63  92 120 179 220 267 321 401
#
# _framework density 26.059694
#
# number of rings (size 3 to 8) (size 9 to 14) (size 15 to 20)
#    0.000    1.429    2.857    3.000    6.000    0.571 
#    0.000    2.857    0.000    0.000    0.000    0.000 
#    0.000    0.000    0.000    0.000    0.000    0.000 
#
# Total GULP energy -156625.235361 kJ/mol
# GULP energy per Si atom -5593.758406 kJ/mol
# Density = 2.600038 g / cm^3
# Si number density = 26.059694 Si / 1000 Ang^3
#
#
#
# Elastic Constant Matrix: (Units=GPa)
#
#
# Indices 1 2 3 4 5 6 
#
# 1 149.0630 20.4058 43.0732 0.0000 8.4511 0.0000
# 2 20.4058 56.2017 20.6078 0.0000 -4.2441 0.0000
# 3 43.0732 20.6078 86.0135 0.0000 4.3281 0.0000
# 4 0.0000 0.0000 0.0000 36.8803 0.0000 2.1445
# 5 8.4511 -4.2441 4.3281 0.0000 37.4374 0.0000
# 6 0.0000 0.0000 0.0000 2.1445 0.0000 30.9922
#
#
#
# Elastic Compliance Matrix: (Units=1/GPa)
#
#
# Indices 1 2 3 4 5 6 
#
# 1 0.008061 -0.001752 -0.003536 0.000000 -0.001610 0.000000
# 2 -0.001752 0.020177 -0.004116 0.000000 0.003159 0.000000
# 3 -0.003536 -0.004116 0.014450 0.000000 -0.001339 0.000000
# 4 0.000000 0.000000 0.000000 0.027224 0.000000 -0.001884
# 5 -0.001610 0.003159 -0.001339 0.000000 0.027587 0.000000
# 6 0.000000 0.000000 0.000000 -0.001884 0.000000 0.032397
#
#
# Mechanical properties :
#
#
# Convention : Reuss Voigt Hill
#
# Bulk Modulus (GPa) = 41.87446 51.05020 46.46233
# Shear Modulus (GPa) = 31.91521 34.87473 33.39497
#
# Velocity S-wave (km/s) = 3.50336 3.66220 3.58366
# Velocity P-wave (km/s) = 5.69809 6.12491 5.91535
#
# Compressibility (1/GPa) = 0.02388091
#
# Stress axis : x y z
#
# Youngs Moduli (GPa) = 124.04666 49.56186 69.20226
#
# Poissons Ratio (x) = 0.08683 0.24472
# Poissons Ratio (y) = 0.21731 0.28482
# Poissons Ratio (z) = 0.43866 0.20399
#
# Static dielectric constant tensor:
#      x y z
#    x 2.019370 0.000000 0.052370 
#    y 0.000000 2.054410 0.000000 
#    z 0.052370 0.000000 2.073090 
# 
# From -- ./inp_files/9511.got.cif
#   From: 2010.05.17/outbox.cif.g08.bks.cpg/sg14_5_cif.got.tgz:9511.got - 2010.06.03 17:49:19.
