data_PCOD9244880
_publ_section_title
;
Structure prediction by ZEFSAII (Michael W. Deem and Ramdas Pophale) SiO2 
 PCOD9244880
Probable space group: P 21/C
;
_chemical_formula_sum "Si O2"
_cell_formula_units_Z 32
_cell_length_a 18.846610
_cell_length_b 18.860796
_cell_length_c 6.018143
_cell_angle_alpha 90.000000
_cell_angle_beta 134.104612
_cell_angle_gamma 90.000000
_cell_volume 1536.111412
_symmetry_space_group_name_H-M "P 21/C"
_symmetry_group_IT_number 14
_symmetry_cell_setting 'monoclinic'
loop_
_space_group_symop_operation_xyz
x,y,z
-x,1/2+y,1/2-z
-x,-y,-z
x,1/2-y,1/2+z
loop_
_atom_site_type_symbol
_atom_site_label
_atom_site_fract_x
_atom_site_fract_y
_atom_site_fract_z
Si Si1 0.285401 0.158009 0.223440
Si Si2 0.243413 0.493857 0.415907
Si Si3 0.436781 0.963659 0.168927
Si Si4 0.093828 0.417946 0.776883
Si Si5 0.417857 0.099223 0.840092
Si Si6 0.907563 0.742679 0.185940
Si Si7 0.477794 0.260344 0.639600
Si Si8 0.922361 0.486263 0.638292
O O1 0.313277 0.125538 0.523540
O O2 0.376305 0.213912 0.390216
O O3 0.282693 0.085471 0.070950
O O4 0.185431 0.203473 0.003173
O O5 0.329365 0.547799 0.536354
O O6 0.182434 0.529192 0.482989
O O7 0.165283 0.474371 0.053408
O O8 0.504298 0.905832 0.195600
O O9 0.500000 0.000000 0.500000
O O10 0.412530 0.022230 0.929797
O O11 0.125041 0.339018 0.895608
O O12 0.092288 0.439572 0.518955
O O13 0.980537 0.431041 0.611412
O O14 0.453981 0.156110 0.094165
O O15 0.956009 0.746606 0.542939
O O16 0.523352 0.253556 0.486002
O O17 0.000000 0.500000 0.000000
#
# Coordination Sequence:
#
# PCOD9244880 Si02
#       8
#     4   4   4   4   4   4   4   4
#     4  11  21  36  56  91 129 164 202 257 322 391
#     4  11  21  35  60  85 122 164 215 256 316 382
#     4  11  23  37  54  82 122 177 215 267 307 371
#     4  10  22  38  60  87 131 162 213 256 324 393
#     4  10  23  36  52  78 128 167 215 256 313 375
#     4  12  24  35  57  96 130 166 199 252 326 395
#     4  10  21  34  54  80 114 155 198 248 314 371
#     4   9  21  40  58  85 119 171 208 264 312 384
#
# _framework density 20.831823
#
# number of rings (size 3 to 8) (size 9 to 14) (size 15 to 20)
#    0.000    1.500    2.500    3.000    8.750    0.000 
#    0.000    0.000    0.000    0.000    0.000    3.500 
#    0.000    0.000    0.000    0.000    0.000    0.000 
#
# Total GULP energy -178146.725107 kJ/mol
# GULP energy per Si atom -5567.085160 kJ/mol
# Density = 2.078441 g / cm^3
# Si number density = 20.831823 Si / 1000 Ang^3
#
#
#
# Elastic Constant Matrix: (Units=GPa)
#
#
# Indices 1 2 3 4 5 6 
#
# 1 120.2705 7.5019 26.9573 0.0000 -2.5879 0.0000
# 2 7.5019 43.0524 8.2061 0.0000 7.6532 0.0000
# 3 26.9573 8.2061 54.4081 0.0000 -17.7993 0.0000
# 4 0.0000 0.0000 0.0000 28.0091 0.0000 -10.2064
# 5 -2.5879 7.6532 -17.7993 0.0000 34.7444 0.0000
# 6 0.0000 0.0000 0.0000 -10.2064 0.0000 20.5700
#
#
#
# Elastic Compliance Matrix: (Units=1/GPa)
#
#
# Indices 1 2 3 4 5 6 
#
# 1 0.009476 -0.000300 -0.005282 0.000000 -0.001934 0.000000
# 2 -0.000300 0.026243 -0.006857 0.000000 -0.009316 0.000000
# 3 -0.005282 -0.006857 0.026906 0.000000 0.014900 0.000000
# 4 0.000000 0.000000 0.000000 0.043583 0.000000 0.021625
# 5 -0.001934 -0.009316 0.014900 0.000000 0.038323 0.000000
# 6 0.000000 0.000000 0.000000 0.021625 0.000000 0.059344
#
#
# Mechanical properties :
#
#
# Convention : Reuss Voigt Hill
#
# Bulk Modulus (GPa) = 26.49355 33.67351 30.08353
# Shear Modulus (GPa) = 20.71815 28.33576 24.52695
#
# Velocity S-wave (km/s) = 3.15706 3.69211 3.43502
# Velocity P-wave (km/s) = 5.10243 5.86303 5.49590
#
# Compressibility (1/GPa) = 0.03774503
#
# Stress axis : x y z
#
# Youngs Moduli (GPa) = 105.53332 38.10569 37.16706
#
# Poissons Ratio (x) = 0.01145 0.19633
# Poissons Ratio (y) = 0.03171 0.25485
# Poissons Ratio (z) = 0.55746 0.26128
#
# Static dielectric constant tensor:
#      x y z
#    x 1.901370 0.000000 -0.059880 
#    y 0.000000 1.778920 0.000000 
#    z -0.059880 0.000000 1.790140 
# 
# From -- ./inp_files/4278.got.cif
#   From: 2010.05.17/outbox.cif.g08.bks.cpg/sg14_3_cif.got.tgz:4278.got - 2010.06.03 17:49:19.
