data_PCOD9244261
_publ_section_title
;
Structure prediction by ZEFSAII (Michael W. Deem and Ramdas Pophale) SiO2 
 PCOD9244261
Probable space group: P 21/C
;
_chemical_formula_sum "Si O2"
_cell_formula_units_Z 26
_cell_length_a 9.189893
_cell_length_b 10.203823
_cell_length_c 14.541718
_cell_angle_alpha 90.000000
_cell_angle_beta 127.795050
_cell_angle_gamma 90.000000
_cell_volume 1077.532779
_symmetry_space_group_name_H-M "P 21/C"
_symmetry_group_IT_number 14
_symmetry_cell_setting 'monoclinic'
loop_
_space_group_symop_operation_xyz
x,y,z
-x,1/2+y,1/2-z
-x,-y,-z
x,1/2-y,1/2+z
loop_
_atom_site_type_symbol
_atom_site_label
_atom_site_fract_x
_atom_site_fract_y
_atom_site_fract_z
Si Si1 0.121032 0.361797 0.867089
Si Si2 0.649211 0.156296 0.954019
Si Si3 0.347282 0.376681 0.463413
Si Si4 0.500000 0.000000 0.500000
Si Si5 0.075491 0.207330 0.133383
Si Si6 0.537040 0.614274 0.218769
Si Si7 0.778767 0.984360 0.285404
O O1 0.211552 0.233227 0.946305
O O2 0.275827 0.473328 0.932058
O O3 0.081572 0.322095 0.745825
O O4 0.933311 0.405999 0.838357
O O5 0.537818 0.197998 0.006271
O O6 0.536694 0.237645 0.833960
O O7 0.864073 0.184607 0.025386
O O8 0.635516 0.000705 0.965115
O O9 0.269690 0.435821 0.337213
O O10 0.469134 0.039670 0.380295
O O11 0.131611 0.356423 0.134790
O O12 0.250673 0.122941 0.167169
O O13 0.393011 0.544415 0.228627
#
# Coordination Sequence:
#
# PCOD9244261 Si02
#       7
#     4   4   4   2   4   4   4
#     4  10  20  40  65  97 126 174 223 268 339 393
#     4  11  20  43  69  92 133 172 220 272 328 409
#     4  10  22  41  67 100 130 175 220 278 332 401
#     4  10  20  40  64  96 130 170 224 270 322 404
#     4  10  22  42  66  96 131 177 216 276 340 390
#     4  11  24  44  65  99 137 171 229 280 331 405
#     4  11  22  43  67  95 136 173 222 283 329 394
#
# _framework density 24.129197999999999
#
# number of rings (size 3 to 8) (size 9 to 14) (size 15 to 20)
#    0.000    1.538    6.154    0.923    0.000    2.462 
#    5.538    4.615    0.000    0.000    0.000    0.000 
#    0.000    0.000    0.000    0.000    0.000    0.000 
#
# Total GULP energy -144785.874984 kJ/mol
# GULP energy per Si atom -5568.687499 kJ/mol
# Density = 2.407428 g / cm^3
# Si number density = 24.129198 Si / 1000 Ang^3
#
#
#
# Elastic Constant Matrix: (Units=GPa)
#
#
# Indices 1 2 3 4 5 6 
#
# 1 163.4086 65.0521 62.1193 0.0000 34.5088 0.0000
# 2 65.0521 55.7309 21.8123 0.0000 7.9936 0.0000
# 3 62.1193 21.8123 91.7443 0.0000 27.9664 0.0000
# 4 0.0000 0.0000 0.0000 34.5303 0.0000 8.2700
# 5 34.5088 7.9936 27.9664 0.0000 51.1601 0.0000
# 6 0.0000 0.0000 0.0000 8.2700 0.0000 46.8123
#
#
#
# Elastic Compliance Matrix: (Units=1/GPa)
#
#
# Indices 1 2 3 4 5 6 
#
# 1 0.015022 -0.014811 -0.005120 0.000000 -0.005020 0.000000
# 2 -0.014811 0.034403 0.000530 0.000000 0.004325 0.000000
# 3 -0.005120 0.000530 0.015855 0.000000 -0.005296 0.000000
# 4 0.000000 0.000000 0.000000 0.030240 0.000000 -0.005342
# 5 -0.005020 0.004325 -0.005296 0.000000 0.025152 0.000000
# 6 0.000000 0.000000 0.000000 -0.005342 0.000000 0.022306
#
#
# Mechanical properties :
#
#
# Convention : Reuss Voigt Hill
#
# Bulk Modulus (GPa) = 37.76435 67.65015 52.70725
# Shear Modulus (GPa) = 26.23231 37.29387 31.76309
#
# Velocity S-wave (km/s) = 3.30079 3.93567 3.63213
# Velocity P-wave (km/s) = 5.49653 6.98213 6.28339
#
# Compressibility (1/GPa) = 0.02648000
#
# Stress axis : x y z
#
# Youngs Moduli (GPa) = 66.56840 29.06694 63.07226
#
# Poissons Ratio (x) = 0.43050 0.32292
# Poissons Ratio (y) = 0.98593 -0.03346
# Poissons Ratio (z) = 0.34082 -0.01542
#
# Static dielectric constant tensor:
#      x y z
#    x 1.942250 0.000000 -0.012710 
#    y 0.000000 2.005940 0.000000 
#    z -0.012710 0.000000 1.955800 
# 
# From -- ./inp_files/55518.got.cif
#   From: 2010.05.17/outbox.cif.g08.bks.cpg/sg14_28_cif.got.tgz:55518.got - 2010.06.03 17:49:19.
