data_PCOD9244626
_publ_section_title
;
Structure prediction by ZEFSAII (Michael W. Deem and Ramdas Pophale) SiO2 
 PCOD9244626
Probable space group: P 21/C
;
_chemical_formula_sum "Si O2"
_cell_formula_units_Z 28
_cell_length_a 12.122130
_cell_length_b 8.282300
_cell_length_c 22.632792
_cell_angle_alpha 90.000000
_cell_angle_beta 30.387615
_cell_angle_gamma 90.000000
_cell_volume 1149.443089
_symmetry_space_group_name_H-M "P 21/C"
_symmetry_group_IT_number 14
_symmetry_cell_setting 'monoclinic'
loop_
_space_group_symop_operation_xyz
x,y,z
-x,1/2+y,1/2-z
-x,-y,-z
x,1/2-y,1/2+z
loop_
_atom_site_type_symbol
_atom_site_label
_atom_site_fract_x
_atom_site_fract_y
_atom_site_fract_z
Si Si1 0.060348 0.317766 0.642443
Si Si2 0.645442 0.211747 0.519130
Si Si3 0.339587 0.935952 0.322294
Si Si4 0.203669 0.892960 0.161400
Si Si5 0.297376 0.473668 0.248238
Si Si6 0.441917 0.430797 0.400830
Si Si7 0.005467 0.798018 0.557445
O O1 0.010071 0.167242 0.706365
O O2 0.834834 0.376467 0.716909
O O3 0.145205 0.458166 0.646917
O O4 0.247397 0.309816 0.507384
O O5 0.696007 0.257135 0.428586
O O6 0.424101 0.118357 0.636355
O O7 0.635729 0.382423 0.559899
O O8 0.856848 0.129600 0.451076
O O9 0.513794 0.991996 0.290588
O O10 0.465496 0.888757 0.205328
O O11 0.182534 0.798591 0.422683
O O12 0.183442 0.082185 0.375842
O O13 0.379232 0.929878 0.130153
O O14 0.114336 0.360839 0.363571
#
# Coordination Sequence:
#
# PCOD9244626 Si02
#       7
#     4   4   4   4   4   4   4
#     4  11  26  45  69 102 133 190 223 287 345 403
#     4  10  21  41  72  96 132 186 224 277 345 412
#     4  10  24  38  68 100 136 176 227 286 333 413
#     4  11  26  42  71 101 141 175 235 280 340 409
#     4  11  22  41  72  99 135 178 235 271 351 404
#     4  11  23  43  67 101 137 177 227 282 340 403
#     4  10  20  42  65  99 131 181 224 276 343 406
#
# _framework density 24.359622999999999
#
# number of rings (size 3 to 8) (size 9 to 14) (size 15 to 20)
#    0.000    1.429    4.286    1.714    6.000    3.429 
#    0.000    0.000    0.000    0.000    0.000    0.000 
#    0.000    0.000    0.000    0.000    0.000    0.000 
#
# Total GULP energy -156795.901402 kJ/mol
# GULP energy per Si atom -5599.853621 kJ/mol
# Density = 2.430418 g / cm^3
# Si number density = 24.359623 Si / 1000 Ang^3
#
#
#
# Elastic Constant Matrix: (Units=GPa)
#
#
# Indices 1 2 3 4 5 6 
#
# 1 106.4954 14.8032 30.8169 0.0000 -5.9980 0.0000
# 2 14.8032 20.9098 20.7495 0.0000 5.3771 0.0000
# 3 30.8169 20.7495 136.4990 0.0000 13.8442 0.0000
# 4 0.0000 0.0000 0.0000 2.3568 0.0000 4.7322
# 5 -5.9980 5.3771 13.8442 0.0000 39.8766 0.0000
# 6 0.0000 0.0000 0.0000 4.7322 0.0000 31.7185
#
#
#
# Elastic Compliance Matrix: (Units=1/GPa)
#
#
# Indices 1 2 3 4 5 6 
#
# 1 0.011040 -0.006882 -0.001771 0.000000 0.003203 0.000000
# 2 -0.006882 0.061507 -0.007100 0.000000 -0.006864 0.000000
# 3 -0.001771 -0.007100 0.009054 0.000000 -0.002452 0.000000
# 4 0.000000 0.000000 0.000000 0.605785 0.000000 -0.090379
# 5 0.003203 -0.006864 -0.002452 0.000000 0.027336 0.000000
# 6 0.000000 0.000000 0.000000 -0.090379 0.000000 0.045011
#
#
# Mechanical properties :
#
#
# Convention : Reuss Voigt Hill
#
# Bulk Modulus (GPa) = 19.96210 44.07148 32.01679
# Shear Modulus (GPa) = 6.18860 27.95936 17.07398
#
# Velocity S-wave (km/s) = 1.59563 3.39156 2.65035
# Velocity P-wave (km/s) = 3.40694 5.78517 4.74739
#
# Compressibility (1/GPa) = 0.05009494
#
# Stress axis : x y z
#
# Youngs Moduli (GPa) = 90.58301 16.25828 110.44921
#
# Poissons Ratio (x) = 0.11188 0.19562
# Poissons Ratio (y) = 0.62337 0.78419
# Poissons Ratio (z) = 0.16044 0.11543
#
# Static dielectric constant tensor:
#      x y z
#    x 1.897120 0.000000 -0.011050 
#    y 0.000000 1.991620 0.000000 
#    z -0.011050 0.000000 1.957070 
# 
# From -- ./inp_files/67317.got.cif
#   From: 2010.05.17/outbox.cif.g08.bks.cpg/sg14_34_cif.got.tgz:67317.got - 2010.06.03 17:49:19.
