data_PCOD9244230
_publ_section_title
;
Structure prediction by ZEFSAII (Michael W. Deem and Ramdas Pophale) SiO2 
 PCOD9244230
Probable space group: P 21/C
;
_chemical_formula_sum "Si O2"
_cell_formula_units_Z 20
_cell_length_a 7.306191
_cell_length_b 9.989360
_cell_length_c 12.771695
_cell_angle_alpha 90.000000
_cell_angle_beta 56.543162
_cell_angle_gamma 90.000000
_cell_volume 777.678659
_symmetry_space_group_name_H-M "P 21/C"
_symmetry_group_IT_number 14
_symmetry_cell_setting 'monoclinic'
loop_
_space_group_symop_operation_xyz
x,y,z
-x,1/2+y,1/2-z
-x,-y,-z
x,1/2-y,1/2+z
loop_
_atom_site_type_symbol
_atom_site_label
_atom_site_fract_x
_atom_site_fract_y
_atom_site_fract_z
Si Si1 0.291631 0.524517 0.820532
Si Si2 0.190092 0.067688 0.808271
Si Si3 0.569580 0.630189 0.415302
Si Si4 0.877617 0.204190 0.059401
Si Si5 0.291120 0.096986 0.544854
O O1 0.550425 0.566063 0.746035
O O2 0.277218 0.424911 0.726545
O O3 0.847916 0.338828 0.135384
O O4 0.233060 0.449867 0.946874
O O5 0.159269 0.078284 0.694350
O O6 0.062201 0.180532 0.913495
O O7 0.101090 0.923919 0.872643
O O8 0.500000 0.500000 0.500000
O O9 0.353426 0.690687 0.428760
O O10 0.654686 0.745301 0.465567
O O11 0.500000 0.000000 0.500000
#
# Coordination Sequence:
#
# PCOD9244230 Si02
#       5
#     4   4   4   4   4
#     4  10  22  39  72  94 137 175 220 276 343 394
#     4   9  20  38  67  95 130 172 226 265 332 401
#     4  11  24  38  66  98 130 173 224 278 330 396
#     4  10  20  40  65  96 132 179 217 276 333 397
#     4  10  20  40  64  88 130 175 219 261 330 394
#
# _framework density 25.717562000000001
#
# number of rings (size 3 to 8) (size 9 to 14) (size 15 to 20)
#    0.000    2.000    4.000    0.000    8.400    0.000 
#    3.600    1.000    4.400    0.000    0.000    0.000 
#    0.000    0.000    0.000    0.000    0.000    0.000 
#
# Total GULP energy -112015.049460 kJ/mol
# GULP energy per Si atom -5600.752473 kJ/mol
# Density = 2.565903 g / cm^3
# Si number density = 25.717562 Si / 1000 Ang^3
#
#
#
# Elastic Constant Matrix: (Units=GPa)
#
#
# Indices 1 2 3 4 5 6 
#
# 1 62.0395 38.1974 33.2918 0.0000 3.9129 0.0000
# 2 38.1974 194.0490 94.1172 0.0000 12.1560 0.0000
# 3 33.2918 94.1172 184.4889 0.0000 15.3653 0.0000
# 4 0.0000 0.0000 0.0000 38.6061 0.0000 10.1196
# 5 3.9129 12.1560 15.3653 0.0000 50.0617 0.0000
# 6 0.0000 0.0000 0.0000 10.1196 0.0000 44.7001
#
#
#
# Elastic Compliance Matrix: (Units=1/GPa)
#
#
# Indices 1 2 3 4 5 6 
#
# 1 0.018888 -0.002738 -0.001995 0.000000 -0.000199 0.000000
# 2 -0.002738 0.007262 -0.003163 0.000000 -0.000579 0.000000
# 3 -0.001995 -0.003163 0.007509 0.000000 -0.001381 0.000000
# 4 0.000000 0.000000 0.000000 0.027537 0.000000 -0.006234
# 5 -0.000199 -0.000579 -0.001381 0.000000 0.020555 0.000000
# 6 0.000000 0.000000 0.000000 -0.006234 0.000000 0.023783
#
#
# Mechanical properties :
#
#
# Convention : Reuss Voigt Hill
#
# Bulk Modulus (GPa) = 55.96670 85.75447 70.86059
# Shear Modulus (GPa) = 39.28328 45.00497 42.14412
#
# Velocity S-wave (km/s) = 3.91255 4.18780 4.05251
# Velocity P-wave (km/s) = 6.49769 7.53662 7.03636
#
# Compressibility (1/GPa) = 0.01786777
#
# Stress axis : x y z
#
# Youngs Moduli (GPa) = 52.94485 137.69393 133.17593
#
# Poissons Ratio (x) = 0.37698 0.26570
# Poissons Ratio (y) = 0.14495 0.42120
# Poissons Ratio (z) = 0.10563 0.43549
#
# Static dielectric constant tensor:
#      x y z
#    x 2.240990 0.000000 -0.096440 
#    y 0.000000 2.277580 0.000000 
#    z -0.096440 0.000000 1.982600 
# 
# From -- ./inp_files/39516.got.cif
#   From: 2010.05.17/outbox.cif.g08.bks.cpg/sg14_20_cif.got.tgz:39516.got - 2010.06.03 17:49:19.
