data_PCOD9244135
_publ_section_title
;
Structure prediction by ZEFSAII (Michael W. Deem and Ramdas Pophale) SiO2 
 PCOD9244135
Probable space group: P 21/C
;
_chemical_formula_sum "Si O2"
_cell_formula_units_Z 26
_cell_length_a 11.984389
_cell_length_b 5.458093
_cell_length_c 14.525660
_cell_angle_alpha 90.000000
_cell_angle_beta 76.620414
_cell_angle_gamma 90.000000
_cell_volume 924.362525
_symmetry_space_group_name_H-M "P 21/C"
_symmetry_group_IT_number 14
_symmetry_cell_setting 'monoclinic'
loop_
_space_group_symop_operation_xyz
x,y,z
-x,1/2+y,1/2-z
-x,-y,-z
x,1/2-y,1/2+z
loop_
_atom_site_type_symbol
_atom_site_label
_atom_site_fract_x
_atom_site_fract_y
_atom_site_fract_z
Si Si1 0.673130 0.815873 0.884968
Si Si2 0.179513 0.036626 0.971151
Si Si3 0.940075 0.263871 0.862903
Si Si4 0.447441 0.499077 0.342098
Si Si5 0.000000 0.000000 0.500000
Si Si6 0.518477 0.496570 0.116754
Si Si7 0.833425 0.991661 0.231172
O O1 0.737395 0.927772 0.958529
O O2 0.589616 0.579853 0.926684
O O3 0.765584 0.725055 0.794108
O O4 0.580171 0.994042 0.855906
O O5 0.108572 0.288766 0.976527
O O6 0.101925 0.804805 0.023570
O O7 0.217920 0.971748 0.860232
O O8 0.841296 0.301546 0.807987
O O9 0.033967 0.075131 0.812186
O O10 0.999883 0.513356 0.884329
O O11 0.455702 0.498449 0.230797
O O12 0.405744 0.752686 0.393504
O O13 0.409336 0.241115 0.389258
#
# Coordination Sequence:
#
# PCOD9244135 Si02
#       7
#     4   4   4   4   2   4   4
#     4  10  21  36  61  90 121 162 221 267 322 385
#     4  11  24  41  59  92 126 167 216 266 318 387
#     4  11  24  40  58  85 127 172 216 258 324 375
#     4   8  16  31  58  89 118 163 209 259 328 391
#     4  10  20  40  58  78 118 168 206 260 308 368
#     4   8  16  32  57  90 117 163 210 257 332 389
#     4  11  23  39  61  88 123 167 217 269 317 378
#
# _framework density 28.127492
#
# number of rings (size 3 to 8) (size 9 to 14) (size 15 to 20)
#    0.923    1.231    1.538    2.769    4.308    0.000 
#    0.000    0.000    0.000    1.846    0.000    0.000 
#    0.000    0.000    0.000    0.000    0.000    0.000 
#
# Total GULP energy -144932.524637 kJ/mol
# GULP energy per Si atom -5574.327871 kJ/mol
# Density = 2.806347 g / cm^3
# Si number density = 28.127492 Si / 1000 Ang^3
#
#
#
# Elastic Constant Matrix: (Units=GPa)
#
#
# Indices 1 2 3 4 5 6 
#
# 1 50.1942 5.4209 30.8619 0.0000 24.9725 0.0000
# 2 5.4209 122.3169 20.8607 0.0000 9.7107 0.0000
# 3 30.8619 20.8607 167.1839 0.0000 16.7593 0.0000
# 4 0.0000 0.0000 0.0000 43.2842 0.0000 7.5255
# 5 24.9725 9.7107 16.7593 0.0000 54.4574 0.0000
# 6 0.0000 0.0000 0.0000 7.5255 0.0000 36.3500
#
#
#
# Elastic Compliance Matrix: (Units=1/GPa)
#
#
# Indices 1 2 3 4 5 6 
#
# 1 0.028244 0.000378 -0.004082 0.000000 -0.011763 0.000000
# 2 0.000378 0.008436 -0.000985 0.000000 -0.001375 0.000000
# 3 -0.004082 -0.000985 0.006864 0.000000 -0.000065 0.000000
# 4 0.000000 0.000000 0.000000 0.023966 0.000000 -0.004962
# 5 -0.011763 -0.001375 -0.000065 0.000000 0.024022 0.000000
# 6 0.000000 0.000000 0.000000 -0.004962 0.000000 0.028538
#
#
# Mechanical properties :
#
#
# Convention : Reuss Voigt Hill
#
# Bulk Modulus (GPa) = 29.26749 50.44247 39.85498
# Shear Modulus (GPa) = 35.50257 45.65509 40.57883
#
# Velocity S-wave (km/s) = 3.55660 4.03320 3.80238
# Velocity P-wave (km/s) = 5.22434 6.29773 5.78598
#
# Compressibility (1/GPa) = 0.03416761
#
# Stress axis : x y z
#
# Youngs Moduli (GPa) = 35.40606 118.54273 145.68094
#
# Poissons Ratio (x) = -0.04484 0.59464
# Poissons Ratio (y) = -0.01339 0.14344
# Poissons Ratio (z) = 0.14452 0.11672
#
# Static dielectric constant tensor:
#      x y z
#    x 1.663540 0.000000 -0.107200 
#    y 0.000000 1.540050 0.000000 
#    z -0.107200 0.000000 2.258200 
# 
# From -- ./inp_files/47804.got.cif
#   From: 2010.05.17/outbox.cif.g08.bks.cpg/sg14_24_cif.got.tgz:47804.got - 2010.06.03 17:49:19.
