data_PCOD9244115
_publ_section_title
;
Structure prediction by ZEFSAII (Michael W. Deem and Ramdas Pophale) SiO2 
 PCOD9244115
Probable space group: P 21/C
;
_chemical_formula_sum "Si O2"
_cell_formula_units_Z 28
_cell_length_a 12.098625
_cell_length_b 11.463346
_cell_length_c 14.226311
_cell_angle_alpha 90.000000
_cell_angle_beta 30.074325
_cell_angle_gamma 90.000000
_cell_volume 988.744435
_symmetry_space_group_name_H-M "P 21/C"
_symmetry_group_IT_number 14
_symmetry_cell_setting 'monoclinic'
loop_
_space_group_symop_operation_xyz
x,y,z
-x,1/2+y,1/2-z
-x,-y,-z
x,1/2-y,1/2+z
loop_
_atom_site_type_symbol
_atom_site_label
_atom_site_fract_x
_atom_site_fract_y
_atom_site_fract_z
Si Si1 0.618505 0.424825 0.992695
Si Si2 0.950359 0.135901 0.504601
Si Si3 0.552217 0.818675 0.863127
Si Si4 0.514623 0.648758 0.588890
Si Si5 0.217778 0.543672 0.511376
Si Si6 0.019412 0.339158 0.572328
Si Si7 0.803848 0.857310 0.425245
O O1 0.709270 0.513229 0.003616
O O2 0.830994 0.368485 0.786319
O O3 0.500000 0.500000 0.000000
O O4 0.471401 0.318497 0.134311
O O5 0.201959 0.153544 0.284149
O O6 0.924968 0.278978 0.549991
O O7 0.684231 0.124140 0.693957
O O8 0.000000 0.000000 0.500000
O O9 0.418316 0.861967 0.054485
O O10 0.435025 0.877257 0.860153
O O11 0.712736 0.562331 0.469402
O O12 0.616709 0.777176 0.517599
O O13 0.150617 0.461910 0.472569
O O14 0.016148 0.619662 0.701870
O O15 0.129969 0.218316 0.532361
#
# Coordination Sequence:
#
# PCOD9244115 Si02
#       7
#     4   4   4   4   4   4   4
#     4  11  20  40  68  96 135 175 227 274 339 412
#     4  12  25  42  68 101 136 180 232 278 336 416
#     4  12  23  41  71  97 130 185 236 265 355 412
#     4  11  22  43  68  99 138 172 233 290 329 408
#     4  10  21  38  68  97 128 181 220 282 343 398
#     4  10  22  41  63  94 143 164 226 293 339 382
#     4  10  20  39  69  96 132 185 212 285 352 389
#
# _framework density 28.318743999999999
#
# number of rings (size 3 to 8) (size 9 to 14) (size 15 to 20)
#    0.000    1.143    5.714    0.429    2.000    0.000 
#    2.571    5.714    0.000    0.000    0.000    0.000 
#    0.000    0.000    0.000    0.000    0.000    0.000 
#
# Total GULP energy -156067.750034 kJ/mol
# GULP energy per Si atom -5573.848215 kJ/mol
# Density = 2.825429 g / cm^3
# Si number density = 28.318744 Si / 1000 Ang^3
#
#
#
# Elastic Constant Matrix: (Units=GPa)
#
#
# Indices 1 2 3 4 5 6 
#
# 1 54.1045 14.2906 51.6856 0.0000 -3.9380 0.0000
# 2 14.2906 183.2096 66.7300 0.0000 -2.5350 0.0000
# 3 51.6856 66.7300 124.1115 0.0000 -27.6337 0.0000
# 4 0.0000 0.0000 0.0000 75.1575 0.0000 -21.4465
# 5 -3.9380 -2.5350 -27.6337 0.0000 31.5972 0.0000
# 6 0.0000 0.0000 0.0000 -21.4465 0.0000 61.9866
#
#
#
# Elastic Compliance Matrix: (Units=1/GPa)
#
#
# Indices 1 2 3 4 5 6 
#
# 1 0.035406 0.004299 -0.019865 0.000000 -0.012616 0.000000
# 2 0.004299 0.007596 -0.006978 0.000000 -0.004958 0.000000
# 3 -0.019865 -0.006978 0.024099 0.000000 0.018040 0.000000
# 4 0.000000 0.000000 0.000000 0.014763 0.000000 0.005108
# 5 -0.012616 -0.004958 0.018040 0.000000 0.045456 0.000000
# 6 0.000000 0.000000 0.000000 0.005108 0.000000 0.017900
#
#
# Mechanical properties :
#
#
# Convention : Reuss Voigt Hill
#
# Bulk Modulus (GPa) = 45.42941 69.64867 57.53904
# Shear Modulus (GPa) = 25.29797 48.99622 37.14709
#
# Velocity S-wave (km/s) = 2.99210 4.16404 3.62574
# Velocity P-wave (km/s) = 5.29282 6.91136 6.15552
#
# Compressibility (1/GPa) = 0.02201217
#
# Stress axis : x y z
#
# Youngs Moduli (GPa) = 28.24387 131.64871 41.49622
#
# Poissons Ratio (x) = -0.56597 0.82432
# Poissons Ratio (y) = -0.12142 0.28957
# Poissons Ratio (z) = 0.56106 0.91868
#
# Static dielectric constant tensor:
#      x y z
#    x 2.871240 0.000000 0.102210 
#    y 0.000000 2.188170 0.000000 
#    z 0.102210 0.000000 2.279120 
# 
# From -- ./inp_files/69272.got.cif
#   From: 2010.05.17/outbox.cif.g08.bks.cpg/sg14_35_cif.got.tgz:69272.got - 2010.06.03 17:49:19.
