data_PCOD9244487
_publ_section_title
;
Structure prediction by ZEFSAII (Michael W. Deem and Ramdas Pophale) SiO2 
 PCOD9244487
Probable space group: P 21/C
;
_chemical_formula_sum "Si O2"
_cell_formula_units_Z 32
_cell_length_a 5.727048
_cell_length_b 16.011246
_cell_length_c 16.675503
_cell_angle_alpha 90.000000
_cell_angle_beta 79.043457
_cell_angle_gamma 90.000000
_cell_volume 1501.223560
_symmetry_space_group_name_H-M "P 21/C"
_symmetry_group_IT_number 14
_symmetry_cell_setting 'monoclinic'
loop_
_space_group_symop_operation_xyz
x,y,z
-x,1/2+y,1/2-z
-x,-y,-z
x,1/2-y,1/2+z
loop_
_atom_site_type_symbol
_atom_site_label
_atom_site_fract_x
_atom_site_fract_y
_atom_site_fract_z
Si Si1 0.706714 0.220716 0.433900
Si Si2 0.264290 0.478348 0.566363
Si Si3 0.751097 0.032543 0.756304
Si Si4 0.879120 0.600140 0.116914
Si Si5 0.617724 0.735679 0.672189
Si Si6 0.974267 0.639904 0.531601
Si Si7 0.640916 0.585949 0.973762
Si Si8 0.735090 0.886967 0.281936
O O1 0.627887 0.272654 0.360160
O O2 0.503661 0.169774 0.493158
O O3 0.875823 0.148251 0.389207
O O4 0.834862 0.285480 0.485206
O O5 0.500000 0.500000 0.500000
O O6 0.294593 0.480315 0.659629
O O7 0.155947 0.391942 0.539917
O O8 0.090518 0.555845 0.558076
O O9 0.490591 0.069091 0.749264
O O10 0.990068 0.089045 0.755951
O O11 0.835708 0.978098 0.675105
O O12 0.683314 0.668209 0.155692
O O13 0.853181 0.583885 0.024123
O O14 0.788443 0.678195 0.606446
O O15 0.673216 0.707174 0.758120
O O16 0.500000 0.500000 0.000000
O O17 0.705954 0.593383 0.877222
#
# Coordination Sequence:
#
# PCOD9244487 Si02
#       8
#     4   4   4   4   4   4   4   4
#     4  10  22  42  69  94 138 182 231 292 357 411
#     4  11  23  40  69  97 137 179 233 286 348 429
#     4  12  26  45  69 105 140 185 231 297 349 414
#     4  10  24  44  69  96 142 181 229 295 349 413
#     4  10  22  45  65  98 135 185 227 286 359 413
#     4  10  20  41  65  95 130 178 226 283 354 416
#     4  11  23  44  69 100 134 185 239 289 349 422
#     4  12  26  44  74 101 142 184 240 282 352 424
#
# _framework density 21.315944999999999
#
# number of rings (size 3 to 8) (size 9 to 14) (size 15 to 20)
#    0.000    1.250    2.500    3.000    7.000    1.000 
#   11.250    0.000    0.000    0.000    0.000    0.000 
#    0.000    0.000    0.000    0.000    0.000    0.000 
#
# Total GULP energy -178421.596996 kJ/mol
# GULP energy per Si atom -5575.674906 kJ/mol
# Density = 2.126743 g / cm^3
# Si number density = 21.315945 Si / 1000 Ang^3
#
#
#
# Elastic Constant Matrix: (Units=GPa)
#
#
# Indices 1 2 3 4 5 6 
#
# 1 98.0854 30.5677 32.3303 0.0000 14.9636 0.0000
# 2 30.5677 63.2280 8.4929 0.0000 6.9272 0.0000
# 3 32.3303 8.4929 120.3322 0.0000 16.2833 0.0000
# 4 0.0000 0.0000 0.0000 34.2893 0.0000 -6.9139
# 5 14.9636 6.9272 16.2833 0.0000 18.4664 0.0000
# 6 0.0000 0.0000 0.0000 -6.9139 0.0000 6.3414
#
#
#
# Elastic Compliance Matrix: (Units=1/GPa)
#
#
# Indices 1 2 3 4 5 6 
#
# 1 0.013779 -0.005578 -0.002362 0.000000 -0.006989 0.000000
# 2 -0.005578 0.018767 0.000585 0.000000 -0.003036 0.000000
# 3 -0.002362 0.000585 0.009850 0.000000 -0.006990 0.000000
# 4 0.000000 0.000000 0.000000 0.037381 0.000000 0.040756
# 5 -0.006989 -0.003036 -0.006990 0.000000 0.067118 0.000000
# 6 0.000000 0.000000 0.000000 0.040756 0.000000 0.202128
#
#
# Mechanical properties :
#
#
# Convention : Reuss Voigt Hill
#
# Bulk Modulus (GPa) = 36.12271 47.15862 41.64066
# Shear Modulus (GPa) = 13.40619 25.83641 19.62130
#
# Velocity S-wave (km/s) = 2.51056 3.48526 3.03726
# Velocity P-wave (km/s) = 5.03855 6.19416 5.64600
#
# Compressibility (1/GPa) = 0.02768341
#
# Stress axis : x y z
#
# Youngs Moduli (GPa) = 72.57644 53.28627 101.52591
#
# Poissons Ratio (x) = 0.29724 0.23985
# Poissons Ratio (y) = 0.40485 -0.05939
# Poissons Ratio (z) = 0.17146 -0.03117
#
# Static dielectric constant tensor:
#      x y z
#    x 1.419120 0.000000 -0.286940 
#    y 0.000000 1.778900 0.000000 
#    z -0.286940 0.000000 1.540260 
# 
# From -- ./inp_files/37700.got.cif
#   From: 2010.05.17/outbox.cif.g08.bks.cpg/sg14_19_cif.got.tgz:37700.got - 2010.06.03 17:49:19.
