data_PCOD9244085
_publ_section_title
;
Structure prediction by ZEFSAII (Michael W. Deem and Ramdas Pophale) SiO2 
 PCOD9244085
Probable space group: P 21/C
;
_chemical_formula_sum "Si O2"
_cell_formula_units_Z 24
_cell_length_a 5.369587
_cell_length_b 17.588267
_cell_length_c 11.259807
_cell_angle_alpha 90.000000
_cell_angle_beta 104.474292
_cell_angle_gamma 90.000000
_cell_volume 1029.643351
_symmetry_space_group_name_H-M "P 21/C"
_symmetry_group_IT_number 14
_symmetry_cell_setting 'monoclinic'
loop_
_space_group_symop_operation_xyz
x,y,z
-x,1/2+y,1/2-z
-x,-y,-z
x,1/2-y,1/2+z
loop_
_atom_site_type_symbol
_atom_site_label
_atom_site_fract_x
_atom_site_fract_y
_atom_site_fract_z
Si Si1 0.141691 0.017044 0.811585
Si Si2 0.675416 0.667779 0.269011
Si Si3 0.682441 0.414931 0.147441
Si Si4 0.476252 0.329471 0.316350
Si Si5 0.749202 0.367789 0.579410
Si Si6 0.326884 0.948559 0.598730
O O1 0.301859 0.095191 0.818361
O O2 0.848183 0.043151 0.768559
O O3 0.235546 0.960527 0.924794
O O4 0.167042 0.962616 0.698497
O O5 0.667124 0.750039 0.206710
O O6 0.477893 0.657468 0.357033
O O7 0.559703 0.607245 0.161541
O O8 0.964962 0.653821 0.345178
O O9 0.600780 0.338435 0.200326
O O10 0.435836 0.466714 0.091454
O O11 0.813126 0.414783 0.033853
O O12 0.684046 0.331415 0.445260
#
# Coordination Sequence:
#
# PCOD9244085 Si02
#       6
#     4   4   4   4   4   4
#     4  10  21  42  69 101 134 181 229 282 342 408
#     4  11  26  45  67  98 140 183 224 285 348 400
#     4  10  20  39  66  98 131 175 230 278 332 403
#     4  11  27  40  68 104 133 179 231 285 344 409
#     4  11  26  48  69  98 139 184 227 281 345 414
#     4   9  20  40  63  97 133 177 228 274 334 402
#
# _framework density 23.309038999999999
#
# number of rings (size 3 to 8) (size 9 to 14) (size 15 to 20)
#    0.000    1.667    1.667    1.000    7.000    0.667 
#    0.000    0.000    0.000    0.000    0.000    0.000 
#    0.000    0.000    0.000    0.000    0.000    0.000 
#
# Total GULP energy -133918.889725 kJ/mol
# GULP energy per Si atom -5579.953739 kJ/mol
# Density = 2.325599 g / cm^3
# Si number density = 23.309039 Si / 1000 Ang^3
#
#
#
# Elastic Constant Matrix: (Units=GPa)
#
#
# Indices 1 2 3 4 5 6 
#
# 1 91.0705 28.5212 28.0235 0.0000 21.4808 0.0000
# 2 28.5212 123.5514 33.2664 0.0000 20.1782 0.0000
# 3 28.0235 33.2664 103.6336 0.0000 17.0911 0.0000
# 4 0.0000 0.0000 0.0000 21.6421 0.0000 5.5758
# 5 21.4808 20.1782 17.0911 0.0000 27.4672 0.0000
# 6 0.0000 0.0000 0.0000 5.5758 0.0000 22.0979
#
#
#
# Elastic Compliance Matrix: (Units=1/GPa)
#
#
# Indices 1 2 3 4 5 6 
#
# 1 0.014065 -0.001280 -0.001932 0.000000 -0.008857 0.000000
# 2 -0.001280 0.009721 -0.001963 0.000000 -0.004919 0.000000
# 3 -0.001932 -0.001963 0.011494 0.000000 -0.004199 0.000000
# 4 0.000000 0.000000 0.000000 0.049419 0.000000 -0.012469
# 5 -0.008857 -0.004919 -0.004199 0.000000 0.049560 0.000000
# 6 0.000000 0.000000 0.000000 -0.012469 0.000000 0.048399
#
#
# Mechanical properties :
#
#
# Convention : Reuss Voigt Hill
#
# Bulk Modulus (GPa) = 40.11126 55.31975 47.71551
# Shear Modulus (GPa) = 24.83617 29.47108 27.15362
#
# Velocity S-wave (km/s) = 3.26777 3.55965 3.41682
# Velocity P-wave (km/s) = 5.61102 6.37805 6.00679
#
# Compressibility (1/GPa) = 0.02493065
#
# Stress axis : x y z
#
# Youngs Moduli (GPa) = 71.09880 102.86766 86.99854
#
# Poissons Ratio (x) = 0.13169 0.16805
# Poissons Ratio (y) = 0.09102 0.17079
# Poissons Ratio (z) = 0.13734 0.20194
#
# Static dielectric constant tensor:
#      x y z
#    x 1.938490 0.000000 -0.083860 
#    y 0.000000 1.905060 0.000000 
#    z -0.083860 0.000000 1.975560 
# 
# From -- ./inp_files/21158.got.cif
#   From: 2010.05.17/outbox.cif.g08.bks.cpg/sg14_11_cif.got.tgz:21158.got - 2010.06.03 17:49:19.
