data_PCOD9244058
_publ_section_title
;
Structure prediction by ZEFSAII (Michael W. Deem and Ramdas Pophale) SiO2 
 PCOD9244058
Probable space group: P 21/C
;
_chemical_formula_sum "Si O2"
_cell_formula_units_Z 32
_cell_length_a 25.724210
_cell_length_b 9.740559
_cell_length_c 8.381749
_cell_angle_alpha 90.000000
_cell_angle_beta 132.435029
_cell_angle_gamma 90.000000
_cell_volume 1550.037542
_symmetry_space_group_name_H-M "P 21/C"
_symmetry_group_IT_number 14
_symmetry_cell_setting 'monoclinic'
loop_
_space_group_symop_operation_xyz
x,y,z
-x,1/2+y,1/2-z
-x,-y,-z
x,1/2-y,1/2+z
loop_
_atom_site_type_symbol
_atom_site_label
_atom_site_fract_x
_atom_site_fract_y
_atom_site_fract_z
Si Si1 0.062952 0.905252 0.189365
Si Si2 0.422707 0.811185 0.527992
Si Si3 0.630665 0.450438 0.761984
Si Si4 0.362608 0.053372 0.235471
Si Si5 0.780445 0.090240 0.100542
Si Si6 0.937470 0.094703 0.430321
Si Si7 0.779702 0.404107 0.983228
Si Si8 0.417335 0.189392 0.033213
O O1 0.053180 0.750107 0.109404
O O2 0.062494 0.904580 0.379030
O O3 0.142102 0.949858 0.302338
O O4 0.000000 0.000000 0.000000
O O5 0.386102 0.883505 0.603084
O O6 0.387950 0.668501 0.404819
O O7 0.503748 0.791916 0.740576
O O8 0.411776 0.919568 0.361718
O O9 0.713320 0.483775 0.917474
O O10 0.585622 0.583516 0.621753
O O11 0.373762 0.118372 0.084729
O O12 0.385275 0.168087 0.408819
O O13 0.282984 0.002361 0.092752
O O14 0.859359 0.046899 0.215325
O O15 0.776328 0.090632 0.284454
O O16 0.771184 0.245940 0.020425
O O17 0.000000 0.000000 0.500000
#
# Coordination Sequence:
#
# PCOD9244058 Si02
#       8
#     4   4   4   4   4   4   4   4
#     4  10  21  39  65  94 128 164 204 252 307 363
#     4  12  24  40  66  91 120 165 215 260 313 377
#     4  12  22  40  63  93 122 160 213 255 311 365
#     4  12  24  44  61  88 127 164 212 257 325 370
#     4  10  21  40  65  93 123 165 204 258 301 370
#     4  10  21  40  64  96 130 161 207 248 305 371
#     4  10  20  39  65  93 123 156 210 253 299 364
#     4  12  25  42  61  89 128 165 206 269 316 370
#
# _framework density 20.644659999999998
#
# number of rings (size 3 to 8) (size 9 to 14) (size 15 to 20)
#    0.000    1.000    2.500    5.250    0.000    1.000 
#    2.250    1.250    0.000    0.000    0.000    0.000 
#    0.000    0.000    0.000    0.000    0.000    0.000 
#
# Total GULP energy -179091.212615 kJ/mol
# GULP energy per Si atom -5596.600394 kJ/mol
# Density = 2.059767 g / cm^3
# Si number density = 20.644660 Si / 1000 Ang^3
#
#
#
# Elastic Constant Matrix: (Units=GPa)
#
#
# Indices 1 2 3 4 5 6 
#
# 1 79.0382 14.9487 29.1720 0.0000 23.5456 0.0000
# 2 14.9487 69.3282 45.9147 0.0000 20.1590 0.0000
# 3 29.1720 45.9147 98.4657 0.0000 28.5801 0.0000
# 4 0.0000 0.0000 0.0000 37.7295 0.0000 -0.7148
# 5 23.5456 20.1590 28.5801 0.0000 39.4443 0.0000
# 6 0.0000 0.0000 0.0000 -0.7148 0.0000 27.8644
#
#
#
# Elastic Compliance Matrix: (Units=1/GPa)
#
#
# Indices 1 2 3 4 5 6 
#
# 1 0.015870 0.000671 -0.002742 0.000000 -0.007829 0.000000
# 2 0.000671 0.021571 -0.008790 0.000000 -0.005056 0.000000
# 3 -0.002742 -0.008790 0.016827 0.000000 -0.006063 0.000000
# 4 0.000000 0.000000 0.000000 0.026517 0.000000 0.000680
# 5 -0.007829 -0.005056 -0.006063 0.000000 0.037003 0.000000
# 6 0.000000 0.000000 0.000000 0.000680 0.000000 0.035906
#
#
# Mechanical properties :
#
#
# Convention : Reuss Voigt Hill
#
# Bulk Modulus (GPa) = 30.72659 47.43365 39.08012
# Shear Modulus (GPa) = 26.84373 31.46076 29.15225
#
# Velocity S-wave (km/s) = 3.60984 3.90797 3.76186
# Velocity P-wave (km/s) = 5.68247 6.58704 6.15141
#
# Compressibility (1/GPa) = 0.03254510
#
# Stress axis : x y z
#
# Youngs Moduli (GPa) = 63.01372 46.35860 59.42946
#
# Poissons Ratio (x) = -0.03109 0.16295
# Poissons Ratio (y) = -0.04225 0.52237
# Poissons Ratio (z) = 0.17277 0.40748
#
# Static dielectric constant tensor:
#      x y z
#    x 1.736950 0.000000 -0.008820 
#    y 0.000000 1.698090 0.000000 
#    z -0.008820 0.000000 1.756880 
# 
# From -- ./inp_files/19669.got.cif
#   From: 2010.05.17/outbox.cif.g08.bks.cpg/sg14_10_cif.got.tgz:19669.got - 2010.06.03 17:49:19.
