data_PCOD9244909
_publ_section_title
;
Structure prediction by ZEFSAII (Michael W. Deem and Ramdas Pophale) SiO2 
 PCOD9244909
Probable space group: P 21/C
;
_chemical_formula_sum "Si O2"
_cell_formula_units_Z 30
_cell_length_a 18.672832
_cell_length_b 10.609629
_cell_length_c 16.487071
_cell_angle_alpha 90.000000
_cell_angle_beta 23.940102
_cell_angle_gamma 90.000000
_cell_volume 1325.397099
_symmetry_space_group_name_H-M "P 21/C"
_symmetry_group_IT_number 14
_symmetry_cell_setting 'monoclinic'
loop_
_space_group_symop_operation_xyz
x,y,z
-x,1/2+y,1/2-z
-x,-y,-z
x,1/2-y,1/2+z
loop_
_atom_site_type_symbol
_atom_site_label
_atom_site_fract_x
_atom_site_fract_y
_atom_site_fract_z
Si Si1 0.339780 0.543567 0.563759
Si Si2 0.665396 0.872432 0.434522
Si Si3 0.599719 0.671859 0.628470
Si Si4 0.000000 0.500000 0.500000
Si Si5 0.034161 0.175044 0.069992
Si Si6 0.280862 0.980035 0.863511
Si Si7 0.312427 0.347744 0.719698
Si Si8 0.784228 0.224939 0.940236
O O1 0.408087 0.434253 0.432906
O O2 0.257979 0.470946 0.724868
O O3 0.509300 0.619692 0.418285
O O4 0.218877 0.632442 0.634633
O O5 0.681509 0.797023 0.503461
O O6 0.476540 0.944753 0.631971
O O7 0.649393 0.764749 0.382599
O O8 0.833082 0.953878 0.238640
O O9 0.697215 0.600573 0.600122
O O10 0.404288 0.708929 0.857999
O O11 0.061839 0.655669 0.415969
O O12 0.930236 0.176162 0.261252
O O13 0.163329 0.292651 0.931786
O O14 0.142613 0.038319 0.941969
O O15 0.201629 0.862880 0.995315
#
# Coordination Sequence:
#
# PCOD9244909 Si02
#       8
#     4   4   4   2   4   4   4   4
#     4   9  18  35  56  77 102 136 175 216 267 314
#     4   9  19  36  55  80 108 138 177 219 270 322
#     4   9  18  35  57  78 104 138 176 217 267 320
#     4  10  22  36  54  78 108 138 174 224 268 316
#     4  11  23  35  50  78 109 140 179 217 260 312
#     4  10  21  36  56  78 107 144 179 220 266 318
#     4   9  19  34  55  79 103 134 174 219 265 321
#     4  10  21  35  54  80 107 139 177 218 263 313
#
# _framework density 22.634727000000002
#
# number of rings (size 3 to 8) (size 9 to 14) (size 15 to 20)
#    0.000    2.400    0.000    1.600    0.000    5.867 
#    0.000    0.000    0.000    0.000    0.000    0.000 
#    0.000    0.000    0.000    0.000    0.000    0.000 
#
# Total GULP energy -167113.651639 kJ/mol
# GULP energy per Si atom -5570.455055 kJ/mol
# Density = 2.258321 g / cm^3
# Si number density = 22.634727 Si / 1000 Ang^3
#
#
#
# Elastic Constant Matrix: (Units=GPa)
#
#
# Indices 1 2 3 4 5 6 
#
# 1 63.7389 15.5493 21.0154 0.0000 -3.5510 0.0000
# 2 15.5493 58.5673 38.5164 0.0000 -11.1776 0.0000
# 3 21.0154 38.5164 134.2958 0.0000 13.1478 0.0000
# 4 0.0000 0.0000 0.0000 29.2691 0.0000 14.0837
# 5 -3.5510 -11.1776 13.1478 0.0000 20.4917 0.0000
# 6 0.0000 0.0000 0.0000 14.0837 0.0000 -4.6293
#
#
#
# Elastic Compliance Matrix: (Units=1/GPa)
#
#
# Indices 1 2 3 4 5 6 
#
# 1 0.017220 -0.002474 -0.002289 0.000000 0.003103 0.000000
# 2 -0.002474 0.028222 -0.009787 0.000000 0.021245 0.000000
# 3 -0.002289 -0.009787 0.011922 0.000000 -0.013384 0.000000
# 4 0.000000 0.000000 0.000000 0.013866 0.000000 0.042186
# 5 0.003103 0.021245 -0.013384 0.000000 0.069514 0.000000
# 6 0.000000 0.000000 0.000000 0.042186 0.000000 -0.087672
#
#
# Mechanical properties :
#
#
# Convention : Reuss Voigt Hill
#
# Bulk Modulus (GPa) = 35.38104 45.19601 40.28853
# Shear Modulus (GPa) = 54.58881 21.12770 37.85826
#
# Velocity S-wave (km/s) = 4.91626 3.05851 4.09415
# Velocity P-wave (km/s) = 6.92036 5.69943 6.33936
#
# Compressibility (1/GPa) = 0.02826373
#
# Stress axis : x y z
#
# Youngs Moduli (GPa) = 58.07149 35.43299 83.88084
#
# Poissons Ratio (x) = 0.08768 0.19199
# Poissons Ratio (y) = 0.14369 0.82094
# Poissons Ratio (z) = 0.13291 0.34678
#
# Static dielectric constant tensor:
#      x y z
#    x 1.976740 0.000000 -0.062670 
#    y 0.000000 1.946960 0.000000 
#    z -0.062670 0.000000 1.900870 
# 
# From -- ./inp_files/61295.got.cif
#   From: 2010.05.17/outbox.cif.g08.bks.cpg/sg14_31_cif.got.tgz:61295.got - 2010.06.03 17:49:19.
