data_PCOD9244598
_publ_section_title
;
Structure prediction by ZEFSAII (Michael W. Deem and Ramdas Pophale) SiO2 
 PCOD9244598
Probable space group: P 21/C
;
_chemical_formula_sum "Si O2"
_cell_formula_units_Z 24
_cell_length_a 14.326780
_cell_length_b 10.800287
_cell_length_c 15.400613
_cell_angle_alpha 90.000000
_cell_angle_beta 26.222081
_cell_angle_gamma 90.000000
_cell_volume 1052.927185
_symmetry_space_group_name_H-M "P 21/C"
_symmetry_group_IT_number 14
_symmetry_cell_setting 'monoclinic'
loop_
_space_group_symop_operation_xyz
x,y,z
-x,1/2+y,1/2-z
-x,-y,-z
x,1/2-y,1/2+z
loop_
_atom_site_type_symbol
_atom_site_label
_atom_site_fract_x
_atom_site_fract_y
_atom_site_fract_z
Si Si1 0.515596 0.169975 0.368779
Si Si2 0.051968 0.958497 0.300700
Si Si3 0.037123 0.796801 0.912910
Si Si4 0.292086 0.689283 0.474200
Si Si5 0.125482 0.224247 0.281671
Si Si6 0.248548 0.940492 0.596232
O O1 0.734912 0.205811 0.230228
O O2 0.551297 0.168997 0.235791
O O3 0.335956 0.262350 0.550747
O O4 0.427496 0.037094 0.471690
O O5 0.002005 0.831036 0.391025
O O6 0.088846 0.078641 0.328898
O O7 0.251447 0.924499 0.072507
O O8 0.867822 0.999336 0.388964
O O9 0.068944 0.907883 0.817862
O O10 0.874523 0.799913 0.128305
O O11 0.345784 0.809481 0.486419
O O12 0.065706 0.723245 0.618127
#
# Coordination Sequence:
#
# PCOD9244598 Si02
#       6
#     4   4   4   4   4   4
#     4  11  22  39  61  92 124 161 204 250 311 357
#     4  10  20  42  64  87 124 167 205 252 303 360
#     4  10  23  42  60  92 126 154 208 259 297 372
#     4   9  21  39  59  92 124 156 212 254 288 372
#     4  10  21  39  63  88 123 166 200 250 315 355
#     4  10  21  41  64  87 125 164 203 253 309 355
#
# _framework density 22.793597999999999
#
# number of rings (size 3 to 8) (size 9 to 14) (size 15 to 20)
#    0.000    2.000    1.667    1.000    2.333    1.333 
#    9.000    0.000    0.000    0.000    0.000    0.000 
#    0.000    0.000    0.000    0.000    0.000    0.000 
#
# Total GULP energy -134102.738913 kJ/mol
# GULP energy per Si atom -5587.614121 kJ/mol
# Density = 2.274172 g / cm^3
# Si number density = 22.793598 Si / 1000 Ang^3
#
#
#
# Elastic Constant Matrix: (Units=GPa)
#
#
# Indices 1 2 3 4 5 6 
#
# 1 -89.8326 15.4272 8.3386 0.0000 34.0452 0.0000
# 2 15.4272 89.2017 11.7234 0.0000 3.7194 0.0000
# 3 8.3386 11.7234 74.3602 0.0000 13.5092 0.0000
# 4 0.0000 0.0000 0.0000 18.7772 0.0000 6.2190
# 5 34.0452 3.7194 13.5092 0.0000 28.5081 0.0000
# 6 0.0000 0.0000 0.0000 6.2190 0.0000 23.2409
#
#
#
# Elastic Compliance Matrix: (Units=1/GPa)
#
#
# Indices 1 2 3 4 5 6 
#
# 1 -0.007515 0.001044 -0.001015 0.000000 0.009319 0.000000
# 2 0.001044 0.011315 -0.001539 0.000000 -0.001994 0.000000
# 3 -0.001015 -0.001539 0.014824 0.000000 -0.005612 0.000000
# 4 0.000000 0.000000 0.000000 0.058435 0.000000 -0.015636
# 5 0.009319 -0.001994 -0.005612 0.000000 0.026868 0.000000
# 6 0.000000 0.000000 0.000000 -0.015636 0.000000 0.047212
#
#
# Mechanical properties :
#
#
# Convention : Reuss Voigt Hill
#
# Bulk Modulus (GPa) = 64.07809 16.07864 40.07836
# Shear Modulus (GPa) = 31.37563 16.65459 24.01511
#
# Velocity S-wave (km/s) = 3.71416 2.70602 3.24943
# Velocity P-wave (km/s) = 6.82398 4.10277 5.63025
#
# Compressibility (1/GPa) = 0.01560596
#
# Stress axis : x y z
#
# Youngs Moduli (GPa) = -133.06992 88.37595 67.45838
#
# Poissons Ratio (x) = -0.09231 0.06847
# Poissons Ratio (y) = 0.13899 0.10380
# Poissons Ratio (z) = -0.13507 0.13599
#
# Static dielectric constant tensor:
#      x y z
#    x 1.869070 0.000000 0.024060 
#    y 0.000000 1.841910 0.000000 
#    z 0.024060 0.000000 1.861580 
# 
# From -- ./inp_files/47050.got.cif
#   From: 2010.05.17/outbox.cif.g08.bks.cpg/sg14_24_cif.got.tgz:47050.got - 2010.06.03 17:49:19.
