data_PCOD9244591
_publ_section_title
;
Structure prediction by ZEFSAII (Michael W. Deem and Ramdas Pophale) SiO2 
 PCOD9244591
Probable space group: P 21/C
;
_chemical_formula_sum "Si O2"
_cell_formula_units_Z 32
_cell_length_a 10.123174
_cell_length_b 12.069001
_cell_length_c 13.041905
_cell_angle_alpha 90.000000
_cell_angle_beta 104.642480
_cell_angle_gamma 90.000000
_cell_volume 1541.664648
_symmetry_space_group_name_H-M "P 21/C"
_symmetry_group_IT_number 14
_symmetry_cell_setting 'monoclinic'
loop_
_space_group_symop_operation_xyz
x,y,z
-x,1/2+y,1/2-z
-x,-y,-z
x,1/2-y,1/2+z
loop_
_atom_site_type_symbol
_atom_site_label
_atom_site_fract_x
_atom_site_fract_y
_atom_site_fract_z
Si Si1 0.199884 0.357301 0.498304
Si Si2 0.798874 0.294214 0.087729
Si Si3 0.740750 0.400228 0.432158
Si Si4 0.516659 0.124143 0.539397
Si Si5 0.559376 0.678865 0.610296
Si Si6 0.882586 0.440514 0.913275
Si Si7 0.723045 0.839261 0.346581
Si Si8 0.057775 0.781464 0.182029
O O1 0.197096 0.477510 0.548727
O O2 0.343419 0.358802 0.464144
O O3 0.192549 0.259519 0.582119
O O4 0.078967 0.331715 0.394304
O O5 0.661817 0.340012 0.113315
O O6 0.920508 0.301736 0.193156
O O7 0.778982 0.169710 0.042291
O O8 0.810439 0.369305 0.988559
O O9 0.575223 0.394857 0.393273
O O10 0.816296 0.337203 0.354550
O O11 0.497144 0.203143 0.437568
O O12 0.400396 0.145154 0.598538
O O13 0.500000 0.000000 0.500000
O O14 0.656982 0.692348 0.726257
O O15 0.795742 0.541631 0.851205
O O16 0.934839 0.350039 0.842041
O O17 0.000000 0.500000 0.000000
#
# Coordination Sequence:
#
# PCOD9244591 Si02
#       8
#     4   4   4   4   4   4   4   4
#     4  11  24  43  61  94 130 159 214 261 311 378
#     4  10  23  40  66  91 128 165 212 261 318 383
#     4  10  23  45  60  94 130 163 207 267 310 375
#     4  10  20  42  63  93 130 159 213 271 314 374
#     4  10  24  39  65  96 121 172 215 247 330 378
#     4  11  23  42  62  91 132 162 212 267 313 376
#     4  11  23  41  66  92 127 168 208 267 315 382
#     4  11  24  40  66  94 121 173 210 255 327 380
#
# _framework density 20.756784
#
# number of rings (size 3 to 8) (size 9 to 14) (size 15 to 20)
#    0.000    1.500    2.500    1.500    3.500    2.000 
#    0.000    0.000    0.000    0.000    0.000    0.000 
#    0.000    0.000    0.000    0.000    0.000    0.000 
#
# Total GULP energy -178663.322823 kJ/mol
# GULP energy per Si atom -5583.228838 kJ/mol
# Density = 2.070954 g / cm^3
# Si number density = 20.756784 Si / 1000 Ang^3
#
#
#
# Elastic Constant Matrix: (Units=GPa)
#
#
# Indices 1 2 3 4 5 6 
#
# 1 59.2289 12.3564 2.2515 0.0000 9.3091 0.0000
# 2 12.3564 113.0285 29.1671 0.0000 6.2586 0.0000
# 3 2.2515 29.1671 92.3187 0.0000 27.1640 0.0000
# 4 0.0000 0.0000 0.0000 3.8782 0.0000 4.8070
# 5 9.3091 6.2586 27.1640 0.0000 31.5109 0.0000
# 6 0.0000 0.0000 0.0000 4.8070 0.0000 26.7322
#
#
#
# Elastic Compliance Matrix: (Units=1/GPa)
#
#
# Indices 1 2 3 4 5 6 
#
# 1 0.018353 -0.002215 0.002302 0.000000 -0.006966 0.000000
# 2 -0.002215 0.009921 -0.003608 0.000000 0.001794 0.000000
# 3 0.002302 -0.003608 0.015951 0.000000 -0.013714 0.000000
# 4 0.000000 0.000000 0.000000 0.331801 0.000000 -0.059664
# 5 -0.006966 0.001794 -0.013714 0.000000 0.045259 0.000000
# 6 0.000000 0.000000 0.000000 -0.059664 0.000000 0.048137
#
#
# Mechanical properties :
#
#
# Convention : Reuss Voigt Hill
#
# Bulk Modulus (GPa) = 26.89393 39.12510 33.00951
# Shear Modulus (GPa) = 10.22789 27.14435 18.68612
#
# Velocity S-wave (km/s) = 2.22220 3.62018 3.00366
# Velocity P-wave (km/s) = 4.42369 6.03030 5.28836
#
# Compressibility (1/GPa) = 0.03718312
#
# Stress axis : x y z
#
# Youngs Moduli (GPa) = 54.48673 100.79387 62.69121
#
# Poissons Ratio (x) = 0.22322 -0.14431
# Poissons Ratio (y) = 0.12067 0.22622
# Poissons Ratio (z) = -0.12542 0.36371
#
# Static dielectric constant tensor:
#      x y z
#    x 1.811160 0.000000 -0.012270 
#    y 0.000000 1.754190 0.000000 
#    z -0.012270 0.000000 1.733830 
# 
# From -- ./inp_files/29404.got.cif
#   From: 2010.05.17/outbox.cif.g08.bks.cpg/sg14_15_cif.got.tgz:29404.got - 2010.06.03 17:49:19.
