data_PCOD9244874
_publ_section_title
;
Structure prediction by ZEFSAII (Michael W. Deem and Ramdas Pophale) SiO2 
 PCOD9244874
Probable space group: P 21/C
;
_chemical_formula_sum "Si O2"
_cell_formula_units_Z 32
_cell_length_a 6.957941
_cell_length_b 14.310928
_cell_length_c 14.557671
_cell_angle_alpha 90.000000
_cell_angle_beta 115.160774
_cell_angle_gamma 90.000000
_cell_volume 1312.036156
_symmetry_space_group_name_H-M "P 21/C"
_symmetry_group_IT_number 14
_symmetry_cell_setting 'monoclinic'
loop_
_space_group_symop_operation_xyz
x,y,z
-x,1/2+y,1/2-z
-x,-y,-z
x,1/2-y,1/2+z
loop_
_atom_site_type_symbol
_atom_site_label
_atom_site_fract_x
_atom_site_fract_y
_atom_site_fract_z
Si Si1 0.831227 0.749940 0.959123
Si Si2 0.333722 0.540541 0.598253
Si Si3 0.829824 0.556323 0.043973
Si Si4 0.905773 0.594816 0.596721
Si Si5 0.393814 0.376068 0.725842
Si Si6 0.278884 0.695029 0.454368
Si Si7 0.404349 0.618318 0.049465
Si Si8 0.060610 0.931738 0.771090
O O1 0.655461 0.795307 0.857517
O O2 0.054742 0.782210 0.959692
O O3 0.817937 0.640413 0.969806
O O4 0.831479 0.800910 0.059133
O O5 0.210050 0.468930 0.504581
O O6 0.466979 0.471645 0.689722
O O7 0.409277 0.621433 0.544571
O O8 0.156473 0.588591 0.625957
O O9 0.620454 0.567292 0.065458
O O10 0.018049 0.569338 0.154979
O O11 0.790533 0.453983 0.994545
O O12 0.878085 0.536435 0.683557
O O13 0.550589 0.346235 0.838537
O O14 0.162440 0.404187 0.722288
O O15 0.380680 0.796293 0.474259
O O16 0.221310 0.642954 0.348595
#
# Coordination Sequence:
#
# PCOD9244874 Si02
#       8
#     4   4   4   4   4   4   4   4
#     4   9  17  31  53  75  93 121 164 206 236 273
#     4   7  11  23  46  71  88 110 153 197 226 266
#     4  10  21  34  47  68 101 134 159 190 238 292
#     4   7  11  23  46  71  88 110 153 197 226 266
#     4   8  15  30  50  71  97 128 158 192 240 289
#     4   9  17  31  53  75  93 121 164 206 236 273
#     4  10  21  34  47  68 101 134 159 190 238 292
#     4   8  15  30  50  71  97 128 158 192 240 289
#
# _framework density 24.389571
#
# number of rings (size 3 to 8) (size 9 to 14) (size 15 to 20)
#    0.000    3.500    0.000    3.000    0.000    2.500 
#    0.000    3.750    0.000    8.250    0.000    0.000 
#    0.000    0.000    0.000    0.000    0.000    0.000 
#
# Total GULP energy -178677.287702 kJ/mol
# GULP energy per Si atom -5583.665241 kJ/mol
# Density = 2.433406 g / cm^3
# Si number density = 24.389571 Si / 1000 Ang^3
#
#
#
# Elastic Constant Matrix: (Units=GPa)
#
#
# Indices 1 2 3 4 5 6 
#
# 1 73.2399 8.9658 11.1066 0.0000 -1.7812 0.0000
# 2 8.9658 128.2671 59.3112 0.0000 6.4112 0.0000
# 3 11.1066 59.3112 131.8233 0.0000 -1.2714 0.0000
# 4 0.0000 0.0000 0.0000 19.8963 0.0000 -1.6712
# 5 -1.7812 6.4112 -1.2714 0.0000 13.1641 0.0000
# 6 0.0000 0.0000 0.0000 -1.6712 0.0000 32.1376
#
#
#
# Elastic Compliance Matrix: (Units=1/GPa)
#
#
# Indices 1 2 3 4 5 6 
#
# 1 0.013918 -0.000691 -0.000841 0.000000 0.002138 0.000000
# 2 -0.000691 0.010252 -0.004608 0.000000 -0.005531 0.000000
# 3 -0.000841 -0.004608 0.009760 0.000000 0.003073 0.000000
# 4 0.000000 0.000000 0.000000 0.050481 0.000000 0.002625
# 5 0.002138 -0.005531 0.003073 0.000000 0.079244 0.000000
# 6 0.000000 0.000000 0.000000 0.002625 0.000000 0.031253
#
#
# Mechanical properties :
#
#
# Convention : Reuss Voigt Hill
#
# Bulk Modulus (GPa) = 46.18982 54.67749 50.43365
# Shear Modulus (GPa) = 23.32061 29.96938 26.64500
#
# Velocity S-wave (km/s) = 3.09556 3.50920 3.30885
# Velocity P-wave (km/s) = 5.63525 6.23589 5.94317
#
# Compressibility (1/GPa) = 0.02164979
#
# Stress axis : x y z
#
# Youngs Moduli (GPa) = 71.84995 97.54612 102.46394
#
# Poissons Ratio (x) = 0.06738 0.08619
# Poissons Ratio (y) = 0.04963 0.47212
# Poissons Ratio (z) = 0.06044 0.44946
#
# Static dielectric constant tensor:
#      x y z
#    x 2.067000 0.000000 -0.009670 
#    y 0.000000 1.915340 0.000000 
#    z -0.009670 0.000000 1.926160 
# 
# From -- ./inp_files/57597.got.cif
#   From: 2010.05.17/outbox.cif.g08.bks.cpg/sg14_29_cif.got.tgz:57597.got - 2010.06.03 17:49:19.
