data_PCOD9244168
_publ_section_title
;
Structure prediction by ZEFSAII (Michael W. Deem and Ramdas Pophale) SiO2 
 PCOD9244168
Probable space group: P 21/C
;
_chemical_formula_sum "Si O2"
_cell_formula_units_Z 28
_cell_length_a 12.987337
_cell_length_b 8.011713
_cell_length_c 13.405919
_cell_angle_alpha 90.000000
_cell_angle_beta 118.579003
_cell_angle_gamma 90.000000
_cell_volume 1224.940278
_symmetry_space_group_name_H-M "P 21/C"
_symmetry_group_IT_number 14
_symmetry_cell_setting 'monoclinic'
loop_
_space_group_symop_operation_xyz
x,y,z
-x,1/2+y,1/2-z
-x,-y,-z
x,1/2-y,1/2+z
loop_
_atom_site_type_symbol
_atom_site_label
_atom_site_fract_x
_atom_site_fract_y
_atom_site_fract_z
Si Si1 0.669659 0.757352 0.773193
Si Si2 0.954794 0.157258 0.261096
Si Si3 0.264663 0.451685 0.372067
Si Si4 0.524332 0.511975 0.841736
Si Si5 0.396259 0.707452 0.943499
Si Si6 0.853241 0.747223 0.011428
Si Si7 0.167571 0.540147 0.861036
O O1 0.682180 0.701646 0.664642
O O2 0.603079 0.601665 0.795948
O O3 0.591393 0.921391 0.755049
O O4 0.799957 0.773592 0.878941
O O5 0.850276 0.029696 0.236142
O O6 0.900462 0.286871 0.158770
O O7 0.011686 0.238937 0.387941
O O8 0.068913 0.074030 0.264921
O O9 0.357242 0.601366 0.425469
O O10 0.212828 0.381849 0.450362
O O11 0.493257 0.655549 0.908618
O O12 0.576881 0.361803 0.933778
O O13 0.283602 0.594824 0.859546
O O14 0.808808 0.564356 0.028765
#
# Coordination Sequence:
#
# PCOD9244168 Si02
#       7
#     4   4   4   4   4   4   4
#     4  12  26  39  64  93 130 160 221 260 309 375
#     4   9  17  35  64  89 125 157 208 245 321 373
#     4  11  23  40  66  95 121 173 205 259 316 380
#     4  11  24  43  59  92 124 169 210 268 308 361
#     4  10  22  41  67  83 126 170 212 255 317 368
#     4  10  20  40  60  93 124 163 202 260 311 371
#     4   9  16  34  61  90 117 160 202 251 303 377
#
# _framework density 22.858259
#
# number of rings (size 3 to 8) (size 9 to 14) (size 15 to 20)
#    0.857    0.857    2.857    1.714    4.000    1.143 
#    0.000    0.000    0.000    5.143    0.000    0.000 
#    0.000    0.000    0.000    0.000    0.000    0.000 
#
# Total GULP energy -156009.171292 kJ/mol
# GULP energy per Si atom -5571.756118 kJ/mol
# Density = 2.280623 g / cm^3
# Si number density = 22.858259 Si / 1000 Ang^3
#
#
#
# Elastic Constant Matrix: (Units=GPa)
#
#
# Indices 1 2 3 4 5 6 
#
# 1 31.6318 -4.9965 3.7440 0.0000 2.9703 0.0000
# 2 -4.9965 40.0183 11.0267 0.0000 6.2942 0.0000
# 3 3.7440 11.0267 53.0732 0.0000 10.5430 0.0000
# 4 0.0000 0.0000 0.0000 31.7363 0.0000 14.9932
# 5 2.9703 6.2942 10.5430 0.0000 19.4393 0.0000
# 6 0.0000 0.0000 0.0000 14.9932 0.0000 35.6342
#
#
#
# Elastic Compliance Matrix: (Units=1/GPa)
#
#
# Indices 1 2 3 4 5 6 
#
# 1 0.033332 0.005714 -0.002420 0.000000 -0.005631 0.000000
# 2 0.005714 0.028186 -0.004789 0.000000 -0.007402 0.000000
# 3 -0.002420 -0.004789 0.021996 0.000000 -0.010009 0.000000
# 4 0.000000 0.000000 0.000000 0.039327 0.000000 -0.016547
# 5 -0.005631 -0.007402 -0.010009 0.000000 0.060128 0.000000
# 6 0.000000 0.000000 0.000000 -0.016547 0.000000 0.035025
#
#
# Mechanical properties :
#
#
# Convention : Reuss Voigt Hill
#
# Bulk Modulus (GPa) = 12.41868 16.03019 14.22443
# Shear Modulus (GPa) = 20.17566 25.02524 22.60045
#
# Velocity S-wave (km/s) = 2.97415 3.31237 3.14781
# Velocity P-wave (km/s) = 4.15196 4.65372 4.40999
#
# Compressibility (1/GPa) = 0.08052388
#
# Stress axis : x y z
#
# Youngs Moduli (GPa) = 30.00161 35.47906 45.46307
#
# Poissons Ratio (x) = -0.20273 0.11002
# Poissons Ratio (y) = -0.17143 0.21771
# Poissons Ratio (z) = 0.07260 0.16990
#
# Static dielectric constant tensor:
#      x y z
#    x 1.854170 0.000000 0.048400 
#    y 0.000000 1.884560 0.000000 
#    z 0.048400 0.000000 1.918670 
# 
# From -- ./inp_files/46553.got.cif
#   From: 2010.05.17/outbox.cif.g08.bks.cpg/sg14_24_cif.got.tgz:46553.got - 2010.06.03 17:49:19.
