data_PCOD9244227
_publ_section_title
;
Structure prediction by ZEFSAII (Michael W. Deem and Ramdas Pophale) SiO2 
 PCOD9244227
Probable space group: P 21/C
;
_chemical_formula_sum "Si O2"
_cell_formula_units_Z 28
_cell_length_a 17.331017
_cell_length_b 7.766955
_cell_length_c 15.648083
_cell_angle_alpha 90.000000
_cell_angle_beta 139.380159
_cell_angle_gamma 90.000000
_cell_volume 1371.329191
_symmetry_space_group_name_H-M "P 21/C"
_symmetry_group_IT_number 14
_symmetry_cell_setting 'monoclinic'
loop_
_space_group_symop_operation_xyz
x,y,z
-x,1/2+y,1/2-z
-x,-y,-z
x,1/2-y,1/2+z
loop_
_atom_site_type_symbol
_atom_site_label
_atom_site_fract_x
_atom_site_fract_y
_atom_site_fract_z
Si Si1 0.085738 0.857884 0.905406
Si Si2 0.745898 0.041847 0.478281
Si Si3 0.937792 0.767633 0.614280
Si Si4 0.520568 0.747102 0.033459
Si Si5 0.307157 0.962888 0.378517
Si Si6 0.374323 0.927087 0.783867
Si Si7 0.127693 0.747856 0.627882
O O1 0.990308 0.810941 0.752430
O O2 0.098552 0.065535 0.917349
O O3 0.195525 0.732844 0.971218
O O4 0.064082 0.800508 0.985553
O O5 0.728690 0.974849 0.559017
O O6 0.631938 0.051542 0.322463
O O7 0.833201 0.901783 0.509842
O O8 0.036492 0.804925 0.624267
O O9 0.612334 0.593381 0.105791
O O10 0.585622 0.903130 0.133320
O O11 0.396430 0.696433 0.973050
O O12 0.472341 0.791384 0.898124
O O13 0.194360 0.913168 0.227996
O O14 0.241580 0.868471 0.701387
#
# Coordination Sequence:
#
# PCOD9244227 Si02
#       7
#     4   4   4   4   4   4   4
#     4  11  23  40  59  89 127 161 212 247 296 368
#     4  11  24  41  60  94 126 159 214 252 306 375
#     4  12  23  42  60  91 129 171 204 254 303 366
#     4   9  20  40  64  87 119 159 206 258 321 367
#     4  10  20  40  64  88 123 162 202 261 312 373
#     4   9  21  40  61  93 118 156 208 260 310 376
#     4  10  22  40  63  89 128 163 203 257 305 373
#
# _framework density 20.418147000000001
#
# number of rings (size 3 to 8) (size 9 to 14) (size 15 to 20)
#    0.000    1.714    2.857    0.429    2.000    4.571 
#    5.143    0.000    0.000    0.000    0.000    0.000 
#    0.000    0.000    0.000    0.000    0.000    0.000 
#
# Total GULP energy -156053.240463 kJ/mol
# GULP energy per Si atom -5573.330017 kJ/mol
# Density = 2.037167 g / cm^3
# Si number density = 20.418147 Si / 1000 Ang^3
#
#
#
# Elastic Constant Matrix: (Units=GPa)
#
#
# Indices 1 2 3 4 5 6 
#
# 1 41.7190 -9.5960 -3.0880 0.0000 -11.6161 0.0000
# 2 -9.5960 64.5015 1.9218 0.0000 0.2215 0.0000
# 3 -3.0880 1.9218 78.1005 0.0000 -22.3243 0.0000
# 4 0.0000 0.0000 0.0000 6.6319 0.0000 -2.2504
# 5 -11.6161 0.2215 -22.3243 0.0000 21.1960 0.0000
# 6 0.0000 0.0000 0.0000 -2.2504 0.0000 14.2943
#
#
#
# Elastic Compliance Matrix: (Units=1/GPa)
#
#
# Indices 1 2 3 4 5 6 
#
# 1 0.033522 0.004616 0.009227 0.000000 0.028042 0.000000
# 2 0.004616 0.016160 0.000658 0.000000 0.003054 0.000000
# 3 0.009227 0.000658 0.020883 0.000000 0.027045 0.000000
# 4 0.000000 0.000000 0.000000 0.159296 0.000000 0.025078
# 5 0.028042 0.003054 0.027045 0.000000 0.090999 0.000000
# 6 0.000000 0.000000 0.000000 0.025078 0.000000 0.073906
#
#
# Mechanical properties :
#
#
# Convention : Reuss Voigt Hill
#
# Bulk Modulus (GPa) = 10.04342 18.08851 14.06597
# Shear Modulus (GPa) = 12.53277 21.42998 16.98138
#
# Velocity S-wave (km/s) = 2.48020 3.24320 2.88702
# Velocity P-wave (km/s) = 3.62373 4.78568 4.24465
#
# Compressibility (1/GPa) = 0.09956765
#
# Stress axis : x y z
#
# Youngs Moduli (GPa) = 29.83081 61.88058 47.88543
#
# Poissons Ratio (x) = -0.28564 -0.44185
# Poissons Ratio (y) = -0.13770 -0.03149
# Poissons Ratio (z) = -0.27526 -0.04070
#
# Static dielectric constant tensor:
#      x y z
#    x 1.740880 0.000000 -0.012560 
#    y 0.000000 1.773220 0.000000 
#    z -0.012560 0.000000 1.711540 
# 
# From -- ./inp_files/48582.got.cif
#   From: 2010.05.17/outbox.cif.g08.bks.cpg/sg14_25_cif.got.tgz:48582.got - 2010.06.03 17:49:19.
