data_PCOD9244447
_publ_section_title
;
Structure prediction by ZEFSAII (Michael W. Deem and Ramdas Pophale) SiO2 
 PCOD9244447
Probable space group: P 21/C
;
_chemical_formula_sum "Si O2"
_cell_formula_units_Z 18
_cell_length_a 6.955457
_cell_length_b 7.231767
_cell_length_c 18.433467
_cell_angle_alpha 90.000000
_cell_angle_beta 134.974947
_cell_angle_gamma 90.000000
_cell_volume 655.921609
_symmetry_space_group_name_H-M "P 21/C"
_symmetry_group_IT_number 14
_symmetry_cell_setting 'monoclinic'
loop_
_space_group_symop_operation_xyz
x,y,z
-x,1/2+y,1/2-z
-x,-y,-z
x,1/2-y,1/2+z
loop_
_atom_site_type_symbol
_atom_site_label
_atom_site_fract_x
_atom_site_fract_y
_atom_site_fract_z
Si Si1 0.369099 0.158699 0.562414
Si Si2 0.500000 0.000000 0.000000
Si Si3 0.100057 0.600199 0.876994
Si Si4 0.541261 0.839057 0.165622
Si Si5 0.222139 0.386401 0.660219
O O1 0.363341 0.355291 0.520504
O O2 0.180277 0.014651 0.469005
O O3 0.294995 0.220721 0.623591
O O4 0.672842 0.091265 0.623475
O O5 0.561868 0.851217 0.086175
O O6 0.808262 0.548904 0.766111
O O7 0.072865 0.824506 0.888032
O O8 0.586468 0.645165 0.218979
O O9 0.276759 0.927898 0.132456
#
# Coordination Sequence:
#
# PCOD9244447 Si02
#       5
#     4   2   4   4   4
#     4  10  20  41  63  87 126 157 213 246 321 364
#     4  10  22  38  58  96 126 160 202 268 298 372
#     4   9  21  39  63  89 120 172 199 254 309 387
#     4   9  21  41  61  89 130 157 212 252 318 362
#     4   9  20  40  58  93 119 162 204 256 304 375
#
# _framework density 27.442304
#
# number of rings (size 3 to 8) (size 9 to 14) (size 15 to 20)
#    1.333    1.333    0.000    0.667    0.000    7.111 
#   12.000    2.222    0.000    0.000    0.000    0.000 
#    0.000    0.000    0.000    0.000    0.000    0.000 
#
# Total GULP energy -100235.042385 kJ/mol
# GULP energy per Si atom -5568.613466 kJ/mol
# Density = 2.737984 g / cm^3
# Si number density = 27.442304 Si / 1000 Ang^3
#
#
#
# Elastic Constant Matrix: (Units=GPa)
#
#
# Indices 1 2 3 4 5 6 
#
# 1 126.3089 0.6150 65.8524 0.0000 -28.4413 0.0000
# 2 0.6150 82.4604 -4.9754 0.0000 -12.9951 0.0000
# 3 65.8524 -4.9754 89.8986 0.0000 -14.3022 0.0000
# 4 0.0000 0.0000 0.0000 29.1555 0.0000 -15.5323
# 5 -28.4413 -12.9951 -14.3022 0.0000 65.4195 0.0000
# 6 0.0000 0.0000 0.0000 -15.5323 0.0000 41.6575
#
#
#
# Elastic Compliance Matrix: (Units=1/GPa)
#
#
# Indices 1 2 3 4 5 6 
#
# 1 0.013706 -0.000058 -0.009425 0.000000 0.003887 0.000000
# 2 -0.000058 0.012631 0.001178 0.000000 0.002741 0.000000
# 3 -0.009425 0.001178 0.018108 0.000000 0.000095 0.000000
# 4 0.000000 0.000000 0.000000 0.042801 0.000000 0.015959
# 5 0.003887 0.002741 0.000095 0.000000 0.017541 0.000000
# 6 0.000000 0.000000 0.000000 0.015959 0.000000 0.029956
#
#
# Mechanical properties :
#
#
# Convention : Reuss Voigt Hill
#
# Bulk Modulus (GPa) = 35.92753 46.85020 41.38887
# Shear Modulus (GPa) = 31.12718 43.05825 37.09272
#
# Velocity S-wave (km/s) = 3.37156 3.96542 3.68048
# Velocity P-wave (km/s) = 5.31761 6.17052 5.75988
#
# Compressibility (1/GPa) = 0.02783381
#
# Stress axis : x y z
#
# Youngs Moduli (GPa) = 72.95832 79.17338 55.22407
#
# Poissons Ratio (x) = 0.00462 0.52049
# Poissons Ratio (y) = 0.00426 -0.06505
# Poissons Ratio (z) = 0.68764 -0.09326
#
# Static dielectric constant tensor:
#      x y z
#    x 1.921170 0.000000 -0.007390 
#    y 0.000000 2.106280 0.000000 
#    z -0.007390 0.000000 1.977850 
# 
# From -- ./inp_files/62964.got.cif
#   From: 2010.05.17/outbox.cif.g08.bks.cpg/sg14_32_cif.got.tgz:62964.got - 2010.06.03 17:49:19.
