data_PCOD9244885
_publ_section_title
;
Structure prediction by ZEFSAII (Michael W. Deem and Ramdas Pophale) SiO2 
 PCOD9244885
Probable space group: P 21/C
;
_chemical_formula_sum "Si O2"
_cell_formula_units_Z 32
_cell_length_a 11.745897
_cell_length_b 26.173277
_cell_length_c 5.172915
_cell_angle_alpha 90.000000
_cell_angle_beta 104.036732
_cell_angle_gamma 90.000000
_cell_volume 1542.816365
_symmetry_space_group_name_H-M "P 21/C"
_symmetry_group_IT_number 14
_symmetry_cell_setting 'monoclinic'
loop_
_space_group_symop_operation_xyz
x,y,z
-x,1/2+y,1/2-z
-x,-y,-z
x,1/2-y,1/2+z
loop_
_atom_site_type_symbol
_atom_site_label
_atom_site_fract_x
_atom_site_fract_y
_atom_site_fract_z
Si Si1 0.905022 0.937123 0.157022
Si Si2 0.714620 0.781572 0.395986
Si Si3 0.650170 0.457129 0.935961
Si Si4 0.555366 0.555662 0.763607
Si Si5 0.647363 0.383552 0.552701
Si Si6 0.432772 0.780775 0.242703
Si Si7 0.209766 0.107527 0.410311
Si Si8 0.843030 0.044225 0.906605
O O1 0.878583 0.917053 0.428005
O O2 0.039259 0.931644 0.140822
O O3 0.826941 0.907001 0.900858
O O4 0.876311 0.997490 0.111927
O O5 0.741344 0.737727 0.622216
O O6 0.573293 0.790514 0.318599
O O7 0.780008 0.832371 0.524088
O O8 0.609460 0.500913 0.709543
O O9 0.675279 0.399142 0.861890
O O10 0.545711 0.453871 0.082001
O O11 0.766237 0.478894 0.131709
O O12 0.484377 0.591357 0.529277
O O13 0.662034 0.585434 0.951622
O O14 0.633193 0.329335 0.413686
O O15 0.751987 0.415639 0.477176
O O16 0.406601 0.764639 0.522492
#
# Coordination Sequence:
#
# PCOD9244885 Si02
#       8
#     4   4   4   4   4   4   4   4
#     4  11  26  41  64  91 129 168 219 253 301 367
#     4  10  21  39  62  90 124 157 202 257 319 377
#     4  10  21  36  59  88 132 162 207 247 311 378
#     4  10  21  34  55  97 126 163 196 247 313 386
#     4  11  22  37  65  86 129 170 203 259 317 380
#     4  10  23  39  60  92 124 158 203 256 312 379
#     4  12  23  40  65  92 125 166 203 262 309 372
#     4  10  24  41  60  92 124 174 213 255 300 372
#
# _framework density 20.741288000000001
#
# number of rings (size 3 to 8) (size 9 to 14) (size 15 to 20)
#    0.000    1.500    2.500    1.875    7.000    2.000 
#    0.000    0.000    0.000    4.500    0.000    0.000 
#    0.000    0.000    0.000    0.000    0.000    0.000 
#
# Total GULP energy -178490.055117 kJ/mol
# GULP energy per Si atom -5577.814222 kJ/mol
# Density = 2.069408 g / cm^3
# Si number density = 20.741288 Si / 1000 Ang^3
#
#
#
# Elastic Constant Matrix: (Units=GPa)
#
#
# Indices 1 2 3 4 5 6 
#
# 1 73.3670 0.5749 -0.0206 0.0000 13.3201 0.0000
# 2 0.5749 63.3739 -6.2918 0.0000 10.2539 0.0000
# 3 -0.0206 -6.2918 27.8271 0.0000 -26.9550 0.0000
# 4 0.0000 0.0000 0.0000 28.5780 0.0000 1.0710
# 5 13.3201 10.2539 -26.9550 0.0000 2.4071 0.0000
# 6 0.0000 0.0000 0.0000 1.0710 0.0000 14.5601
#
#
#
# Elastic Compliance Matrix: (Units=1/GPa)
#
#
# Indices 1 2 3 4 5 6 
#
# 1 0.012392 -0.000574 0.006517 0.000000 0.006853 0.000000
# 2 -0.000574 0.015980 0.006017 0.000000 0.002482 0.000000
# 3 0.006517 0.006017 0.002281 0.000000 -0.036154 0.000000
# 4 0.000000 0.000000 0.000000 0.035089 0.000000 -0.002581
# 5 0.006853 0.002482 -0.036154 0.000000 -0.037908 0.000000
# 6 0.000000 0.000000 0.000000 -0.002581 0.000000 0.068871
#
#
# Mechanical properties :
#
#
# Convention : Reuss Voigt Hill
#
# Bulk Modulus (GPa) = 18.32375 17.01032 17.66704
# Shear Modulus (GPa) = 54.95933 20.46273 37.71103
#
# Velocity S-wave (km/s) = 5.15316 3.14438 4.26862
# Velocity P-wave (km/s) = 6.65285 4.62621 5.72984
#
# Compressibility (1/GPa) = 0.05457397
#
# Stress axis : x y z
#
# Youngs Moduli (GPa) = 80.69529 62.57682 438.40166
#
# Poissons Ratio (x) = 0.03593 -2.85720
# Poissons Ratio (y) = 0.04633 -2.63785
# Poissons Ratio (z) = -0.52592 -0.37652
#
# Static dielectric constant tensor:
#      x y z
#    x 1.714150 0.000000 -0.015650 
#    y 0.000000 1.803780 0.000000 
#    z -0.015650 0.000000 1.851020 
# 
# From -- ./inp_files/3164.got.cif
#   From: 2010.05.17/outbox.cif.g08.bks.cpg/sg14_2_cif.got.tgz:3164.got - 2010.06.03 17:49:19.
