data_PCOD9244504
_publ_section_title
;
Structure prediction by ZEFSAII (Michael W. Deem and Ramdas Pophale) SiO2 
 PCOD9244504
Probable space group: P 21/C
;
_chemical_formula_sum "Si O2"
_cell_formula_units_Z 32
_cell_length_a 11.628061
_cell_length_b 13.437948
_cell_length_c 18.277457
_cell_angle_alpha 90.000000
_cell_angle_beta 153.386572
_cell_angle_gamma 90.000000
_cell_volume 1279.392007
_symmetry_space_group_name_H-M "P 21/C"
_symmetry_group_IT_number 14
_symmetry_cell_setting 'monoclinic'
loop_
_space_group_symop_operation_xyz
x,y,z
-x,1/2+y,1/2-z
-x,-y,-z
x,1/2-y,1/2+z
loop_
_atom_site_type_symbol
_atom_site_label
_atom_site_fract_x
_atom_site_fract_y
_atom_site_fract_z
Si Si1 0.177832 0.788435 0.530997
Si Si2 0.552508 0.256065 0.551695
Si Si3 0.303842 0.188499 0.538202
Si Si4 0.845971 0.442452 0.177714
Si Si5 0.383841 0.986546 0.308267
Si Si6 0.724558 0.674169 0.346097
Si Si7 0.194529 0.902412 0.687936
Si Si8 0.761386 0.903153 0.207813
O O1 0.469087 0.764699 0.674565
O O2 0.217583 0.871022 0.617590
O O3 0.986491 0.708355 0.456901
O O4 0.006717 0.839251 0.372287
O O5 0.299460 0.211213 0.449042
O O6 0.737523 0.168575 0.631651
O O7 0.671848 0.321597 0.684214
O O8 0.468288 0.330665 0.441318
O O9 0.263480 0.288478 0.562915
O O10 0.100086 0.112200 0.455983
O O11 0.568418 0.125157 0.694035
O O12 0.827359 0.491334 0.247552
O O13 0.127897 0.451082 0.304044
O O14 0.639191 0.486559 0.001830
O O15 0.327870 0.063034 0.211742
O O16 0.287896 0.011483 0.761579
#
# Coordination Sequence:
#
# PCOD9244504 Si02
#       8
#     4   4   4   4   4   4   4   4
#     4  11  24  42  70  96 138 179 234 283 352 411
#     4  11  23  39  64  98 135 172 229 290 344 408
#     4  10  21  41  70  91 134 187 224 278 354 418
#     4  10  21  39  65  92 134 177 223 275 349 414
#     4  10  20  41  66  96 129 180 236 269 343 424
#     4  11  22  44  69 100 134 182 234 289 340 422
#     4  11  22  42  63  94 133 179 229 284 350 413
#     4  12  23  40  67 102 132 179 230 291 345 417
#
# _framework density 25.011879
#
# number of rings (size 3 to 8) (size 9 to 14) (size 15 to 20)
#    0.000    1.250    3.750    2.250    0.000    1.000 
#    2.250    1.875    0.000    0.000    0.000    0.000 
#    0.000    0.000    0.000    0.000    0.000    0.000 
#
# Total GULP energy -178833.094565 kJ/mol
# GULP energy per Si atom -5588.534205 kJ/mol
# Density = 2.495495 g / cm^3
# Si number density = 25.011879 Si / 1000 Ang^3
#
#
#
# Elastic Constant Matrix: (Units=GPa)
#
#
# Indices 1 2 3 4 5 6 
#
# 1 81.7945 20.9999 8.0310 0.0000 -14.4120 0.0000
# 2 20.9999 81.3944 28.9820 0.0000 -18.6982 0.0000
# 3 8.0310 28.9820 56.5872 0.0000 -4.1550 0.0000
# 4 0.0000 0.0000 0.0000 25.9892 0.0000 -20.1599
# 5 -14.4120 -18.6982 -4.1550 0.0000 30.8724 0.0000
# 6 0.0000 0.0000 0.0000 -20.1599 0.0000 31.1496
#
#
#
# Elastic Compliance Matrix: (Units=1/GPa)
#
#
# Indices 1 2 3 4 5 6 
#
# 1 0.013723 -0.002239 -0.000434 0.000000 0.004991 0.000000
# 2 -0.002239 0.017736 -0.008134 0.000000 0.008602 0.000000
# 3 -0.000434 -0.008134 0.021738 0.000000 -0.002204 0.000000
# 4 0.000000 0.000000 0.000000 0.077269 0.000000 0.050008
# 5 0.004991 0.008602 -0.002204 0.000000 0.039635 0.000000
# 6 0.000000 0.000000 0.000000 0.050008 0.000000 0.064468
#
#
# Mechanical properties :
#
#
# Convention : Reuss Voigt Hill
#
# Bulk Modulus (GPa) = 31.66461 37.31131 34.48796
# Shear Modulus (GPa) = 18.74685 28.38644 23.56664
#
# Velocity S-wave (km/s) = 2.74070 3.37251 3.07289
# Velocity P-wave (km/s) = 4.76472 5.48771 5.13894
#
# Compressibility (1/GPa) = 0.03158100
#
# Stress axis : x y z
#
# Youngs Moduli (GPa) = 72.87154 56.38241 46.00283
#
# Poissons Ratio (x) = 0.12625 0.01997
# Poissons Ratio (y) = 0.16318 0.37420
# Poissons Ratio (z) = 0.03164 0.45863
#
# Static dielectric constant tensor:
#      x y z
#    x 2.028670 0.000000 0.035790 
#    y 0.000000 2.014620 0.000000 
#    z 0.035790 0.000000 2.023770 
# 
# From -- ./inp_files/58019.got.cif
#   From: 2010.05.17/outbox.cif.g08.bks.cpg/sg14_30_cif.got.tgz:58019.got - 2010.06.03 17:49:19.
