data_PCOD9244174
_publ_section_title
;
Structure prediction by ZEFSAII (Michael W. Deem and Ramdas Pophale) SiO2 
 PCOD9244174
Probable space group: P 21/C
;
_chemical_formula_sum "Si O2"
_cell_formula_units_Z 24
_cell_length_a 21.270302
_cell_length_b 10.274144
_cell_length_c 15.442464
_cell_angle_alpha 90.000000
_cell_angle_beta 157.787110
_cell_angle_gamma 90.000000
_cell_volume 1275.804353
_symmetry_space_group_name_H-M "P 21/C"
_symmetry_group_IT_number 14
_symmetry_cell_setting 'monoclinic'
loop_
_space_group_symop_operation_xyz
x,y,z
-x,1/2+y,1/2-z
-x,-y,-z
x,1/2-y,1/2+z
loop_
_atom_site_type_symbol
_atom_site_label
_atom_site_fract_x
_atom_site_fract_y
_atom_site_fract_z
Si Si1 0.452393 0.210958 0.909218
Si Si2 0.326921 0.958425 0.087189
Si Si3 0.526788 0.544728 0.398234
Si Si4 0.781058 0.336228 0.085361
Si Si5 0.156216 0.386528 0.512927
Si Si6 0.657834 0.051105 0.604950
O O1 0.274918 0.262068 0.649731
O O2 0.522959 0.093714 0.941423
O O3 0.431989 0.154932 0.979316
O O4 0.575912 0.333125 0.057095
O O5 0.353401 0.037280 0.031714
O O6 0.186884 0.020324 0.969889
O O7 0.501737 0.976164 0.361710
O O8 0.285483 0.810463 0.011186
O O9 0.343084 0.574411 0.128554
O O10 0.761220 0.383917 0.158955
O O11 0.967737 0.349999 0.290178
O O12 0.233541 0.459944 0.695185
#
# Coordination Sequence:
#
# PCOD9244174 Si02
#       6
#     4   4   4   4   4   4
#     4  10  20  40  61  84 115 152 202 230 295 349
#     4  10  21  40  61  84 117 155 202 236 284 351
#     4  10  21  38  63  85 111 160 197 240 276 358
#     4  11  22  37  60  89 120 146 199 244 296 334
#     4  11  23  37  60  88 122 150 191 247 300 338
#     4  10  20  40  63  85 114 162 194 233 286 362
#
# _framework density 18.811661000000001
#
# number of rings (size 3 to 8) (size 9 to 14) (size 15 to 20)
#    0.000    1.667    1.667    4.500    2.333    0.000 
#    0.000    4.167    0.000    0.000    0.000    0.000 
#    0.000    0.000    0.000    0.000    0.000    0.000 
#
# Total GULP energy -134053.964331 kJ/mol
# GULP energy per Si atom -5585.581847 kJ/mol
# Density = 1.876884 g / cm^3
# Si number density = 18.811661 Si / 1000 Ang^3
#
#
#
# Elastic Constant Matrix: (Units=GPa)
#
#
# Indices 1 2 3 4 5 6 
#
# 1 105.5656 23.7561 14.4797 0.0000 -0.9282 0.0000
# 2 23.7561 62.5202 16.4657 0.0000 -1.9341 0.0000
# 3 14.4797 16.4657 37.8622 0.0000 17.0501 0.0000
# 4 0.0000 0.0000 0.0000 12.6097 0.0000 -2.3629
# 5 -0.9282 -1.9341 17.0501 0.0000 30.1026 0.0000
# 6 0.0000 0.0000 0.0000 -2.3629 0.0000 23.4228
#
#
#
# Elastic Compliance Matrix: (Units=1/GPa)
#
#
# Indices 1 2 3 4 5 6 
#
# 1 0.010689 -0.002981 -0.003831 0.000000 0.002308 0.000000
# 2 -0.002981 0.020263 -0.011030 0.000000 0.007458 0.000000
# 3 -0.003831 -0.011030 0.044360 0.000000 -0.025953 0.000000
# 4 0.000000 0.000000 0.000000 0.080832 0.000000 0.008154
# 5 0.002308 0.007458 -0.025953 0.000000 0.048470 0.000000
# 6 0.000000 0.000000 0.000000 0.008154 0.000000 0.043516
#
#
# Mechanical properties :
#
#
# Convention : Reuss Voigt Hill
#
# Bulk Modulus (GPa) = 25.23440 35.03898 30.13669
# Shear Modulus (GPa) = 16.83358 23.31012 20.07185
#
# Velocity S-wave (km/s) = 2.99465 3.52395 3.27002
# Velocity P-wave (km/s) = 5.03990 5.93500 5.50567
#
# Compressibility (1/GPa) = 0.03962844
#
# Stress axis : x y z
#
# Youngs Moduli (GPa) = 93.55037 49.34993 22.54265
#
# Poissons Ratio (x) = 0.14714 0.08635
# Poissons Ratio (y) = 0.27892 0.24865
# Poissons Ratio (z) = 0.35835 0.54435
#
# Static dielectric constant tensor:
#      x y z
#    x 1.667460 0.000000 -0.013370 
#    y 0.000000 1.654480 0.000000 
#    z -0.013370 0.000000 1.612350 
# 
# From -- ./inp_files/61732.got.cif
#   From: 2010.05.17/outbox.cif.g08.bks.cpg/sg14_31_cif.got.tgz:61732.got - 2010.06.03 17:49:19.
