data_PCOD9244348
_publ_section_title
;
Structure prediction by ZEFSAII (Michael W. Deem and Ramdas Pophale) SiO2 
 PCOD9244348
Probable space group: P 21/C
;
_chemical_formula_sum "Si O2"
_cell_formula_units_Z 20
_cell_length_a 8.496971
_cell_length_b 8.202679
_cell_length_c 14.251997
_cell_angle_alpha 90.000000
_cell_angle_beta 127.176794
_cell_angle_gamma 90.000000
_cell_volume 791.463927
_symmetry_space_group_name_H-M "P 21/C"
_symmetry_group_IT_number 14
_symmetry_cell_setting 'monoclinic'
loop_
_space_group_symop_operation_xyz
x,y,z
-x,1/2+y,1/2-z
-x,-y,-z
x,1/2-y,1/2+z
loop_
_atom_site_type_symbol
_atom_site_label
_atom_site_fract_x
_atom_site_fract_y
_atom_site_fract_z
Si Si1 0.119342 0.649601 0.473276
Si Si2 0.719108 0.654884 0.826368
Si Si3 0.704793 0.354313 0.264070
Si Si4 0.571078 0.428740 0.926598
Si Si5 0.702042 0.451292 0.629335
O O1 0.163135 0.612391 0.597548
O O2 0.134727 0.522452 0.392934
O O3 0.916764 0.744385 0.399389
O O4 0.310265 0.763529 0.515880
O O5 0.500725 0.725748 0.769471
O O6 0.725566 0.531201 0.918256
O O7 0.708949 0.568506 0.721966
O O8 0.633423 0.530128 0.201081
O O9 0.750837 0.224094 0.198898
O O10 0.500000 0.500000 0.000000
O O11 0.500000 0.500000 0.500000
#
# Coordination Sequence:
#
# PCOD9244348 Si02
#       5
#     4   4   4   4   4
#     4  12  22  45  68  97 140 175 226 292 334 416
#     4  10  24  43  68 101 133 182 230 275 349 412
#     4  10  22  41  68  92 140 175 225 280 344 401
#     4  10  20  40  67  98 128 183 224 271 355 404
#     4  12  23  44  68 101 135 181 227 285 349 410
#
# _framework density 25.269629999999999
#
# number of rings (size 3 to 8) (size 9 to 14) (size 15 to 20)
#    1.200    0.000    6.000    0.600    0.000    0.000 
#   10.800    1.000    0.000    0.000    0.000    0.000 
#    0.000    0.000    0.000    0.000    0.000    0.000 
#
# Total GULP energy -111397.168689 kJ/mol
# GULP energy per Si atom -5569.858434 kJ/mol
# Density = 2.521211 g / cm^3
# Si number density = 25.269630 Si / 1000 Ang^3
#
#
#
# Elastic Constant Matrix: (Units=GPa)
#
#
# Indices 1 2 3 4 5 6 
#
# 1 137.9250 22.3224 49.9116 0.0000 -42.6581 0.0000
# 2 22.3224 43.1505 25.2995 0.0000 -11.8043 0.0000
# 3 49.9116 25.2995 164.7072 0.0000 -42.8984 0.0000
# 4 0.0000 0.0000 0.0000 36.8401 0.0000 -4.2559
# 5 -42.6581 -11.8043 -42.8984 0.0000 50.6182 0.0000
# 6 0.0000 0.0000 0.0000 -4.2559 0.0000 52.8325
#
#
#
# Elastic Compliance Matrix: (Units=1/GPa)
#
#
# Indices 1 2 3 4 5 6 
#
# 1 0.010255 -0.002854 -0.000759 0.000000 0.007333 0.000000
# 2 -0.002854 0.026718 -0.002878 0.000000 0.001387 0.000000
# 3 -0.000759 -0.002878 0.008215 0.000000 0.005652 0.000000
# 4 0.000000 0.000000 0.000000 0.027399 0.000000 0.002207
# 5 0.007333 0.001387 0.005652 0.000000 0.031049 0.000000
# 6 0.000000 0.000000 0.000000 0.002207 0.000000 0.019106
#
#
# Mechanical properties :
#
#
# Convention : Reuss Voigt Hill
#
# Bulk Modulus (GPa) = 31.05000 60.09440 45.57220
# Shear Modulus (GPa) = 34.13912 44.60810 39.37361
#
# Velocity S-wave (km/s) = 3.67957 4.20609 3.95161
# Velocity P-wave (km/s) = 5.51058 6.88630 6.23649
#
# Compressibility (1/GPa) = 0.03220612
#
# Stress axis : x y z
#
# Youngs Moduli (GPa) = 97.51285 37.42832 121.72130
#
# Poissons Ratio (x) = 0.10681 0.09242
# Poissons Ratio (y) = 0.27828 0.35032
# Poissons Ratio (z) = 0.07404 0.10772
#
# Static dielectric constant tensor:
#      x y z
#    x 4.114770 0.000000 -3.761880 
#    y 0.000000 2.166760 0.000000 
#    z -3.761880 0.000000 8.525570 
# 
# From -- ./inp_files/39414.got.cif
#   From: 2010.05.17/outbox.cif.g08.bks.cpg/sg14_20_cif.got.tgz:39414.got - 2010.06.03 17:49:19.
