data_PCOD9244182
_publ_section_title
;
Structure prediction by ZEFSAII (Michael W. Deem and Ramdas Pophale) SiO2 
 PCOD9244182
Probable space group: P 21/C
;
_chemical_formula_sum "Si O2"
_cell_formula_units_Z 26
_cell_length_a 5.161108
_cell_length_b 18.967573
_cell_length_c 10.187253
_cell_angle_alpha 90.000000
_cell_angle_beta 91.450609
_cell_angle_gamma 90.000000
_cell_volume 996.948210
_symmetry_space_group_name_H-M "P 21/C"
_symmetry_group_IT_number 14
_symmetry_cell_setting 'monoclinic'
loop_
_space_group_symop_operation_xyz
x,y,z
-x,1/2+y,1/2-z
-x,-y,-z
x,1/2-y,1/2+z
loop_
_atom_site_type_symbol
_atom_site_label
_atom_site_fract_x
_atom_site_fract_y
_atom_site_fract_z
Si Si1 0.277479 0.618359 0.705097
Si Si2 0.229000 0.039095 0.734008
Si Si3 0.664901 0.591166 0.023707
Si Si4 0.159519 0.681181 0.952471
Si Si5 0.246121 0.103932 0.179645
Si Si6 0.500000 0.500000 0.500000
Si Si7 0.733491 0.335035 0.577219
O O1 0.575852 0.605642 0.744895
O O2 0.183574 0.682787 0.792796
O O3 0.065746 0.560832 0.746844
O O4 0.289541 0.611994 0.548206
O O5 0.279710 0.027619 0.579524
O O6 0.342509 0.991350 0.850910
O O7 0.712488 0.573462 0.175375
O O8 0.386555 0.628713 0.002923
O O9 0.886237 0.649401 0.991337
O O10 0.211788 0.760992 0.992849
O O11 0.972039 0.142587 0.168360
O O12 0.467585 0.161891 0.151855
O O13 0.269427 0.049504 0.059551
#
# Coordination Sequence:
#
# PCOD9244182 Si02
#       7
#     4   4   4   4   4   2   4
#     4  10  20  40  61  94 122 166 201 263 302 389
#     4  10  22  41  66  88 126 160 218 252 323 359
#     4  10  23  45  62 100 127 173 205 269 307 403
#     4  10  23  40  69  88 138 165 209 251 334 363
#     4  12  27  40  67  93 133 161 225 255 324 370
#     4  12  24  46  66  96 120 178 204 290 310 376
#     4  12  23  42  62 102 124 172 209 265 302 403
#
# _framework density 26.079591000000001
#
# number of rings (size 3 to 8) (size 9 to 14) (size 15 to 20)
#    0.000    1.231    3.077    1.846    4.308    3.077 
#    0.000    0.000    0.000    7.385    0.000    0.000 
#    0.000    0.000    0.000    0.000    0.000    0.000 
#
# Total GULP energy -145041.688270 kJ/mol
# GULP energy per Si atom -5578.526472 kJ/mol
# Density = 2.602023 g / cm^3
# Si number density = 26.079591 Si / 1000 Ang^3
#
#
#
# Elastic Constant Matrix: (Units=GPa)
#
#
# Indices 1 2 3 4 5 6 
#
# 1 156.3012 28.8870 25.9127 0.0000 15.2049 0.0000
# 2 28.8870 45.5179 14.2603 0.0000 5.7862 0.0000
# 3 25.9127 14.2603 193.5543 0.0000 -3.1352 0.0000
# 4 0.0000 0.0000 0.0000 24.1745 0.0000 -6.8396
# 5 15.2049 5.7862 -3.1352 0.0000 39.0937 0.0000
# 6 0.0000 0.0000 0.0000 -6.8396 0.0000 23.7854
#
#
#
# Elastic Compliance Matrix: (Units=1/GPa)
#
#
# Indices 1 2 3 4 5 6 
#
# 1 0.007535 -0.004252 -0.000734 0.000000 -0.002360 0.000000
# 2 -0.004252 0.025367 -0.001335 0.000000 -0.002208 0.000000
# 3 -0.000734 -0.001335 0.005378 0.000000 0.000914 0.000000
# 4 0.000000 0.000000 0.000000 0.045029 0.000000 0.012948
# 5 -0.002360 -0.002208 0.000914 0.000000 0.026898 0.000000
# 6 0.000000 0.000000 0.000000 0.012948 0.000000 0.045766
#
#
# Mechanical properties :
#
#
# Convention : Reuss Voigt Hill
#
# Bulk Modulus (GPa) = 39.00553 59.27706 49.14129
# Shear Modulus (GPa) = 28.22293 39.16494 33.69394
#
# Velocity S-wave (km/s) = 3.29323 3.87944 3.59829
# Velocity P-wave (km/s) = 5.42672 6.54564 6.01226
#
# Compressibility (1/GPa) = 0.02563739
#
# Stress axis : x y z
#
# Youngs Moduli (GPa) = 132.71427 39.42150 185.94487
#
# Poissons Ratio (x) = 0.16762 0.13643
# Poissons Ratio (y) = 0.56431 0.24832
# Poissons Ratio (z) = 0.09738 0.05265
#
# Static dielectric constant tensor:
#      x y z
#    x 1.952270 0.000000 0.004940 
#    y 0.000000 1.895020 0.000000 
#    z 0.004940 0.000000 2.118730 
# 
# From -- ./inp_files/6286.got.cif
#   From: 2010.05.17/outbox.cif.g08.bks.cpg/sg14_4_cif.got.tgz:6286.got - 2010.06.03 17:49:19.
