data_PCOD9244764
_publ_section_title
;
Structure prediction by ZEFSAII (Michael W. Deem and Ramdas Pophale) SiO2 
 PCOD9244764
Probable space group: P 21/C
;
_chemical_formula_sum "Si O2"
_cell_formula_units_Z 18
_cell_length_a 15.493062
_cell_length_b 8.510597
_cell_length_c 21.171726
_cell_angle_alpha 90.000000
_cell_angle_beta 164.207698
_cell_angle_gamma 90.000000
_cell_volume 759.737265
_symmetry_space_group_name_H-M "P 21/C"
_symmetry_group_IT_number 14
_symmetry_cell_setting 'monoclinic'
loop_
_space_group_symop_operation_xyz
x,y,z
-x,1/2+y,1/2-z
-x,-y,-z
x,1/2-y,1/2+z
loop_
_atom_site_type_symbol
_atom_site_label
_atom_site_fract_x
_atom_site_fract_y
_atom_site_fract_z
Si Si1 0.500000 0.000000 0.500000
Si Si2 0.583160 0.963799 0.913267
Si Si3 0.547057 0.536410 0.238653
Si Si4 0.179890 0.709297 0.665731
Si Si5 0.194518 0.695616 0.891776
O O1 0.663704 0.131025 0.662732
O O2 0.553168 0.116115 0.476876
O O3 0.854868 0.835337 0.121404
O O4 0.728079 0.124451 0.041483
O O5 0.538718 0.982757 0.807346
O O6 0.271510 0.890910 0.724991
O O7 0.678961 0.380756 0.296663
O O8 0.810129 0.670210 0.408944
O O9 0.229208 0.599519 0.981922
#
# Coordination Sequence:
#
# PCOD9244764 Si02
#       5
#     2   4   4   4   4
#     4  10  20  44  62  92 128 176 208 274 332 396
#     4  12  24  43  66 103 131 180 229 276 329 418
#     4  10  22  44  65  96 133 179 215 286 327 402
#     4  10  22  41  69  92 135 177 222 270 347 384
#     4  11  24  41  70  95 137 176 224 276 343 392
#
# _framework density 23.692401
#
# number of rings (size 3 to 8) (size 9 to 14) (size 15 to 20)
#    0.000    1.333    2.222    4.000    0.000    1.778 
#    4.000    0.000    0.000    0.000    0.000    0.000 
#    0.000    0.000    0.000    0.000    0.000    0.000 
#
# Total GULP energy -100237.683028 kJ/mol
# GULP energy per Si atom -5568.760168 kJ/mol
# Density = 2.363848 g / cm^3
# Si number density = 23.692401 Si / 1000 Ang^3
#
#
#
# Elastic Constant Matrix: (Units=GPa)
#
#
# Indices 1 2 3 4 5 6 
#
# 1 95.9435 18.7876 54.8640 0.0000 -42.0862 0.0000
# 2 18.7876 56.1580 51.4982 0.0000 -0.5414 0.0000
# 3 54.8640 51.4982 39.2802 0.0000 -32.7764 0.0000
# 4 0.0000 0.0000 0.0000 39.9156 0.0000 -2.1531
# 5 -42.0862 -0.5414 -32.7764 0.0000 35.2293 0.0000
# 6 0.0000 0.0000 0.0000 -2.1531 0.0000 0.9920
#
#
#
# Elastic Compliance Matrix: (Units=1/GPa)
#
#
# Indices 1 2 3 4 5 6 
#
# 1 0.025113 -0.007647 -0.000513 0.000000 0.029405 0.000000
# 2 -0.007647 -0.001841 0.024358 0.000000 0.013498 0.000000
# 3 -0.000513 0.024358 -0.026637 0.000000 -0.025022 0.000000
# 4 0.000000 0.000000 0.000000 0.028375 0.000000 0.061587
# 5 0.029405 0.013498 -0.025022 0.000000 0.040442 0.000000
# 6 0.000000 0.000000 0.000000 0.061587 0.000000 1.141759
#
#
# Mechanical properties :
#
#
# Convention : Reuss Voigt Hill
#
# Bulk Modulus (GPa) = 34.44912 49.07571 41.76242
# Shear Modulus (GPa) = 4.22122 19.64283 11.93202
#
# Velocity S-wave (km/s) = 1.33624 2.88249 2.24659
# Velocity P-wave (km/s) = 4.11733 5.64243 4.93910
#
# Compressibility (1/GPa) = 0.02902832
#
# Stress axis : x y z
#
# Youngs Moduli (GPa) = 39.82064 -543.18149 -37.54133
#
# Poissons Ratio (x) = -4.15382 -0.01927
# Poissons Ratio (y) = 0.30452 0.91441
# Poissons Ratio (z) = 0.02044 13.23055
#
# Static dielectric constant tensor:
#      x y z
#    x 1.882640 0.000000 0.009510 
#    y 0.000000 1.934250 0.000000 
#    z 0.009510 0.000000 2.026360 
# 
# From -- ./inp_files/64297.got.cif
#   From: 2010.05.17/outbox.cif.g08.bks.cpg/sg14_33_cif.got.tgz:64297.got - 2010.06.03 17:49:19.
