data_PCOD9244895
_publ_section_title
;
Structure prediction by ZEFSAII (Michael W. Deem and Ramdas Pophale) SiO2 
 PCOD9244895
Probable space group: P 21/C
;
_chemical_formula_sum "Si O2"
_cell_formula_units_Z 28
_cell_length_a 15.702801
_cell_length_b 9.118507
_cell_length_c 9.698959
_cell_angle_alpha 90.000000
_cell_angle_beta 119.895130
_cell_angle_gamma 90.000000
_cell_volume 1203.967004
_symmetry_space_group_name_H-M "P 21/C"
_symmetry_group_IT_number 14
_symmetry_cell_setting 'monoclinic'
loop_
_space_group_symop_operation_xyz
x,y,z
-x,1/2+y,1/2-z
-x,-y,-z
x,1/2-y,1/2+z
loop_
_atom_site_type_symbol
_atom_site_label
_atom_site_fract_x
_atom_site_fract_y
_atom_site_fract_z
Si Si1 0.767694 0.077758 0.211954
Si Si2 0.716361 0.761211 0.597606
Si Si3 0.899775 0.682185 0.400411
Si Si4 0.405876 0.335814 0.746519
Si Si5 0.437115 0.597752 0.560103
Si Si6 0.088969 0.489713 0.963829
Si Si7 0.935926 0.426808 0.628477
O O1 0.736506 0.908371 0.156701
O O2 0.818313 0.081749 0.403791
O O3 0.854625 0.118252 0.174027
O O4 0.664104 0.151683 0.093874
O O5 0.820562 0.829629 0.715928
O O6 0.640960 0.840176 0.640118
O O7 0.670329 0.755823 0.410260
O O8 0.882668 0.819822 0.485071
O O9 0.889199 0.540168 0.485623
O O10 0.007128 0.691919 0.417108
O O11 0.419378 0.488005 0.675599
O O12 0.502720 0.238010 0.840189
O O13 0.500000 0.500000 0.500000
O O14 0.028608 0.510626 0.774880
O O15 0.000000 0.500000 0.000000
#
# Coordination Sequence:
#
# PCOD9244895 Si02
#       7
#     4   4   4   4   4   4   4
#     4   9  19  38  61  85 121 163 207 257 314 371
#     4  10  21  37  69  94 118 166 225 267 308 390
#     4  10  21  34  60  87 118 153 209 258 301 373
#     4  11  22  41  69 100 127 171 220 276 332 387
#     4  11  22  42  66  96 134 168 223 277 332 389
#     4   9  20  34  57  79 111 161 202 240 303 368
#     4  10  21  35  56  90 120 154 201 264 309 364
#
# _framework density 23.256450000000001
#
# number of rings (size 3 to 8) (size 9 to 14) (size 15 to 20)
#    0.000    2.000    2.857    1.714   10.000    0.571 
#    0.000    2.857   12.571    0.000    0.000    0.000 
#    0.000    0.000    0.000    0.000    0.000    0.000 
#
# Total GULP energy -156245.822502 kJ/mol
# GULP energy per Si atom -5580.207946 kJ/mol
# Density = 2.320352 g / cm^3
# Si number density = 23.256450 Si / 1000 Ang^3
#
#
#
# Elastic Constant Matrix: (Units=GPa)
#
#
# Indices 1 2 3 4 5 6 
#
# 1 79.7092 7.9369 2.4097 0.0000 11.5817 0.0000
# 2 7.9369 26.2830 4.5753 0.0000 7.4537 0.0000
# 3 2.4097 4.5753 107.9902 0.0000 37.9703 0.0000
# 4 0.0000 0.0000 0.0000 25.9348 0.0000 1.7025
# 5 11.5817 7.4537 37.9703 0.0000 52.5239 0.0000
# 6 0.0000 0.0000 0.0000 1.7025 0.0000 25.5493
#
#
#
# Elastic Compliance Matrix: (Units=1/GPa)
#
#
# Indices 1 2 3 4 5 6 
#
# 1 0.013303 -0.003288 0.000952 0.000000 -0.003155 0.000000
# 2 -0.003288 0.040469 0.000165 0.000000 -0.005137 0.000000
# 3 0.000952 0.000165 0.012488 0.000000 -0.009261 0.000000
# 4 0.000000 0.000000 0.000000 0.038728 0.000000 -0.002581
# 5 -0.003155 -0.005137 -0.009261 0.000000 0.027159 0.000000
# 6 0.000000 0.000000 0.000000 -0.002581 0.000000 0.039312
#
#
# Mechanical properties :
#
#
# Convention : Reuss Voigt Hill
#
# Bulk Modulus (GPa) = 16.15075 27.09181 21.62128
# Shear Modulus (GPa) = 25.45317 34.07229 29.76273
#
# Velocity S-wave (km/s) = 3.31185 3.83177 3.58126
# Velocity P-wave (km/s) = 4.64587 5.59027 5.13981
#
# Compressibility (1/GPa) = 0.06191662
#
# Stress axis : x y z
#
# Youngs Moduli (GPa) = 75.17320 24.71054 80.07579
#
# Poissons Ratio (x) = 0.08125 -0.07621
# Poissons Ratio (y) = 0.24718 -0.01322
# Poissons Ratio (z) = -0.07154 -0.00408
#
# Static dielectric constant tensor:
#      x y z
#    x 1.931340 0.000000 0.022130 
#    y 0.000000 1.904310 0.000000 
#    z 0.022130 0.000000 1.909860 
# 
# From -- ./inp_files/15879.got.cif
#   From: 2010.05.17/outbox.cif.g08.bks.cpg/sg14_8_cif.got.tgz:15879.got - 2010.06.03 17:49:19.
