data_PCOD9244462
_publ_section_title
;
Structure prediction by ZEFSAII (Michael W. Deem and Ramdas Pophale) SiO2 
 PCOD9244462
Probable space group: P 21/C
;
_chemical_formula_sum "Si O2"
_cell_formula_units_Z 20
_cell_length_a 11.602916
_cell_length_b 12.761279
_cell_length_c 12.335145
_cell_angle_alpha 90.000000
_cell_angle_beta 148.133961
_cell_angle_gamma 90.000000
_cell_volume 964.242102
_symmetry_space_group_name_H-M "P 21/C"
_symmetry_group_IT_number 14
_symmetry_cell_setting 'monoclinic'
loop_
_space_group_symop_operation_xyz
x,y,z
-x,1/2+y,1/2-z
-x,-y,-z
x,1/2-y,1/2+z
loop_
_atom_site_type_symbol
_atom_site_label
_atom_site_fract_x
_atom_site_fract_y
_atom_site_fract_z
Si Si1 0.959532 0.981456 0.127134
Si Si2 0.323480 0.424536 0.804643
Si Si3 0.351817 0.596191 0.484218
Si Si4 0.757533 0.459170 0.834947
Si Si5 0.284603 0.677913 0.980157
O O1 0.129021 0.075744 0.236478
O O2 0.814317 0.003914 0.115087
O O3 0.103975 0.876927 0.258703
O O4 0.794090 0.971367 0.895079
O O5 0.474574 0.331871 0.882143
O O6 0.500000 0.500000 0.000000
O O7 0.591434 0.557643 0.709573
O O8 0.330816 0.607276 0.338453
O O9 0.264832 0.698442 0.475787
O O10 0.735011 0.389472 0.925302
O O11 0.000000 0.500000 0.000000
#
# Coordination Sequence:
#
# PCOD9244462 Si02
#       5
#     4   4   4   4   4
#     4  10  20  41  63  94 133 167 228 282 325 397
#     4   9  20  38  63  91 130 168 219 280 326 391
#     4  11  25  42  68  97 134 183 221 279 340 408
#     4  11  24  47  66  97 141 174 226 286 337 399
#     4  11  23  41  67  96 130 182 224 270 347 403
#
# _framework density 20.741679999999999
#
# number of rings (size 3 to 8) (size 9 to 14) (size 15 to 20)
#    0.000    1.600    4.000    0.000    0.000    8.000 
#    0.000    0.000    0.000    0.000    0.000    0.000 
#    0.000    0.000    0.000    0.000    0.000    0.000 
#
# Total GULP energy -111422.916838 kJ/mol
# GULP energy per Si atom -5571.145842 kJ/mol
# Density = 2.069447 g / cm^3
# Si number density = 20.741680 Si / 1000 Ang^3
#
#
#
# Elastic Constant Matrix: (Units=GPa)
#
#
# Indices 1 2 3 4 5 6 
#
# 1 70.0472 19.0294 40.2219 0.0000 15.7190 0.0000
# 2 19.0294 79.7534 40.5983 0.0000 10.0069 0.0000
# 3 40.2219 40.5983 128.4774 0.0000 2.8313 0.0000
# 4 0.0000 0.0000 0.0000 15.6205 0.0000 6.4428
# 5 15.7190 10.0069 2.8313 0.0000 50.4538 0.0000
# 6 0.0000 0.0000 0.0000 6.4428 0.0000 23.9474
#
#
#
# Elastic Compliance Matrix: (Units=1/GPa)
#
#
# Indices 1 2 3 4 5 6 
#
# 1 0.018908 -0.001054 -0.005468 0.000000 -0.005375 0.000000
# 2 -0.001054 0.015378 -0.004475 0.000000 -0.002471 0.000000
# 3 -0.005468 -0.004475 0.010866 0.000000 0.001981 0.000000
# 4 0.000000 0.000000 0.000000 0.072009 0.000000 -0.019373
# 5 -0.005375 -0.002471 0.001981 0.000000 0.021874 0.000000
# 6 0.000000 0.000000 0.000000 -0.019373 0.000000 0.046971
#
#
# Mechanical properties :
#
#
# Convention : Reuss Voigt Hill
#
# Bulk Modulus (GPa) = 43.18062 53.10858 48.14460
# Shear Modulus (GPa) = 23.17831 29.89957 26.53894
#
# Velocity S-wave (km/s) = 3.34649 3.80086 3.58089
# Velocity P-wave (km/s) = 5.98293 6.70241 6.35287
#
# Compressibility (1/GPa) = 0.02315854
#
# Stress axis : x y z
#
# Youngs Moduli (GPa) = 52.88644 65.02755 92.03156
#
# Poissons Ratio (x) = 0.06851 0.50325
# Poissons Ratio (y) = 0.05572 0.41185
# Poissons Ratio (z) = 0.28919 0.29101
#
# Static dielectric constant tensor:
#      x y z
#    x 1.830370 0.000000 0.032100 
#    y 0.000000 1.752440 0.000000 
#    z 0.032100 0.000000 1.761350 
# 
# From -- ./inp_files/30076.got.cif
#   From: 2010.05.17/outbox.cif.g08.bks.cpg/sg14_16_cif.got.tgz:30076.got - 2010.06.03 17:49:19.
