data_PCOD9244959
_publ_section_title
;
Structure prediction by ZEFSAII (Michael W. Deem and Ramdas Pophale) SiO2 
 PCOD9244959
Probable space group: P 21/C
;
_chemical_formula_sum "Si O2"
_cell_formula_units_Z 20
_cell_length_a 20.791105
_cell_length_b 7.210805
_cell_length_c 8.410500
_cell_angle_alpha 90.000000
_cell_angle_beta 44.004470
_cell_angle_gamma 90.000000
_cell_volume 875.970528
_symmetry_space_group_name_H-M "P 21/C"
_symmetry_group_IT_number 14
_symmetry_cell_setting 'monoclinic'
loop_
_space_group_symop_operation_xyz
x,y,z
-x,1/2+y,1/2-z
-x,-y,-z
x,1/2-y,1/2+z
loop_
_atom_site_type_symbol
_atom_site_label
_atom_site_fract_x
_atom_site_fract_y
_atom_site_fract_z
Si Si1 0.002911 0.809184 0.895741
Si Si2 0.372133 0.143572 0.663901
Si Si3 0.894038 0.451913 0.080566
Si Si4 0.500993 0.866064 0.848473
Si Si5 0.691290 0.009542 0.912610
O O1 0.026798 0.875434 0.677559
O O2 0.086218 0.673742 0.802038
O O3 0.914111 0.672203 0.063967
O O4 0.000000 0.000000 0.000000
O O5 0.452122 0.190753 0.651425
O O6 0.426115 0.068086 0.414430
O O7 0.325412 0.327543 0.669660
O O8 0.305622 0.034290 0.902215
O O9 0.792491 0.417074 0.193729
O O10 0.500000 0.000000 0.000000
O O11 0.397544 0.861149 0.964260
#
# Coordination Sequence:
#
# PCOD9244959 Si02
#       5
#     4   4   4   4   4
#     4  11  24  46  67  94 134 171 213 277 347 395
#     4   9  19  36  57  84 131 169 203 270 322 376
#     4  11  25  43  71  98 128 177 221 274 336 396
#     4   9  18  35  56  82 120 168 203 254 326 371
#     4  10  21  35  59  94 120 164 227 261 314 395
#
# _framework density 22.831821000000001
#
# number of rings (size 3 to 8) (size 9 to 14) (size 15 to 20)
#    0.000    2.000    2.000    0.600    2.800    1.600 
#    0.000    0.000    0.000    0.000    0.000    0.000 
#    0.000    0.000    0.000    0.000    0.000    0.000 
#
# Total GULP energy -111437.427163 kJ/mol
# GULP energy per Si atom -5571.871358 kJ/mol
# Density = 2.277985 g / cm^3
# Si number density = 22.831821 Si / 1000 Ang^3
#
#
#
# Elastic Constant Matrix: (Units=GPa)
#
#
# Indices 1 2 3 4 5 6 
#
# 1 77.2100 12.6632 27.6792 0.0000 0.5292 0.0000
# 2 12.6632 88.0080 19.3984 0.0000 4.6443 0.0000
# 3 27.6792 19.3984 72.6172 0.0000 14.1497 0.0000
# 4 0.0000 0.0000 0.0000 25.5915 0.0000 6.3551
# 5 0.5292 4.6443 14.1497 0.0000 51.1014 0.0000
# 6 0.0000 0.0000 0.0000 6.3551 0.0000 40.6886
#
#
#
# Elastic Compliance Matrix: (Units=1/GPa)
#
#
# Indices 1 2 3 4 5 6 
#
# 1 0.015192 -0.000983 -0.005829 0.000000 0.001546 0.000000
# 2 -0.000983 0.012139 -0.002807 0.000000 -0.000316 0.000000
# 3 -0.005829 -0.002807 0.017632 0.000000 -0.004567 0.000000
# 4 0.000000 0.000000 0.000000 0.040652 0.000000 -0.006349
# 5 0.001546 -0.000316 -0.004567 0.000000 0.020846 0.000000
# 6 0.000000 0.000000 0.000000 -0.006349 0.000000 0.025569
#
#
# Mechanical properties :
#
#
# Convention : Reuss Voigt Hill
#
# Bulk Modulus (GPa) = 38.87082 39.70189 39.28635
# Shear Modulus (GPa) = 31.28050 35.34924 33.31487
#
# Velocity S-wave (km/s) = 3.70542 3.93904 3.82402
# Velocity P-wave (km/s) = 5.94716 6.17371 6.06149
#
# Compressibility (1/GPa) = 0.02572624
#
# Stress axis : x y z
#
# Youngs Moduli (GPa) = 65.82376 82.37706 56.71354
#
# Poissons Ratio (x) = 0.08095 0.33061
# Poissons Ratio (y) = 0.06468 0.15918
# Poissons Ratio (z) = 0.38372 0.23121
#
# Static dielectric constant tensor:
#      x y z
#    x 1.879360 0.000000 0.025550 
#    y 0.000000 2.064950 0.000000 
#    z 0.025550 0.000000 2.049940 
# 
# From -- ./inp_files/18476.got.cif
#   From: 2010.05.17/outbox.cif.g08.bks.cpg/sg14_10_cif.got.tgz:18476.got - 2010.06.03 17:49:19.
