data_PCOD9244655
_publ_section_title
;
Structure prediction by ZEFSAII (Michael W. Deem and Ramdas Pophale) SiO2 
 PCOD9244655
Probable space group: P 21/C
;
_chemical_formula_sum "Si O2"
_cell_formula_units_Z 32
_cell_length_a 13.326958
_cell_length_b 10.965523
_cell_length_c 13.564249
_cell_angle_alpha 90.000000
_cell_angle_beta 136.305921
_cell_angle_gamma 90.000000
_cell_volume 1369.346322
_symmetry_space_group_name_H-M "P 21/C"
_symmetry_group_IT_number 14
_symmetry_cell_setting 'monoclinic'
loop_
_space_group_symop_operation_xyz
x,y,z
-x,1/2+y,1/2-z
-x,-y,-z
x,1/2-y,1/2+z
loop_
_atom_site_type_symbol
_atom_site_label
_atom_site_fract_x
_atom_site_fract_y
_atom_site_fract_z
Si Si1 0.056333 0.441217 0.889830
Si Si2 0.288609 0.637668 0.051723
Si Si3 0.955250 0.630289 0.339283
Si Si4 0.818036 0.386111 0.329208
Si Si5 0.430440 0.880991 0.062957
Si Si6 0.588055 0.967164 0.762220
Si Si7 0.761722 0.374009 0.753231
Si Si8 0.252783 0.281206 0.178785
O O1 0.026593 0.374569 0.764492
O O2 0.902602 0.457427 0.835910
O O3 0.137946 0.568554 0.923807
O O4 0.161463 0.359039 0.034215
O O5 0.337820 0.766235 0.041409
O O6 0.422447 0.552378 0.113853
O O7 0.290540 0.637460 0.172125
O O8 0.891853 0.498491 0.326546
O O9 0.848279 0.735282 0.303519
O O10 0.097868 0.639954 0.508535
O O11 0.658100 0.430228 0.243190
O O12 0.817692 0.262619 0.268686
O O13 0.405406 0.988985 0.121431
O O14 0.601099 0.849802 0.185038
O O15 0.366120 0.906219 0.910814
O O16 0.683778 0.845210 0.820991
#
# Coordination Sequence:
#
# PCOD9244655 Si02
#       8
#     4   4   4   4   4   4   4   4
#     4  12  24  44  65 100 133 179 221 274 343 392
#     4  11  25  44  67  97 140 171 219 286 325 404
#     4  10  22  41  68  95 132 177 225 276 324 393
#     4  10  20  42  67  96 129 171 228 275 319 404
#     4  11  23  44  68  98 132 181 220 269 345 398
#     4  10  21  42  68  91 130 175 219 272 329 392
#     4  12  25  41  69  99 135 176 218 276 344 395
#     4  10  23  42  67  99 134 172 230 277 324 399
#
# _framework density 23.368815000000001
#
# number of rings (size 3 to 8) (size 9 to 14) (size 15 to 20)
#    0.000    1.250    3.750    1.875    0.000    3.500 
#    4.500    3.750    0.000    0.000    0.000    0.000 
#    0.000    0.000    0.000    0.000    0.000    0.000 
#
# Total GULP energy -179130.845471 kJ/mol
# GULP energy per Si atom -5597.838921 kJ/mol
# Density = 2.331563 g / cm^3
# Si number density = 23.368815 Si / 1000 Ang^3
#
#
#
# Elastic Constant Matrix: (Units=GPa)
#
#
# Indices 1 2 3 4 5 6 
#
# 1 106.6444 21.1088 43.7529 0.0000 7.8740 0.0000
# 2 21.1088 77.0481 24.0872 0.0000 1.4997 0.0000
# 3 43.7529 24.0872 111.8189 0.0000 0.7761 0.0000
# 4 0.0000 0.0000 0.0000 19.6008 0.0000 4.0071
# 5 7.8740 1.4997 0.7761 0.0000 40.4227 0.0000
# 6 0.0000 0.0000 0.0000 4.0071 0.0000 32.7945
#
#
#
# Elastic Compliance Matrix: (Units=1/GPa)
#
#
# Indices 1 2 3 4 5 6 
#
# 1 0.011589 -0.001845 -0.004123 0.000000 -0.002110 0.000000
# 2 -0.001845 0.014218 -0.002340 0.000000 -0.000123 0.000000
# 3 -0.004123 -0.002340 0.011055 0.000000 0.000678 0.000000
# 4 0.000000 0.000000 0.000000 0.052325 0.000000 -0.006394
# 5 -0.002110 -0.000123 0.000678 0.000000 0.025141 0.000000
# 6 0.000000 0.000000 0.000000 -0.006394 0.000000 0.031274
#
#
# Mechanical properties :
#
#
# Convention : Reuss Voigt Hill
#
# Bulk Modulus (GPa) = 49.38844 52.60103 50.99473
# Shear Modulus (GPa) = 29.59129 32.33443 30.96286
#
# Velocity S-wave (km/s) = 3.56233 3.72379 3.64396
# Velocity P-wave (km/s) = 6.17256 6.40677 6.29076
#
# Compressibility (1/GPa) = 0.02024765
#
# Stress axis : x y z
#
# Youngs Moduli (GPa) = 86.28606 70.33154 90.45276
#
# Poissons Ratio (x) = 0.12978 0.37290
# Poissons Ratio (y) = 0.15922 0.21166
# Poissons Ratio (z) = 0.35572 0.16457
#
# Static dielectric constant tensor:
#      x y z
#    x 1.855110 0.000000 0.015890 
#    y 0.000000 1.921870 0.000000 
#    z 0.015890 0.000000 1.841580 
# 
# From -- ./inp_files/47167.got.cif
#   From: 2010.05.17/outbox.cif.g08.bks.cpg/sg14_24_cif.got.tgz:47167.got - 2010.06.03 17:49:19.
