data_PCOD9244618
_publ_section_title
;
Structure prediction by ZEFSAII (Michael W. Deem and Ramdas Pophale) SiO2 
 PCOD9244618
Probable space group: P 21/C
;
_chemical_formula_sum "Si O2"
_cell_formula_units_Z 28
_cell_length_a 9.200130
_cell_length_b 23.835751
_cell_length_c 8.554319
_cell_angle_alpha 90.000000
_cell_angle_beta 137.770990
_cell_angle_gamma 90.000000
_cell_volume 1260.779938
_symmetry_space_group_name_H-M "P 21/C"
_symmetry_group_IT_number 14
_symmetry_cell_setting 'monoclinic'
loop_
_space_group_symop_operation_xyz
x,y,z
-x,1/2+y,1/2-z
-x,-y,-z
x,1/2-y,1/2+z
loop_
_atom_site_type_symbol
_atom_site_label
_atom_site_fract_x
_atom_site_fract_y
_atom_site_fract_z
Si Si1 0.494773 0.345828 0.743046
Si Si2 0.117032 0.416523 0.585675
Si Si3 0.261423 0.934894 0.402967
Si Si4 0.394531 0.046388 0.593600
Si Si5 0.165388 0.259410 0.019951
Si Si6 0.898899 0.306016 0.526065
Si Si7 0.515721 0.847360 0.124324
O O1 0.319666 0.391428 0.656566
O O2 0.355895 0.288238 0.661012
O O3 0.556987 0.349889 0.612226
O O4 0.696554 0.370882 0.004500
O O5 0.980711 0.448188 0.345900
O O6 0.961722 0.366277 0.512261
O O7 0.203505 0.438889 0.819099
O O8 0.397969 0.947684 0.354247
O O9 0.345876 0.981552 0.594176
O O10 0.428583 0.092415 0.754681
O O11 0.268732 0.309923 0.199172
O O12 0.943890 0.236143 0.919806
O O13 0.086290 0.285566 0.794351
O O14 0.665867 0.314524 0.418040
#
# Coordination Sequence:
#
# PCOD9244618 Si02
#       7
#     4   4   4   4   4   4   4
#     4  10  25  40  63  92 135 163 215 268 321 377
#     4  10  20  42  65  94 126 169 213 264 314 384
#     4  10  21  41  66  97 126 177 212 261 322 390
#     4  10  21  39  69  96 131 164 221 265 317 383
#     4  11  24  43  60  95 127 166 214 271 319 391
#     4  11  24  39  66  92 124 170 212 258 331 383
#     4  12  24  42  65  97 129 170 211 275 322 385
#
# _framework density 22.208476000000001
#
# number of rings (size 3 to 8) (size 9 to 14) (size 15 to 20)
#    0.000    1.429    4.286    0.429    2.000    4.000 
#    0.000    0.714    0.000    0.000    0.000    0.000 
#    0.000    0.000    0.000    0.000    0.000    0.000 
#
# Total GULP energy -156013.418982 kJ/mol
# GULP energy per Si atom -5571.907821 kJ/mol
# Density = 2.215793 g / cm^3
# Si number density = 22.208476 Si / 1000 Ang^3
#
#
#
# Elastic Constant Matrix: (Units=GPa)
#
#
# Indices 1 2 3 4 5 6 
#
# 1 57.8817 4.7314 0.5770 0.0000 -9.7652 0.0000
# 2 4.7314 56.5678 24.5453 0.0000 -4.6471 0.0000
# 3 0.5770 24.5453 76.1527 0.0000 2.1970 0.0000
# 4 0.0000 0.0000 0.0000 36.7793 0.0000 -8.2586
# 5 -9.7652 -4.6471 2.1970 0.0000 16.0034 0.0000
# 6 0.0000 0.0000 0.0000 -8.2586 0.0000 2.0327
#
#
#
# Elastic Compliance Matrix: (Units=1/GPa)
#
#
# Indices 1 2 3 4 5 6 
#
# 1 0.019290 -0.000518 -0.000316 0.000000 0.011663 0.000000
# 2 -0.000518 0.021355 -0.007077 0.000000 0.006856 0.000000
# 3 -0.000316 -0.007077 0.015541 0.000000 -0.004381 0.000000
# 4 0.000000 0.000000 0.000000 0.310084 0.000000 1.259856
# 5 0.011663 0.006856 -0.004381 0.000000 0.072196 0.000000
# 6 0.000000 0.000000 0.000000 1.259856 0.000000 5.610708
#
#
# Mechanical properties :
#
#
# Convention : Reuss Voigt Hill
#
# Bulk Modulus (GPa) = 24.77418 27.81218 26.29318
# Shear Modulus (GPa) = 0.82258 21.67963 11.25111
#
# Velocity S-wave (km/s) = 0.60926 3.12779 2.25325
# Velocity P-wave (km/s) = 3.41679 5.05910 4.31677
#
# Compressibility (1/GPa) = 0.04036460
#
# Stress axis : x y z
#
# Youngs Moduli (GPa) = 51.84068 46.82674 64.34442
#
# Poissons Ratio (x) = 0.02427 0.02031
# Poissons Ratio (y) = 0.02687 0.45537
# Poissons Ratio (z) = 0.01636 0.33140
#
# Static dielectric constant tensor:
#      x y z
#    x 1.807540 0.000000 0.028750 
#    y 0.000000 1.888100 0.000000 
#    z 0.028750 0.000000 1.859480 
# 
# From -- ./inp_files/11100.got.cif
#   From: 2010.05.17/outbox.cif.g08.bks.cpg/sg14_6_cif.got.tgz:11100.got - 2010.06.03 17:49:19.
