data_PCOD9244979
_publ_section_title
;
Structure prediction by ZEFSAII (Michael W. Deem and Ramdas Pophale) SiO2 
 PCOD9244979
Probable space group: P 21/C
;
_chemical_formula_sum "Si O2"
_cell_formula_units_Z 28
_cell_length_a 14.666040
_cell_length_b 17.567773
_cell_length_c 5.172979
_cell_angle_alpha 90.000000
_cell_angle_beta 108.784517
_cell_angle_gamma 90.000000
_cell_volume 1261.825576
_symmetry_space_group_name_H-M "P 21/C"
_symmetry_group_IT_number 14
_symmetry_cell_setting 'monoclinic'
loop_
_space_group_symop_operation_xyz
x,y,z
-x,1/2+y,1/2-z
-x,-y,-z
x,1/2-y,1/2+z
loop_
_atom_site_type_symbol
_atom_site_label
_atom_site_fract_x
_atom_site_fract_y
_atom_site_fract_z
Si Si1 0.231769 0.987738 0.139825
Si Si2 0.030617 0.705442 0.777432
Si Si3 0.396458 0.295269 0.708542
Si Si4 0.815255 0.845833 0.082966
Si Si5 0.860440 0.939550 0.586029
Si Si6 0.444199 0.471254 0.698228
Si Si7 0.067013 0.929342 0.694964
O O1 0.217741 0.990689 0.432129
O O2 0.335517 0.996231 0.118897
O O3 0.162303 0.925209 0.961989
O O4 0.185371 0.077700 0.107502
O O5 0.060443 0.731207 0.519023
O O6 0.913995 0.698946 0.653518
O O7 0.063224 0.628589 0.952072
O O8 0.426166 0.262381 0.010837
O O9 0.280255 0.302803 0.587877
O O10 0.434725 0.380036 0.694187
O O11 0.807634 0.873251 0.373730
O O12 0.970960 0.918926 0.782885
O O13 0.912754 0.984626 0.383571
O O14 0.500000 0.500000 0.500000
O O15 0.500000 0.500000 0.000000
#
# Coordination Sequence:
#
# PCOD9244979 Si02
#       7
#     4   4   4   4   4   4   4
#     4  10  21  35  68  86 122 159 205 264 322 372
#     4  11  24  36  52  79 123 172 207 247 299 362
#     4  11  23  39  67  97 133 167 205 260 338 407
#     4   9  21  33  55  91 126 158 202 242 322 396
#     4   9  18  33  58  89 123 157 199 249 307 366
#     4  11  26  45  69  99 131 167 221 277 334 390
#     4   9  20  35  54  86 118 161 208 249 294 371
#
# _framework density 22.190072000000001
#
# number of rings (size 3 to 8) (size 9 to 14) (size 15 to 20)
#    0.000    2.000    0.000    3.000   16.000    0.000 
#    0.000    0.000    0.000    5.143    0.000    0.000 
#    0.000    0.000    0.000    0.000    0.000    0.000 
#
# Total GULP energy -155946.531740 kJ/mol
# GULP energy per Si atom -5569.518991 kJ/mol
# Density = 2.213957 g / cm^3
# Si number density = 22.190072 Si / 1000 Ang^3
#
#
#
# Elastic Constant Matrix: (Units=GPa)
#
#
# Indices 1 2 3 4 5 6 
#
# 1 119.3631 22.8897 34.0216 0.0000 -10.8653 0.0000
# 2 22.8897 83.4584 17.6045 0.0000 2.2740 0.0000
# 3 34.0216 17.6045 81.1708 0.0000 -10.0885 0.0000
# 4 0.0000 0.0000 0.0000 52.5955 0.0000 -0.5719
# 5 -10.8653 2.2740 -10.0885 0.0000 25.3245 0.0000
# 6 0.0000 0.0000 0.0000 -0.5719 0.0000 33.2725
#
#
#
# Elastic Compliance Matrix: (Units=1/GPa)
#
#
# Indices 1 2 3 4 5 6 
#
# 1 0.010028 -0.002130 -0.003348 0.000000 0.003160 0.000000
# 2 -0.002130 0.013141 -0.002333 0.000000 -0.003023 0.000000
# 3 -0.003348 -0.002333 0.014810 0.000000 0.004673 0.000000
# 4 0.000000 0.000000 0.000000 0.019017 0.000000 0.000327
# 5 0.003160 -0.003023 0.004673 0.000000 0.042976 0.000000
# 6 0.000000 0.000000 0.000000 0.000327 0.000000 0.030060
#
#
# Mechanical properties :
#
#
# Convention : Reuss Voigt Hill
#
# Bulk Modulus (GPa) = 44.73120 48.11376 46.42248
# Shear Modulus (GPa) = 32.65688 36.20363 34.43025
#
# Velocity S-wave (km/s) = 3.84042 4.04359 3.94332
# Velocity P-wave (km/s) = 6.31404 6.59777 6.45746
#
# Compressibility (1/GPa) = 0.02235576
#
# Stress axis : x y z
#
# Youngs Moduli (GPa) = 99.71739 76.09930 67.52250
#
# Poissons Ratio (x) = 0.16211 0.22610
# Poissons Ratio (y) = 0.21242 0.15752
# Poissons Ratio (z) = 0.33390 0.17753
#
# Static dielectric constant tensor:
#      x y z
#    x 1.954870 0.000000 0.102690 
#    y 0.000000 1.921310 0.000000 
#    z 0.102690 0.000000 2.289270 
# 
# From -- ./inp_files/3742.got.cif
#   From: 2010.05.17/outbox.cif.g08.bks.cpg/sg14_2_cif.got.tgz:3742.got - 2010.06.03 17:49:19.
