data_PCOD9244146
_publ_section_title
;
Structure prediction by ZEFSAII (Michael W. Deem and Ramdas Pophale) SiO2 
 PCOD9244146
Probable space group: P 21/C
;
_chemical_formula_sum "Si O2"
_cell_formula_units_Z 32
_cell_length_a 23.196688
_cell_length_b 7.041034
_cell_length_c 11.926651
_cell_angle_alpha 90.000000
_cell_angle_beta 40.474628
_cell_angle_gamma 90.000000
_cell_volume 1264.445383
_symmetry_space_group_name_H-M "P 21/C"
_symmetry_group_IT_number 14
_symmetry_cell_setting 'monoclinic'
loop_
_space_group_symop_operation_xyz
x,y,z
-x,1/2+y,1/2-z
-x,-y,-z
x,1/2-y,1/2+z
loop_
_atom_site_type_symbol
_atom_site_label
_atom_site_fract_x
_atom_site_fract_y
_atom_site_fract_z
Si Si1 0.598886 0.462219 0.893839
Si Si2 0.136279 0.535849 0.327410
Si Si3 0.100160 0.913503 0.650269
Si Si4 0.339483 0.039589 0.468751
Si Si5 0.508695 0.397080 0.605082
Si Si6 0.094732 0.319613 0.616560
Si Si7 0.361004 0.591201 0.407286
Si Si8 0.828550 0.409526 0.316922
O O1 0.652368 0.468256 0.701870
O O2 0.500000 0.500000 0.000000
O O3 0.631061 0.587830 0.947889
O O4 0.586243 0.253867 0.963157
O O5 0.073740 0.498638 0.312758
O O6 0.123815 0.440998 0.465006
O O7 0.132511 0.768049 0.336032
O O8 0.233370 0.466994 0.135615
O O9 0.169302 0.749602 0.583836
O O10 0.012319 0.819367 0.730678
O O11 0.129399 0.104930 0.546403
O O12 0.365661 0.821718 0.396334
O O13 0.407145 0.154915 0.289130
O O14 0.500000 0.500000 0.500000
O O15 0.553248 0.483823 0.652229
O O16 0.124640 0.417145 0.689332
O O17 0.265715 0.533059 0.595278
#
# Coordination Sequence:
#
# PCOD9244146 Si02
#       8
#     4   4   4   4   4   4   4   4
#     4  11  21  36  61  88 118 170 213 266 323 380
#     4   9  22  42  62  93 135 171 218 284 326 397
#     4  10  22  40  66 102 132 172 221 274 327 420
#     4  10  20  40  59  88 126 164 222 267 323 389
#     4  11  22  37  64  89 123 170 216 274 324 390
#     4  12  20  44  70  96 137 177 216 276 347 397
#     4  10  20  40  62  88 130 168 218 267 333 386
#     4   9  22  42  65  98 132 173 224 274 329 405
#
# _framework density 25.307538999999998
#
# number of rings (size 3 to 8) (size 9 to 14) (size 15 to 20)
#    0.750    1.000    3.750    1.125    0.000    0.000 
#    6.750    1.250    5.500    0.000    0.000    0.000 
#    0.000    0.000    0.000    0.000    0.000    0.000 
#
# Total GULP energy -178156.206035 kJ/mol
# GULP energy per Si atom -5567.381439 kJ/mol
# Density = 2.524994 g / cm^3
# Si number density = 25.307539 Si / 1000 Ang^3
#
#
#
# Elastic Constant Matrix: (Units=GPa)
#
#
# Indices 1 2 3 4 5 6 
#
# 1 98.4910 9.9761 21.6202 0.0000 -19.3057 0.0000
# 2 9.9761 81.9789 5.5530 0.0000 -0.8122 0.0000
# 3 21.6202 5.5530 83.8884 0.0000 9.3911 0.0000
# 4 0.0000 0.0000 0.0000 18.6757 0.0000 1.6027
# 5 -19.3057 -0.8122 9.3911 0.0000 36.3812 0.0000
# 6 0.0000 0.0000 0.0000 1.6027 0.0000 41.2294
#
#
#
# Elastic Compliance Matrix: (Units=1/GPa)
#
#
# Indices 1 2 3 4 5 6 
#
# 1 0.012684 -0.001192 -0.004058 0.000000 0.007752 0.000000
# 2 -0.001192 0.012374 -0.000486 0.000000 -0.000231 0.000000
# 3 -0.004058 -0.000486 0.013635 0.000000 -0.005684 0.000000
# 4 0.000000 0.000000 0.000000 0.053725 0.000000 -0.002088
# 5 0.007752 -0.000231 -0.005684 0.000000 0.033062 0.000000
# 6 0.000000 0.000000 0.000000 -0.002088 0.000000 0.024336
#
#
# Mechanical properties :
#
#
# Convention : Reuss Voigt Hill
#
# Bulk Modulus (GPa) = 36.73602 37.62851 37.18227
# Shear Modulus (GPa) = 29.34941 34.40453 31.87697
#
# Velocity S-wave (km/s) = 3.40915 3.69108 3.55291
# Velocity P-wave (km/s) = 5.48122 5.75032 5.61738
#
# Compressibility (1/GPa) = 0.02722124
#
# Stress axis : x y z
#
# Youngs Moduli (GPa) = 78.83842 80.81497 73.34119
#
# Poissons Ratio (x) = 0.09632 0.29761
# Poissons Ratio (y) = 0.09397 0.03565
# Poissons Ratio (z) = 0.31992 0.03928
#
# Static dielectric constant tensor:
#      x y z
#    x 2.084360 0.000000 0.086850 
#    y 0.000000 2.114850 0.000000 
#    z 0.086850 0.000000 2.110470 
# 
# From -- ./inp_files/35738.got.cif
#   From: 2010.05.17/outbox.cif.g08.bks.cpg/sg14_18_cif.got.tgz:35738.got - 2010.06.03 17:49:19.
