data_PCOD9244542
_publ_section_title
;
Structure prediction by ZEFSAII (Michael W. Deem and Ramdas Pophale) SiO2 
 PCOD9244542
Probable space group: P 21/C
;
_chemical_formula_sum "Si O2"
_cell_formula_units_Z 20
_cell_length_a 22.311035
_cell_length_b 7.226280
_cell_length_c 27.768647
_cell_angle_alpha 90.000000
_cell_angle_beta 170.004334
_cell_angle_gamma 90.000000
_cell_volume 777.093190
_symmetry_space_group_name_H-M "P 21/C"
_symmetry_group_IT_number 14
_symmetry_cell_setting 'monoclinic'
loop_
_space_group_symop_operation_xyz
x,y,z
-x,1/2+y,1/2-z
-x,-y,-z
x,1/2-y,1/2+z
loop_
_atom_site_type_symbol
_atom_site_label
_atom_site_fract_x
_atom_site_fract_y
_atom_site_fract_z
Si Si1 0.517363 0.892745 0.718876
Si Si2 0.182432 0.460118 0.195579
Si Si3 0.632061 0.899844 0.704680
Si Si4 0.741070 0.721012 0.603444
Si Si5 0.507813 0.670487 0.312975
O O1 0.596587 0.807734 0.729443
O O2 0.701829 0.864944 0.916116
O O3 0.134799 0.817520 0.426374
O O4 0.548540 0.109452 0.732605
O O5 0.356960 0.259134 0.326462
O O6 0.479407 0.614852 0.432661
O O7 0.000000 0.500000 0.000000
O O8 0.855893 0.439545 0.972341
O O9 0.364364 0.064221 0.482458
O O10 0.000000 0.000000 0.000000
O O11 0.691254 0.639139 0.509521
#
# Coordination Sequence:
#
# PCOD9244542 Si02
#       5
#     4   4   4   4   4
#     4  11  25  41  66 100 130 168 221 271 321 387
#     4  10  20  41  69  92 128 175 213 265 330 389
#     4  11  21  42  67  95 128 176 216 261 332 387
#     4  10  24  43  68  96 128 175 220 266 325 384
#     4  10  24  42  64  98 129 172 211 266 336 375
#
# _framework density 25.736937000000001
#
# number of rings (size 3 to 8) (size 9 to 14) (size 15 to 20)
#    0.000    1.600    6.000    0.000   11.200    0.800 
#    0.000    1.000    0.000    0.000    0.000    0.000 
#    0.000    0.000    0.000    0.000    0.000    0.000 
#
# Total GULP energy -111814.079202 kJ/mol
# GULP energy per Si atom -5590.703960 kJ/mol
# Density = 2.567836 g / cm^3
# Si number density = 25.736937 Si / 1000 Ang^3
#
#
#
# Elastic Constant Matrix: (Units=GPa)
#
#
# Indices 1 2 3 4 5 6 
#
# 1 106.9849 22.8074 12.3878 0.0000 -3.6925 0.0000
# 2 22.8074 123.5279 23.2714 0.0000 5.4779 0.0000
# 3 12.3878 23.2714 90.1307 0.0000 3.0546 0.0000
# 4 0.0000 0.0000 0.0000 29.8676 0.0000 12.1458
# 5 -3.6925 5.4779 3.0546 0.0000 23.7964 0.0000
# 6 0.0000 0.0000 0.0000 12.1458 0.0000 33.2517
#
#
#
# Elastic Compliance Matrix: (Units=1/GPa)
#
#
# Indices 1 2 3 4 5 6 
#
# 1 0.009902 -0.001734 -0.000983 0.000000 0.002062 0.000000
# 2 -0.001734 0.008881 -0.001985 0.000000 -0.002059 0.000000
# 3 -0.000983 -0.001985 0.011784 0.000000 -0.001208 0.000000
# 4 0.000000 0.000000 0.000000 0.039322 0.000000 -0.014363
# 5 0.002062 -0.002059 -0.001208 0.000000 0.042972 0.000000
# 6 0.000000 0.000000 0.000000 -0.014363 0.000000 0.035320
#
#
# Mechanical properties :
#
#
# Convention : Reuss Voigt Hill
#
# Bulk Modulus (GPa) = 47.25536 48.61963 47.93750
# Shear Modulus (GPa) = 30.36955 34.86160 32.61557
#
# Velocity S-wave (km/s) = 3.43884 3.68439 3.56373
# Velocity P-wave (km/s) = 5.84536 6.08537 5.96657
#
# Compressibility (1/GPa) = 0.02116162
#
# Stress axis : x y z
#
# Youngs Moduli (GPa) = 100.99111 112.60258 84.86423
#
# Poissons Ratio (x) = 0.19531 0.08342
# Poissons Ratio (y) = 0.17517 0.16844
# Poissons Ratio (z) = 0.09927 0.22350
#
# Static dielectric constant tensor:
#      x y z
#    x 2.135970 0.000000 0.009790 
#    y 0.000000 2.079080 0.000000 
#    z 0.009790 0.000000 2.009820 
# 
# From -- ./inp_files/54439.got.cif
#   From: 2010.05.17/outbox.cif.g08.bks.cpg/sg14_28_cif.got.tgz:54439.got - 2010.06.03 17:49:19.
