data_PCOD9244517
_publ_section_title
;
Structure prediction by ZEFSAII (Michael W. Deem and Ramdas Pophale) SiO2 
 PCOD9244517
Probable space group: P 21/C
;
_chemical_formula_sum "Si O2"
_cell_formula_units_Z 20
_cell_length_a 14.171265
_cell_length_b 15.233029
_cell_length_c 8.007358
_cell_angle_alpha 90.000000
_cell_angle_beta 32.708884
_cell_angle_gamma 90.000000
_cell_volume 934.062642
_symmetry_space_group_name_H-M "P 21/C"
_symmetry_group_IT_number 14
_symmetry_cell_setting 'monoclinic'
loop_
_space_group_symop_operation_xyz
x,y,z
-x,1/2+y,1/2-z
-x,-y,-z
x,1/2-y,1/2+z
loop_
_atom_site_type_symbol
_atom_site_label
_atom_site_fract_x
_atom_site_fract_y
_atom_site_fract_z
Si Si1 0.284998 0.062590 0.781951
Si Si2 0.344450 0.679452 0.766633
Si Si3 0.635662 0.928036 0.722619
Si Si4 0.920982 0.042640 0.451348
Si Si5 0.626797 0.368168 0.897026
O O1 0.354069 0.075345 0.491567
O O2 0.417565 0.114875 0.702966
O O3 0.299972 0.957892 0.788714
O O4 0.083287 0.082726 0.107574
O O5 0.547024 0.660652 0.418743
O O6 0.317575 0.782342 0.785839
O O7 0.221510 0.621006 0.828852
O O8 0.315452 0.645464 0.997802
O O9 0.821542 0.962191 0.508687
O O10 0.500000 0.000000 0.000000
O O11 0.000000 0.000000 0.500000
#
# Coordination Sequence:
#
# PCOD9244517 Si02
#       5
#     4   4   4   4   4
#     4  11  23  43  69  97 128 179 224 272 336 395
#     4  11  24  44  65  99 134 175 223 277 332 400
#     4  10  20  41  67  93 132 171 220 267 330 398
#     4  11  24  40  67  97 133 171 224 276 331 391
#     4  11  24  41  70  93 134 175 223 269 340 393
#
# _framework density 21.411839000000001
#
# number of rings (size 3 to 8) (size 9 to 14) (size 15 to 20)
#    0.000    1.200    4.000    3.000   11.200    0.000 
#    3.600    2.000    0.000    0.000    0.000    0.000 
#    0.000    0.000    0.000    0.000    0.000    0.000 
#
# Total GULP energy -111665.515820 kJ/mol
# GULP energy per Si atom -5583.275791 kJ/mol
# Density = 2.136310 g / cm^3
# Si number density = 21.411839 Si / 1000 Ang^3
#
#
#
# Elastic Constant Matrix: (Units=GPa)
#
#
# Indices 1 2 3 4 5 6 
#
# 1 114.8619 23.0918 10.7502 0.0000 -1.4543 0.0000
# 2 23.0918 93.5021 -9.8214 0.0000 -2.3362 0.0000
# 3 10.7502 -9.8214 69.5931 0.0000 -3.2575 0.0000
# 4 0.0000 0.0000 0.0000 10.6113 0.0000 2.7467
# 5 -1.4543 -2.3362 -3.2575 0.0000 32.6752 0.0000
# 6 0.0000 0.0000 0.0000 2.7467 0.0000 26.0970
#
#
#
# Elastic Compliance Matrix: (Units=1/GPa)
#
#
# Indices 1 2 3 4 5 6 
#
# 1 0.009379 -0.002504 -0.001799 0.000000 0.000059 0.000000
# 2 -0.002504 0.011553 0.002060 0.000000 0.000920 0.000000
# 3 -0.001799 0.002060 0.015011 0.000000 0.001564 0.000000
# 4 0.000000 0.000000 0.000000 0.096878 0.000000 -0.010197
# 5 0.000059 0.000920 0.001564 0.000000 0.030829 0.000000
# 6 0.000000 0.000000 0.000000 -0.010197 0.000000 0.039392
#
#
# Mechanical properties :
#
#
# Convention : Reuss Voigt Hill
#
# Bulk Modulus (GPa) = 31.78970 36.22204 34.00587
# Shear Modulus (GPa) = 22.93449 30.80581 26.87015
#
# Velocity S-wave (km/s) = 3.27634 3.79717 3.54633
# Velocity P-wave (km/s) = 5.40292 6.01483 5.71707
#
# Compressibility (1/GPa) = 0.03145673
#
# Stress axis : x y z
#
# Youngs Moduli (GPa) = 106.62575 86.56018 66.61729
#
# Poissons Ratio (x) = 0.21672 0.11986
# Poissons Ratio (y) = 0.26696 -0.13724
# Poissons Ratio (z) = 0.19185 -0.17833
#
# Static dielectric constant tensor:
#      x y z
#    x 1.808140 0.000000 -0.012580 
#    y 0.000000 1.811290 0.000000 
#    z -0.012580 0.000000 1.797260 
# 
# From -- ./inp_files/16480.got.cif
#   From: 2010.05.17/outbox.cif.g08.bks.cpg/sg14_9_cif.got.tgz:16480.got - 2010.06.03 17:49:19.
