data_PCOD9244256
_publ_section_title
;
Structure prediction by ZEFSAII (Michael W. Deem and Ramdas Pophale) SiO2 
 PCOD9244256
Probable space group: P 21/C
;
_chemical_formula_sum "Si O2"
_cell_formula_units_Z 24
_cell_length_a 22.806679
_cell_length_b 11.361419
_cell_length_c 15.791304
_cell_angle_alpha 90.000000
_cell_angle_beta 163.311498
_cell_angle_gamma 90.000000
_cell_volume 1175.030442
_symmetry_space_group_name_H-M "P 21/C"
_symmetry_group_IT_number 14
_symmetry_cell_setting 'monoclinic'
loop_
_space_group_symop_operation_xyz
x,y,z
-x,1/2+y,1/2-z
-x,-y,-z
x,1/2-y,1/2+z
loop_
_atom_site_type_symbol
_atom_site_label
_atom_site_fract_x
_atom_site_fract_y
_atom_site_fract_z
Si Si1 0.360493 0.586448 0.361036
Si Si2 0.083022 0.469049 0.323612
Si Si3 0.911997 0.924793 0.752919
Si Si4 0.184330 0.577896 0.292290
Si Si5 0.612648 0.777408 0.776516
Si Si6 0.222167 0.647256 0.829957
O O1 0.500000 0.500000 0.500000
O O2 0.350653 0.558320 0.448313
O O3 0.467330 0.712625 0.508187
O O4 0.130717 0.581815 0.008755
O O5 0.201618 0.534078 0.411717
O O6 0.231605 0.363792 0.554153
O O7 0.021355 0.551794 0.315042
O O8 0.750008 0.819862 0.515256
O O9 0.812321 0.048271 0.646412
O O10 0.080030 0.890368 0.054747
O O11 0.154269 0.718697 0.256468
O O12 0.000000 0.500000 0.000000
O O13 0.457374 0.841463 0.626041
#
# Coordination Sequence:
#
# PCOD9244256 Si02
#       6
#     4   4   4   4   4   4
#     4  10  20  40  64  95 131 167 225 272 321 394
#     4  11  24  39  71  98 132 179 227 273 339 405
#     4  11  24  45  67  98 137 173 233 277 335 409
#     4   9  20  40  65  95 131 170 222 273 332 393
#     4  11  23  41  67  97 136 176 217 280 332 403
#     4  10  25  44  65  97 137 177 222 288 334 393
#
# _framework density 20.425003
#
# number of rings (size 3 to 8) (size 9 to 14) (size 15 to 20)
#    0.000    1.667    1.667    3.000    7.000    0.667 
#    0.000    3.333    0.000    0.000    0.000    0.000 
#    0.000    0.000    0.000    0.000    0.000    0.000 
#
# Total GULP energy -133891.166712 kJ/mol
# GULP energy per Si atom -5578.798613 kJ/mol
# Density = 2.037851 g / cm^3
# Si number density = 20.425003 Si / 1000 Ang^3
#
#
#
# Elastic Constant Matrix: (Units=GPa)
#
#
# Indices 1 2 3 4 5 6 
#
# 1 75.1642 29.6627 17.6142 0.0000 11.6584 0.0000
# 2 29.6627 88.3804 37.5448 0.0000 18.2898 0.0000
# 3 17.6142 37.5448 71.2882 0.0000 21.0516 0.0000
# 4 0.0000 0.0000 0.0000 30.5571 0.0000 0.6400
# 5 11.6584 18.2898 21.0516 0.0000 29.4298 0.0000
# 6 0.0000 0.0000 0.0000 0.6400 0.0000 28.1962
#
#
#
# Elastic Compliance Matrix: (Units=1/GPa)
#
#
# Indices 1 2 3 4 5 6 
#
# 1 0.015643 -0.004333 -0.000695 0.000000 -0.003007 0.000000
# 2 -0.004333 0.016267 -0.006362 0.000000 -0.003842 0.000000
# 3 -0.000695 -0.006362 0.020667 0.000000 -0.010554 0.000000
# 4 0.000000 0.000000 0.000000 0.032741 0.000000 -0.000743
# 5 -0.003007 -0.003842 -0.010554 0.000000 0.045107 0.000000
# 6 0.000000 0.000000 0.000000 -0.000743 0.000000 0.035483
#
#
# Mechanical properties :
#
#
# Convention : Reuss Voigt Hill
#
# Bulk Modulus (GPa) = 33.56087 44.94180 39.25134
# Shear Modulus (GPa) = 25.17375 27.63739 26.40557
#
# Velocity S-wave (km/s) = 3.51450 3.68246 3.59946
# Velocity P-wave (km/s) = 5.73898 6.33497 6.04432
#
# Compressibility (1/GPa) = 0.02979661
#
# Stress axis : x y z
#
# Youngs Moduli (GPa) = 63.92480 61.47594 48.38743
#
# Poissons Ratio (x) = 0.26635 0.03365
# Poissons Ratio (y) = 0.27696 0.30783
# Poissons Ratio (z) = 0.04446 0.39110
#
# Static dielectric constant tensor:
#      x y z
#    x 1.726810 0.000000 0.009920 
#    y 0.000000 1.775730 0.000000 
#    z 0.009920 0.000000 1.734990 
# 
# From -- ./inp_files/50464.got.cif
#   From: 2010.05.17/outbox.cif.g08.bks.cpg/sg14_26_cif.got.tgz:50464.got - 2010.06.03 17:49:19.
