data_PCOD9244332
_publ_section_title
;
Structure prediction by ZEFSAII (Michael W. Deem and Ramdas Pophale) SiO2 
 PCOD9244332
Probable space group: P 21/C
;
_chemical_formula_sum "Si O2"
_cell_formula_units_Z 32
_cell_length_a 11.733988
_cell_length_b 12.775000
_cell_length_c 16.636426
_cell_angle_alpha 90.000000
_cell_angle_beta 33.760462
_cell_angle_gamma 90.000000
_cell_volume 1385.875470
_symmetry_space_group_name_H-M "P 21/C"
_symmetry_group_IT_number 14
_symmetry_cell_setting 'monoclinic'
loop_
_space_group_symop_operation_xyz
x,y,z
-x,1/2+y,1/2-z
-x,-y,-z
x,1/2-y,1/2+z
loop_
_atom_site_type_symbol
_atom_site_label
_atom_site_fract_x
_atom_site_fract_y
_atom_site_fract_z
Si Si1 0.795995 0.892246 0.820832
Si Si2 0.122632 0.317279 0.323892
Si Si3 0.700623 0.556853 0.640304
Si Si4 0.511180 0.326302 0.381968
Si Si5 0.914050 0.171859 0.563076
Si Si6 0.495372 0.911767 0.626366
Si Si7 0.884808 0.987307 0.457721
Si Si8 0.067494 0.535654 0.305055
O O1 0.809473 0.785179 0.763282
O O2 0.891213 0.983414 0.709335
O O3 0.953921 0.898546 0.803269
O O4 0.573017 0.889194 0.992141
O O5 0.286717 0.371261 0.287323
O O6 0.056059 0.409384 0.302771
O O7 0.956693 0.272118 0.484053
O O8 0.570463 0.611627 0.647482
O O9 0.599474 0.449124 0.731576
O O10 0.926189 0.548706 0.468040
O O11 0.750532 0.309108 0.227891
O O12 0.432768 0.207175 0.426663
O O13 0.842240 0.081518 0.543936
O O14 0.106149 0.119219 0.495902
O O15 0.303027 0.932681 0.680720
O O16 0.703917 0.979415 0.499235
#
# Coordination Sequence:
#
# PCOD9244332 Si02
#       8
#     4   4   4   4   4   4   4   4
#     4  10  25  42  60  95 137 170 205 274 335 386
#     4  10  20  41  67  92 128 169 219 263 320 385
#     4  10  20  40  66  97 126 169 220 275 316 386
#     4  11  22  39  64  96 132 166 220 267 330 384
#     4  10  20  40  67  92 125 174 221 263 313 391
#     4  11  21  37  67  95 123 172 223 263 318 387
#     4  10  22  40  64  90 130 173 217 266 320 383
#     4  10  22  41  68  95 136 166 214 277 332 380
#
# _framework density 23.090097
#
# number of rings (size 3 to 8) (size 9 to 14) (size 15 to 20)
#    0.000    1.750    1.250    3.750    1.750    2.000 
#    2.250    0.000    0.000    0.000    0.000    0.000 
#    0.000    0.000    0.000    0.000    0.000    0.000 
#
# Total GULP energy -178481.812326 kJ/mol
# GULP energy per Si atom -5577.556635 kJ/mol
# Density = 2.303754 g / cm^3
# Si number density = 23.090097 Si / 1000 Ang^3
#
#
#
# Elastic Constant Matrix: (Units=GPa)
#
#
# Indices 1 2 3 4 5 6 
#
# 1 29.5435 18.9797 7.6039 0.0000 19.0493 0.0000
# 2 18.9797 69.5599 16.0795 0.0000 7.6480 0.0000
# 3 7.6039 16.0795 108.3979 0.0000 9.6433 0.0000
# 4 0.0000 0.0000 0.0000 10.8296 0.0000 -2.0754
# 5 19.0493 7.6480 9.6433 0.0000 26.3242 0.0000
# 6 0.0000 0.0000 0.0000 -2.0754 0.0000 30.5390
#
#
#
# Elastic Compliance Matrix: (Units=1/GPa)
#
#
# Indices 1 2 3 4 5 6 
#
# 1 0.076722 -0.015619 0.001520 0.000000 -0.051538 0.000000
# 2 -0.015619 0.018410 -0.002238 0.000000 0.006773 0.000000
# 3 0.001520 -0.002238 0.009810 0.000000 -0.004043 0.000000
# 4 0.000000 0.000000 0.000000 0.093558 0.000000 0.006358
# 5 -0.051538 0.006773 -0.004043 0.000000 0.074796 0.000000
# 6 0.000000 0.000000 0.000000 0.006358 0.000000 0.033177
#
#
# Mechanical properties :
#
#
# Convention : Reuss Voigt Hill
#
# Bulk Modulus (GPa) = 13.83709 32.53640 23.18674
# Shear Modulus (GPa) = 13.76506 24.52777 19.14641
#
# Velocity S-wave (km/s) = 2.44426 3.26277 2.88272
# Velocity P-wave (km/s) = 3.73785 5.32127 4.59823
#
# Compressibility (1/GPa) = 0.07226954
#
# Stress axis : x y z
#
# Youngs Moduli (GPa) = 13.03399 54.31728 101.93333
#
# Poissons Ratio (x) = 0.84837 -0.15493
# Poissons Ratio (y) = 0.20358 0.22812
# Poissons Ratio (z) = -0.01981 0.12156
#
# Static dielectric constant tensor:
#      x y z
#    x 1.860680 0.000000 0.008000 
#    y 0.000000 1.876160 0.000000 
#    z 0.008000 0.000000 1.953050 
# 
# From -- ./inp_files/57937.got.cif
#   From: 2010.05.17/outbox.cif.g08.bks.cpg/sg14_29_cif.got.tgz:57937.got - 2010.06.03 17:49:19.
