data_PCOD9244272
_publ_section_title
;
Structure prediction by ZEFSAII (Michael W. Deem and Ramdas Pophale) SiO2 
 PCOD9244272
Probable space group: P 21/C
;
_chemical_formula_sum "Si O2"
_cell_formula_units_Z 28
_cell_length_a 8.523408
_cell_length_b 9.698299
_cell_length_c 13.556538
_cell_angle_alpha 90.000000
_cell_angle_beta 72.620243
_cell_angle_gamma 90.000000
_cell_volume 1069.457339
_symmetry_space_group_name_H-M "P 21/C"
_symmetry_group_IT_number 14
_symmetry_cell_setting 'monoclinic'
loop_
_space_group_symop_operation_xyz
x,y,z
-x,1/2+y,1/2-z
-x,-y,-z
x,1/2-y,1/2+z
loop_
_atom_site_type_symbol
_atom_site_label
_atom_site_fract_x
_atom_site_fract_y
_atom_site_fract_z
Si Si1 0.690671 0.518751 0.129292
Si Si2 0.300438 0.596749 0.527281
Si Si3 0.358475 0.857937 0.631987
Si Si4 0.922687 0.833195 0.287291
Si Si5 0.356402 0.354453 0.643836
Si Si6 0.977440 0.395369 0.875288
Si Si7 0.799806 0.287767 0.638343
O O1 0.538821 0.577904 0.094708
O O2 0.661651 0.584788 0.243676
O O3 0.696675 0.354074 0.141083
O O4 0.878508 0.570730 0.074624
O O5 0.350882 0.695165 0.608988
O O6 0.267786 0.448872 0.578566
O O7 0.458692 0.620615 0.426458
O O8 0.168152 0.641176 0.471960
O O9 0.287379 0.872194 0.756467
O O10 0.221284 0.905696 0.576791
O O11 0.730409 0.795568 0.336825
O O12 0.987556 0.987642 0.287210
O O13 0.981662 0.753314 0.178749
O O14 0.025895 0.759456 0.352948
#
# Coordination Sequence:
#
# PCOD9244272 Si02
#       7
#     4   4   4   4   4   4   4
#     4  10  20  40  65  88 127 172 207 267 322 378
#     4  11  23  39  62  96 125 165 217 268 314 392
#     4  11  22  39  66  92 126 170 213 265 329 378
#     4   9  20  40  63  92 131 165 213 270 321 377
#     4  10  21  40  64  88 131 166 213 267 319 385
#     4   9  21  38  63  97 124 170 219 263 318 388
#     4  10  21  40  62  91 125 163 216 263 321 380
#
# _framework density 26.181502999999999
#
# number of rings (size 3 to 8) (size 9 to 14) (size 15 to 20)
#    0.000    2.000    2.857    0.000    4.000    1.143 
#    2.571    1.429    0.000    0.000    0.000    0.000 
#    0.000    0.000    0.000    0.000    0.000    0.000 
#
# Total GULP energy -156259.329424 kJ/mol
# GULP energy per Si atom -5580.690337 kJ/mol
# Density = 2.612191 g / cm^3
# Si number density = 26.181503 Si / 1000 Ang^3
#
#
#
# Elastic Constant Matrix: (Units=GPa)
#
#
# Indices 1 2 3 4 5 6 
#
# 1 144.7586 13.6986 29.9035 0.0000 -9.4362 0.0000
# 2 13.6986 44.6430 -1.9751 0.0000 -0.7461 0.0000
# 3 29.9035 -1.9751 103.6146 0.0000 2.1151 0.0000
# 4 0.0000 0.0000 0.0000 32.7465 0.0000 0.5987
# 5 -9.4362 -0.7461 2.1151 0.0000 44.7558 0.0000
# 6 0.0000 0.0000 0.0000 0.5987 0.0000 33.2642
#
#
#
# Elastic Compliance Matrix: (Units=1/GPa)
#
#
# Indices 1 2 3 4 5 6 
#
# 1 0.007728 -0.002445 -0.002311 0.000000 0.001698 0.000000
# 2 -0.002445 0.023198 0.001152 0.000000 -0.000183 0.000000
# 3 -0.002311 0.001152 0.010360 0.000000 -0.000958 0.000000
# 4 0.000000 0.000000 0.000000 0.030548 0.000000 -0.000550
# 5 0.001698 -0.000183 -0.000958 0.000000 0.022744 0.000000
# 6 0.000000 0.000000 0.000000 -0.000550 0.000000 0.030072
#
#
# Mechanical properties :
#
#
# Convention : Reuss Voigt Hill
#
# Bulk Modulus (GPa) = 29.34660 41.80781 35.57720
# Shear Modulus (GPa) = 34.91196 38.91259 36.91228
#
# Velocity S-wave (km/s) = 3.65562 3.85939 3.75888
# Velocity P-wave (km/s) = 5.38992 5.98857 5.69712
#
# Compressibility (1/GPa) = 0.03407550
#
# Stress axis : x y z
#
# Youngs Moduli (GPa) = 129.40641 43.10701 96.52740
#
# Poissons Ratio (x) = 0.10540 0.22312
# Poissons Ratio (y) = 0.31641 -0.11116
# Poissons Ratio (z) = 0.29912 -0.04964
#
# Static dielectric constant tensor:
#      x y z
#    x 2.159640 0.000000 -0.062280 
#    y 0.000000 2.141890 0.000000 
#    z -0.062280 0.000000 2.070020 
# 
# From -- ./inp_files/40016.got.cif
#   From: 2010.05.17/outbox.cif.g08.bks.cpg/sg14_21_cif.got.tgz:40016.got - 2010.06.03 17:49:19.
