data_PCOD9244575
_publ_section_title
;
Structure prediction by ZEFSAII (Michael W. Deem and Ramdas Pophale) SiO2 
 PCOD9244575
Probable space group: P 21/C
;
_chemical_formula_sum "Si O2"
_cell_formula_units_Z 32
_cell_length_a 19.401425
_cell_length_b 9.661137
_cell_length_c 14.731837
_cell_angle_alpha 90.000000
_cell_angle_beta 150.057537
_cell_angle_gamma 90.000000
_cell_volume 1378.264326
_symmetry_space_group_name_H-M "P 21/C"
_symmetry_group_IT_number 14
_symmetry_cell_setting 'monoclinic'
loop_
_space_group_symop_operation_xyz
x,y,z
-x,1/2+y,1/2-z
-x,-y,-z
x,1/2-y,1/2+z
loop_
_atom_site_type_symbol
_atom_site_label
_atom_site_fract_x
_atom_site_fract_y
_atom_site_fract_z
Si Si1 0.620963 0.609895 0.137250
Si Si2 0.552874 0.355936 0.594784
Si Si3 0.148294 0.811387 0.325953
Si Si4 0.381542 0.041306 0.566791
Si Si5 0.120928 0.001821 0.775433
Si Si6 0.404565 0.342930 0.617503
Si Si7 0.899873 0.504411 0.531861
Si Si8 0.873183 0.195543 0.479408
O O1 0.750926 0.568462 0.343218
O O2 0.500000 0.500000 0.000000
O O3 0.541200 0.748936 0.067539
O O4 0.663831 0.605999 0.080861
O O5 0.500000 0.500000 0.500000
O O6 0.509633 0.338519 0.651267
O O7 0.716235 0.335160 0.770463
O O8 0.156381 0.657895 0.292197
O O9 0.130699 0.799874 0.414762
O O10 0.273776 0.918277 0.459653
O O11 0.016104 0.889040 0.134832
O O12 0.389935 0.183633 0.635283
O O13 0.526977 0.959360 0.739055
O O14 0.088160 0.992199 0.845736
O O15 0.987035 0.080963 0.582027
O O16 0.256268 0.096888 0.918741
O O17 0.911296 0.353769 0.499415
#
# Coordination Sequence:
#
# PCOD9244575 Si02
#       8
#     4   4   4   4   4   4   4   4
#     4  11  23  40  61  91 121 167 204 254 312 371
#     4  11  25  41  64  90 130 159 205 255 315 370
#     4  10  21  39  64  93 120 163 208 256 305 365
#     4  11  23  39  64  89 127 159 210 256 309 365
#     4  10  22  38  68  93 122 162 210 254 307 363
#     4  11  23  41  63  93 124 162 206 260 300 373
#     4  10  21  39  64  88 128 157 209 254 308 364
#     4  10  20  42  61  92 125 161 204 257 303 368
#
# _framework density 23.217606
#
# number of rings (size 3 to 8) (size 9 to 14) (size 15 to 20)
#    0.000    1.500    2.500    2.250    5.250    4.500 
#    0.000    0.625    0.000    0.000    0.000    0.000 
#    0.000    0.000    0.000    0.000    0.000    0.000 
#
# Total GULP energy -178746.749081 kJ/mol
# GULP energy per Si atom -5585.835909 kJ/mol
# Density = 2.316476 g / cm^3
# Si number density = 23.217606 Si / 1000 Ang^3
#
#
#
# Elastic Constant Matrix: (Units=GPa)
#
#
# Indices 1 2 3 4 5 6 
#
# 1 38.0251 15.9362 22.3725 0.0000 8.9155 0.0000
# 2 15.9362 242.8349 84.0370 0.0000 19.4488 0.0000
# 3 22.3725 84.0370 104.3084 0.0000 20.6626 0.0000
# 4 0.0000 0.0000 0.0000 34.9563 0.0000 8.2522
# 5 8.9155 19.4488 20.6626 0.0000 27.1764 0.0000
# 6 0.0000 0.0000 0.0000 8.2522 0.0000 25.6540
#
#
#
# Elastic Compliance Matrix: (Units=1/GPa)
#
#
# Indices 1 2 3 4 5 6 
#
# 1 0.030944 0.000466 -0.005811 0.000000 -0.006067 0.000000
# 2 0.000466 0.005728 -0.004559 0.000000 -0.000786 0.000000
# 3 -0.005811 -0.004559 0.015873 0.000000 -0.006900 0.000000
# 4 0.000000 0.000000 0.000000 0.030958 0.000000 -0.009958
# 5 -0.006067 -0.000786 -0.006900 0.000000 0.044595 0.000000
# 6 0.000000 0.000000 0.000000 -0.009958 0.000000 0.042184
#
#
# Mechanical properties :
#
#
# Convention : Reuss Voigt Hill
#
# Bulk Modulus (GPa) = 30.54557 69.98442 50.26499
# Shear Modulus (GPa) = 24.87521 35.07885 29.97703
#
# Velocity S-wave (km/s) = 3.27677 3.89121 3.59713
# Velocity P-wave (km/s) = 5.24414 7.09908 6.24091
#
# Compressibility (1/GPa) = 0.03273797
#
# Stress axis : x y z
#
# Youngs Moduli (GPa) = 32.31597 174.57544 62.99920
#
# Poissons Ratio (x) = -0.08137 0.36607
# Poissons Ratio (y) = -0.01506 0.28723
# Poissons Ratio (z) = 0.18778 0.79594
#
# Static dielectric constant tensor:
#      x y z
#    x 2.073850 0.000000 -0.120850 
#    y 0.000000 1.879050 0.000000 
#    z -0.120850 0.000000 1.891230 
# 
# From -- ./inp_files/70517.got.cif
#   From: 2010.05.17/outbox.cif.g08.bks.cpg/sg14_36_cif.got.tgz:70517.got - 2010.06.03 17:49:19.
