data_PCOD9244357
_publ_section_title
;
Structure prediction by ZEFSAII (Michael W. Deem and Ramdas Pophale) SiO2 
 PCOD9244357
Probable space group: P 21/C
;
_chemical_formula_sum "Si O2"
_cell_formula_units_Z 22
_cell_length_a 8.067666
_cell_length_b 9.056098
_cell_length_c 12.734889
_cell_angle_alpha 90.000000
_cell_angle_beta 122.936967
_cell_angle_gamma 90.000000
_cell_volume 780.882143
_symmetry_space_group_name_H-M "P 21/C"
_symmetry_group_IT_number 14
_symmetry_cell_setting 'monoclinic'
loop_
_space_group_symop_operation_xyz
x,y,z
-x,1/2+y,1/2-z
-x,-y,-z
x,1/2-y,1/2+z
loop_
_atom_site_type_symbol
_atom_site_label
_atom_site_fract_x
_atom_site_fract_y
_atom_site_fract_z
Si Si1 0.828657 0.584364 0.621069
Si Si2 0.512651 0.111071 0.126470
Si Si3 0.268943 0.865137 0.599802
Si Si4 0.258473 0.508402 0.701399
Si Si5 0.500000 0.000000 0.500000
Si Si6 0.130401 0.316325 0.134437
O O1 0.668037 0.684222 0.501983
O O2 0.684818 0.451665 0.609989
O O3 0.907124 0.650293 0.756532
O O4 0.025998 0.545925 0.626285
O O5 0.635841 0.194124 0.260311
O O6 0.400161 0.971123 0.147183
O O7 0.065534 0.790808 0.499624
O O8 0.391704 0.877098 0.537017
O O9 0.222710 0.037116 0.614478
O O10 0.354705 0.537274 0.847483
O O11 0.255938 0.329742 0.684567
#
# Coordination Sequence:
#
# PCOD9244357 Si02
#       6
#     4   4   4   4   2   4
#     4  10  20  43  62  89 133 164 210 281 321 393
#     4   9  21  40  61  86 126 167 206 269 332 374
#     4   9  19  41  62  88 129 170 206 282 317 390
#     4  11  22  40  65  98 127 176 220 270 334 404
#     4  10  20  40  68  92 136 170 226 280 330 392
#     4  10  21  39  66  89 129 172 216 263 338 382
#
# _framework density 28.173268
#
# number of rings (size 3 to 8) (size 9 to 14) (size 15 to 20)
#    0.000    2.182    1.818    0.545    0.000    1.455 
#   22.909    0.000    0.000    0.000    0.000    0.000 
#    0.000    0.000    0.000    0.000    0.000    0.000 
#
# Total GULP energy -122544.627712 kJ/mol
# GULP energy per Si atom -5570.210351 kJ/mol
# Density = 2.810914 g / cm^3
# Si number density = 28.173268 Si / 1000 Ang^3
#
#
#
# Elastic Constant Matrix: (Units=GPa)
#
#
# Indices 1 2 3 4 5 6 
#
# 1 143.2697 13.8691 89.0611 0.0000 -0.2513 0.0000
# 2 13.8691 57.6414 43.3141 0.0000 -29.3392 0.0000
# 3 89.0611 43.3141 276.5931 0.0000 3.2223 0.0000
# 4 0.0000 0.0000 0.0000 11.8254 0.0000 -9.3379
# 5 -0.2513 -29.3392 3.2223 0.0000 62.7991 0.0000
# 6 0.0000 0.0000 0.0000 -9.3379 0.0000 21.1687
#
#
#
# Elastic Compliance Matrix: (Units=1/GPa)
#
#
# Indices 1 2 3 4 5 6 
#
# 1 0.008730 0.000164 -0.002840 0.000000 0.000257 0.000000
# 2 0.000164 0.027275 -0.004475 0.000000 0.012973 0.000000
# 3 -0.002840 -0.004475 0.005258 0.000000 -0.002372 0.000000
# 4 0.000000 0.000000 0.000000 0.129764 0.000000 0.057242
# 5 0.000257 0.012973 -0.002372 0.000000 0.022107 0.000000
# 6 0.000000 0.000000 0.000000 0.057242 0.000000 0.072490
#
#
# Mechanical properties :
#
#
# Convention : Reuss Voigt Hill
#
# Bulk Modulus (GPa) = 37.08923 85.55476 61.32200
# Shear Modulus (GPa) = 17.30623 41.24261 29.27442
#
# Velocity S-wave (km/s) = 2.48115 3.83023 3.22698
# Velocity P-wave (km/s) = 4.62617 7.07066 5.97477
#
# Compressibility (1/GPa) = 0.02696200
#
# Stress axis : x y z
#
# Youngs Moduli (GPa) = 114.55311 36.66319 190.17834
#
# Poissons Ratio (x) = -0.00603 0.54003
# Poissons Ratio (y) = -0.01883 0.85111
# Poissons Ratio (z) = 0.32529 0.16408
#
# Static dielectric constant tensor:
#      x y z
#    x 2.379160 0.000000 -0.057260 
#    y 0.000000 2.242390 0.000000 
#    z -0.057260 0.000000 2.167560 
# 
# From -- ./inp_files/39486.got.cif
#   From: 2010.05.17/outbox.cif.g08.bks.cpg/sg14_20_cif.got.tgz:39486.got - 2010.06.03 17:49:19.
