data_PCOD9244539
_publ_section_title
;
Structure prediction by ZEFSAII (Michael W. Deem and Ramdas Pophale) SiO2 
 PCOD9244539
Probable space group: P 21/C
;
_chemical_formula_sum "Si O2"
_cell_formula_units_Z 28
_cell_length_a 9.194056
_cell_length_b 8.844090
_cell_length_c 21.831409
_cell_angle_alpha 90.000000
_cell_angle_beta 142.144999
_cell_angle_gamma 90.000000
_cell_volume 1089.365497
_symmetry_space_group_name_H-M "P 21/C"
_symmetry_group_IT_number 14
_symmetry_cell_setting 'monoclinic'
loop_
_space_group_symop_operation_xyz
x,y,z
-x,1/2+y,1/2-z
-x,-y,-z
x,1/2-y,1/2+z
loop_
_atom_site_type_symbol
_atom_site_label
_atom_site_fract_x
_atom_site_fract_y
_atom_site_fract_z
Si Si1 0.419982 0.734802 0.697372
Si Si2 0.671434 0.030321 0.732674
Si Si3 0.893307 0.226219 0.721672
Si Si4 0.075822 0.294414 0.915848
Si Si5 0.048218 0.592051 0.454775
Si Si6 0.903642 0.876471 0.339535
Si Si7 0.481221 0.440934 0.562440
O O1 0.512421 0.886588 0.695830
O O2 0.435259 0.686529 0.774819
O O3 0.136068 0.757969 0.605570
O O4 0.616422 0.609354 0.741217
O O5 0.904529 0.991556 0.851730
O O6 0.741977 0.074127 0.687852
O O7 0.043491 0.245055 0.833447
O O8 0.018467 0.198530 0.698899
O O9 0.735352 0.378104 0.665884
O O10 0.052015 0.474379 0.902364
O O11 0.310147 0.205505 0.012910
O O12 0.000000 0.500000 0.500000
O O13 0.960293 0.760011 0.413253
O O14 0.329921 0.576434 0.541958
O O15 0.500000 0.500000 0.500000
#
# Coordination Sequence:
#
# PCOD9244539 Si02
#       7
#     4   4   4   4   4   4   4
#     4  10  20  41  69 100 142 186 249 299 364 447
#     4  10  22  44  68 107 139 194 243 309 372 445
#     4  11  26  45  77 106 153 196 250 318 379 464
#     4  11  26  47  75 107 154 195 258 315 378 461
#     4  11  25  46  72 108 151 193 257 306 375 459
#     4  11  25  44  73 111 148 200 256 304 395 450
#     4  12  26  50  73 109 150 203 251 313 389 458
#
# _framework density 25.703035
#
# number of rings (size 3 to 8) (size 9 to 14) (size 15 to 20)
#    0.000    1.143    5.714    0.000   14.000    0.571 
#    2.571    1.429    0.000    0.000    0.000    0.000 
#    0.000    0.000    0.000    0.000    0.000    0.000 
#
# Total GULP energy -156006.922809 kJ/mol
# GULP energy per Si atom -5571.675815 kJ/mol
# Density = 2.564453 g / cm^3
# Si number density = 25.703035 Si / 1000 Ang^3
#
#
#
# Elastic Constant Matrix: (Units=GPa)
#
#
# Indices 1 2 3 4 5 6 
#
# 1 126.8264 -1.3569 10.7944 0.0000 2.9630 0.0000
# 2 -1.3569 107.4816 9.2945 0.0000 -8.6836 0.0000
# 3 10.7944 9.2945 90.9127 0.0000 6.2482 0.0000
# 4 0.0000 0.0000 0.0000 33.2179 0.0000 -5.3873
# 5 2.9630 -8.6836 6.2482 0.0000 22.2286 0.0000
# 6 0.0000 0.0000 0.0000 -5.3873 0.0000 45.8772
#
#
#
# Elastic Compliance Matrix: (Units=1/GPa)
#
#
# Indices 1 2 3 4 5 6 
#
# 1 0.007981 0.000118 -0.000907 0.000000 -0.000763 0.000000
# 2 0.000118 0.009754 -0.001297 0.000000 0.004159 0.000000
# 3 -0.000907 -0.001297 0.011488 0.000000 -0.003615 0.000000
# 4 0.000000 0.000000 0.000000 0.030689 0.000000 0.003604
# 5 -0.000763 0.004159 -0.003615 0.000000 0.047730 0.000000
# 6 0.000000 0.000000 0.000000 0.003604 0.000000 0.022221
#
#
# Mechanical properties :
#
#
# Convention : Reuss Voigt Hill
#
# Bulk Modulus (GPa) = 39.92051 40.29830 40.10940
# Shear Modulus (GPa) = 35.11603 40.69731 37.90667
#
# Velocity S-wave (km/s) = 3.70025 3.98347 3.84447
# Velocity P-wave (km/s) = 5.81558 6.07205 5.94520
#
# Compressibility (1/GPa) = 0.02504978
#
# Stress axis : x y z
#
# Youngs Moduli (GPa) = 125.29613 102.52645 87.04488
#
# Poissons Ratio (x) = -0.01205 0.07897
# Poissons Ratio (y) = -0.01473 0.11289
# Poissons Ratio (z) = 0.11367 0.13297
#
# Static dielectric constant tensor:
#      x y z
#    x 2.046760 0.000000 0.018840 
#    y 0.000000 2.132390 0.000000 
#    z 0.018840 0.000000 2.107270 
# 
# From -- ./inp_files/65010.got.cif
#   From: 2010.05.17/outbox.cif.g08.bks.cpg/sg14_33_cif.got.tgz:65010.got - 2010.06.03 17:49:19.
