data_PCOD9244933
_publ_section_title
;
Structure prediction by ZEFSAII (Michael W. Deem and Ramdas Pophale) SiO2 
 PCOD9244933
Probable space group: P 21/C
;
_chemical_formula_sum "Si O2"
_cell_formula_units_Z 32
_cell_length_a 27.445901
_cell_length_b 12.506850
_cell_length_c 27.472426
_cell_angle_alpha 90.000000
_cell_angle_beta 10.380053
_cell_angle_gamma 90.000000
_cell_volume 1699.108472
_symmetry_space_group_name_H-M "P 21/C"
_symmetry_group_IT_number 14
_symmetry_cell_setting 'monoclinic'
loop_
_space_group_symop_operation_xyz
x,y,z
-x,1/2+y,1/2-z
-x,-y,-z
x,1/2-y,1/2+z
loop_
_atom_site_type_symbol
_atom_site_label
_atom_site_fract_x
_atom_site_fract_y
_atom_site_fract_z
Si Si1 0.751929 0.129680 0.717562
Si Si2 0.450917 0.689490 0.684486
Si Si3 0.710614 0.875217 0.756362
Si Si4 0.973238 0.946845 0.695501
Si Si5 0.640097 0.362808 0.649982
Si Si6 0.803456 0.824946 0.557481
Si Si7 0.264866 0.767072 0.540443
Si Si8 0.873645 0.000600 0.349271
O O1 0.643811 0.195482 0.778119
O O2 0.063651 0.145267 0.424420
O O3 0.713009 0.003269 0.743977
O O4 0.577177 0.151625 0.937533
O O5 0.706916 0.610609 0.437132
O O6 0.471597 0.800628 0.692866
O O7 0.213935 0.632163 0.946800
O O8 0.782895 0.815505 0.635787
O O9 0.066281 0.058371 0.580491
O O10 0.959570 0.965089 0.766553
O O11 0.743200 0.284002 0.505682
O O12 0.897951 0.439531 0.406707
O O13 0.373772 0.424033 0.892439
O O14 0.506793 0.797117 0.828812
O O15 0.000134 0.751083 0.332928
O O16 0.275056 0.894944 0.525712
#
# Coordination Sequence:
#
# PCOD9244933 Si02
#       8
#     4   4   4   4   4   4   4   4
#     4  10  21  36  55  87 117 155 187 242 296 361
#     4  12  24  37  60  88 121 164 198 233 300 360
#     4  10  21  35  57  84 122 149 190 241 298 359
#     4  12  22  35  59  87 123 158 198 239 283 354
#     4  12  24  40  59  87 119 163 202 247 290 359
#     4  12  23  38  58  90 118 165 194 237 297 361
#     4  12  24  38  60  86 118 160 204 238 293 357
#     4  12  25  41  57  86 126 160 206 250 287 340
#
# _framework density 18.833406
#
# number of rings (size 3 to 8) (size 9 to 14) (size 15 to 20)
#    0.000    0.500    5.000    4.500    5.250    0.000 
#    0.000    0.000    0.000    0.000    0.000   17.500 
#    0.000    0.000    0.000    0.000    0.000    0.000 
#
# Total GULP energy -178650.146368 kJ/mol
# GULP energy per Si atom -5582.817074 kJ/mol
# Density = 1.879054 g / cm^3
# Si number density = 18.833406 Si / 1000 Ang^3
#
#
#
# Elastic Constant Matrix: (Units=GPa)
#
#
# Indices 1 2 3 4 5 6 
#
# 1 147.3246 61.1866 75.4383 0.0000 6.8766 0.0000
# 2 61.1866 88.4657 62.9200 0.0000 -5.2902 0.0000
# 3 75.4383 62.9200 161.4950 0.0000 -14.1888 0.0000
# 4 0.0000 0.0000 0.0000 22.6565 0.0000 1.1048
# 5 6.8766 -5.2902 -14.1888 0.0000 17.0062 0.0000
# 6 0.0000 0.0000 0.0000 1.1048 0.0000 11.5500
#
#
#
# Elastic Compliance Matrix: (Units=1/GPa)
#
#
# Indices 1 2 3 4 5 6 
#
# 1 0.011778 -0.005818 -0.004114 0.000000 -0.010005 0.000000
# 2 -0.005818 0.018512 -0.004081 0.000000 0.004706 0.000000
# 3 -0.004114 -0.004081 0.010509 0.000000 0.009162 0.000000
# 4 0.000000 0.000000 0.000000 0.044344 0.000000 -0.004242
# 5 -0.010005 0.004706 0.009162 0.000000 0.071955 0.000000
# 6 0.000000 0.000000 0.000000 -0.004242 0.000000 0.086986
#
#
# Mechanical properties :
#
#
# Convention : Reuss Voigt Hill
#
# Bulk Modulus (GPa) = 78.29559 88.48613 83.39086
# Shear Modulus (GPa) = 18.09183 23.42523 20.75853
#
# Velocity S-wave (km/s) = 3.10276 3.53060 3.32357
# Velocity P-wave (km/s) = 7.38235 7.98159 7.68781
#
# Compressibility (1/GPa) = 0.01277211
#
# Stress axis : x y z
#
# Youngs Moduli (GPa) = 84.90679 54.01878 95.15894
#
# Poissons Ratio (x) = 0.31430 0.39146
# Poissons Ratio (y) = 0.49402 0.38835
# Poissons Ratio (z) = 0.34928 0.22046
#
# Static dielectric constant tensor:
#      x y z
#    x 1.657930 0.000000 -0.003000 
#    y 0.000000 1.585700 0.000000 
#    z -0.003000 0.000000 1.653640 
# 
# From -- ./inp_files/78320.got.cif
#   From: 2010.05.17/outbox.cif.g08.bks.cpg/sg14_40_cif.got.tgz:78320.got - 2010.06.03 17:49:19.
