data_PCOD9244384
_publ_section_title
;
Structure prediction by ZEFSAII (Michael W. Deem and Ramdas Pophale) SiO2 
 PCOD9244384
Probable space group: P 21/C
;
_chemical_formula_sum "Si O2"
_cell_formula_units_Z 16
_cell_length_a 4.783213
_cell_length_b 12.257649
_cell_length_c 10.429950
_cell_angle_alpha 90.000000
_cell_angle_beta 100.288171
_cell_angle_gamma 90.000000
_cell_volume 601.685810
_symmetry_space_group_name_H-M "P 21/C"
_symmetry_group_IT_number 14
_symmetry_cell_setting 'monoclinic'
loop_
_space_group_symop_operation_xyz
x,y,z
-x,1/2+y,1/2-z
-x,-y,-z
x,1/2-y,1/2+z
loop_
_atom_site_type_symbol
_atom_site_label
_atom_site_fract_x
_atom_site_fract_y
_atom_site_fract_z
Si Si1 0.907334 0.268746 0.005574
Si Si2 0.418148 0.559927 0.859303
Si Si3 0.520871 0.873654 0.963474
Si Si4 0.104237 0.942547 0.716271
O O1 0.751690 0.334095 0.109656
O O2 0.646192 0.192617 0.939115
O O3 0.185642 0.191089 0.039811
O O4 0.965994 0.363482 0.907907
O O5 0.714123 0.549832 0.809923
O O6 0.500000 0.500000 0.000000
O O7 0.804247 0.513236 0.238883
O O8 0.298757 0.875769 0.827636
O O9 0.500000 0.000000 0.000000
#
# Coordination Sequence:
#
# PCOD9244384 Si02
#       4
#     4   4   4   4
#     4  11  23  43  66  93 125 173 222 260 318 400
#     4  10  20  40  69  98 123 160 222 278 319 386
#     4  12  27  43  61  96 137 170 213 267 326 392
#     4  11  23  42  67  97 130 169 216 277 334 380
#
# _framework density 26.591951000000002
#
# number of rings (size 3 to 8) (size 9 to 14) (size 15 to 20)
#    0.000    1.000    0.000    9.750    0.000    6.000 
#    0.000    0.000    0.000    0.000    0.000    0.000 
#    0.000    0.000    0.000    0.000    0.000    0.000 
#
# Total GULP energy -89337.424158 kJ/mol
# GULP energy per Si atom -5583.589010 kJ/mol
# Density = 2.653143 g / cm^3
# Si number density = 26.591951 Si / 1000 Ang^3
#
#
#
# Elastic Constant Matrix: (Units=GPa)
#
#
# Indices 1 2 3 4 5 6 
#
# 1 194.5639 85.6407 18.4544 0.0000 38.7679 0.0000
# 2 85.6407 195.6794 41.4614 0.0000 25.5159 0.0000
# 3 18.4544 41.4614 68.9368 0.0000 21.8698 0.0000
# 4 0.0000 0.0000 0.0000 31.7322 0.0000 6.3429
# 5 38.7679 25.5159 21.8698 0.0000 29.5112 0.0000
# 6 0.0000 0.0000 0.0000 6.3429 0.0000 74.2002
#
#
#
# Elastic Compliance Matrix: (Units=1/GPa)
#
#
# Indices 1 2 3 4 5 6 
#
# 1 0.008186 -0.002822 0.002802 0.000000 -0.010391 0.000000
# 2 -0.002822 0.007071 -0.003574 0.000000 0.000241 0.000000
# 3 0.002802 -0.003574 0.021039 0.000000 -0.016182 0.000000
# 4 0.000000 0.000000 0.000000 0.032062 0.000000 -0.002741
# 5 -0.010391 0.000241 -0.016182 0.000000 0.059319 0.000000
# 6 0.000000 0.000000 0.000000 -0.002741 0.000000 0.013711
#
#
# Mechanical properties :
#
#
# Convention : Reuss Voigt Hill
#
# Bulk Modulus (GPa) = 34.35318 83.36591 58.85954
# Shear Modulus (GPa) = 31.58974 47.99695 39.79335
#
# Velocity S-wave (km/s) = 3.45039 4.25307 3.87259
# Velocity P-wave (km/s) = 5.36846 7.45227 6.49448
#
# Compressibility (1/GPa) = 0.02910939
#
# Stress axis : x y z
#
# Youngs Moduli (GPa) = 122.15433 141.42081 47.53014
#
# Poissons Ratio (x) = 0.39903 -0.13318
# Poissons Ratio (y) = 0.34467 0.16988
# Poissons Ratio (z) = -0.34228 0.50545
#
# Static dielectric constant tensor:
#      x y z
#    x 2.013390 0.000000 -0.060360 
#    y 0.000000 2.344750 0.000000 
#    z -0.060360 0.000000 2.213860 
# 
# From -- ./inp_files/20507.got.cif
#   From: 2010.05.17/outbox.cif.g08.bks.cpg/sg14_11_cif.got.tgz:20507.got - 2010.06.03 17:49:19.
