data_PCOD9244624
_publ_section_title
;
Structure prediction by ZEFSAII (Michael W. Deem and Ramdas Pophale) SiO2 
 PCOD9244624
Probable space group: P 21/C
;
_chemical_formula_sum "Si O2"
_cell_formula_units_Z 28
_cell_length_a 17.777380
_cell_length_b 5.068834
_cell_length_c 13.773188
_cell_angle_alpha 90.000000
_cell_angle_beta 60.063735
_cell_angle_gamma 90.000000
_cell_volume 1075.522482
_symmetry_space_group_name_H-M "P 21/C"
_symmetry_group_IT_number 14
_symmetry_cell_setting 'monoclinic'
loop_
_space_group_symop_operation_xyz
x,y,z
-x,1/2+y,1/2-z
-x,-y,-z
x,1/2-y,1/2+z
loop_
_atom_site_type_symbol
_atom_site_label
_atom_site_fract_x
_atom_site_fract_y
_atom_site_fract_z
Si Si1 0.334726 0.152376 0.137716
Si Si2 0.000000 0.000000 0.000000
Si Si3 0.481189 0.224509 0.317631
Si Si4 0.233336 0.660442 0.176948
Si Si5 0.500000 0.500000 0.000000
Si Si6 0.812367 0.322321 0.564290
Si Si7 0.708988 0.673750 0.104196
Si Si8 0.960455 0.289663 0.228837
O O1 0.265777 0.364857 0.139572
O O2 0.430097 0.256154 0.055761
O O3 0.318006 0.154041 0.264463
O O4 0.310433 0.868299 0.109858
O O5 0.912666 0.105019 0.999660
O O6 0.980096 0.206114 0.105166
O O7 0.484655 0.532083 0.290298
O O8 0.381147 0.136995 0.392930
O O9 0.534619 0.131998 0.375505
O O10 0.213682 0.677034 0.304917
O O11 0.142189 0.744222 0.189429
O O12 0.752807 0.548078 0.557428
O O13 0.781439 0.046284 0.542161
O O14 0.987129 0.588090 0.235564
#
# Coordination Sequence:
#
# PCOD9244624 Si02
#       8
#     4   2   4   4   2   4   4   4
#     4  10  21  40  67  97 135 182 230 286 354 421
#     4  10  24  46  72 106 144 190 236 304 348 428
#     4  12  27  47  73 100 145 182 235 303 356 425
#     4   9  20  40  65  96 139 182 222 293 356 409
#     4  12  28  46  74 110 136 192 244 290 364 438
#     4   9  20  38  70  95 135 183 230 274 359 412
#     4  10  20  42  65  98 136 184 222 289 352 417
#     4  11  24  44  72 105 144 191 244 294 365 437
#
# _framework density 26.033857000000001
#
# number of rings (size 3 to 8) (size 9 to 14) (size 15 to 20)
#    0.000    1.714    1.429    1.714    4.000    8.000 
#    7.714    0.000    0.000    0.000    0.000    0.000 
#    0.000    0.000    0.000    0.000    0.000    0.000 
#
# Total GULP energy -155974.707188 kJ/mol
# GULP energy per Si atom -5570.525257 kJ/mol
# Density = 2.597460 g / cm^3
# Si number density = 26.033857 Si / 1000 Ang^3
#
#
#
# Elastic Constant Matrix: (Units=GPa)
#
#
# Indices 1 2 3 4 5 6 
#
# 1 100.2354 23.5278 15.9184 0.0000 -15.9542 0.0000
# 2 23.5278 68.0775 1.5541 0.0000 -2.9735 0.0000
# 3 15.9184 1.5541 69.7013 0.0000 2.4525 0.0000
# 4 0.0000 0.0000 0.0000 34.4622 0.0000 -11.7685
# 5 -15.9542 -2.9735 2.4525 0.0000 35.7424 0.0000
# 6 0.0000 0.0000 0.0000 -11.7685 0.0000 36.0059
#
#
#
# Elastic Compliance Matrix: (Units=1/GPa)
#
#
# Indices 1 2 3 4 5 6 
#
# 1 0.012201 -0.003919 -0.002886 0.000000 0.005318 0.000000
# 2 -0.003919 0.016011 0.000554 0.000000 -0.000455 0.000000
# 3 -0.002886 0.000554 0.015074 0.000000 -0.002277 0.000000
# 4 0.000000 0.000000 0.000000 0.032663 0.000000 0.010676
# 5 0.005318 -0.000455 -0.002277 0.000000 0.030470 0.000000
# 6 0.000000 0.000000 0.000000 0.010676 0.000000 0.031263
#
#
# Mechanical properties :
#
#
# Convention : Reuss Voigt Hill
#
# Bulk Modulus (GPa) = 32.48429 35.55722 34.02076
# Shear Modulus (GPa) = 31.16336 34.37637 32.76986
#
# Velocity S-wave (km/s) = 3.46357 3.63774 3.55172
# Velocity P-wave (km/s) = 5.33853 5.59749 5.46954
#
# Compressibility (1/GPa) = 0.03078411
#
# Stress axis : x y z
#
# Youngs Moduli (GPa) = 81.95943 62.45748 66.34006
#
# Poissons Ratio (x) = 0.24474 0.19148
# Poissons Ratio (y) = 0.32116 -0.03675
# Poissons Ratio (z) = 0.23656 -0.03460
#
# Static dielectric constant tensor:
#      x y z
#    x 1.976910 0.000000 0.097240 
#    y 0.000000 1.962040 0.000000 
#    z 0.097240 0.000000 2.179500 
# 
# From -- ./inp_files/47942.got.cif
#   From: 2010.05.17/outbox.cif.g08.bks.cpg/sg14_24_cif.got.tgz:47942.got - 2010.06.03 17:49:19.
