data_PCOD9244009
_publ_section_title
;
Structure prediction by ZEFSAII (Michael W. Deem and Ramdas Pophale) SiO2 
 PCOD9244009
Probable space group: P 21/C
;
_chemical_formula_sum "Si O2"
_cell_formula_units_Z 24
_cell_length_a 20.035028
_cell_length_b 9.872897
_cell_length_c 14.840577
_cell_angle_alpha 90.000000
_cell_angle_beta 17.953190
_cell_angle_gamma 90.000000
_cell_volume 904.844990
_symmetry_space_group_name_H-M "P 21/C"
_symmetry_group_IT_number 14
_symmetry_cell_setting 'monoclinic'
loop_
_space_group_symop_operation_xyz
x,y,z
-x,1/2+y,1/2-z
-x,-y,-z
x,1/2-y,1/2+z
loop_
_atom_site_type_symbol
_atom_site_label
_atom_site_fract_x
_atom_site_fract_y
_atom_site_fract_z
Si Si1 0.875960 0.053492 0.271175
Si Si2 0.460345 0.216911 0.584143
Si Si3 0.537734 0.441293 0.812420
Si Si4 0.940785 0.212274 0.017969
Si Si5 0.808798 0.532272 0.315671
Si Si6 0.386517 0.485514 0.741060
O O1 0.672849 0.983712 0.477114
O O2 0.048436 0.933606 0.043445
O O3 0.950137 0.177585 0.113346
O O4 0.804506 0.069918 0.466031
O O5 0.477011 0.183232 0.456071
O O6 0.310979 0.329814 0.823160
O O7 0.417467 0.073657 0.685291
O O8 0.701141 0.263738 0.305140
O O9 0.748382 0.434949 0.477111
O O10 0.122980 0.314112 0.748893
O O11 0.586846 0.523371 0.547150
O O12 0.000000 0.500000 0.000000
O O13 0.500000 0.500000 0.500000
#
# Coordination Sequence:
#
# PCOD9244009 Si02
#       6
#     4   4   4   4   4   4
#     4   9  21  40  63  88 118 161 208 252 313 368
#     4  10  20  40  60  89 121 155 211 250 304 373
#     4   9  21  38  65  86 116 167 203 253 307 370
#     4  10  20  39  64  89 120 158 204 258 309 377
#     4  11  22  39  60  88 125 162 202 252 323 368
#     4  11  24  39  58  91 126 159 208 256 309 381
#
# _framework density 26.523879999999998
#
# number of rings (size 3 to 8) (size 9 to 14) (size 15 to 20)
#    0.000    2.000    1.667    1.000    2.333    2.667 
#    0.000    0.000    0.000    0.000    0.000    0.000 
#    0.000    0.000    0.000    0.000    0.000    0.000 
#
# Total GULP energy -133923.942570 kJ/mol
# GULP energy per Si atom -5580.164274 kJ/mol
# Density = 2.646351 g / cm^3
# Si number density = 26.523880 Si / 1000 Ang^3
#
#
#
# Elastic Constant Matrix: (Units=GPa)
#
#
# Indices 1 2 3 4 5 6 
#
# 1 50.8301 18.2297 29.1466 0.0000 11.9681 0.0000
# 2 18.2297 71.6931 18.1153 0.0000 -1.8026 0.0000
# 3 29.1466 18.1153 122.1846 0.0000 34.3934 0.0000
# 4 0.0000 0.0000 0.0000 38.6515 0.0000 0.6732
# 5 11.9681 -1.8026 34.3934 0.0000 33.6241 0.0000
# 6 0.0000 0.0000 0.0000 0.6732 0.0000 32.0013
#
#
#
# Elastic Compliance Matrix: (Units=1/GPa)
#
#
# Indices 1 2 3 4 5 6 
#
# 1 0.025043 -0.005603 -0.003581 0.000000 -0.005552 0.000000
# 2 -0.005603 0.016175 -0.002622 0.000000 0.005543 0.000000
# 3 -0.003581 -0.002622 0.012791 0.000000 -0.011950 0.000000
# 4 0.000000 0.000000 0.000000 0.025882 0.000000 -0.000544
# 5 -0.005552 0.005543 -0.011950 0.000000 0.044237 0.000000
# 6 0.000000 0.000000 0.000000 -0.000544 0.000000 0.031260
#
#
# Mechanical properties :
#
#
# Convention : Reuss Voigt Hill
#
# Bulk Modulus (GPa) = 32.89647 41.74346 37.31996
# Shear Modulus (GPa) = 26.43675 32.80312 29.61993
#
# Velocity S-wave (km/s) = 3.16050 3.52055 3.34537
# Velocity P-wave (km/s) = 5.07424 5.68312 5.38729
#
# Compressibility (1/GPa) = 0.03039840
#
# Stress axis : x y z
#
# Youngs Moduli (GPa) = 39.93131 61.82434 78.18073
#
# Poissons Ratio (x) = 0.34638 0.27993
# Poissons Ratio (y) = 0.22372 0.20499
# Poissons Ratio (z) = 0.14297 0.16210
#
# Static dielectric constant tensor:
#      x y z
#    x 2.190510 0.000000 0.070490 
#    y 0.000000 2.084710 0.000000 
#    z 0.070490 0.000000 2.170780 
# 
# From -- ./inp_files/50434.got.cif
#   From: 2010.05.17/outbox.cif.g08.bks.cpg/sg14_26_cif.got.tgz:50434.got - 2010.06.03 17:49:19.
