data_PCOD9244662
_publ_section_title
;
Structure prediction by ZEFSAII (Michael W. Deem and Ramdas Pophale) SiO2 
 PCOD9244662
Probable space group: P 21/C
;
_chemical_formula_sum "Si O2"
_cell_formula_units_Z 28
_cell_length_a 5.383300
_cell_length_b 19.174125
_cell_length_c 11.012662
_cell_angle_alpha 90.000000
_cell_angle_beta 108.400668
_cell_angle_gamma 90.000000
_cell_volume 1078.609473
_symmetry_space_group_name_H-M "P 21/C"
_symmetry_group_IT_number 14
_symmetry_cell_setting 'monoclinic'
loop_
_space_group_symop_operation_xyz
x,y,z
-x,1/2+y,1/2-z
-x,-y,-z
x,1/2-y,1/2+z
loop_
_atom_site_type_symbol
_atom_site_label
_atom_site_fract_x
_atom_site_fract_y
_atom_site_fract_z
Si Si1 0.958233 0.807651 0.171837
Si Si2 0.965695 0.653994 0.072530
Si Si3 0.458247 0.307650 0.171832
Si Si4 0.749996 0.939667 0.750002
Si Si5 0.244319 0.971244 0.894931
Si Si6 0.255673 0.971243 0.605072
Si Si7 0.534296 0.653993 0.427475
O O1 0.749990 0.794768 0.250001
O O2 0.249993 0.833894 0.250005
O O3 0.010266 0.734260 0.110511
O O4 0.779378 0.853380 0.055103
O O5 0.720614 0.646622 0.944902
O O6 0.898777 0.612266 0.183460
O O7 0.219058 0.611744 0.067883
O O8 0.510277 0.234259 0.110505
O O9 0.561982 0.985258 0.635851
O O10 0.601214 0.887735 0.816544
O O11 0.938010 0.985259 0.864151
O O12 0.249995 0.989775 0.750001
O O13 0.280933 0.888257 0.932122
O O14 0.500000 0.000000 0.000000
O O15 0.000000 0.000000 0.500000
#
# Coordination Sequence:
#
# PCOD9244662 Si02
#       7
#     4   4   4   4   4   4   4
#     4  11  24  40  65 102 135 176 219 272 334 402
#     4  10  23  39  65  92 134 172 218 273 333 405
#     4  11  24  40  65 102 135 176 219 272 334 402
#     4  10  20  42  68  88 130 172 220 266 348 394
#     4  10  23  42  64  94 126 176 226 280 335 402
#     4  10  23  42  64  94 126 176 226 280 335 402
#     4  10  23  39  65  92 134 172 218 273 333 405
#
# _framework density 25.959350000000001
#
# number of rings (size 3 to 8) (size 9 to 14) (size 15 to 20)
#    0.000    1.714    1.429    2.571    4.000    8.000 
#    2.571    0.000    0.000    0.000    0.000    0.000 
#    0.000    0.000    0.000    0.000    0.000    0.000 
#
# Total GULP energy -156107.232407 kJ/mol
# GULP energy per Si atom -5575.258300 kJ/mol
# Density = 2.590027 g / cm^3
# Si number density = 25.959350 Si / 1000 Ang^3
#
#
#
# Elastic Constant Matrix: (Units=GPa)
#
#
# Indices 1 2 3 4 5 6 
#
# 1 94.1920 11.4839 47.7290 0.0000 61.1116 0.0000
# 2 11.4839 42.0773 39.3157 0.0000 24.1904 0.0000
# 3 47.7290 39.3157 199.0180 0.0000 92.4437 0.0000
# 4 0.0000 0.0000 0.0000 37.2366 0.0000 15.1308
# 5 61.1116 24.1904 92.4437 0.0000 67.5492 0.0000
# 6 0.0000 0.0000 0.0000 15.1308 0.0000 15.3032
#
#
#
# Elastic Compliance Matrix: (Units=1/GPa)
#
#
# Indices 1 2 3 4 5 6 
#
# 1 0.051302 0.011429 0.024426 0.000000 -0.083933 0.000000
# 2 0.011429 0.032958 0.002837 0.000000 -0.026025 0.000000
# 3 0.024426 0.002837 0.025645 0.000000 -0.058210 0.000000
# 4 0.000000 0.000000 0.000000 0.044891 0.000000 -0.044385
# 5 -0.083933 -0.026025 -0.058210 0.000000 0.179721 0.000000
# 6 0.000000 0.000000 0.000000 -0.044385 0.000000 0.109231
#
#
# Mechanical properties :
#
#
# Convention : Reuss Voigt Hill
#
# Bulk Modulus (GPa) = 5.33934 59.14939 32.24437
# Shear Modulus (GPa) = 11.66065 39.80172 25.73119
#
# Velocity S-wave (km/s) = 2.12171 3.91990 3.15177
# Velocity P-wave (km/s) = 2.83962 6.58197 5.06882
#
# Compressibility (1/GPa) = 0.18728896
#
# Stress axis : x y z
#
# Youngs Moduli (GPa) = 19.49241 30.34186 38.99438
#
# Poissons Ratio (x) = -0.34679 -0.95247
# Poissons Ratio (y) = -0.22279 -0.11063
# Poissons Ratio (z) = -0.47612 -0.08608
#
# Static dielectric constant tensor:
#      x y z
#    x 2.508940 0.000000 -0.096460 
#    y 0.000000 2.041120 0.000000 
#    z -0.096460 0.000000 2.148120 
# 
# From -- ./inp_files/21874.got.cif
#   From: 2010.05.17/outbox.cif.g08.bks.cpg/sg14_11_cif.got.tgz:21874.got - 2010.06.03 17:49:19.
