data_PCOD9244976
_publ_section_title
;
Structure prediction by ZEFSAII (Michael W. Deem and Ramdas Pophale) SiO2 
 PCOD9244976
Probable space group: P 21/C
;
_chemical_formula_sum "Si O2"
_cell_formula_units_Z 32
_cell_length_a 11.011959
_cell_length_b 9.026059
_cell_length_c 18.178556
_cell_angle_alpha 90.000000
_cell_angle_beta 59.020149
_cell_angle_gamma 90.000000
_cell_volume 1549.100030
_symmetry_space_group_name_H-M "P 21/C"
_symmetry_group_IT_number 14
_symmetry_cell_setting 'monoclinic'
loop_
_space_group_symop_operation_xyz
x,y,z
-x,1/2+y,1/2-z
-x,-y,-z
x,1/2-y,1/2+z
loop_
_atom_site_type_symbol
_atom_site_label
_atom_site_fract_x
_atom_site_fract_y
_atom_site_fract_z
Si Si1 0.146767 0.585762 0.313564
Si Si2 0.366598 0.645800 0.114598
Si Si3 0.031576 0.517103 0.818610
Si Si4 0.012219 0.699844 0.609922
Si Si5 0.161671 0.257607 0.606906
Si Si6 0.142814 0.676919 0.926609
Si Si7 0.257365 0.552204 0.623196
Si Si8 0.670713 0.973813 0.528860
O O1 0.244162 0.615469 0.212745
O O2 0.116204 0.415236 0.342150
O O3 0.206406 0.684049 0.362075
O O4 0.985768 0.651368 0.355332
O O5 0.375850 0.823493 0.098201
O O6 0.513367 0.577703 0.097059
O O7 0.337123 0.566518 0.045358
O O8 0.004502 0.343875 0.833629
O O9 0.066365 0.574957 0.889595
O O10 0.163132 0.549989 0.726178
O O11 0.901390 0.616051 0.829128
O O12 0.035605 0.756331 0.520039
O O13 0.157174 0.620897 0.590744
O O14 0.274125 0.377544 0.601399
O O15 0.235459 0.172559 0.516529
O O16 0.255263 0.577668 0.934743
#
# Coordination Sequence:
#
# PCOD9244976 Si02
#       8
#     4   4   4   4   4   4   4   4
#     4  10  24  39  67  94 131 160 221 274 329 389
#     4  11  23  45  62  92 124 180 218 272 318 402
#     4  11  21  35  63  97 129 162 211 274 332 392
#     4  11  22  35  64  98 128 162 211 271 335 388
#     4  10  21  35  65  97 120 163 209 271 326 384
#     4  11  21  40  61  91 130 170 204 272 334 388
#     4  11  21  37  64  93 126 167 219 273 315 382
#     4  11  25  41  68  86 133 174 221 262 338 390
#
# _framework density 20.657156000000001
#
# number of rings (size 3 to 8) (size 9 to 14) (size 15 to 20)
#    0.000    1.250    5.000    1.500    8.750    0.500 
#    0.000    1.250    0.000    0.000    0.000    0.000 
#    0.000    0.000    0.000    0.000    0.000    0.000 
#
# Total GULP energy -178474.315991 kJ/mol
# GULP energy per Si atom -5577.322375 kJ/mol
# Density = 2.061014 g / cm^3
# Si number density = 20.657156 Si / 1000 Ang^3
#
#
#
# Elastic Constant Matrix: (Units=GPa)
#
#
# Indices 1 2 3 4 5 6 
#
# 1 69.0820 44.7063 36.0554 0.0000 4.2039 0.0000
# 2 44.7063 173.9580 45.8192 0.0000 -1.1697 0.0000
# 3 36.0554 45.8192 91.5582 0.0000 14.8328 0.0000
# 4 0.0000 0.0000 0.0000 35.8467 0.0000 4.1326
# 5 4.2039 -1.1697 14.8328 0.0000 21.7271 0.0000
# 6 0.0000 0.0000 0.0000 4.1326 0.0000 22.2552
#
#
#
# Elastic Compliance Matrix: (Units=1/GPa)
#
#
# Indices 1 2 3 4 5 6 
#
# 1 0.019930 -0.003511 -0.006112 0.000000 0.000127 0.000000
# 2 -0.003511 0.007412 -0.002812 0.000000 0.002998 0.000000
# 3 -0.006112 -0.002812 0.016381 0.000000 -0.010152 0.000000
# 4 0.000000 0.000000 0.000000 0.028507 0.000000 -0.005293
# 5 0.000127 0.002998 -0.010152 0.000000 0.053093 0.000000
# 6 0.000000 0.000000 0.000000 -0.005293 0.000000 0.045916
#
#
# Mechanical properties :
#
#
# Convention : Reuss Voigt Hill
#
# Bulk Modulus (GPa) = 53.04446 65.30665 59.17556
# Shear Modulus (GPa) = 24.70442 29.83362 27.26902
#
# Velocity S-wave (km/s) = 3.46197 3.80442 3.63723
# Velocity P-wave (km/s) = 6.45868 7.14012 6.80793
#
# Compressibility (1/GPa) = 0.01885211
#
# Stress axis : x y z
#
# Youngs Moduli (GPa) = 50.17559 134.92117 61.04719
#
# Poissons Ratio (x) = 0.47374 0.37311
# Poissons Ratio (y) = 0.17618 0.17167
# Poissons Ratio (z) = 0.30667 0.37941
#
# Static dielectric constant tensor:
#      x y z
#    x 1.769070 0.000000 0.017770 
#    y 0.000000 1.832860 0.000000 
#    z 0.017770 0.000000 1.746380 
# 
# From -- ./inp_files/57263.got.cif
#   From: 2010.05.17/outbox.cif.g08.bks.cpg/sg14_29_cif.got.tgz:57263.got - 2010.06.03 17:49:19.
