data_PCOD9244681
_publ_section_title
;
Structure prediction by ZEFSAII (Michael W. Deem and Ramdas Pophale) SiO2 
 PCOD9244681
Probable space group: P 21/C
;
_chemical_formula_sum "Si O2"
_cell_formula_units_Z 16
_cell_length_a 4.821866
_cell_length_b 12.751738
_cell_length_c 11.934520
_cell_angle_alpha 90.000000
_cell_angle_beta 91.900649
_cell_angle_gamma 90.000000
_cell_volume 733.416165
_symmetry_space_group_name_H-M "P 21/C"
_symmetry_group_IT_number 14
_symmetry_cell_setting 'monoclinic'
loop_
_space_group_symop_operation_xyz
x,y,z
-x,1/2+y,1/2-z
-x,-y,-z
x,1/2-y,1/2+z
loop_
_atom_site_type_symbol
_atom_site_label
_atom_site_fract_x
_atom_site_fract_y
_atom_site_fract_z
Si Si1 0.904203 0.772729 0.606413
Si Si2 0.625762 0.415060 0.918875
Si Si3 0.674925 0.904237 0.952452
Si Si4 0.829133 0.375794 0.698121
O O1 0.621252 0.836142 0.612345
O O2 0.823583 0.664525 0.549268
O O3 0.049795 0.777349 0.729686
O O4 0.115564 0.844481 0.535084
O O5 0.731897 0.452897 0.797925
O O6 0.500000 0.500000 0.000000
O O7 0.433093 0.844835 0.880275
O O8 0.924802 0.926980 0.870104
O O9 0.500000 0.000000 0.000000
#
# Coordination Sequence:
#
# PCOD9244681 Si02
#       4
#     4   4   4   4
#     4  10  22  42  65  98 141 181 237 291 345 428
#     4  10  20  42  69  96 139 176 233 294 355 418
#     4  12  24  44  69 102 146 188 233 294 359 433
#     4  10  22  43  65  98 143 176 241 288 346 432
#
# _framework density 21.815718
#
# number of rings (size 3 to 8) (size 9 to 14) (size 15 to 20)
#    1.500    0.000    2.500    3.000    0.000    0.000 
#    4.500    2.500    0.000    0.000    0.000    0.000 
#    0.000    0.000    0.000    0.000    0.000    0.000 
#
# Total GULP energy -89130.708585 kJ/mol
# GULP energy per Si atom -5570.669287 kJ/mol
# Density = 2.176606 g / cm^3
# Si number density = 21.815718 Si / 1000 Ang^3
#
#
#
# Elastic Constant Matrix: (Units=GPa)
#
#
# Indices 1 2 3 4 5 6 
#
# 1 159.7031 43.8413 61.0546 0.0000 -27.2125 0.0000
# 2 43.8413 73.5488 57.6838 0.0000 -6.3768 0.0000
# 3 61.0546 57.6838 113.2520 0.0000 -8.5781 0.0000
# 4 0.0000 0.0000 0.0000 15.6817 0.0000 2.4544
# 5 -27.2125 -6.3768 -8.5781 0.0000 36.0709 0.0000
# 6 0.0000 0.0000 0.0000 2.4544 0.0000 36.3215
#
#
#
# Elastic Compliance Matrix: (Units=1/GPa)
#
#
# Indices 1 2 3 4 5 6 
#
# 1 0.009141 -0.002379 -0.003285 0.000000 0.005694 0.000000
# 2 -0.002379 0.023318 -0.010609 0.000000 -0.000195 0.000000
# 3 -0.003285 -0.010609 0.015962 0.000000 -0.000558 0.000000
# 4 0.000000 0.000000 0.000000 0.064450 0.000000 -0.004355
# 5 0.005694 -0.000195 -0.000558 0.000000 0.031852 0.000000
# 6 0.000000 0.000000 0.000000 -0.004355 0.000000 0.027826
#
#
# Mechanical properties :
#
#
# Convention : Reuss Voigt Hill
#
# Bulk Modulus (GPa) = 62.99061 74.62926 68.80994
# Shear Modulus (GPa) = 23.76570 29.87644 26.82107
#
# Velocity S-wave (km/s) = 3.30416 3.70468 3.51014
# Velocity P-wave (km/s) = 6.59494 7.25140 6.93095
#
# Compressibility (1/GPa) = 0.01587538
#
# Stress axis : x y z
#
# Youngs Moduli (GPa) = 109.40103 42.88496 62.64725
#
# Poissons Ratio (x) = 0.10200 0.20580
# Poissons Ratio (y) = 0.26021 0.66465
# Poissons Ratio (z) = 0.35938 0.45498
#
# Static dielectric constant tensor:
#      x y z
#    x 1.786260 0.000000 0.005430 
#    y 0.000000 1.926230 0.000000 
#    z 0.005430 0.000000 1.878620 
# 
# From -- ./inp_files/20385.got.cif
#   From: 2010.05.17/outbox.cif.g08.bks.cpg/sg14_11_cif.got.tgz:20385.got - 2010.06.03 17:49:19.
