data_PCOD9244295
_publ_section_title
;
Structure prediction by ZEFSAII (Michael W. Deem and Ramdas Pophale) SiO2 
 PCOD9244295
Probable space group: P 21/C
;
_chemical_formula_sum "Si O2"
_cell_formula_units_Z 32
_cell_length_a 5.486098
_cell_length_b 18.753329
_cell_length_c 14.065798
_cell_angle_alpha 90.000000
_cell_angle_beta 113.975808
_cell_angle_gamma 90.000000
_cell_volume 1322.263680
_symmetry_space_group_name_H-M "P 21/C"
_symmetry_group_IT_number 14
_symmetry_cell_setting 'monoclinic'
loop_
_space_group_symop_operation_xyz
x,y,z
-x,1/2+y,1/2-z
-x,-y,-z
x,1/2-y,1/2+z
loop_
_atom_site_type_symbol
_atom_site_label
_atom_site_fract_x
_atom_site_fract_y
_atom_site_fract_z
Si Si1 0.495659 0.708203 0.965509
Si Si2 0.442366 0.116095 0.705210
Si Si3 0.807527 0.205682 0.881051
Si Si4 0.019858 0.049452 0.768946
Si Si5 0.491053 0.159214 0.339615
Si Si6 0.018652 0.761378 0.788540
Si Si7 0.314343 0.908960 0.799585
Si Si8 0.732924 0.632185 0.511649
O O1 0.604752 0.672725 0.886108
O O2 0.590738 0.789640 0.002491
O O3 0.180050 0.716633 0.891714
O O4 0.595928 0.655448 0.065021
O O5 0.180580 0.076800 0.701256
O O6 0.550324 0.160626 0.812945
O O7 0.705796 0.068884 0.720917
O O8 0.964617 0.214476 0.805173
O O9 0.732851 0.285282 0.894126
O O10 0.982586 0.161431 0.982544
O O11 0.085800 0.965797 0.781790
O O12 0.170830 0.083681 0.884849
O O13 0.270159 0.203814 0.245370
O O14 0.577294 0.092549 0.291344
O O15 0.200188 0.830010 0.795546
O O16 0.557579 0.913935 0.911999
#
# Coordination Sequence:
#
# PCOD9244295 Si02
#       8
#     4   4   4   4   4   4   4   4
#     4  10  21  38  67 101 125 169 219 281 346 393
#     4  10  24  41  66  94 128 173 224 271 328 398
#     4   9  19  35  59  95 127 165 207 274 343 394
#     4  11  24  47  66  95 137 184 223 270 327 406
#     4  11  21  37  64  95 136 170 217 281 336 390
#     4   9  20  38  59  93 131 168 216 272 332 394
#     4  10  24  40  61  94 133 183 227 267 326 398
#     4  10  20  40  66 101 132 165 223 280 351 396
#
# _framework density 24.200921999999998
#
# number of rings (size 3 to 8) (size 9 to 14) (size 15 to 20)
#    0.000    2.000    1.250    1.875    7.000    1.000 
#    2.250    4.375    0.000    0.000    0.000    0.000 
#    0.000    0.000    0.000    0.000    0.000    0.000 
#
# Total GULP energy -178532.005583 kJ/mol
# GULP energy per Si atom -5579.125174 kJ/mol
# Density = 2.414584 g / cm^3
# Si number density = 24.200922 Si / 1000 Ang^3
#
#
#
# Elastic Constant Matrix: (Units=GPa)
#
#
# Indices 1 2 3 4 5 6 
#
# 1 72.9896 5.1399 19.2849 0.0000 -3.5988 0.0000
# 2 5.1399 48.2487 7.9116 0.0000 -3.5981 0.0000
# 3 19.2849 7.9116 90.5656 0.0000 3.7133 0.0000
# 4 0.0000 0.0000 0.0000 19.0944 0.0000 -1.8205
# 5 -3.5988 -3.5981 3.7133 0.0000 19.5854 0.0000
# 6 0.0000 0.0000 0.0000 -1.8205 0.0000 33.7484
#
#
#
# Elastic Compliance Matrix: (Units=1/GPa)
#
#
# Indices 1 2 3 4 5 6 
#
# 1 0.014760 -0.000811 -0.003202 0.000000 0.003170 0.000000
# 2 -0.000811 0.021428 -0.001869 0.000000 0.004142 0.000000
# 3 -0.003202 -0.001869 0.012018 0.000000 -0.003210 0.000000
# 4 0.000000 0.000000 0.000000 0.052642 0.000000 0.002840
# 5 0.003170 0.004142 -0.003210 0.000000 0.053011 0.000000
# 6 0.000000 0.000000 0.000000 0.002840 0.000000 0.029784
#
#
# Mechanical properties :
#
#
# Convention : Reuss Voigt Hill
#
# Bulk Modulus (GPa) = 27.44075 30.71960 29.08017
# Shear Modulus (GPa) = 24.09004 26.45013 25.27008
#
# Velocity S-wave (km/s) = 3.15845 3.30955 3.23488
# Velocity P-wave (km/s) = 4.96633 5.22736 5.09851
#
# Compressibility (1/GPa) = 0.03644215
#
# Stress axis : x y z
#
# Youngs Moduli (GPa) = 67.75041 46.66864 83.20515
#
# Poissons Ratio (x) = 0.03784 0.26643
# Poissons Ratio (y) = 0.05494 0.15551
# Poissons Ratio (z) = 0.21695 0.08722
#
# Static dielectric constant tensor:
#      x y z
#    x 2.076850 0.000000 -0.019570 
#    y 0.000000 1.922680 0.000000 
#    z -0.019570 0.000000 2.024860 
# 
# From -- ./inp_files/38098.got.cif
#   From: 2010.05.17/outbox.cif.g08.bks.cpg/sg14_20_cif.got.tgz:38098.got - 2010.06.03 17:49:19.
