data_PCOD9244753
_publ_section_title
;
Structure prediction by ZEFSAII (Michael W. Deem and Ramdas Pophale) SiO2 
 PCOD9244753
Probable space group: P 21/C
;
_chemical_formula_sum "Si O2"
_cell_formula_units_Z 32
_cell_length_a 11.113084
_cell_length_b 9.317195
_cell_length_c 25.131266
_cell_angle_alpha 90.000000
_cell_angle_beta 153.110893
_cell_angle_gamma 90.000000
_cell_volume 1176.866705
_symmetry_space_group_name_H-M "P 21/C"
_symmetry_group_IT_number 14
_symmetry_cell_setting 'monoclinic'
loop_
_space_group_symop_operation_xyz
x,y,z
-x,1/2+y,1/2-z
-x,-y,-z
x,1/2-y,1/2+z
loop_
_atom_site_type_symbol
_atom_site_label
_atom_site_fract_x
_atom_site_fract_y
_atom_site_fract_z
Si Si1 0.210264 0.695695 0.960929
Si Si2 0.877559 0.028771 0.300897
Si Si3 0.671925 0.600167 0.609492
Si Si4 0.756659 0.184412 0.709980
Si Si5 0.738707 0.854620 0.971484
Si Si6 0.106320 0.835769 0.544423
Si Si7 0.428073 0.937540 0.190031
Si Si8 0.166840 0.050415 0.191551
O O1 0.164387 0.541243 0.916658
O O2 0.476147 0.770511 0.046475
O O3 0.183063 0.696272 0.013556
O O4 0.960223 0.798371 0.844572
O O5 0.738022 0.983299 0.190638
O O6 0.733199 0.961775 0.295575
O O7 0.839513 0.198132 0.288108
O O8 0.500000 0.500000 0.500000
O O9 0.966617 0.660418 0.711379
O O10 0.485862 0.263511 0.585378
O O11 0.680023 0.027336 0.700768
O O12 0.690495 0.982207 0.908450
O O13 0.865756 0.739251 0.981445
O O14 0.917024 0.944676 0.082304
O O15 0.338440 0.726937 0.660867
O O16 0.000000 0.000000 0.500000
O O17 0.339082 0.025204 0.206714
#
# Coordination Sequence:
#
# PCOD9244753 Si02
#       8
#     4   4   4   4   4   4   4   4
#     4  12  24  46  71 107 143 193 240 303 368 435
#     4  11  28  45  70 112 142 178 254 305 353 433
#     4  12  27  52  77  95 145 201 241 298 376 440
#     4  11  27  43  72 105 132 189 246 294 355 430
#     4  10  21  43  67  99 143 183 240 286 353 444
#     4  11  22  39  68 106 151 192 233 299 371 430
#     4  10  20  43  69  99 150 187 230 286 363 444
#     4  11  21  41  74 103 143 197 223 290 379 431
#
# _framework density 27.190846000000001
#
# number of rings (size 3 to 8) (size 9 to 14) (size 15 to 20)
#    0.000    1.000    5.000    1.500    7.000    1.500 
#    2.250    0.000    0.000    0.000    0.000    0.000 
#    0.000    0.000    0.000    0.000    0.000    0.000 
#
# Total GULP energy -178597.031639 kJ/mol
# GULP energy per Si atom -5581.157239 kJ/mol
# Density = 2.712896 g / cm^3
# Si number density = 27.190846 Si / 1000 Ang^3
#
#
#
# Elastic Constant Matrix: (Units=GPa)
#
#
# Indices 1 2 3 4 5 6 
#
# 1 123.2786 11.7282 34.5424 0.0000 28.4554 0.0000
# 2 11.7282 124.5372 17.9971 0.0000 13.3215 0.0000
# 3 34.5424 17.9971 47.0362 0.0000 10.9561 0.0000
# 4 0.0000 0.0000 0.0000 37.2230 0.0000 7.3973
# 5 28.4554 13.3215 10.9561 0.0000 42.7678 0.0000
# 6 0.0000 0.0000 0.0000 7.3973 0.0000 39.4253
#
#
#
# Elastic Compliance Matrix: (Units=1/GPa)
#
#
# Indices 1 2 3 4 5 6 
#
# 1 0.011464 0.000607 -0.007264 0.000000 -0.005956 0.000000
# 2 0.000607 0.008684 -0.003238 0.000000 -0.002280 0.000000
# 3 -0.007264 -0.003238 0.028153 0.000000 -0.001371 0.000000
# 4 0.000000 0.000000 0.000000 0.027906 0.000000 -0.005236
# 5 -0.005956 -0.002280 -0.001371 0.000000 0.028406 0.000000
# 6 0.000000 0.000000 0.000000 -0.005236 0.000000 0.026347
#
#
# Mechanical properties :
#
#
# Convention : Reuss Voigt Hill
#
# Bulk Modulus (GPa) = 35.07286 47.04306 41.05796
# Shear Modulus (GPa) = 31.20075 39.25552 35.22814
#
# Velocity S-wave (km/s) = 3.39111 3.80373 3.60333
# Velocity P-wave (km/s) = 5.31598 6.05226 5.69603
#
# Compressibility (1/GPa) = 0.02851208
#
# Stress axis : x y z
#
# Youngs Moduli (GPa) = 87.22940 115.15058 35.52040
#
# Poissons Ratio (x) = -0.06992 0.25802
# Poissons Ratio (y) = -0.05297 0.11501
# Poissons Ratio (z) = 0.63363 0.37283
#
# Static dielectric constant tensor:
#      x y z
#    x 2.078210 0.000000 0.039760 
#    y 0.000000 2.184500 0.000000 
#    z 0.039760 0.000000 2.420650 
# 
# From -- ./inp_files/80040.got.cif
#   From: 2010.05.17/outbox.cif.g08.bks.cpg/sg14_41_cif.got.tgz:80040.got - 2010.06.03 17:49:19.
