data_PCOD9244358
_publ_section_title
;
Structure prediction by ZEFSAII (Michael W. Deem and Ramdas Pophale) SiO2 
 PCOD9244358
Probable space group: P 21/C
;
_chemical_formula_sum "Si O2"
_cell_formula_units_Z 24
_cell_length_a 12.469401
_cell_length_b 11.417469
_cell_length_c 16.893218
_cell_angle_alpha 90.000000
_cell_angle_beta 26.198749
_cell_angle_gamma 90.000000
_cell_volume 1061.805603
_symmetry_space_group_name_H-M "P 21/C"
_symmetry_group_IT_number 14
_symmetry_cell_setting 'monoclinic'
loop_
_space_group_symop_operation_xyz
x,y,z
-x,1/2+y,1/2-z
-x,-y,-z
x,1/2-y,1/2+z
loop_
_atom_site_type_symbol
_atom_site_label
_atom_site_fract_x
_atom_site_fract_y
_atom_site_fract_z
Si Si1 0.731034 0.986457 0.789757
Si Si2 0.493726 0.340534 0.697043
Si Si3 0.164602 0.755337 0.243652
Si Si4 0.010127 0.235774 0.304755
Si Si5 0.613761 0.837932 0.344707
Si Si6 0.739991 0.436202 0.690535
O O1 0.857164 0.112702 0.710136
O O2 0.615536 0.947431 0.782446
O O3 0.902192 0.884177 0.711937
O O4 0.500000 0.000000 0.000000
O O5 0.741698 0.275703 0.505401
O O6 0.320601 0.235493 0.778914
O O7 0.575148 0.386724 0.728145
O O8 0.969156 0.729784 0.303923
O O9 0.182647 0.667510 0.303298
O O10 0.415904 0.730021 0.029225
O O11 0.164483 0.338470 0.241691
O O12 0.568603 0.969232 0.348450
O O13 0.000000 0.500000 0.500000
#
# Coordination Sequence:
#
# PCOD9244358 Si02
#       6
#     4   4   4   4   4   4
#     4  11  21  42  67  97 129 173 219 271 328 386
#     4  10  23  43  64  93 137 169 210 275 335 381
#     4  11  25  41  69  98 126 176 226 262 329 391
#     4  10  20  40  68  93 127 167 217 270 321 385
#     4  10  22  44  64  94 132 169 218 272 317 396
#     4  12  26  41  66  94 135 173 217 269 335 383
#
# _framework density 22.603007000000002
#
# number of rings (size 3 to 8) (size 9 to 14) (size 15 to 20)
#    0.000    1.333    6.667    0.500    7.000    0.000 
#    0.000    0.833    0.000    0.000    0.000    0.000 
#    0.000    0.000    0.000    0.000    0.000    0.000 
#
# Total GULP energy -133660.585408 kJ/mol
# GULP energy per Si atom -5569.191059 kJ/mol
# Density = 2.255156 g / cm^3
# Si number density = 22.603007 Si / 1000 Ang^3
#
#
#
# Elastic Constant Matrix: (Units=GPa)
#
#
# Indices 1 2 3 4 5 6 
#
# 1 295.4595 60.8773 67.9358 0.0000 -25.2282 0.0000
# 2 60.8773 205.7349 -36.5324 0.0000 29.9872 0.0000
# 3 67.9358 -36.5324 88.2275 0.0000 -25.7193 0.0000
# 4 0.0000 0.0000 0.0000 25.0789 0.0000 10.8026
# 5 -25.2282 29.9872 -25.7193 0.0000 23.6632 0.0000
# 6 0.0000 0.0000 0.0000 10.8026 0.0000 38.5146
#
#
#
# Elastic Compliance Matrix: (Units=1/GPa)
#
#
# Indices 1 2 3 4 5 6 
#
# 1 0.005351 -0.003051 -0.003796 0.000000 0.005445 0.000000
# 2 -0.003051 0.007711 0.002555 0.000000 -0.010248 0.000000
# 3 -0.003796 0.002555 0.019310 0.000000 0.013703 0.000000
# 4 0.000000 0.000000 0.000000 0.045354 0.000000 -0.012721
# 5 0.005445 -0.010248 0.013703 0.000000 0.075945 0.000000
# 6 0.000000 0.000000 0.000000 -0.012721 0.000000 0.029532
#
#
# Mechanical properties :
#
#
# Convention : Reuss Voigt Hill
#
# Bulk Modulus (GPa) = 42.04034 85.99813 64.01924
# Shear Modulus (GPa) = 25.03546 50.59407 37.81476
#
# Velocity S-wave (km/s) = 3.33170 4.73628 4.09467
# Velocity P-wave (km/s) = 5.78274 8.24861 7.12319
#
# Compressibility (1/GPa) = 0.02378668
#
# Stress axis : x y z
#
# Youngs Moduli (GPa) = 186.87620 129.68737 51.78655
#
# Poissons Ratio (x) = 0.39571 0.19660
# Poissons Ratio (y) = 0.57021 -0.13232
# Poissons Ratio (z) = 0.70946 -0.33135
#
# Static dielectric constant tensor:
#      x y z
#    x 1.879990 0.000000 0.057980 
#    y 0.000000 1.825910 0.000000 
#    z 0.057980 0.000000 1.807140 
# 
# From -- ./inp_files/57638.got.cif
#   From: 2010.05.17/outbox.cif.g08.bks.cpg/sg14_29_cif.got.tgz:57638.got - 2010.06.03 17:49:19.
