data_PCOD9244824
_publ_section_title
;
Structure prediction by ZEFSAII (Michael W. Deem and Ramdas Pophale) SiO2 
 PCOD9244824
Probable space group: P 21/C
;
_chemical_formula_sum "Si O2"
_cell_formula_units_Z 28
_cell_length_a 12.013546
_cell_length_b 9.004524
_cell_length_c 9.607875
_cell_angle_alpha 90.000000
_cell_angle_beta 67.405331
_cell_angle_gamma 90.000000
_cell_volume 959.570173
_symmetry_space_group_name_H-M "P 21/C"
_symmetry_group_IT_number 14
_symmetry_cell_setting 'monoclinic'
loop_
_space_group_symop_operation_xyz
x,y,z
-x,1/2+y,1/2-z
-x,-y,-z
x,1/2-y,1/2+z
loop_
_atom_site_type_symbol
_atom_site_label
_atom_site_fract_x
_atom_site_fract_y
_atom_site_fract_z
Si Si1 0.889339 0.286185 0.899576
Si Si2 0.256735 0.524735 0.532238
Si Si3 0.117428 0.297154 0.975776
Si Si4 0.302444 0.557922 0.820480
Si Si5 0.837831 0.560434 0.759871
Si Si6 0.609653 0.733852 0.937919
Si Si7 0.522778 0.397794 0.750367
O O1 0.872633 0.108236 0.905104
O O2 0.878662 0.391730 0.768238
O O3 0.001403 0.337789 0.939016
O O4 0.773214 0.337573 0.044002
O O5 0.300160 0.595466 0.659852
O O6 0.296171 0.353373 0.540022
O O7 0.343948 0.572258 0.364899
O O8 0.228019 0.402213 0.874838
O O9 0.140043 0.131285 0.902725
O O10 0.098192 0.338981 0.147338
O O11 0.439635 0.544513 0.802460
O O12 0.696662 0.596178 0.858484
O O13 0.508239 0.685838 0.094420
O O14 0.546251 0.817201 0.843148
#
# Coordination Sequence:
#
# PCOD9244824 Si02
#       7
#     4   4   4   4   4   4   4
#     4  11  26  41  67  97 135 172 221 272 326 390
#     4  11  26  41  67  97 135 172 221 272 326 390
#     4  11  23  41  73  93 131 173 223 262 331 388
#     4  10  20  46  64  92 132 184 212 260 336 392
#     4  11  21  45  69  96 130 175 220 266 328 392
#     4  11  21  45  69  96 130 175 220 266 328 392
#     4  11  23  41  73  93 131 173 223 262 331 388
#
# _framework density 29.179731
#
# number of rings (size 3 to 8) (size 9 to 14) (size 15 to 20)
#    0.000    1.143    5.714    3.429    8.000    0.000 
#    5.143    2.857    0.000    0.000    0.000    0.000 
#    0.000    0.000    0.000    0.000    0.000    0.000 
#
# Total GULP energy -156878.209056 kJ/mol
# GULP energy per Si atom -5602.793181 kJ/mol
# Density = 2.911332 g / cm^3
# Si number density = 29.179731 Si / 1000 Ang^3
#
#
#
# Elastic Constant Matrix: (Units=GPa)
#
#
# Indices 1 2 3 4 5 6 
#
# 1 75.3786 45.6814 16.0627 0.0000 -9.1118 0.0000
# 2 45.6814 148.0068 37.6482 0.0000 -2.8186 0.0000
# 3 16.0627 37.6482 147.3297 0.0000 15.4982 0.0000
# 4 0.0000 0.0000 0.0000 41.1920 0.0000 2.8238
# 5 -9.1118 -2.8186 15.4982 0.0000 54.0557 0.0000
# 6 0.0000 0.0000 0.0000 2.8238 0.0000 55.2973
#
#
#
# Elastic Compliance Matrix: (Units=1/GPa)
#
#
# Indices 1 2 3 4 5 6 
#
# 1 0.016761 -0.004898 -0.000873 0.000000 0.002820 0.000000
# 2 -0.004898 0.008703 -0.001702 0.000000 0.000116 0.000000
# 3 -0.000873 -0.001702 0.007571 0.000000 -0.002406 0.000000
# 4 0.000000 0.000000 0.000000 0.024362 0.000000 -0.001244
# 5 0.002820 0.000116 -0.002406 0.000000 0.019671 0.000000
# 6 0.000000 0.000000 0.000000 -0.001244 0.000000 0.018148
#
#
# Mechanical properties :
#
#
# Convention : Reuss Voigt Hill
#
# Bulk Modulus (GPa) = 55.27780 63.27777 59.27779
# Shear Modulus (GPa) = 43.03271 48.19718 45.61495
#
# Velocity S-wave (km/s) = 3.84441 4.06856 3.95807
# Velocity P-wave (km/s) = 6.22021 6.61842 6.42240
#
# Compressibility (1/GPa) = 0.01809044
#
# Stress axis : x y z
#
# Youngs Moduli (GPa) = 59.66127 114.89910 132.08701
#
# Poissons Ratio (x) = 0.56273 0.11525
# Poissons Ratio (y) = 0.29220 0.22485
# Poissons Ratio (z) = 0.05206 0.19559
#
# Static dielectric constant tensor:
#      x y z
#    x 2.269900 0.000000 0.045050 
#    y 0.000000 2.434620 0.000000 
#    z 0.045050 0.000000 2.206900 
# 
# From -- ./inp_files/31453.got.cif
#   From: 2010.05.17/outbox.cif.g08.bks.cpg/sg14_16_cif.got.tgz:31453.got - 2010.06.03 17:49:19.
