data_PCOD9244091
_publ_section_title
;
Structure prediction by ZEFSAII (Michael W. Deem and Ramdas Pophale) SiO2 
 PCOD9244091
Probable space group: P 21/C
;
_chemical_formula_sum "Si O2"
_cell_formula_units_Z 24
_cell_length_a 10.866376
_cell_length_b 11.427543
_cell_length_c 15.768614
_cell_angle_alpha 90.000000
_cell_angle_beta 25.976412
_cell_angle_gamma 90.000000
_cell_volume 857.642517
_symmetry_space_group_name_H-M "P 21/C"
_symmetry_group_IT_number 14
_symmetry_cell_setting 'monoclinic'
loop_
_space_group_symop_operation_xyz
x,y,z
-x,1/2+y,1/2-z
-x,-y,-z
x,1/2-y,1/2+z
loop_
_atom_site_type_symbol
_atom_site_label
_atom_site_fract_x
_atom_site_fract_y
_atom_site_fract_z
Si Si1 0.732235 0.895530 0.766902
Si Si2 0.681657 0.467792 0.016908
Si Si3 0.663080 0.549783 0.603926
Si Si4 0.459997 0.718762 0.171901
Si Si5 0.248248 0.745193 0.633668
Si Si6 0.958985 0.170405 0.919848
O O1 0.584140 0.977073 0.790246
O O2 0.005263 0.953764 0.638759
O O3 0.832160 0.767658 0.672352
O O4 0.489269 0.855584 0.981038
O O5 0.657862 0.375679 0.955449
O O6 0.331243 0.327603 0.447332
O O7 0.621217 0.603670 0.041738
O O8 0.546545 0.567316 0.770323
O O9 0.945086 0.471096 0.427745
O O10 0.217711 0.746145 0.253495
O O11 0.314123 0.695282 0.352424
O O12 0.069864 0.707298 0.661085
#
# Coordination Sequence:
#
# PCOD9244091 Si02
#       6
#     4   4   4   4   4   4
#     4  10  20  40  64  90 119 166 203 255 303 362
#     4  10  21  41  61  89 130 159 201 258 309 362
#     4  10  20  39  67  89 121 166 208 249 308 371
#     4  11  21  39  64  89 120 171 199 249 317 364
#     4  10  21  40  62  88 126 159 201 254 308 359
#     4   9  21  40  62  89 127 157 204 257 300 362
#
# _framework density 27.983685000000001
#
# number of rings (size 3 to 8) (size 9 to 14) (size 15 to 20)
#    0.000    2.000    3.333    1.000    0.000    2.667 
#    9.000    5.000    0.000    0.000    0.000    0.000 
#    0.000    0.000    0.000    0.000    0.000    0.000 
#
# Total GULP energy -134280.406164 kJ/mol
# GULP energy per Si atom -5595.016924 kJ/mol
# Density = 2.791999 g / cm^3
# Si number density = 27.983685 Si / 1000 Ang^3
#
#
#
# Elastic Constant Matrix: (Units=GPa)
#
#
# Indices 1 2 3 4 5 6 
#
# 1 158.6476 62.3206 41.2845 0.0000 3.0606 0.0000
# 2 62.3206 170.1424 23.2854 0.0000 5.9343 0.0000
# 3 41.2845 23.2854 45.4476 0.0000 13.9345 0.0000
# 4 0.0000 0.0000 0.0000 27.6155 0.0000 -9.7664
# 5 3.0606 5.9343 13.9345 0.0000 41.6052 0.0000
# 6 0.0000 0.0000 0.0000 -9.7664 0.0000 56.4643
#
#
#
# Elastic Compliance Matrix: (Units=1/GPa)
#
#
# Indices 1 2 3 4 5 6 
#
# 1 0.009249 -0.002389 -0.007883 0.000000 0.002301 0.000000
# 2 -0.002389 0.006939 -0.001266 0.000000 -0.000390 0.000000
# 3 -0.007883 -0.001266 0.032964 0.000000 -0.010280 0.000000
# 4 0.000000 0.000000 0.000000 0.038571 0.000000 0.006671
# 5 0.002301 -0.000390 -0.010280 0.000000 0.027365 0.000000
# 6 0.000000 0.000000 0.000000 0.006671 0.000000 0.018864
#
#
# Mechanical properties :
#
#
# Convention : Reuss Voigt Hill
#
# Bulk Modulus (GPa) = 38.34704 69.77983 54.06343
# Shear Modulus (GPa) = 30.17138 41.62682 35.89910
#
# Velocity S-wave (km/s) = 3.28712 3.86105 3.58559
# Velocity P-wave (km/s) = 5.30472 6.69828 6.04181
#
# Compressibility (1/GPa) = 0.02607763
#
# Stress axis : x y z
#
# Youngs Moduli (GPa) = 108.12329 144.10636 30.33570
#
# Poissons Ratio (x) = 0.34428 0.23913
# Poissons Ratio (y) = 0.25831 0.03839
# Poissons Ratio (z) = 0.85231 0.18237
#
# Static dielectric constant tensor:
#      x y z
#    x 2.157890 0.000000 -0.056110 
#    y 0.000000 2.214690 0.000000 
#    z -0.056110 0.000000 2.224770 
# 
# From -- ./inp_files/44867.got.cif
#   From: 2010.05.17/outbox.cif.g08.bks.cpg/sg14_23_cif.got.tgz:44867.got - 2010.06.03 17:49:19.
