data_PCOD9244950
_publ_section_title
;
Structure prediction by ZEFSAII (Michael W. Deem and Ramdas Pophale) SiO2 
 PCOD9244950
Probable space group: P 21/C
;
_chemical_formula_sum "Si O2"
_cell_formula_units_Z 32
_cell_length_a 13.724037
_cell_length_b 12.767295
_cell_length_c 8.575986
_cell_angle_alpha 90.000000
_cell_angle_beta 83.329504
_cell_angle_gamma 90.000000
_cell_volume 1492.502016
_symmetry_space_group_name_H-M "P 21/C"
_symmetry_group_IT_number 14
_symmetry_cell_setting 'monoclinic'
loop_
_space_group_symop_operation_xyz
x,y,z
-x,1/2+y,1/2-z
-x,-y,-z
x,1/2-y,1/2+z
loop_
_atom_site_type_symbol
_atom_site_label
_atom_site_fract_x
_atom_site_fract_y
_atom_site_fract_z
Si Si1 0.917417 0.363708 0.899350
Si Si2 0.652596 0.563732 0.528907
Si Si3 0.090427 0.989555 0.324276
Si Si4 0.440941 0.608274 0.669624
Si Si5 0.168731 0.161119 0.106665
Si Si6 0.757925 0.119317 0.193243
Si Si7 0.040923 0.325857 0.329198
Si Si8 0.345951 0.787683 0.486607
O O1 0.866613 0.387397 0.744568
O O2 0.024064 0.416404 0.902554
O O3 0.946950 0.243938 0.895813
O O4 0.861171 0.417347 0.053209
O O5 0.557353 0.592366 0.647603
O O6 0.609945 0.496111 0.391343
O O7 0.718211 0.663685 0.467017
O O8 0.720669 0.485042 0.616926
O O9 0.010907 0.920725 0.247937
O O10 0.165056 0.052911 0.204928
O O11 0.417403 0.700919 0.550140
O O12 0.396869 0.644140 0.842946
O O13 0.116766 0.257476 0.207926
O O14 0.100311 0.144263 0.970274
O O15 0.737780 0.215857 0.080153
O O16 0.695379 0.146761 0.360496
#
# Coordination Sequence:
#
# PCOD9244950 Si02
#       8
#     4   4   4   4   4   4   4   4
#     4  10  22  37  59  87 121 159 201 256 297 359
#     4  10  22  40  58  88 121 160 195 252 307 371
#     4  10  22  39  59  84 122 162 203 252 305 354
#     4   9  20  40  62  84 123 150 196 252 318 361
#     4  11  24  39  63  87 121 161 209 252 300 371
#     4  10  21  35  59  89 117 152 204 246 302 364
#     4  11  22  41  59  89 121 162 205 249 308 356
#     4   9  20  37  61  91 114 152 199 254 301 372
#
# _framework density 21.440508999999999
#
# number of rings (size 3 to 8) (size 9 to 14) (size 15 to 20)
#    0.000    2.000    1.250    1.125    3.500    4.500 
#    0.000    0.000    0.000    0.000    0.000    0.000 
#    0.000    0.000    0.000    0.000    0.000    0.000 
#
# Total GULP energy -178572.821030 kJ/mol
# GULP energy per Si atom -5580.400657 kJ/mol
# Density = 2.139171 g / cm^3
# Si number density = 21.440509 Si / 1000 Ang^3
#
#
#
# Elastic Constant Matrix: (Units=GPa)
#
#
# Indices 1 2 3 4 5 6 
#
# 1 65.9146 -11.5639 -8.4054 0.0000 -7.5237 0.0000
# 2 -11.5639 20.1496 -9.7498 0.0000 -12.7013 0.0000
# 3 -8.4054 -9.7498 53.8705 0.0000 -5.8128 0.0000
# 4 0.0000 0.0000 0.0000 9.0693 0.0000 -8.0953
# 5 -7.5237 -12.7013 -5.8128 0.0000 26.9219 0.0000
# 6 0.0000 0.0000 0.0000 -8.0953 0.0000 24.0508
#
#
#
# Elastic Compliance Matrix: (Units=1/GPa)
#
#
# Indices 1 2 3 4 5 6 
#
# 1 0.028942 0.045244 0.016259 0.000000 0.032944 0.000000
# 2 0.045244 0.160082 0.046632 0.000000 0.098237 0.000000
# 3 0.016259 0.046632 0.033177 0.000000 0.033707 0.000000
# 4 0.000000 0.000000 0.000000 0.157616 0.000000 0.053052
# 5 0.032944 0.098237 0.033707 0.000000 0.099976 0.000000
# 6 0.000000 0.000000 0.000000 0.053052 0.000000 0.059435
#
#
# Mechanical properties :
#
#
# Convention : Reuss Voigt Hill
#
# Bulk Modulus (GPa) = 2.28065 8.94403 5.61234
# Shear Modulus (GPa) = 10.65837 23.31867 16.98852
#
# Velocity S-wave (km/s) = 2.23202 3.30145 2.81794
# Velocity P-wave (km/s) = 2.77644 4.32590 3.63469
#
# Compressibility (1/GPa) = 0.43847235
#
# Stress axis : x y z
#
# Youngs Moduli (GPa) = 34.55132 6.24679 30.14154
#
# Poissons Ratio (x) = -0.28263 -0.49008
# Poissons Ratio (y) = -1.56324 -1.40556
# Poissons Ratio (z) = -0.56178 -0.29130
#
# Static dielectric constant tensor:
#      x y z
#    x 1.807760 0.000000 -0.085540 
#    y 0.000000 1.799500 0.000000 
#    z -0.085540 0.000000 1.858180 
# 
# From -- ./inp_files/13356.got.cif
#   From: 2010.05.17/outbox.cif.g08.bks.cpg/sg14_7_cif.got.tgz:13356.got - 2010.06.03 17:49:19.
