data_PCOD9244773
_publ_section_title
;
Structure prediction by ZEFSAII (Michael W. Deem and Ramdas Pophale) SiO2 
 PCOD9244773
Probable space group: P 21/C
;
_chemical_formula_sum "Si O2"
_cell_formula_units_Z 30
_cell_length_a 12.450460
_cell_length_b 12.405147
_cell_length_c 7.363651
_cell_angle_alpha 90.000000
_cell_angle_beta 87.278366
_cell_angle_gamma 90.000000
_cell_volume 1136.031454
_symmetry_space_group_name_H-M "P 21/C"
_symmetry_group_IT_number 14
_symmetry_cell_setting 'monoclinic'
loop_
_space_group_symop_operation_xyz
x,y,z
-x,1/2+y,1/2-z
-x,-y,-z
x,1/2-y,1/2+z
loop_
_atom_site_type_symbol
_atom_site_label
_atom_site_fract_x
_atom_site_fract_y
_atom_site_fract_z
Si Si1 0.000000 0.000000 0.000000
Si Si2 0.116080 0.098196 0.659145
Si Si3 0.638527 0.123953 0.295349
Si Si4 0.881798 0.118976 0.578886
Si Si5 0.408494 0.075566 0.155357
Si Si6 0.481431 0.846663 0.181919
Si Si7 0.655313 0.892926 0.458788
Si Si8 0.174732 0.654731 0.507411
O O1 0.062214 0.888138 0.936732
O O2 0.912833 0.933711 0.133631
O O3 0.233143 0.149465 0.631804
O O4 0.006637 0.152128 0.595418
O O5 0.121295 0.991168 0.530877
O O6 0.596385 0.244527 0.346191
O O7 0.733782 0.123452 0.141632
O O8 0.654766 0.024440 0.432641
O O9 0.532062 0.085221 0.203165
O O10 0.821981 0.215778 0.482798
O O11 0.835300 0.105781 0.787743
O O12 0.453716 0.351076 0.131515
O O13 0.344873 0.127103 0.325687
O O14 0.400503 0.947175 0.163414
O O15 0.416469 0.133916 0.962522
#
# Coordination Sequence:
#
# PCOD9244773 Si02
#       8
#     2   4   4   4   4   4   4   4
#     4  10  20  44  66 100 144 174 226 298 362 414
#     4  10  22  44  69  97 142 189 231 296 360 434
#     4  11  24  40  75 104 134 192 244 301 355 434
#     4  10  24  40  66 108 141 175 241 295 356 428
#     4  10  25  41  64 101 146 179 229 305 360 426
#     4  10  24  43  64 103 143 178 238 295 355 431
#     4  11  24  47  69 100 144 192 235 297 370 428
#     4  11  23  38  72 106 136 183 231 304 358 422
#
# _framework density 26.407720000000001
#
# number of rings (size 3 to 8) (size 9 to 14) (size 15 to 20)
#    0.000    1.600    1.333    2.400    7.467    2.133 
#    2.400    2.667    0.000    0.000    0.000    0.000 
#    0.000    0.000    0.000    0.000    0.000    0.000 
#
# Total GULP energy -167104.735038 kJ/mol
# GULP energy per Si atom -5570.157835 kJ/mol
# Density = 2.634761 g / cm^3
# Si number density = 26.407720 Si / 1000 Ang^3
#
#
#
# Elastic Constant Matrix: (Units=GPa)
#
#
# Indices 1 2 3 4 5 6 
#
# 1 119.6924 20.0271 33.1577 0.0000 -40.5557 0.0000
# 2 20.0271 117.9710 16.3760 0.0000 -9.6055 0.0000
# 3 33.1577 16.3760 139.7726 0.0000 -46.1228 0.0000
# 4 0.0000 0.0000 0.0000 21.8209 0.0000 -3.1181
# 5 -40.5557 -9.6055 -46.1228 0.0000 50.6556 0.0000
# 6 0.0000 0.0000 0.0000 -3.1181 0.0000 31.1744
#
#
#
# Elastic Compliance Matrix: (Units=1/GPa)
#
#
# Indices 1 2 3 4 5 6 
#
# 1 0.011669 -0.001276 0.000549 0.000000 0.009601 0.000000
# 2 -0.001276 0.008793 -0.000735 0.000000 -0.000023 0.000000
# 3 0.000549 -0.000735 0.010306 0.000000 0.009684 0.000000
# 4 0.000000 0.000000 0.000000 0.046492 0.000000 0.004650
# 5 0.009601 -0.000023 0.009684 0.000000 0.036241 0.000000
# 6 0.000000 0.000000 0.000000 0.004650 0.000000 0.032543
#
#
# Mechanical properties :
#
#
# Convention : Reuss Voigt Hill
#
# Bulk Modulus (GPa) = 35.91277 57.39530 46.65403
# Shear Modulus (GPa) = 31.59582 41.25519 36.42550
#
# Velocity S-wave (km/s) = 3.46274 3.95681 3.71799
# Velocity P-wave (km/s) = 5.44209 6.53120 6.01136
#
# Compressibility (1/GPa) = 0.02784525
#
# Stress axis : x y z
#
# Youngs Moduli (GPa) = 85.69695 113.72198 97.03156
#
# Poissons Ratio (x) = 0.14505 -0.05330
# Poissons Ratio (y) = 0.10931 0.07135
# Poissons Ratio (z) = -0.04708 0.08363
#
# Static dielectric constant tensor:
#      x y z
#    x 2.098620 0.000000 0.110040 
#    y 0.000000 2.269230 0.000000 
#    z 0.110040 0.000000 2.147190 
# 
# From -- ./inp_files/15760.got.cif
#   From: 2010.05.17/outbox.cif.g08.bks.cpg/sg14_8_cif.got.tgz:15760.got - 2010.06.03 17:49:19.
