data_PCOD9244603
_publ_section_title
;
Structure prediction by ZEFSAII (Michael W. Deem and Ramdas Pophale) SiO2 
 PCOD9244603
Probable space group: P 21/C
;
_chemical_formula_sum "Si O2"
_cell_formula_units_Z 24
_cell_length_a 14.195638
_cell_length_b 5.111299
_cell_length_c 27.794165
_cell_angle_alpha 90.000000
_cell_angle_beta 29.036570
_cell_angle_gamma 90.000000
_cell_volume 978.837867
_symmetry_space_group_name_H-M "P 21/C"
_symmetry_group_IT_number 14
_symmetry_cell_setting 'monoclinic'
loop_
_space_group_symop_operation_xyz
x,y,z
-x,1/2+y,1/2-z
-x,-y,-z
x,1/2-y,1/2+z
loop_
_atom_site_type_symbol
_atom_site_label
_atom_site_fract_x
_atom_site_fract_y
_atom_site_fract_z
Si Si1 0.056373 0.318944 0.118647
Si Si2 0.019431 0.102710 0.437801
Si Si3 0.346970 0.904107 0.942444
Si Si4 0.622046 0.306756 0.977930
Si Si5 0.438589 0.348417 0.749596
Si Si6 0.109751 0.557998 0.713955
O O1 0.189975 0.543139 0.083552
O O2 0.956806 0.379484 0.112700
O O3 0.888744 0.308222 0.234003
O O4 0.219099 0.109562 0.030417
O O5 0.218874 0.259899 0.345112
O O6 0.824136 0.240155 0.507185
O O7 0.000000 0.000000 0.500000
O O8 0.483102 0.959064 0.836202
O O9 0.474104 0.780172 0.928880
O O10 0.706234 0.095802 0.902734
O O11 0.500000 0.500000 0.000000
O O12 0.443870 0.597953 0.783019
O O13 0.052406 0.253330 0.737591
#
# Coordination Sequence:
#
# PCOD9244603 Si02
#       6
#     4   4   4   4   4   4
#     4  10  23  41  70  96 138 189 232 285 355 425
#     4  11  24  46  71 101 142 190 230 299 359 425
#     4  11  24  45  71 102 142 189 242 290 364 425
#     4  10  23  42  64  99 140 179 232 296 345 414
#     4  12  28  47  73 108 144 186 243 299 357 431
#     4  10  20  42  64  92 132 178 227 273 343 411
#
# _framework density 24.518871000000001
#
# number of rings (size 3 to 8) (size 9 to 14) (size 15 to 20)
#    0.000    1.333    3.333    1.000    4.667    4.667 
#    6.000    0.000    0.000    0.000    0.000    0.000 
#    0.000    0.000    0.000    0.000    0.000    0.000 
#
# Total GULP energy -133790.165895 kJ/mol
# GULP energy per Si atom -5574.590246 kJ/mol
# Density = 2.446306 g / cm^3
# Si number density = 24.518871 Si / 1000 Ang^3
#
#
#
# Elastic Constant Matrix: (Units=GPa)
#
#
# Indices 1 2 3 4 5 6 
#
# 1 145.8913 11.0396 49.8679 0.0000 34.8716 0.0000
# 2 11.0396 54.5047 3.9202 0.0000 9.4709 0.0000
# 3 49.8679 3.9202 131.0847 0.0000 34.0542 0.0000
# 4 0.0000 0.0000 0.0000 31.0595 0.0000 -1.0039
# 5 34.8716 9.4709 34.0542 0.0000 53.3037 0.0000
# 6 0.0000 0.0000 0.0000 -1.0039 0.0000 29.5664
#
#
#
# Elastic Compliance Matrix: (Units=1/GPa)
#
#
# Indices 1 2 3 4 5 6 
#
# 1 0.008653 -0.000882 -0.002201 0.000000 -0.004098 0.000000
# 2 -0.000882 0.019036 0.000594 0.000000 -0.003184 0.000000
# 3 -0.002201 0.000594 0.009714 0.000000 -0.004872 0.000000
# 4 0.000000 0.000000 0.000000 0.032232 0.000000 0.001094
# 5 -0.004098 -0.003184 -0.004872 0.000000 0.025119 0.000000
# 6 0.000000 0.000000 0.000000 0.001094 0.000000 0.033859
#
#
# Mechanical properties :
#
#
# Convention : Reuss Voigt Hill
#
# Bulk Modulus (GPa) = 30.84117 51.23736 41.03926
# Shear Modulus (GPa) = 34.62595 40.56279 37.59437
#
# Velocity S-wave (km/s) = 3.76202 4.07178 3.91996
# Velocity P-wave (km/s) = 5.61037 6.56112 6.10429
#
# Compressibility (1/GPa) = 0.03242419
#
# Stress axis : x y z
#
# Youngs Moduli (GPa) = 115.56716 52.53101 102.94734
#
# Poissons Ratio (x) = 0.04634 0.22657
# Poissons Ratio (y) = 0.10196 -0.06111
# Poissons Ratio (z) = 0.25434 -0.03118
#
# Static dielectric constant tensor:
#      x y z
#    x 1.978090 0.000000 -0.076790 
#    y 0.000000 2.059500 0.000000 
#    z -0.076790 0.000000 2.222040 
# 
# From -- ./inp_files/77389.got.cif
#   From: 2010.05.17/outbox.cif.g08.bks.cpg/sg14_39_cif.got.tgz:77389.got - 2010.06.03 17:49:19.
