data_PCOD9244024
_publ_section_title
;
Structure prediction by ZEFSAII (Michael W. Deem and Ramdas Pophale) SiO2 
 PCOD9244024
Probable space group: P 21/C
;
_chemical_formula_sum "Si O2"
_cell_formula_units_Z 20
_cell_length_a 5.162858
_cell_length_b 21.999814
_cell_length_c 9.991556
_cell_angle_alpha 90.000000
_cell_angle_beta 131.426220
_cell_angle_gamma 90.000000
_cell_volume 850.927567
_symmetry_space_group_name_H-M "P 21/C"
_symmetry_group_IT_number 14
_symmetry_cell_setting 'monoclinic'
loop_
_space_group_symop_operation_xyz
x,y,z
-x,1/2+y,1/2-z
-x,-y,-z
x,1/2-y,1/2+z
loop_
_atom_site_type_symbol
_atom_site_label
_atom_site_fract_x
_atom_site_fract_y
_atom_site_fract_z
Si Si1 0.524658 0.314030 0.469366
Si Si2 0.332033 0.407770 0.018793
Si Si3 0.260601 0.485383 0.744033
Si Si4 0.727404 0.209575 0.736555
Si Si5 0.350809 0.565191 0.341233
O O1 0.650369 0.272515 0.635881
O O2 0.678865 0.291419 0.380714
O O3 0.620094 0.382907 0.538421
O O4 0.112185 0.309349 0.327576
O O5 0.517158 0.453376 0.185435
O O6 0.466518 0.340827 0.088860
O O7 0.432201 0.439728 0.912412
O O8 0.919962 0.410719 0.865139
O O9 0.303834 0.451531 0.618745
O O10 0.875552 0.489400 0.672544
#
# Coordination Sequence:
#
# PCOD9244024 Si02
#       5
#     4   4   4   4   4
#     4  12  27  44  65  95 127 169 212 266 324 366
#     4   9  22  38  68  92 127 166 217 243 314 379
#     4   9  20  36  70  91 125 169 209 245 313 383
#     4  12  27  43  66  93 128 165 216 263 317 380
#     4  10  20  39  64  90 127 162 211 252 309 370
#
# _framework density 23.503761999999998
#
# number of rings (size 3 to 8) (size 9 to 14) (size 15 to 20)
#    1.200    0.400    0.000    4.200    5.600    0.000 
#    0.000    6.000    0.000    0.000    0.000    0.000 
#    0.000    0.000    0.000    0.000    0.000    0.000 
#
# Total GULP energy -111671.225539 kJ/mol
# GULP energy per Si atom -5583.561277 kJ/mol
# Density = 2.345027 g / cm^3
# Si number density = 23.503762 Si / 1000 Ang^3
#
#
#
# Elastic Constant Matrix: (Units=GPa)
#
#
# Indices 1 2 3 4 5 6 
#
# 1 81.0610 26.0939 44.6089 0.0000 10.7451 0.0000
# 2 26.0939 28.1977 -36.3894 0.0000 -37.4107 0.0000
# 3 44.6089 -36.3894 -19.3734 0.0000 -28.1702 0.0000
# 4 0.0000 0.0000 0.0000 49.7848 0.0000 -0.4273
# 5 10.7451 -37.4107 -28.1702 0.0000 37.6605 0.0000
# 6 0.0000 0.0000 0.0000 -0.4273 0.0000 19.9279
#
#
#
# Elastic Compliance Matrix: (Units=1/GPa)
#
#
# Indices 1 2 3 4 5 6 
#
# 1 0.008139 0.004094 0.004078 0.000000 0.004795 0.000000
# 2 0.004094 0.012755 -0.014973 0.000000 0.000303 0.000000
# 3 0.004078 -0.014973 0.004415 0.000000 -0.012735 0.000000
# 4 0.000000 0.000000 0.000000 0.020090 0.000000 0.000431
# 5 0.004795 0.000303 -0.012735 0.000000 0.015960 0.000000
# 6 0.000000 0.000000 0.000000 0.000431 0.000000 0.050190
#
#
# Mechanical properties :
#
#
# Convention : Reuss Voigt Hill
#
# Bulk Modulus (GPa) = 85.41899 17.61247 51.51573
# Shear Modulus (GPa) = 38.74395 25.17944 31.96169
#
# Velocity S-wave (km/s) = 4.06447 3.27661 3.69162
# Velocity P-wave (km/s) = 7.64514 4.67169 6.33533
#
# Compressibility (1/GPa) = 0.01170700
#
# Stress axis : x y z
#
# Youngs Moduli (GPa) = 122.87117 78.39979 226.51811
#
# Poissons Ratio (x) = -0.32094 -0.92384
# Poissons Ratio (y) = -0.50299 3.39160
# Poissons Ratio (z) = -0.50112 1.17386
#
# Static dielectric constant tensor:
#      x y z
#    x 1.844660 0.000000 -0.008510 
#    y 0.000000 1.878790 0.000000 
#    z -0.008510 0.000000 2.041660 
# 
# From -- ./inp_files/21671.got.cif
#   From: 2010.05.17/outbox.cif.g08.bks.cpg/sg14_11_cif.got.tgz:21671.got - 2010.06.03 17:49:19.
