data_PCOD9244985
_publ_section_title
;
Structure prediction by ZEFSAII (Michael W. Deem and Ramdas Pophale) SiO2 
 PCOD9244985
Probable space group: P 21/C
;
_chemical_formula_sum "Si O2"
_cell_formula_units_Z 24
_cell_length_a 6.874306
_cell_length_b 26.109077
_cell_length_c 7.876380
_cell_angle_alpha 90.000000
_cell_angle_beta 37.450787
_cell_angle_gamma 90.000000
_cell_volume 859.622146
_symmetry_space_group_name_H-M "P 21/C"
_symmetry_group_IT_number 14
_symmetry_cell_setting 'monoclinic'
loop_
_space_group_symop_operation_xyz
x,y,z
-x,1/2+y,1/2-z
-x,-y,-z
x,1/2-y,1/2+z
loop_
_atom_site_type_symbol
_atom_site_label
_atom_site_fract_x
_atom_site_fract_y
_atom_site_fract_z
Si Si1 0.381459 0.857749 0.695077
Si Si2 0.611230 0.813153 0.983721
Si Si3 0.951637 0.994585 0.793772
Si Si4 0.346614 0.059581 0.299200
Si Si5 0.712248 0.599462 0.650903
Si Si6 0.703956 0.267698 0.979472
O O1 0.622900 0.881869 0.663459
O O2 0.444331 0.891026 0.477855
O O3 0.385947 0.800338 0.626656
O O4 0.023531 0.870144 0.000042
O O5 0.956411 0.790075 0.693915
O O6 0.610035 0.872040 0.046155
O O7 0.546821 0.785608 0.208303
O O8 0.345433 0.791106 0.039395
O O9 0.915800 0.956542 0.655736
O O10 0.852414 0.956670 0.015106
O O11 0.263946 0.026526 0.526159
O O12 0.674693 0.037701 0.994318
#
# Coordination Sequence:
#
# PCOD9244985 Si02
#       6
#     4   4   4   4   4   4
#     4  10  21  36  55  80 108 139 179 223 266 319
#     4  10  21  38  58  83 113 144 183 228 274 327
#     4  10  21  36  53  77 108 140 177 219 264 318
#     4  10  21  36  53  77 108 140 177 219 264 318
#     4  10  21  36  55  80 108 139 179 223 266 319
#     4  10  21  38  58  83 113 144 183 228 274 327
#
# _framework density 27.919242000000001
#
# number of rings (size 3 to 8) (size 9 to 14) (size 15 to 20)
#    0.000    2.000    0.000    3.000    0.000    5.333 
#    0.000    5.000    0.000    0.000    0.000    0.000 
#    0.000    0.000    0.000    0.000    0.000    0.000 
#
# Total GULP energy -134275.847156 kJ/mol
# GULP energy per Si atom -5594.826965 kJ/mol
# Density = 2.785570 g / cm^3
# Si number density = 27.919242 Si / 1000 Ang^3
#
#
#
# Elastic Constant Matrix: (Units=GPa)
#
#
# Indices 1 2 3 4 5 6 
#
# 1 50.0949 6.8335 -1.6381 0.0000 7.3477 0.0000
# 2 6.8335 118.0344 -0.5561 0.0000 -13.7642 0.0000
# 3 -1.6381 -0.5561 100.4780 0.0000 -13.8458 0.0000
# 4 0.0000 0.0000 0.0000 28.6012 0.0000 7.5042
# 5 7.3477 -13.7642 -13.8458 0.0000 25.8885 0.0000
# 6 0.0000 0.0000 0.0000 7.5042 0.0000 53.2551
#
#
#
# Elastic Compliance Matrix: (Units=1/GPa)
#
#
# Indices 1 2 3 4 5 6 
#
# 1 0.021337 -0.002120 -0.000706 0.000000 -0.007561 0.000000
# 2 -0.002120 0.009298 0.000843 0.000000 0.005996 0.000000
# 3 -0.000706 0.000843 0.010833 0.000000 0.006443 0.000000
# 4 0.000000 0.000000 0.000000 0.036306 0.000000 -0.005116
# 5 -0.007561 0.005996 0.006443 0.000000 0.047407 0.000000
# 6 0.000000 0.000000 0.000000 -0.005116 0.000000 0.019498
#
#
# Mechanical properties :
#
#
# Convention : Reuss Voigt Hill
#
# Bulk Modulus (GPa) = 26.66457 30.87622 28.77039
# Shear Modulus (GPa) = 31.02768 39.14683 35.08725
#
# Velocity S-wave (km/s) = 3.33729 3.74859 3.54890
# Velocity P-wave (km/s) = 4.94179 5.46068 5.20770
#
# Compressibility (1/GPa) = 0.03750295
#
# Stress axis : x y z
#
# Youngs Moduli (GPa) = 46.86641 107.54921 92.30739
#
# Poissons Ratio (x) = 0.22804 0.06514
# Poissons Ratio (y) = 0.09937 -0.07783
# Poissons Ratio (z) = 0.03308 -0.09068
#
# Static dielectric constant tensor:
#      x y z
#    x 2.261270 0.000000 0.099560 
#    y 0.000000 2.220000 0.000000 
#    z 0.099560 0.000000 2.056170 
# 
# From -- ./inp_files/1646.got.cif
#   From: 2010.05.17/outbox.cif.g08.bks.cpg/sg14_1_cif.got.tgz:1646.got - 2010.06.03 17:49:19.
