data_PCOD9244210
_publ_section_title
;
Structure prediction by ZEFSAII (Michael W. Deem and Ramdas Pophale) SiO2 
 PCOD9244210
Probable space group: P 21/C
;
_chemical_formula_sum "Si O2"
_cell_formula_units_Z 16
_cell_length_a 9.288586
_cell_length_b 12.254399
_cell_length_c 5.155184
_cell_angle_alpha 90.000000
_cell_angle_beta 96.529950
_cell_angle_gamma 90.000000
_cell_volume 582.987375
_symmetry_space_group_name_H-M "P 21/C"
_symmetry_group_IT_number 14
_symmetry_cell_setting 'monoclinic'
loop_
_space_group_symop_operation_xyz
x,y,z
-x,1/2+y,1/2-z
-x,-y,-z
x,1/2-y,1/2+z
loop_
_atom_site_type_symbol
_atom_site_label
_atom_site_fract_x
_atom_site_fract_y
_atom_site_fract_z
Si Si1 0.204148 0.430582 0.206007
Si Si2 0.347109 0.882875 0.456959
Si Si3 0.631106 0.887786 0.752942
Si Si4 0.943609 0.312792 0.318623
O O1 0.252812 0.554241 0.159089
O O2 0.300847 0.377460 0.452442
O O3 0.038383 0.416998 0.254753
O O4 0.249050 0.372767 0.946854
O O5 0.483973 0.830118 0.628568
O O6 0.227983 0.824742 0.257839
O O7 0.405356 0.981718 0.285227
O O8 0.983206 0.276958 0.612240
#
# Coordination Sequence:
#
# PCOD9244210 Si02
#       4
#     4   4   4   4
#     4  10  20  40  63  88 114 157 199 245 285 357
#     4   9  22  39  67  90 113 154 207 248 288 347
#     4   9  20  36  72  87 110 141 214 250 289 333
#     4  12  27  40  56  88 130 160 193 240 305 355
#
# _framework density 27.444848
#
# number of rings (size 3 to 8) (size 9 to 14) (size 15 to 20)
#    1.500    0.500    0.000    3.000    3.500    1.000 
#    0.000    7.500    0.000    0.000    0.000    0.000 
#    0.000    0.000    0.000    0.000    0.000    0.000 
#
# Total GULP energy -89507.498383 kJ/mol
# GULP energy per Si atom -5594.218649 kJ/mol
# Density = 2.738238 g / cm^3
# Si number density = 27.444848 Si / 1000 Ang^3
#
#
#
# Elastic Constant Matrix: (Units=GPa)
#
#
# Indices 1 2 3 4 5 6 
#
# 1 124.5483 2.6358 45.8297 0.0000 23.3062 0.0000
# 2 2.6358 35.6804 22.3026 0.0000 -0.5140 0.0000
# 3 45.8297 22.3026 154.4202 0.0000 26.6011 0.0000
# 4 0.0000 0.0000 0.0000 22.5501 0.0000 -2.0426
# 5 23.3062 -0.5140 26.6011 0.0000 46.7158 0.0000
# 6 0.0000 0.0000 0.0000 -2.0426 0.0000 48.7552
#
#
#
# Elastic Compliance Matrix: (Units=1/GPa)
#
#
# Indices 1 2 3 4 5 6 
#
# 1 0.009512 0.000710 -0.002339 0.000000 -0.003406 0.000000
# 2 0.000710 0.031294 -0.005243 0.000000 0.002976 0.000000
# 3 -0.002339 -0.005243 0.008578 0.000000 -0.003775 0.000000
# 4 0.000000 0.000000 0.000000 0.044515 0.000000 0.001865
# 5 -0.003406 0.002976 -0.003775 0.000000 0.025288 0.000000
# 6 0.000000 0.000000 0.000000 0.001865 0.000000 0.020589
#
#
# Mechanical properties :
#
#
# Convention : Reuss Voigt Hill
#
# Bulk Modulus (GPa) = 28.05824 50.68724 39.37274
# Shear Modulus (GPa) = 30.23006 39.86294 35.04650
#
# Velocity S-wave (km/s) = 3.32246 3.81527 3.57736
# Velocity P-wave (km/s) = 4.99640 6.15770 5.60719
#
# Compressibility (1/GPa) = 0.03564016
#
# Stress axis : x y z
#
# Youngs Moduli (GPa) = 105.13114 31.95474 116.58337
#
# Poissons Ratio (x) = -0.02269 0.27267
# Poissons Ratio (y) = -0.07467 0.61126
# Poissons Ratio (z) = 0.24589 0.16754
#
# Static dielectric constant tensor:
#      x y z
#    x 2.139370 0.000000 -0.016910 
#    y 0.000000 2.291130 0.000000 
#    z -0.016910 0.000000 2.062100 
# 
# From -- ./inp_files/884.got.cif
#   From: 2010.05.17/outbox.cif.g08.bks.cpg/sg14_1_cif.got.tgz:884.got - 2010.06.03 17:49:19.
