data_PCOD9244963
_publ_section_title
;
Structure prediction by ZEFSAII (Michael W. Deem and Ramdas Pophale) SiO2 
 PCOD9244963
Probable space group: P 21/C
;
_chemical_formula_sum "Si O2"
_cell_formula_units_Z 30
_cell_length_a 27.262851
_cell_length_b 4.946982
_cell_length_c 16.327132
_cell_angle_alpha 90.000000
_cell_angle_beta 140.732531
_cell_angle_gamma 90.000000
_cell_volume 1393.750418
_symmetry_space_group_name_H-M "P 21/C"
_symmetry_group_IT_number 14
_symmetry_cell_setting 'monoclinic'
loop_
_space_group_symop_operation_xyz
x,y,z
-x,1/2+y,1/2-z
-x,-y,-z
x,1/2-y,1/2+z
loop_
_atom_site_type_symbol
_atom_site_label
_atom_site_fract_x
_atom_site_fract_y
_atom_site_fract_z
Si Si1 0.910161 0.707705 0.079536
Si Si2 0.212367 0.826522 0.831179
Si Si3 0.383329 0.784206 0.591249
Si Si4 0.912175 0.208183 0.194053
Si Si5 0.381382 0.133553 0.430326
Si Si6 0.489588 0.023855 0.857835
Si Si7 0.787974 0.686524 0.280864
Si Si8 0.500000 0.000000 0.500000
O O1 0.900516 0.408049 0.102361
O O2 0.998599 0.741114 0.162908
O O3 0.901782 0.907833 0.145703
O O4 0.848307 0.779458 0.931089
O O5 0.148970 0.736325 0.814405
O O6 0.215598 0.614801 0.760143
O O7 0.191057 0.114499 0.765994
O O8 0.297894 0.839401 0.981682
O O9 0.447030 0.590174 0.631134
O O10 0.377878 0.027155 0.517881
O O11 0.416691 0.894781 0.718593
O O12 0.465621 0.290813 0.529970
O O13 0.300100 0.265080 0.306703
O O14 0.406935 0.903928 0.400542
O O15 0.471865 0.293077 0.884182
#
# Coordination Sequence:
#
# PCOD9244963 Si02
#       8
#     4   4   4   4   4   4   4   2
#     4  10  22  42  65  92 127 173 196 252 319 383
#     4  11  23  40  63  98 126 160 213 270 295 379
#     4  10  21  35  62  83 114 162 208 249 314 356
#     4  10  22  42  65  93 130 159 212 251 308 377
#     4  10  21  39  55  81 120 154 201 258 304 370
#     4  11  19  39  57  83 113 162 203 256 305 368
#     4  11  23  40  65  91 129 165 207 255 327 359
#     4  10  24  36  56  84 116 154 206 262 306 358
#
# _framework density 21.524656
#
# number of rings (size 3 to 8) (size 9 to 14) (size 15 to 20)
#    0.000    1.600    2.667    2.000    0.000    2.133 
#    2.400    0.000    0.000    0.000    0.000    0.000 
#    0.000    0.000    0.000    0.000    0.000    0.000 
#
# Total GULP energy -167223.945830 kJ/mol
# GULP energy per Si atom -5574.131528 kJ/mol
# Density = 2.147566 g / cm^3
# Si number density = 21.524656 Si / 1000 Ang^3
#
#
#
# Elastic Constant Matrix: (Units=GPa)
#
#
# Indices 1 2 3 4 5 6 
#
# 1 90.0329 -8.2212 41.4952 0.0000 2.5164 0.0000
# 2 -8.2212 58.4870 8.5109 0.0000 -1.3830 0.0000
# 3 41.4952 8.5109 148.5883 0.0000 13.8696 0.0000
# 4 0.0000 0.0000 0.0000 24.8327 0.0000 -1.5904
# 5 2.5164 -1.3830 13.8696 0.0000 13.2296 0.0000
# 6 0.0000 0.0000 0.0000 -1.5904 0.0000 29.6953
#
#
#
# Elastic Compliance Matrix: (Units=1/GPa)
#
#
# Indices 1 2 3 4 5 6 
#
# 1 0.013115 0.002469 -0.003985 0.000000 0.001942 0.000000
# 2 0.002469 0.017825 -0.002040 0.000000 0.003533 0.000000
# 3 -0.003985 -0.002040 0.008767 0.000000 -0.008646 0.000000
# 4 0.000000 0.000000 0.000000 0.040408 0.000000 0.002164
# 5 0.001942 0.003533 -0.008646 0.000000 0.084653 0.000000
# 6 0.000000 0.000000 0.000000 0.002164 0.000000 0.033791
#
#
# Mechanical properties :
#
#
# Convention : Reuss Voigt Hill
#
# Bulk Modulus (GPa) = 30.67976 42.29754 36.48865
# Shear Modulus (GPa) = 23.09079 30.57308 26.83194
#
# Velocity S-wave (km/s) = 3.27885 3.77287 3.53451
# Velocity P-wave (km/s) = 5.34965 6.21875 5.80050
#
# Compressibility (1/GPa) = 0.03259478
#
# Stress axis : x y z
#
# Youngs Moduli (GPa) = 76.24848 56.09978 114.06600
#
# Poissons Ratio (x) = -0.13853 0.45458
# Poissons Ratio (y) = -0.18828 0.23274
# Poissons Ratio (z) = 0.30387 0.11446
#
# Static dielectric constant tensor:
#      x y z
#    x 1.902430 0.000000 -0.040320 
#    y 0.000000 2.025290 0.000000 
#    z -0.040320 0.000000 1.787610 
# 
# From -- ./inp_files/51735.got.cif
#   From: 2010.05.17/outbox.cif.g08.bks.cpg/sg14_26_cif.got.tgz:51735.got - 2010.06.03 17:49:19.
