data_PCOD9244436
_publ_section_title
;
Structure prediction by ZEFSAII (Michael W. Deem and Ramdas Pophale) SiO2 
 PCOD9244436
Probable space group: P 21/C
;
_chemical_formula_sum "Si O2"
_cell_formula_units_Z 32
_cell_length_a 5.029112
_cell_length_b 15.037791
_cell_length_c 16.398240
_cell_angle_alpha 90.000000
_cell_angle_beta 84.489843
_cell_angle_gamma 90.000000
_cell_volume 1234.414880
_symmetry_space_group_name_H-M "P 21/C"
_symmetry_group_IT_number 14
_symmetry_cell_setting 'monoclinic'
loop_
_space_group_symop_operation_xyz
x,y,z
-x,1/2+y,1/2-z
-x,-y,-z
x,1/2-y,1/2+z
loop_
_atom_site_type_symbol
_atom_site_label
_atom_site_fract_x
_atom_site_fract_y
_atom_site_fract_z
Si Si1 0.289429 0.912425 0.572988
Si Si2 0.225186 0.240216 0.067590
Si Si3 0.689748 0.154127 0.606760
Si Si4 0.500014 0.436554 0.616319
Si Si5 0.118590 0.249807 0.896131
Si Si6 0.021329 0.050262 0.875360
Si Si7 0.004189 0.473561 0.199312
Si Si8 0.369727 0.369542 0.784979
O O1 0.321184 0.906817 0.475128
O O2 0.525106 0.906373 0.632137
O O3 0.111272 0.824191 0.596316
O O4 0.151366 0.002690 0.610391
O O5 0.402289 0.301370 0.120853
O O6 0.341773 0.141688 0.074522
O O7 0.915934 0.267931 0.088851
O O8 0.288432 0.266284 0.972765
O O9 0.778877 0.096216 0.680495
O O10 0.779485 0.482403 0.583601
O O11 0.552907 0.389644 0.702885
O O12 0.280191 0.514926 0.622725
O O13 0.019102 0.150063 0.907720
O O14 0.285206 0.270305 0.809710
O O15 0.138293 0.056829 0.778994
O O16 0.883645 0.569412 0.227568
#
# Coordination Sequence:
#
# PCOD9244436 Si02
#       8
#     4   4   4   4   4   4   4   4
#     4  10  20  41  62  90 132 166 199 261 322 371
#     4  11  25  43  63  95 129 166 213 258 315 367
#     4  11  24  39  65  97 126 165 210 256 311 386
#     4  11  25  44  64  93 129 165 209 268 316 359
#     4  10  24  41  65  94 124 169 213 256 313 378
#     4  11  25  42  66  94 123 167 219 256 308 376
#     4  10  23  39  60  98 126 163 211 257 313 380
#     4  10  21  41  66  87 134 164 203 260 322 368
#
# _framework density 25.923214000000002
#
# number of rings (size 3 to 8) (size 9 to 14) (size 15 to 20)
#    0.000    1.500    2.500    1.125    5.250    2.500 
#    0.000    0.000    0.000    0.000    0.000    0.000 
#    0.000    0.000    0.000    0.000    0.000    0.000 
#
# Total GULP energy -178771.609083 kJ/mol
# GULP energy per Si atom -5586.612784 kJ/mol
# Density = 2.586421 g / cm^3
# Si number density = 25.923214 Si / 1000 Ang^3
#
#
#
# Elastic Constant Matrix: (Units=GPa)
#
#
# Indices 1 2 3 4 5 6 
#
# 1 82.7848 12.3082 14.0446 0.0000 21.3905 0.0000
# 2 12.3082 86.5582 12.6481 0.0000 11.4850 0.0000
# 3 14.0446 12.6481 70.9390 0.0000 13.2574 0.0000
# 4 0.0000 0.0000 0.0000 39.3774 0.0000 12.9310
# 5 21.3905 11.4850 13.2574 0.0000 28.0630 0.0000
# 6 0.0000 0.0000 0.0000 12.9310 0.0000 38.3021
#
#
#
# Elastic Compliance Matrix: (Units=1/GPa)
#
#
# Indices 1 2 3 4 5 6 
#
# 1 0.015124 -0.000581 -0.000856 0.000000 -0.010886 0.000000
# 2 -0.000581 0.012360 -0.001345 0.000000 -0.003980 0.000000
# 3 -0.000856 -0.001345 0.015664 0.000000 -0.006197 0.000000
# 4 0.000000 0.000000 0.000000 0.028562 0.000000 -0.009643
# 5 -0.010886 -0.003980 -0.006197 0.000000 0.048488 0.000000
# 6 0.000000 0.000000 0.000000 -0.009643 0.000000 0.029364
#
#
# Mechanical properties :
#
#
# Convention : Reuss Voigt Hill
#
# Bulk Modulus (GPa) = 26.60741 35.36489 30.98615
# Shear Modulus (GPa) = 29.82339 34.56724 32.19532
#
# Velocity S-wave (km/s) = 3.39551 3.65560 3.52795
# Velocity P-wave (km/s) = 5.06546 5.61157 5.34549
#
# Compressibility (1/GPa) = 0.03758352
#
# Stress axis : x y z
#
# Youngs Moduli (GPa) = 66.12071 80.90496 63.84062
#
# Poissons Ratio (x) = 0.04701 0.05467
# Poissons Ratio (y) = 0.03842 0.08586
# Poissons Ratio (z) = 0.05662 0.10881
#
# Static dielectric constant tensor:
#      x y z
#    x 2.100010 0.000000 -0.061590 
#    y 0.000000 2.055940 0.000000 
#    z -0.061590 0.000000 2.059720 
# 
# From -- ./inp_files/53507.got.cif
#   From: 2010.05.17/outbox.cif.g08.bks.cpg/sg14_27_cif.got.tgz:53507.got - 2010.06.03 17:49:19.
