data_PCOD9244929
_publ_section_title
;
Structure prediction by ZEFSAII (Michael W. Deem and Ramdas Pophale) SiO2 
 PCOD9244929
Probable space group: P 21/C
;
_chemical_formula_sum "Si O2"
_cell_formula_units_Z 30
_cell_length_a 12.074340
_cell_length_b 5.067810
_cell_length_c 22.289041
_cell_angle_alpha 90.000000
_cell_angle_beta 90.377627
_cell_angle_gamma 90.000000
_cell_volume 1363.847071
_symmetry_space_group_name_H-M "P 21/C"
_symmetry_group_IT_number 14
_symmetry_cell_setting 'monoclinic'
loop_
_space_group_symop_operation_xyz
x,y,z
-x,1/2+y,1/2-z
-x,-y,-z
x,1/2-y,1/2+z
loop_
_atom_site_type_symbol
_atom_site_label
_atom_site_fract_x
_atom_site_fract_y
_atom_site_fract_z
Si Si1 0.311993 0.491683 0.638021
Si Si2 0.421035 0.517562 0.089108
Si Si3 0.149784 0.533855 0.741901
Si Si4 0.823129 0.977571 0.981600
Si Si5 0.000000 0.000000 0.500000
Si Si6 0.870122 0.336662 0.081838
Si Si7 0.337647 0.379017 0.959290
Si Si8 0.905208 0.537025 0.688532
O O1 0.371225 0.771232 0.633896
O O2 0.251380 0.453227 0.700552
O O3 0.218769 0.503753 0.585583
O O4 0.398694 0.267701 0.617699
O O5 0.544957 0.602768 0.072476
O O6 0.355898 0.514081 0.024826
O O7 0.155184 0.831106 0.766408
O O8 0.035102 0.514441 0.704464
O O9 0.135281 0.330759 0.797184
O O10 0.715632 0.903444 0.022698
O O11 0.882783 0.235645 0.010587
O O12 0.903895 0.733844 0.987957
O O13 0.025404 0.023522 0.422971
O O14 0.752639 0.474059 0.081413
O O15 0.881539 0.090010 0.124272
#
# Coordination Sequence:
#
# PCOD9244929 Si02
#       8
#     4   4   4   4   2   4   4   4
#     4  11  21  38  62  88 120 155 203 252 303 350
#     4  10  21  36  60  90 123 157 193 253 296 368
#     4  10  22  42  59  88 112 162 206 250 287 357
#     4  10  21  35  56  89 121 158 190 244 309 372
#     4  10  22  34  50  88 124 152 190 232 308 360
#     4  11  21  38  58  89 120 165 191 251 303 377
#     4   9  21  35  56  89 124 154 200 232 311 369
#     4  10  23  40  63  83 120 158 207 242 296 357
#
# _framework density 21.996599
#
# number of rings (size 3 to 8) (size 9 to 14) (size 15 to 20)
#    0.000    1.867    1.333    2.000    5.600    1.600 
#    7.200    0.000    0.000    3.200    0.000    0.000 
#    0.000    0.000    0.000    0.000    0.000    0.000 
#
# Total GULP energy -167278.803446 kJ/mol
# GULP energy per Si atom -5575.960115 kJ/mol
# Density = 2.194653 g / cm^3
# Si number density = 21.996599 Si / 1000 Ang^3
#
#
#
# Elastic Constant Matrix: (Units=GPa)
#
#
# Indices 1 2 3 4 5 6 
#
# 1 73.9266 3.1817 20.8861 0.0000 -15.8457 0.0000
# 2 3.1817 73.2932 -5.6659 0.0000 6.7568 0.0000
# 3 20.8861 -5.6659 53.8452 0.0000 -14.1881 0.0000
# 4 0.0000 0.0000 0.0000 31.3911 0.0000 -3.7748
# 5 -15.8457 6.7568 -14.1881 0.0000 28.4592 0.0000
# 6 0.0000 0.0000 0.0000 -3.7748 0.0000 25.2723
#
#
#
# Elastic Compliance Matrix: (Units=1/GPa)
#
#
# Indices 1 2 3 4 5 6 
#
# 1 0.016476 -0.001745 -0.004660 0.000000 0.007265 0.000000
# 2 -0.001745 0.014156 0.001180 0.000000 -0.003744 0.000000
# 3 -0.004660 0.001180 0.022732 0.000000 0.008458 0.000000
# 4 0.000000 0.000000 0.000000 0.032439 0.000000 0.004845
# 5 0.007265 -0.003744 0.008458 0.000000 0.044289 0.000000
# 6 0.000000 0.000000 0.000000 0.004845 0.000000 0.040293
#
#
# Mechanical properties :
#
#
# Convention : Reuss Voigt Hill
#
# Bulk Modulus (GPa) = 23.30302 26.42987 24.86645
# Shear Modulus (GPa) = 25.62269 29.20206 27.41237
#
# Velocity S-wave (km/s) = 3.41669 3.64754 3.53400
# Velocity P-wave (km/s) = 5.11683 5.45719 5.28975
#
# Compressibility (1/GPa) = 0.04291289
#
# Stress axis : x y z
#
# Youngs Moduli (GPa) = 60.69504 70.64145 43.99032
#
# Poissons Ratio (x) = 0.12328 0.20501
# Poissons Ratio (y) = 0.10593 -0.05190
# Poissons Ratio (z) = 0.28286 -0.08335
#
# Static dielectric constant tensor:
#      x y z
#    x 1.895280 0.000000 -0.049530 
#    y 0.000000 1.932890 0.000000 
#    z -0.049530 0.000000 1.873140 
# 
# From -- ./inp_files/66303.got.cif
#   From: 2010.05.17/outbox.cif.g08.bks.cpg/sg14_34_cif.got.tgz:66303.got - 2010.06.03 17:49:19.
