data_PCOD9244060
_publ_section_title
;
Structure prediction by ZEFSAII (Michael W. Deem and Ramdas Pophale) SiO2 
 PCOD9244060
Probable space group: P 21/C
;
_chemical_formula_sum "Si O2"
_cell_formula_units_Z 30
_cell_length_a 9.871095
_cell_length_b 16.331453
_cell_length_c 13.889451
_cell_angle_alpha 90.000000
_cell_angle_beta 145.368443
_cell_angle_gamma 90.000000
_cell_volume 1272.478978
_symmetry_space_group_name_H-M "P 21/C"
_symmetry_group_IT_number 14
_symmetry_cell_setting 'monoclinic'
loop_
_space_group_symop_operation_xyz
x,y,z
-x,1/2+y,1/2-z
-x,-y,-z
x,1/2-y,1/2+z
loop_
_atom_site_type_symbol
_atom_site_label
_atom_site_fract_x
_atom_site_fract_y
_atom_site_fract_z
Si Si1 0.638320 0.003638 0.950198
Si Si2 0.169938 0.676252 0.037818
Si Si3 0.048688 0.657421 0.366752
Si Si4 0.000000 0.500000 0.500000
Si Si5 0.085610 0.355181 0.918837
Si Si6 0.429098 0.907426 0.342245
Si Si7 0.148496 0.470004 0.227093
Si Si8 0.539592 0.902269 0.622836
O O1 0.731119 0.096604 0.018782
O O2 0.719402 0.956790 0.093882
O O3 0.356992 0.005673 0.774761
O O4 0.784009 0.973532 0.945416
O O5 0.110200 0.765366 0.964702
O O6 0.994141 0.608153 0.889487
O O7 0.094349 0.675577 0.105186
O O8 0.424393 0.649340 0.141786
O O9 0.960948 0.686341 0.210974
O O10 0.830741 0.603275 0.285518
O O11 0.174986 0.577501 0.645812
O O12 0.012980 0.450020 0.859473
O O13 0.371837 0.357043 0.101253
O O14 0.435947 0.875495 0.457218
O O15 0.517371 0.002038 0.402911
#
# Coordination Sequence:
#
# PCOD9244060 Si02
#       8
#     4   4   4   2   4   4   4   4
#     4  10  22  38  59  90 130 159 202 271 313 360
#     4  12  23  38  68  91 121 168 213 255 318 383
#     4  10  24  44  57  89 137 166 205 258 324 389
#     4  12  20  32  62 100 116 156 208 264 302 368
#     4  10  22  43  66  91 126 167 214 267 312 383
#     4  10  20  39  65  93 126 157 215 267 315 364
#     4  10  21  39  65  91 121 162 214 264 315 370
#     4  10  21  41  64  88 123 174 204 256 320 384
#
# _framework density 23.576027
#
# number of rings (size 3 to 8) (size 9 to 14) (size 15 to 20)
#    0.000    1.600    2.667    2.000    3.733    0.000 
#    4.800    1.333    0.000    0.000    0.000    0.000 
#    0.000    0.000    0.000    0.000    0.000    0.000 
#
# Total GULP energy -167248.571263 kJ/mol
# GULP energy per Si atom -5574.952375 kJ/mol
# Density = 2.352237 g / cm^3
# Si number density = 23.576027 Si / 1000 Ang^3
#
#
#
# Elastic Constant Matrix: (Units=GPa)
#
#
# Indices 1 2 3 4 5 6 
#
# 1 131.4062 10.6411 7.5815 0.0000 10.9835 0.0000
# 2 10.6411 43.8078 -0.6581 0.0000 2.1254 0.0000
# 3 7.5815 -0.6581 72.9934 0.0000 18.0663 0.0000
# 4 0.0000 0.0000 0.0000 0.2720 0.0000 -2.8506
# 5 10.9835 2.1254 18.0663 0.0000 45.9867 0.0000
# 6 0.0000 0.0000 0.0000 -2.8506 0.0000 22.4915
#
#
#
# Elastic Compliance Matrix: (Units=1/GPa)
#
#
# Indices 1 2 3 4 5 6 
#
# 1 0.007922 -0.001851 -0.000435 0.000000 -0.001636 0.000000
# 2 -0.001851 0.023329 0.000620 0.000000 -0.000880 0.000000
# 3 -0.000435 0.000620 0.015211 0.000000 -0.005901 0.000000
# 4 0.000000 0.000000 0.000000-11.199118 0.000000 -1.419379
# 5 -0.001636 -0.000880 -0.005901 0.000000 0.024495 0.000000
# 6 0.000000 0.000000 0.000000 -1.419379 0.000000 -0.135431
#
#
# Mechanical properties :
#
#
# Convention : Reuss Voigt Hill
#
# Bulk Modulus (GPa) = 23.18561 31.48181 27.33371
# Shear Modulus (GPa) = -0.44461 29.12622 14.34081
#
# Velocity S-wave (km/s) = -0.43473 3.51866 2.46901
# Velocity P-wave (km/s) = 3.09899 5.46720 4.44376
#
# Compressibility (1/GPa) = 0.04313020
#
# Stress axis : x y z
#
# Youngs Moduli (GPa) = 126.23532 42.86564 65.74159
#
# Poissons Ratio (x) = 0.07936 0.02857
# Poissons Ratio (y) = 0.23371 -0.04078
# Poissons Ratio (z) = 0.05487 -0.02659
#
# Static dielectric constant tensor:
#      x y z
#    x 1.885340 0.000000 0.017010 
#    y 0.000000 1.765780 0.000000 
#    z 0.017010 0.000000 1.856830 
# 
# From -- ./inp_files/41835.got.cif
#   From: 2010.05.17/outbox.cif.g08.bks.cpg/sg14_21_cif.got.tgz:41835.got - 2010.06.03 17:49:19.
