data_PCOD9244186
_publ_section_title
;
Structure prediction by ZEFSAII (Michael W. Deem and Ramdas Pophale) SiO2 
 PCOD9244186
Probable space group: P 21/C
;
_chemical_formula_sum "Si O2"
_cell_formula_units_Z 20
_cell_length_a 16.707625
_cell_length_b 6.255278
_cell_length_c 9.031715
_cell_angle_alpha 90.000000
_cell_angle_beta 127.668718
_cell_angle_gamma 90.000000
_cell_volume 747.160517
_symmetry_space_group_name_H-M "P 21/C"
_symmetry_group_IT_number 14
_symmetry_cell_setting 'monoclinic'
loop_
_space_group_symop_operation_xyz
x,y,z
-x,1/2+y,1/2-z
-x,-y,-z
x,1/2-y,1/2+z
loop_
_atom_site_type_symbol
_atom_site_label
_atom_site_fract_x
_atom_site_fract_y
_atom_site_fract_z
Si Si1 0.604877 0.272823 0.722915
Si Si2 0.926626 0.314092 0.852022
Si Si3 0.067301 0.345232 0.747815
Si Si4 0.387930 0.448607 0.544818
Si Si5 0.233440 0.084520 0.647093
O O1 0.492853 0.325252 0.654196
O O2 0.634414 0.040668 0.818102
O O3 0.601200 0.333813 0.544351
O O4 0.687788 0.449835 0.863656
O O5 0.834945 0.413665 0.839397
O O6 0.968202 0.383450 0.737720
O O7 0.900520 0.066357 0.790008
O O8 0.025942 0.301752 0.070406
O O9 0.158689 0.281643 0.959245
O O10 0.302320 0.321232 0.356860
#
# Coordination Sequence:
#
# PCOD9244186 Si02
#       5
#     4   4   4   4   4
#     4   9  20  39  61  86 115 150 196 237 302 351
#     4  11  23  39  63  83 124 164 201 252 290 355
#     4  11  23  40  59  89 121 160 209 245 297 348
#     4   9  20  38  62  86 115 152 191 247 288 364
#     4  10  20  40  62  86 115 168 195 242 294 368
#
# _framework density 26.76801
#
# number of rings (size 3 to 8) (size 9 to 14) (size 15 to 20)
#    1.200    0.800    2.000    1.800    0.000    0.800 
#    3.600    0.000    0.000    0.000    0.000    0.000 
#    0.000    0.000    0.000    0.000    0.000    0.000 
#
# Total GULP energy -111652.010161 kJ/mol
# GULP energy per Si atom -5582.600508 kJ/mol
# Density = 2.670708 g / cm^3
# Si number density = 26.768010 Si / 1000 Ang^3
#
#
#
# Elastic Constant Matrix: (Units=GPa)
#
#
# Indices 1 2 3 4 5 6 
#
# 1 81.7863 29.0140 62.8396 0.0000 11.0779 0.0000
# 2 29.0140 26.0708 36.3368 0.0000 1.5932 0.0000
# 3 62.8396 36.3368 175.2585 0.0000 25.5197 0.0000
# 4 0.0000 0.0000 0.0000 49.3121 0.0000 -24.0640
# 5 11.0779 1.5932 25.5197 0.0000 51.6863 0.0000
# 6 0.0000 0.0000 0.0000 -24.0640 0.0000 37.2140
#
#
#
# Elastic Compliance Matrix: (Units=1/GPa)
#
#
# Indices 1 2 3 4 5 6 
#
# 1 0.022264 -0.019680 -0.003551 0.000000 -0.002412 0.000000
# 2 -0.019680 0.072185 -0.008835 0.000000 0.006355 0.000000
# 3 -0.003551 -0.008835 0.009331 0.000000 -0.003574 0.000000
# 4 0.000000 0.000000 0.000000 0.029628 0.000000 0.019159
# 5 -0.002412 0.006355 -0.003574 0.000000 0.021433 0.000000
# 6 0.000000 0.000000 0.000000 0.019159 0.000000 0.039261
#
#
# Mechanical properties :
#
#
# Convention : Reuss Voigt Hill
#
# Bulk Modulus (GPa) = 25.22276 59.94405 42.58341
# Shear Modulus (GPa) = 18.41949 37.97083 28.19516
#
# Velocity S-wave (km/s) = 2.62604 3.77040 3.24900
# Velocity P-wave (km/s) = 4.31717 6.43406 5.47883
#
# Compressibility (1/GPa) = 0.03964673
#
# Stress axis : x y z
#
# Youngs Moduli (GPa) = 44.91578 13.85328 107.16506
#
# Poissons Ratio (x) = 0.27264 0.38057
# Poissons Ratio (y) = 0.88396 0.94683
# Poissons Ratio (z) = 0.15951 0.12240
#
# Static dielectric constant tensor:
#      x y z
#    x 2.065250 0.000000 0.004950 
#    y 0.000000 2.238210 0.000000 
#    z 0.004950 0.000000 2.089730 
# 
# From -- ./inp_files/18660.got.cif
#   From: 2010.05.17/outbox.cif.g08.bks.cpg/sg14_10_cif.got.tgz:18660.got - 2010.06.03 17:49:19.
