data_PCOD9244057
_publ_section_title
;
Structure prediction by ZEFSAII (Michael W. Deem and Ramdas Pophale) SiO2 
 PCOD9244057
Probable space group: P 21/C
;
_chemical_formula_sum "Si O2"
_cell_formula_units_Z 28
_cell_length_a 6.516208
_cell_length_b 10.113751
_cell_length_c 17.411405
_cell_angle_alpha 90.000000
_cell_angle_beta 85.930098
_cell_angle_gamma 90.000000
_cell_volume 1144.575454
_symmetry_space_group_name_H-M "P 21/C"
_symmetry_group_IT_number 14
_symmetry_cell_setting 'monoclinic'
loop_
_space_group_symop_operation_xyz
x,y,z
-x,1/2+y,1/2-z
-x,-y,-z
x,1/2-y,1/2+z
loop_
_atom_site_type_symbol
_atom_site_label
_atom_site_fract_x
_atom_site_fract_y
_atom_site_fract_z
Si Si1 0.086366 0.079004 0.386303
Si Si2 0.585490 0.449352 0.743336
Si Si3 0.530683 0.715552 0.103256
Si Si4 0.068045 0.655444 0.382313
Si Si5 0.762127 0.055190 0.850066
Si Si6 0.737488 0.141613 0.517124
Si Si7 0.918902 0.879808 0.277100
O O1 0.226633 0.208694 0.387833
O O2 0.894909 0.094458 0.447501
O O3 0.239103 0.963896 0.415076
O O4 0.997483 0.020281 0.310541
O O5 0.557125 0.367284 0.821957
O O6 0.370468 0.467314 0.705959
O O7 0.749777 0.388639 0.679825
O O8 0.684432 0.592817 0.760501
O O9 0.408871 0.853147 0.106739
O O10 0.477626 0.656426 0.020553
O O11 0.906410 0.537418 0.397989
O O12 0.175612 0.721105 0.452306
O O13 0.944612 0.771217 0.341372
O O14 0.922321 0.143209 0.796210
#
# Coordination Sequence:
#
# PCOD9244057 Si02
#       7
#     4   4   4   4   4   4   4
#     4  10  21  40  67  98 124 166 217 273 323 374
#     4  11  23  38  64  96 127 164 217 275 323 383
#     4  12  23  40  67  97 130 166 220 269 325 390
#     4  10  24  43  62  92 136 172 215 263 332 394
#     4  11  25  39  62  98 128 174 213 269 335 385
#     4  10  23  43  66  94 131 174 217 267 323 388
#     4  10  20  39  65  92 128 163 213 275 324 381
#
# _framework density 24.463217
#
# number of rings (size 3 to 8) (size 9 to 14) (size 15 to 20)
#    0.000    1.429    4.286    0.429    2.000    4.000 
#    0.000    1.429    0.000    0.000    0.000    0.000 
#    0.000    0.000    0.000    0.000    0.000    0.000 
#
# Total GULP energy -156635.982133 kJ/mol
# GULP energy per Si atom -5594.142219 kJ/mol
# Density = 2.440754 g / cm^3
# Si number density = 24.463217 Si / 1000 Ang^3
#
#
#
# Elastic Constant Matrix: (Units=GPa)
#
#
# Indices 1 2 3 4 5 6 
#
# 1 88.6037 14.0852 11.9099 0.0000 18.5038 0.0000
# 2 14.0852 54.3473 12.8183 0.0000 12.2446 0.0000
# 3 11.9099 12.8183 42.9184 0.0000 25.0692 0.0000
# 4 0.0000 0.0000 0.0000 34.5508 0.0000 9.8457
# 5 18.5038 12.2446 25.0692 0.0000 33.4427 0.0000
# 6 0.0000 0.0000 0.0000 9.8457 0.0000 39.9815
#
#
#
# Elastic Compliance Matrix: (Units=1/GPa)
#
#
# Indices 1 2 3 4 5 6 
#
# 1 0.012981 -0.002002 0.001357 0.000000 -0.007467 0.000000
# 2 -0.002002 0.020587 -0.003268 0.000000 -0.003980 0.000000
# 3 0.001357 -0.003268 0.042052 0.000000 -0.031077 0.000000
# 4 0.000000 0.000000 0.000000 0.031127 0.000000 -0.007665
# 5 -0.007467 -0.003980 -0.031077 0.000000 0.058786 0.000000
# 6 0.000000 0.000000 0.000000 -0.007665 0.000000 0.026899
#
#
# Mechanical properties :
#
#
# Convention : Reuss Voigt Hill
#
# Bulk Modulus (GPa) = 14.75069 29.27737 22.01403
# Shear Modulus (GPa) = 22.43583 31.39872 26.91727
#
# Velocity S-wave (km/s) = 3.03169 3.58649 3.32070
# Velocity P-wave (km/s) = 4.27758 5.39856 4.87043
#
# Compressibility (1/GPa) = 0.06779342
#
# Stress axis : x y z
#
# Youngs Moduli (GPa) = 77.03312 48.57526 23.77996
#
# Poissons Ratio (x) = 0.09726 -0.03227
# Poissons Ratio (y) = 0.15423 0.07772
# Poissons Ratio (z) = -0.10454 0.15876
#
# Static dielectric constant tensor:
#      x y z
#    x 1.907680 0.000000 0.007340 
#    y 0.000000 2.035870 0.000000 
#    z 0.007340 0.000000 1.917670 
# 
# From -- ./inp_files/63322.got.cif
#   From: 2010.05.17/outbox.cif.g08.bks.cpg/sg14_32_cif.got.tgz:63322.got - 2010.06.03 17:49:19.
