data_PCOD9244041
_publ_section_title
;
Structure prediction by ZEFSAII (Michael W. Deem and Ramdas Pophale) SiO2 
 PCOD9244041
Probable space group: P 21/C
;
_chemical_formula_sum "Si O2"
_cell_formula_units_Z 32
_cell_length_a 11.862330
_cell_length_b 18.435191
_cell_length_c 15.057572
_cell_angle_alpha 90.000000
_cell_angle_beta 152.141952
_cell_angle_gamma 90.000000
_cell_volume 1538.693775
_symmetry_space_group_name_H-M "P 21/C"
_symmetry_group_IT_number 14
_symmetry_cell_setting 'monoclinic'
loop_
_space_group_symop_operation_xyz
x,y,z
-x,1/2+y,1/2-z
-x,-y,-z
x,1/2-y,1/2+z
loop_
_atom_site_type_symbol
_atom_site_label
_atom_site_fract_x
_atom_site_fract_y
_atom_site_fract_z
Si Si1 0.668767 0.666128 0.111770
Si Si2 0.121401 0.692601 0.077757
Si Si3 0.423895 0.169911 0.977281
Si Si4 0.828194 0.590397 0.552416
Si Si5 0.868426 0.072998 0.025518
Si Si6 0.192036 0.854621 0.184340
Si Si7 0.583798 0.838585 0.231948
Si Si8 0.532353 0.327650 0.828702
O O1 0.705108 0.751474 0.117689
O O2 0.537482 0.658731 0.117147
O O3 0.916079 0.621661 0.283724
O O4 0.474312 0.643044 0.902250
O O5 0.336175 0.675946 0.296129
O O6 0.104830 0.780407 0.075816
O O7 0.206791 0.669705 0.038264
O O8 0.873346 0.654633 0.933873
O O9 0.261292 0.111004 0.912657
O O10 0.488005 0.154463 0.921176
O O11 0.874565 0.506158 0.570763
O O12 0.629278 0.619071 0.343539
O O13 0.059208 0.637529 0.685604
O O14 0.897305 0.080019 0.939494
O O15 0.602173 0.107779 0.851291
O O16 0.537822 0.756904 0.234187
#
# Coordination Sequence:
#
# PCOD9244041 Si02
#       8
#     4   4   4   4   4   4   4   4
#     4  10  23  39  67  98 125 169 219 264 314 380
#     4  10  20  39  64  96 119 163 220 263 307 372
#     4   9  23  40  62  96 120 166 216 263 305 370
#     4  11  23  42  65  92 140 166 205 268 324 377
#     4  12  25  42  61  99 136 168 205 265 326 381
#     4  11  21  39  64  91 129 171 208 265 320 377
#     4  11  22  39  67  87 126 167 211 260 313 373
#     4  10  20  40  63  92 128 162 215 264 312 376
#
# _framework density 20.796861
#
# number of rings (size 3 to 8) (size 9 to 14) (size 15 to 20)
#    0.000    1.500    3.750    1.125    1.750    4.000 
#    0.000    2.500    0.000    0.000    0.000    0.000 
#    0.000    0.000    0.000    0.000    0.000    0.000 
#
# Total GULP energy -178528.531357 kJ/mol
# GULP energy per Si atom -5579.016605 kJ/mol
# Density = 2.074953 g / cm^3
# Si number density = 20.796861 Si / 1000 Ang^3
#
#
#
# Elastic Constant Matrix: (Units=GPa)
#
#
# Indices 1 2 3 4 5 6 
#
# 1 63.0171 24.0054 21.6356 0.0000 19.8783 0.0000
# 2 24.0054 41.4489 22.9656 0.0000 4.3203 0.0000
# 3 21.6356 22.9656 86.7523 0.0000 13.1099 0.0000
# 4 0.0000 0.0000 0.0000 11.0441 0.0000 3.8498
# 5 19.8783 4.3203 13.1099 0.0000 34.3363 0.0000
# 6 0.0000 0.0000 0.0000 3.8498 0.0000 14.2584
#
#
#
# Elastic Compliance Matrix: (Units=1/GPa)
#
#
# Indices 1 2 3 4 5 6 
#
# 1 0.024944 -0.012591 -0.001003 0.000000 -0.012474 0.000000
# 2 -0.012591 0.034646 -0.006871 0.000000 0.005553 0.000000
# 3 -0.001003 -0.006871 0.014197 0.000000 -0.003975 0.000000
# 4 0.000000 0.000000 0.000000 0.099954 0.000000 -0.026988
# 5 -0.012474 0.005553 -0.003975 0.000000 0.037164 0.000000
# 6 0.000000 0.000000 0.000000 -0.026988 0.000000 0.077421
#
#
# Mechanical properties :
#
#
# Convention : Reuss Voigt Hill
#
# Bulk Modulus (GPa) = 30.43374 36.49238 33.46306
# Shear Modulus (GPa) = 14.69691 20.10186 17.39939
#
# Velocity S-wave (km/s) = 2.66125 3.11236 2.89560
# Velocity P-wave (km/s) = 4.91005 5.52276 5.22539
#
# Compressibility (1/GPa) = 0.03285826
#
# Stress axis : x y z
#
# Youngs Moduli (GPa) = 40.08982 28.86321 70.43822
#
# Poissons Ratio (x) = 0.36341 0.07064
# Poissons Ratio (y) = 0.50476 0.48397
# Poissons Ratio (z) = 0.04020 0.19832
#
# Static dielectric constant tensor:
#      x y z
#    x 1.782660 0.000000 0.013630 
#    y 0.000000 1.719680 0.000000 
#    z 0.013630 0.000000 1.777290 
# 
# From -- ./inp_files/45448.got.cif
#   From: 2010.05.17/outbox.cif.g08.bks.cpg/sg14_23_cif.got.tgz:45448.got - 2010.06.03 17:49:19.
