data_PCOD9244918
_publ_section_title
;
Structure prediction by ZEFSAII (Michael W. Deem and Ramdas Pophale) SiO2 
 PCOD9244918
Probable space group: P 21/C
;
_chemical_formula_sum "Si O2"
_cell_formula_units_Z 28
_cell_length_a 14.469380
_cell_length_b 6.216668
_cell_length_c 23.730995
_cell_angle_alpha 90.000000
_cell_angle_beta 46.322892
_cell_angle_gamma 90.000000
_cell_volume 1543.859797
_symmetry_space_group_name_H-M "P 21/C"
_symmetry_group_IT_number 14
_symmetry_cell_setting 'monoclinic'
loop_
_space_group_symop_operation_xyz
x,y,z
-x,1/2+y,1/2-z
-x,-y,-z
x,1/2-y,1/2+z
loop_
_atom_site_type_symbol
_atom_site_label
_atom_site_fract_x
_atom_site_fract_y
_atom_site_fract_z
Si Si1 0.866765 0.664300 0.843383
Si Si2 0.897241 0.814054 0.531860
Si Si3 0.211994 0.579709 0.013411
Si Si4 0.318262 0.999513 0.128245
Si Si5 0.456174 0.800845 0.479077
Si Si6 0.858329 0.322706 0.753285
Si Si7 0.985907 0.564272 0.594587
O O1 0.833135 0.585611 0.919487
O O2 0.795661 0.880515 0.856368
O O3 0.822098 0.485723 0.818058
O O4 0.017545 0.694704 0.777529
O O5 0.886805 0.692507 0.595863
O O6 0.954533 0.633481 0.465873
O O7 0.788276 0.946011 0.544856
O O8 0.000000 0.000000 0.500000
O O9 0.351216 0.649730 0.975672
O O10 0.104682 0.771782 0.057830
O O11 0.387472 0.853603 0.052876
O O12 0.255914 0.850442 0.202936
O O13 0.422383 0.180329 0.099371
O O14 0.500000 0.000000 0.500000
O O15 0.910156 0.462615 0.679074
#
# Coordination Sequence:
#
# PCOD9244918 Si02
#       7
#     4   4   4   4   4   4   4
#     4  12  21  33  52  88 121 158 187 227 304 368
#     4   9  20  36  55  83 120 146 195 243 301 344
#     4  11  20  35  58  82 121 159 195 244 296 360
#     4  11  23  34  51  80 122 158 194 233 289 363
#     4  11  22  38  53  78 125 154 199 241 277 358
#     4  12  21  32  53  81 124 158 189 235 301 370
#     4  10  21  35  55  87 122 148 191 251 299 355
#
# _framework density 18.136361999999998
#
# number of rings (size 3 to 8) (size 9 to 14) (size 15 to 20)
#    0.000    1.143    5.714    1.714    0.000    0.000 
#    0.000    0.000    0.000    0.000    0.000    0.000 
#  192.857    0.000    0.000    0.000    0.000    0.000 
#
# Total GULP energy -156040.958165 kJ/mol
# GULP energy per Si atom -5572.891363 kJ/mol
# Density = 1.809508 g / cm^3
# Si number density = 18.136362 Si / 1000 Ang^3
#
#
#
# Elastic Constant Matrix: (Units=GPa)
#
#
# Indices 1 2 3 4 5 6 
#
# 1 124.1242 56.6331 42.8724 0.0000 -0.6034 0.0000
# 2 56.6331 88.2704 37.2731 0.0000 0.8665 0.0000
# 3 42.8724 37.2731 46.7951 0.0000 -9.4744 0.0000
# 4 0.0000 0.0000 0.0000 39.0912 0.0000 -3.5154
# 5 -0.6034 0.8665 -9.4744 0.0000 25.2767 0.0000
# 6 0.0000 0.0000 0.0000 -3.5154 0.0000 40.4726
#
#
#
# Elastic Compliance Matrix: (Units=1/GPa)
#
#
# Indices 1 2 3 4 5 6 
#
# 1 0.013306 -0.004689 -0.009045 0.000000 -0.002912 0.000000
# 2 -0.004689 0.019654 -0.012464 0.000000 -0.005457 0.000000
# 3 -0.009045 -0.012464 0.042881 0.000000 0.016284 0.000000
# 4 0.000000 0.000000 0.000000 0.025783 0.000000 0.002239
# 5 -0.002912 -0.005457 0.016284 0.000000 0.045784 0.000000
# 6 0.000000 0.000000 0.000000 0.002239 0.000000 0.024903
#
#
# Mechanical properties :
#
#
# Convention : Reuss Voigt Hill
#
# Bulk Modulus (GPa) = 42.65240 59.19409 50.92324
# Shear Modulus (GPa) = 21.50352 29.12885 25.31618
#
# Velocity S-wave (km/s) = 3.44707 4.01197 3.74020
# Velocity P-wave (km/s) = 6.27788 7.36005 6.84040
#
# Compressibility (1/GPa) = 0.02344534
#
# Stress axis : x y z
#
# Youngs Moduli (GPa) = 75.15490 50.88147 23.32012
#
# Poissons Ratio (x) = 0.23857 0.21094
# Poissons Ratio (y) = 0.35238 0.29065
# Poissons Ratio (z) = 0.67980 0.63417
#
# Static dielectric constant tensor:
#      x y z
#    x 1.670460 0.000000 -0.005930 
#    y 0.000000 2.089110 0.000000 
#    z -0.005930 0.000000 1.609280 
# 
# From -- ./inp_files/67823.got.cif
#   From: 2010.05.17/outbox.cif.g08.bks.cpg/sg14_34_cif.got.tgz:67823.got - 2010.06.03 17:49:19.
