data_PCOD9244631
_publ_section_title
;
Structure prediction by ZEFSAII (Michael W. Deem and Ramdas Pophale) SiO2 
 PCOD9244631
Probable space group: P 21/C
;
_chemical_formula_sum "Si O2"
_cell_formula_units_Z 28
_cell_length_a 6.731098
_cell_length_b 19.226863
_cell_length_c 11.511087
_cell_angle_alpha 90.000000
_cell_angle_beta 134.589312
_cell_angle_gamma 90.000000
_cell_volume 1060.929285
_symmetry_space_group_name_H-M "P 21/C"
_symmetry_group_IT_number 14
_symmetry_cell_setting 'monoclinic'
loop_
_space_group_symop_operation_xyz
x,y,z
-x,1/2+y,1/2-z
-x,-y,-z
x,1/2-y,1/2+z
loop_
_atom_site_type_symbol
_atom_site_label
_atom_site_fract_x
_atom_site_fract_y
_atom_site_fract_z
Si Si1 0.345924 0.420409 0.662745
Si Si2 0.158209 0.498769 0.810047
Si Si3 0.174909 0.859231 0.192723
Si Si4 0.371390 0.723204 0.575590
Si Si5 0.046436 0.278217 0.773143
Si Si6 0.500000 0.000000 0.000000
Si Si7 0.065805 0.649810 0.051287
Si Si8 0.000000 0.500000 0.000000
O O1 0.272052 0.443935 0.762145
O O2 0.421021 0.484609 0.609282
O O3 0.626412 0.375320 0.779367
O O4 0.090870 0.381138 0.496415
O O5 0.243140 0.575233 0.799578
O O6 0.825005 0.495124 0.662412
O O7 0.194516 0.487122 0.961614
O O8 0.079631 0.794067 0.230592
O O9 0.399028 0.829193 0.193915
O O10 0.660732 0.759793 0.665683
O O11 0.140018 0.781539 0.510643
O O12 0.210315 0.686739 0.403031
O O13 0.106539 0.326176 0.908399
O O14 0.958249 0.581806 0.944385
#
# Coordination Sequence:
#
# PCOD9244631 Si02
#       8
#     4   4   4   4   4   2   4   2
#     4  11  23  43  74 106 150 205 252 313 385 468
#     4  11  25  43  70 109 148 202 252 313 383 461
#     4  10  23  42  70 111 143 189 259 311 374 466
#     4  11  25  46  75 105 146 200 249 318 385 462
#     4  11  25  47  74 105 148 194 251 318 387 466
#     4  10  20  42  66 104 142 192 254 294 366 464
#     4  11  26  45  68 107 143 195 252 313 388 457
#     4  12  26  48  66 106 152 196 252 318 386 456
#
# _framework density 26.391954999999999
#
# number of rings (size 3 to 8) (size 9 to 14) (size 15 to 20)
#    0.000    1.143    1.429    4.286    4.000    9.714 
#    5.143    0.000    0.000    0.000    0.000    0.000 
#    0.000    0.000    0.000    0.000    0.000    0.000 
#
# Total GULP energy -155873.409455 kJ/mol
# GULP energy per Si atom -5566.907481 kJ/mol
# Density = 2.633189 g / cm^3
# Si number density = 26.391955 Si / 1000 Ang^3
#
#
#
# Elastic Constant Matrix: (Units=GPa)
#
#
# Indices 1 2 3 4 5 6 
#
# 1 204.3944 24.2547 49.8970 0.0000 -26.6837 0.0000
# 2 24.2547 83.2929 0.5381 0.0000 -12.0916 0.0000
# 3 49.8970 0.5381 92.0629 0.0000 -1.2021 0.0000
# 4 0.0000 0.0000 0.0000 84.0691 0.0000 -12.3735
# 5 -26.6837 -12.0916 -1.2021 0.0000 59.5095 0.0000
# 6 0.0000 0.0000 0.0000 -12.3735 0.0000 26.4638
#
#
#
# Elastic Compliance Matrix: (Units=1/GPa)
#
#
# Indices 1 2 3 4 5 6 
#
# 1 0.006186 -0.001429 -0.003313 0.000000 0.002417 0.000000
# 2 -0.001429 0.012701 0.000726 0.000000 0.001954 0.000000
# 3 -0.003313 0.000726 0.012639 0.000000 -0.001083 0.000000
# 4 0.000000 0.000000 0.000000 0.012774 0.000000 0.005973
# 5 0.002417 0.001954 -0.001083 0.000000 0.018263 0.000000
# 6 0.000000 0.000000 0.000000 0.005973 0.000000 0.040580
#
#
# Mechanical properties :
#
#
# Convention : Reuss Voigt Hill
#
# Bulk Modulus (GPa) = 42.56386 58.79220 50.67803
# Shear Modulus (GPa) = 42.01404 54.34587 48.17995
#
# Velocity S-wave (km/s) = 3.99422 4.54275 4.27729
# Velocity P-wave (km/s) = 6.11836 7.05977 6.60586
#
# Compressibility (1/GPa) = 0.02349411
#
# Stress axis : x y z
#
# Youngs Moduli (GPa) = 161.64555 78.73357 79.11778
#
# Poissons Ratio (x) = 0.11253 0.26212
# Poissons Ratio (y) = 0.23103 -0.05743
# Poissons Ratio (z) = 0.53554 -0.05715
#
# Static dielectric constant tensor:
#      x y z
#    x 2.059360 0.000000 -0.039300 
#    y 0.000000 2.067440 0.000000 
#    z -0.039300 0.000000 2.132680 
# 
# From -- ./inp_files/21909.got.cif
#   From: 2010.05.17/outbox.cif.g08.bks.cpg/sg14_11_cif.got.tgz:21909.got - 2010.06.03 17:49:19.
