data_PCOD9244891
_publ_section_title
;
Structure prediction by ZEFSAII (Michael W. Deem and Ramdas Pophale) SiO2 
 PCOD9244891
Probable space group: P 21/C
;
_chemical_formula_sum "Si O2"
_cell_formula_units_Z 28
_cell_length_a 12.038492
_cell_length_b 7.383369
_cell_length_c 16.861036
_cell_angle_alpha 90.000000
_cell_angle_beta 114.601999
_cell_angle_gamma 90.000000
_cell_volume 1362.638500
_symmetry_space_group_name_H-M "P 21/C"
_symmetry_group_IT_number 14
_symmetry_cell_setting 'monoclinic'
loop_
_space_group_symop_operation_xyz
x,y,z
-x,1/2+y,1/2-z
-x,-y,-z
x,1/2-y,1/2+z
loop_
_atom_site_type_symbol
_atom_site_label
_atom_site_fract_x
_atom_site_fract_y
_atom_site_fract_z
Si Si1 0.717620 0.076277 0.591734
Si Si2 0.629944 0.075542 0.966396
Si Si3 0.884119 0.689611 0.751434
Si Si4 0.620696 0.699282 0.606622
Si Si5 0.946614 0.050515 0.569432
Si Si6 0.890883 0.386298 0.286086
Si Si7 0.874126 0.108878 0.959425
O O1 0.656792 0.240265 0.525615
O O2 0.823150 0.970073 0.571212
O O3 0.792568 0.159910 0.688664
O O4 0.628943 0.916101 0.595255
O O5 0.501497 0.126492 0.887271
O O6 0.742478 0.029034 0.942140
O O7 0.617904 0.907357 0.022414
O O8 0.746149 0.647116 0.687732
O O9 0.946069 0.561344 0.835007
O O10 0.975983 0.673098 0.704482
O O11 0.888128 0.894261 0.785595
O O12 0.896283 0.250024 0.536206
O O13 0.000000 0.000000 0.500000
O O14 0.865683 0.319559 0.367026
O O15 0.000000 0.000000 0.000000
#
# Coordination Sequence:
#
# PCOD9244891 Si02
#       7
#     4   4   4   4   4   4   4
#     4   9  21  38  59  86 117 150 199 241 289 349
#     4  10  22  39  60  88 113 155 202 232 295 350
#     4  10  21  36  57  86 114 149 195 233 298 352
#     4  10  21  37  65  81 117 160 192 239 286 361
#     4  10  22  34  55  91 117 146 190 248 297 343
#     4  10  21  34  58  85 113 154 183 249 295 340
#     4  11  21  35  59  82 118 147 187 249 289 339
#
# _framework density 20.548369000000001
#
# number of rings (size 3 to 8) (size 9 to 14) (size 15 to 20)
#    0.000    2.000    1.429    1.286   12.000    0.000 
#    0.000    0.000   28.286    0.000    0.000    0.000 
#    0.000    0.000    0.000    0.000    0.000    0.000 
#
# Total GULP energy -156066.319795 kJ/mol
# GULP energy per Si atom -5573.797136 kJ/mol
# Density = 2.050160 g / cm^3
# Si number density = 20.548369 Si / 1000 Ang^3
#
#
#
# Elastic Constant Matrix: (Units=GPa)
#
#
# Indices 1 2 3 4 5 6 
#
# 1 104.1040 8.0927 31.4276 0.0000 14.0175 0.0000
# 2 8.0927 44.9605 -3.7487 0.0000 13.9542 0.0000
# 3 31.4276 -3.7487 77.8125 0.0000 9.4432 0.0000
# 4 0.0000 0.0000 0.0000 26.2024 0.0000 2.8512
# 5 14.0175 13.9542 9.4432 0.0000 37.4424 0.0000
# 6 0.0000 0.0000 0.0000 2.8512 0.0000 27.8369
#
#
#
# Elastic Compliance Matrix: (Units=1/GPa)
#
#
# Indices 1 2 3 4 5 6 
#
# 1 0.011396 -0.001621 -0.004370 0.000000 -0.002560 0.000000
# 2 -0.001621 0.025832 0.003088 0.000000 -0.009799 0.000000
# 3 -0.004370 0.003088 0.015171 0.000000 -0.003341 0.000000
# 4 0.000000 0.000000 0.000000 0.038595 0.000000 -0.003953
# 5 -0.002560 -0.009799 -0.003341 0.000000 0.032161 0.000000
# 6 0.000000 0.000000 0.000000 -0.003953 0.000000 0.036328
#
#
# Mechanical properties :
#
#
# Convention : Reuss Voigt Hill
#
# Bulk Modulus (GPa) = 21.46215 33.15780 27.30998
# Shear Modulus (GPa) = 27.65195 31.03670 29.34432
#
# Velocity S-wave (km/s) = 3.67236 3.89063 3.78307
# Velocity P-wave (km/s) = 5.33376 6.02944 5.69224
#
# Compressibility (1/GPa) = 0.04659365
#
# Stress axis : x y z
#
# Youngs Moduli (GPa) = 87.75203 38.71108 65.91662
#
# Poissons Ratio (x) = 0.06275 0.28806
# Poissons Ratio (y) = 0.14225 -0.20358
# Poissons Ratio (z) = 0.38348 -0.11956
#
# Static dielectric constant tensor:
#      x y z
#    x 1.868070 0.000000 0.025990 
#    y 0.000000 1.835500 0.000000 
#    z 0.025990 0.000000 1.746570 
# 
# From -- ./inp_files/43483.got.cif
#   From: 2010.05.17/outbox.cif.g08.bks.cpg/sg14_22_cif.got.tgz:43483.got - 2010.06.03 17:49:19.
