data_PCOD9244688
_publ_section_title
;
Structure prediction by ZEFSAII (Michael W. Deem and Ramdas Pophale) SiO2 
 PCOD9244688
Probable space group: P 21/C
;
_chemical_formula_sum "Si O2"
_cell_formula_units_Z 30
_cell_length_a 10.714351
_cell_length_b 24.261807
_cell_length_c 9.401527
_cell_angle_alpha 90.000000
_cell_angle_beta 150.093319
_cell_angle_gamma 90.000000
_cell_volume 1218.512386
_symmetry_space_group_name_H-M "P 21/C"
_symmetry_group_IT_number 14
_symmetry_cell_setting 'monoclinic'
loop_
_space_group_symop_operation_xyz
x,y,z
-x,1/2+y,1/2-z
-x,-y,-z
x,1/2-y,1/2+z
loop_
_atom_site_type_symbol
_atom_site_label
_atom_site_fract_x
_atom_site_fract_y
_atom_site_fract_z
Si Si1 0.500000 0.500000 0.000000
Si Si2 0.025420 0.422961 0.614436
Si Si3 0.770964 0.181884 0.793881
Si Si4 0.632883 0.841609 0.395828
Si Si5 0.751491 0.377061 0.726605
Si Si6 0.967600 0.224240 0.295280
Si Si7 0.329558 0.553435 0.111756
Si Si8 0.186448 0.513061 0.368079
O O1 0.759429 0.537092 0.222311
O O2 0.409994 0.546530 0.029579
O O3 0.923774 0.374171 0.417311
O O4 0.789914 0.456517 0.452519
O O5 0.153037 0.387088 0.867064
O O6 0.858528 0.209368 0.031803
O O7 0.495035 0.165604 0.575828
O O8 0.838274 0.223266 0.735523
O O9 0.738407 0.782726 0.447033
O O10 0.463419 0.865247 0.102399
O O11 0.924360 0.324707 0.868634
O O12 0.676316 0.387792 0.815037
O O13 0.849692 0.437443 0.777466
O O14 0.560754 0.519542 0.411462
O O15 0.059322 0.523978 0.860427
#
# Coordination Sequence:
#
# PCOD9244688 Si02
#       8
#     2   4   4   4   4   4   4   4
#     4  10  24  44  56  94 134 180 218 276 342 418
#     4  10  21  40  66  87 131 173 221 271 346 410
#     4  10  22  43  65  96 122 177 221 284 347 418
#     4  10  20  42  70  84 130 168 218 281 341 410
#     4  11  21  38  62  96 122 166 215 278 328 398
#     4  10  23  41  66  97 129 166 228 282 350 409
#     4  11  26  38  63  94 135 172 224 270 338 401
#     4  11  21  40  65  94 125 176 218 272 331 402
#
# _framework density 24.620184999999999
#
# number of rings (size 3 to 8) (size 9 to 14) (size 15 to 20)
#    0.000    1.600    4.000    2.400    1.867    6.400 
#    7.200    0.000    0.000    0.000    0.000    0.000 
#    0.000    0.000    0.000    0.000    0.000    0.000 
#
# Total GULP energy -167032.169030 kJ/mol
# GULP energy per Si atom -5567.738968 kJ/mol
# Density = 2.456415 g / cm^3
# Si number density = 24.620185 Si / 1000 Ang^3
#
#
#
# Elastic Constant Matrix: (Units=GPa)
#
#
# Indices 1 2 3 4 5 6 
#
# 1 82.4764 28.9890 16.8561 0.0000 -5.8015 0.0000
# 2 28.9890 73.3538 13.5966 0.0000 10.1111 0.0000
# 3 16.8561 13.5966 52.7025 0.0000 24.9075 0.0000
# 4 0.0000 0.0000 0.0000 17.0728 0.0000 1.4114
# 5 -5.8015 10.1111 24.9075 0.0000 26.3907 0.0000
# 6 0.0000 0.0000 0.0000 1.4114 0.0000 61.9616
#
#
#
# Elastic Compliance Matrix: (Units=1/GPa)
#
#
# Indices 1 2 3 4 5 6 
#
# 1 0.018992 -0.007747 -0.013452 0.000000 0.019839 0.000000
# 2 -0.007747 0.017670 0.003472 0.000000 -0.011750 0.000000
# 3 -0.013452 0.003472 0.044060 0.000000 -0.045871 0.000000
# 4 0.000000 0.000000 0.000000 0.058683 0.000000 -0.001337
# 5 0.019839 -0.011750 -0.045871 0.000000 0.090049 0.000000
# 6 0.000000 0.000000 0.000000 -0.001337 0.000000 0.016169
#
#
# Mechanical properties :
#
#
# Convention : Reuss Voigt Hill
#
# Bulk Modulus (GPa) = 22.08997 36.37956 29.23477
# Shear Modulus (GPa) = 16.88237 31.02440 23.95339
#
# Velocity S-wave (km/s) = 2.62145 3.55367 3.12255
# Velocity P-wave (km/s) = 4.26081 5.62552 4.99004
#
# Compressibility (1/GPa) = 0.04526941
#
# Stress axis : x y z
#
# Youngs Moduli (GPa) = 52.65290 56.59278 22.69624
#
# Poissons Ratio (x) = 0.43842 0.30531
# Poissons Ratio (y) = 0.40789 -0.07880
# Poissons Ratio (z) = 0.70828 -0.19650
#
# Static dielectric constant tensor:
#      x y z
#    x 1.967970 0.000000 0.251510 
#    y 0.000000 1.978780 0.000000 
#    z 0.251510 0.000000 1.836480 
# 
# From -- ./inp_files/30678.got.cif
#   From: 2010.05.17/outbox.cif.g08.bks.cpg/sg14_16_cif.got.tgz:30678.got - 2010.06.03 17:49:19.
