data_PCOD9244566
_publ_section_title
;
Structure prediction by ZEFSAII (Michael W. Deem and Ramdas Pophale) SiO2 
 PCOD9244566
Probable space group: P 21/C
;
_chemical_formula_sum "Si O2"
_cell_formula_units_Z 28
_cell_length_a 8.517202
_cell_length_b 8.897958
_cell_length_c 27.257473
_cell_angle_alpha 90.000000
_cell_angle_beta 137.334849
_cell_angle_gamma 90.000000
_cell_volume 1399.968990
_symmetry_space_group_name_H-M "P 21/C"
_symmetry_group_IT_number 14
_symmetry_cell_setting 'monoclinic'
loop_
_space_group_symop_operation_xyz
x,y,z
-x,1/2+y,1/2-z
-x,-y,-z
x,1/2-y,1/2+z
loop_
_atom_site_type_symbol
_atom_site_label
_atom_site_fract_x
_atom_site_fract_y
_atom_site_fract_z
Si Si1 0.200506 0.740275 0.668144
Si Si2 0.629050 0.582867 0.311247
Si Si3 0.945155 0.910944 0.536379
Si Si4 0.136619 0.327286 0.821095
Si Si5 0.744502 0.960289 0.212404
Si Si6 0.022266 0.169462 0.635290
Si Si7 0.435997 0.914253 0.435253
O O1 0.278081 0.569418 0.691207
O O2 0.423042 0.840715 0.732645
O O3 0.111706 0.778381 0.593165
O O4 0.994725 0.777649 0.659145
O O5 0.502172 0.535991 0.332789
O O6 0.839257 0.699605 0.359671
O O7 0.680166 0.855787 0.472345
O O8 0.000000 0.000000 0.500000
O O9 0.982468 0.034437 0.588037
O O10 0.243646 0.180329 0.821052
O O11 0.323361 0.457299 0.874953
O O12 0.933308 0.410636 0.743447
O O13 0.829718 0.891041 0.284481
O O14 0.767337 0.202724 0.598721
O O15 0.500000 0.000000 0.500000
#
# Coordination Sequence:
#
# PCOD9244566 Si02
#       7
#     4   4   4   4   4   4   4
#     4  11  21  39  60  93 120 167 200 262 317 377
#     4  11  21  38  64  88 133 153 201 263 330 367
#     4  11  22  40  66  89 115 173 222 251 310 379
#     4  10  21  37  59  90 122 158 209 252 322 379
#     4  10  21  37  59  93 124 157 201 261 326 375
#     4  10  20  42  58  89 124 162 200 263 314 375
#     4   9  18  40  64  78 123 164 206 249 297 380
#
# _framework density 20.000442
#
# number of rings (size 3 to 8) (size 9 to 14) (size 15 to 20)
#    0.000    1.714    7.143    0.000    4.000    0.000 
#   12.857    1.429    0.000    0.000    0.000    0.000 
#    0.000    0.000    0.000    0.000    0.000    0.000 
#
# Total GULP energy -156126.989139 kJ/mol
# GULP energy per Si atom -5575.963898 kJ/mol
# Density = 1.995492 g / cm^3
# Si number density = 20.000442 Si / 1000 Ang^3
#
#
#
# Elastic Constant Matrix: (Units=GPa)
#
#
# Indices 1 2 3 4 5 6 
#
# 1 78.6928 37.9096 41.9245 0.0000 17.3200 0.0000
# 2 37.9096 94.4234 27.6302 0.0000 25.6031 0.0000
# 3 41.9245 27.6302 52.9162 0.0000 15.2716 0.0000
# 4 0.0000 0.0000 0.0000 15.1090 0.0000 6.8138
# 5 17.3200 25.6031 15.2716 0.0000 30.5900 0.0000
# 6 0.0000 0.0000 0.0000 6.8138 0.0000 48.9887
#
#
#
# Elastic Compliance Matrix: (Units=1/GPa)
#
#
# Indices 1 2 3 4 5 6 
#
# 1 0.023730 -0.004355 -0.016007 0.000000 -0.001799 0.000000
# 2 -0.004355 0.015478 -0.001874 0.000000 -0.009553 0.000000
# 3 -0.016007 -0.001874 0.034455 0.000000 -0.006569 0.000000
# 4 0.000000 0.000000 0.000000 0.070615 0.000000 -0.009822
# 5 -0.001799 -0.009553 -0.006569 0.000000 0.044984 0.000000
# 6 0.000000 0.000000 0.000000 -0.009822 0.000000 0.021779
#
#
# Mechanical properties :
#
#
# Convention : Reuss Voigt Hill
#
# Bulk Modulus (GPa) = 34.25998 48.99566 41.62782
# Shear Modulus (GPa) = 18.85058 26.84209 22.84634
#
# Velocity S-wave (km/s) = 3.07336 3.66741 3.38345
# Velocity P-wave (km/s) = 5.45535 6.51795 6.01018
#
# Compressibility (1/GPa) = 0.02918858
#
# Stress axis : x y z
#
# Youngs Moduli (GPa) = 42.14096 64.60822 29.02370
#
# Poissons Ratio (x) = 0.28138 0.46459
# Poissons Ratio (y) = 0.18353 0.05440
# Poissons Ratio (z) = 0.67457 0.12109
#
# Static dielectric constant tensor:
#      x y z
#    x 1.767390 0.000000 0.021490 
#    y 0.000000 1.743520 0.000000 
#    z 0.021490 0.000000 1.718400 
# 
# From -- ./inp_files/79501.got.cif
#   From: 2010.05.17/outbox.cif.g08.bks.cpg/sg14_40_cif.got.tgz:79501.got - 2010.06.03 17:49:19.
