data_PCOD9244258
_publ_section_title
;
Structure prediction by ZEFSAII (Michael W. Deem and Ramdas Pophale) SiO2 
 PCOD9244258
Probable space group: P 21/C
;
_chemical_formula_sum "Si O2"
_cell_formula_units_Z 32
_cell_length_a 11.105972
_cell_length_b 15.295580
_cell_length_c 14.197481
_cell_angle_alpha 90.000000
_cell_angle_beta 147.395579
_cell_angle_gamma 90.000000
_cell_volume 1299.541799
_symmetry_space_group_name_H-M "P 21/C"
_symmetry_group_IT_number 14
_symmetry_cell_setting 'monoclinic'
loop_
_space_group_symop_operation_xyz
x,y,z
-x,1/2+y,1/2-z
-x,-y,-z
x,1/2-y,1/2+z
loop_
_atom_site_type_symbol
_atom_site_label
_atom_site_fract_x
_atom_site_fract_y
_atom_site_fract_z
Si Si1 0.210388 0.597988 0.424221
Si Si2 0.464527 0.200004 0.996040
Si Si3 0.945498 0.588774 0.737367
Si Si4 0.035125 0.875821 0.518138
Si Si5 0.664927 0.127333 0.642521
Si Si6 0.360619 0.044865 0.287470
Si Si7 0.637032 0.510929 0.803219
Si Si8 0.093172 0.201017 0.127894
O O1 0.331673 0.651878 0.421710
O O2 0.068900 0.513641 0.297881
O O3 0.419000 0.555474 0.617077
O O4 0.062492 0.661475 0.392238
O O5 0.295400 0.134909 0.936995
O O6 0.302640 0.244792 0.809703
O O7 0.565420 0.283224 0.116626
O O8 0.991074 0.600050 0.878653
O O9 0.134123 0.636487 0.799604
O O10 0.034568 0.771863 0.519217
O O11 0.252554 0.932863 0.684806
O O12 0.827058 0.915586 0.437026
O O13 0.456896 0.084496 0.447710
O O14 0.736392 0.051358 0.760869
O O15 0.565057 0.031416 0.353064
O O16 0.192386 0.117725 0.139344
#
# Coordination Sequence:
#
# PCOD9244258 Si02
#       8
#     4   4   4   4   4   4   4   4
#     4  12  23  38  67  96 131 167 216 269 324 385
#     4  10  21  36  65  92 128 166 219 260 320 383
#     4  11  20  40  65  97 123 168 219 268 312 390
#     4  10  22  41  67  95 126 175 219 258 324 397
#     4  10  20  40  64  96 121 169 214 265 323 384
#     4  10  21  39  67  90 127 165 214 271 321 386
#     4  11  23  39  64  93 130 171 216 269 325 378
#     4  10  21  39  63  96 119 176 221 255 316 402
#
# _framework density 24.624064000000001
#
# number of rings (size 3 to 8) (size 9 to 14) (size 15 to 20)
#    0.000    1.500    5.000    1.875    1.750    0.500 
#    0.000    2.500    0.000    0.000    0.000    0.000 
#    0.000    0.000    0.000    0.000    0.000    0.000 
#
# Total GULP energy -178993.617239 kJ/mol
# GULP energy per Si atom -5593.550539 kJ/mol
# Density = 2.456802 g / cm^3
# Si number density = 24.624064 Si / 1000 Ang^3
#
#
#
# Elastic Constant Matrix: (Units=GPa)
#
#
# Indices 1 2 3 4 5 6 
#
# 1 66.3182 37.4233 12.8632 0.0000 33.2503 0.0000
# 2 37.4233 161.1444 26.2542 0.0000 16.9188 0.0000
# 3 12.8632 26.2542 76.4815 0.0000 9.2280 0.0000
# 4 0.0000 0.0000 0.0000 33.2483 0.0000 11.1419
# 5 33.2503 16.9188 9.2280 0.0000 35.2224 0.0000
# 6 0.0000 0.0000 0.0000 11.1419 0.0000 35.3694
#
#
#
# Elastic Compliance Matrix: (Units=1/GPa)
#
#
# Indices 1 2 3 4 5 6 
#
# 1 0.031343 -0.004325 -0.000483 0.000000 -0.027384 0.000000
# 2 -0.004325 0.007419 -0.001943 0.000000 0.001029 0.000000
# 3 -0.000483 -0.001943 0.014101 0.000000 -0.002305 0.000000
# 4 0.000000 0.000000 0.000000 0.033627 0.000000 -0.010593
# 5 -0.027384 0.001029 -0.002305 0.000000 0.054352 0.000000
# 6 0.000000 0.000000 0.000000 -0.010593 0.000000 0.031610
#
#
# Mechanical properties :
#
#
# Convention : Reuss Voigt Hill
#
# Bulk Modulus (GPa) = 25.40617 50.78064 38.09340
# Shear Modulus (GPa) = 25.11636 35.92824 30.52230
#
# Velocity S-wave (km/s) = 3.19720 3.82392 3.52452
# Velocity P-wave (km/s) = 4.89586 6.33748 5.66273
#
# Compressibility (1/GPa) = 0.03936052
#
# Stress axis : x y z
#
# Youngs Moduli (GPa) = 31.90538 134.79489 70.91447
#
# Poissons Ratio (x) = 0.58301 0.03423
# Poissons Ratio (y) = 0.13800 0.13781
# Poissons Ratio (z) = 0.01540 0.26195
#
# Static dielectric constant tensor:
#      x y z
#    x 1.929250 0.000000 -0.053100 
#    y 0.000000 2.026220 0.000000 
#    z -0.053100 0.000000 2.027380 
# 
# From -- ./inp_files/57954.got.cif
#   From: 2010.05.17/outbox.cif.g08.bks.cpg/sg14_29_cif.got.tgz:57954.got - 2010.06.03 17:49:19.
