data_PCOD9244355
_publ_section_title
;
Structure prediction by ZEFSAII (Michael W. Deem and Ramdas Pophale) SiO2 
 PCOD9244355
Probable space group: P 21/C
;
_chemical_formula_sum "Si O2"
_cell_formula_units_Z 32
_cell_length_a 10.697396
_cell_length_b 12.586430
_cell_length_c 11.089519
_cell_angle_alpha 90.000000
_cell_angle_beta 108.089737
_cell_angle_gamma 90.000000
_cell_volume 1419.312654
_symmetry_space_group_name_H-M "P 21/C"
_symmetry_group_IT_number 14
_symmetry_cell_setting 'monoclinic'
loop_
_space_group_symop_operation_xyz
x,y,z
-x,1/2+y,1/2-z
-x,-y,-z
x,1/2-y,1/2+z
loop_
_atom_site_type_symbol
_atom_site_label
_atom_site_fract_x
_atom_site_fract_y
_atom_site_fract_z
Si Si1 0.796664 0.410754 0.536886
Si Si2 0.233753 0.375246 0.878887
Si Si3 0.246776 0.789800 0.638610
Si Si4 0.353023 0.455129 0.678654
Si Si5 0.435879 0.669752 0.382047
Si Si6 0.090710 0.565391 0.936259
Si Si7 0.513536 0.902166 0.411848
Si Si8 0.021804 0.726477 0.271674
O O1 0.764068 0.305054 0.454627
O O2 0.774433 0.500542 0.430900
O O3 0.676570 0.406408 0.596727
O O4 0.934295 0.380354 0.641167
O O5 0.312867 0.378876 0.777038
O O6 0.157808 0.487812 0.861744
O O7 0.117032 0.289828 0.835355
O O8 0.331609 0.371358 0.023372
O O9 0.389120 0.805910 0.732887
O O10 0.205178 0.893455 0.556357
O O11 0.141098 0.765029 0.712137
O O12 0.431937 0.394310 0.597508
O O13 0.443521 0.549327 0.769336
O O14 0.445907 0.790864 0.433209
O O15 0.024271 0.668298 0.855201
O O16 0.000000 0.500000 0.000000
O O17 0.500000 0.000000 0.500000
#
# Coordination Sequence:
#
# PCOD9244355 Si02
#       8
#     4   4   4   4   4   4   4   4
#     4  10  22  39  68  90 125 165 220 265 322 390
#     4  11  24  42  63  97 134 170 216 269 333 398
#     4  10  20  40  68  91 126 165 219 274 311 395
#     4  11  23  41  64  96 133 170 210 271 333 391
#     4  11  23  40  65  97 126 166 218 270 330 389
#     4  11  22  40  68  95 125 174 226 262 327 399
#     4  10  24  40  66  95 125 175 218 263 328 392
#     4  10  23  41  64  97 127 170 219 273 329 392
#
# _framework density 22.546126000000001
#
# number of rings (size 3 to 8) (size 9 to 14) (size 15 to 20)
#    0.000    1.500    2.500    1.875   12.250    1.500 
#    2.250    1.250    0.000    0.000    0.000    0.000 
#    0.000    0.000    0.000    0.000    0.000    0.000 
#
# Total GULP energy -178299.604153 kJ/mol
# GULP energy per Si atom -5571.862630 kJ/mol
# Density = 2.249481 g / cm^3
# Si number density = 22.546126 Si / 1000 Ang^3
#
#
#
# Elastic Constant Matrix: (Units=GPa)
#
#
# Indices 1 2 3 4 5 6 
#
# 1 52.2421 6.3680 3.5343 0.0000 4.9327 0.0000
# 2 6.3680 49.2032 4.2326 0.0000 1.9486 0.0000
# 3 3.5343 4.2326 45.0196 0.0000 7.9321 0.0000
# 4 0.0000 0.0000 0.0000 27.2687 0.0000 1.5003
# 5 4.9327 1.9486 7.9321 0.0000 38.5239 0.0000
# 6 0.0000 0.0000 0.0000 1.5003 0.0000 22.2119
#
#
#
# Elastic Compliance Matrix: (Units=1/GPa)
#
#
# Indices 1 2 3 4 5 6 
#
# 1 0.019704 -0.002382 -0.000933 0.000000 -0.002210 0.000000
# 2 -0.002382 0.020794 -0.001698 0.000000 -0.000397 0.000000
# 3 -0.000933 -0.001698 0.023253 0.000000 -0.004582 0.000000
# 4 0.000000 0.000000 0.000000 0.036809 0.000000 -0.002486
# 5 -0.002210 -0.000397 -0.004582 0.000000 0.027205 0.000000
# 6 0.000000 0.000000 0.000000 -0.002486 0.000000 0.045189
#
#
# Mechanical properties :
#
#
# Convention : Reuss Voigt Hill
#
# Bulk Modulus (GPa) = 18.61393 19.41498 19.01446
# Shear Modulus (GPa) = 24.88946 26.42289 25.65617
#
# Velocity S-wave (km/s) = 3.32616 3.42709 3.37700
# Velocity P-wave (km/s) = 4.79843 4.92847 4.86389
#
# Compressibility (1/GPa) = 0.05372320
#
# Stress axis : x y z
#
# Youngs Moduli (GPa) = 50.75141 48.09081 43.00550
#
# Poissons Ratio (x) = 0.11457 0.04014
# Poissons Ratio (y) = 0.12091 0.07302
# Poissons Ratio (z) = 0.04737 0.08166
#
# Static dielectric constant tensor:
#      x y z
#    x 1.909730 0.000000 -0.015740 
#    y 0.000000 1.877810 0.000000 
#    z -0.015740 0.000000 1.881260 
# 
# From -- ./inp_files/29147.got.cif
#   From: 2010.05.17/outbox.cif.g08.bks.cpg/sg14_15_cif.got.tgz:29147.got - 2010.06.03 17:49:19.
