data_PCOD9244466
_publ_section_title
;
Structure prediction by ZEFSAII (Michael W. Deem and Ramdas Pophale) SiO2 
 PCOD9244466
Probable space group: P 21/C
;
_chemical_formula_sum "Si O2"
_cell_formula_units_Z 32
_cell_length_a 12.539992
_cell_length_b 17.631132
_cell_length_c 15.083466
_cell_angle_alpha 90.000000
_cell_angle_beta 30.201246
_cell_angle_gamma 90.000000
_cell_volume 1677.567635
_symmetry_space_group_name_H-M "P 21/C"
_symmetry_group_IT_number 14
_symmetry_cell_setting 'monoclinic'
loop_
_space_group_symop_operation_xyz
x,y,z
-x,1/2+y,1/2-z
-x,-y,-z
x,1/2-y,1/2+z
loop_
_atom_site_type_symbol
_atom_site_label
_atom_site_fract_x
_atom_site_fract_y
_atom_site_fract_z
Si Si1 0.046351 0.439917 0.544640
Si Si2 0.758487 0.540317 0.267844
Si Si3 0.262151 0.553844 0.897337
Si Si4 0.572405 0.087546 0.436562
Si Si5 0.438788 0.160304 0.203436
Si Si6 0.447851 0.339870 0.211446
Si Si7 0.186596 0.948563 0.098644
Si Si8 0.730586 0.591898 0.001258
O O1 0.819165 0.407779 0.736290
O O2 0.000000 0.500000 0.500000
O O3 0.216580 0.376296 0.395684
O O4 0.138882 0.489059 0.558921
O O5 0.711795 0.484679 0.217643
O O6 0.651837 0.620574 0.320444
O O7 0.713612 0.493778 0.389470
O O8 0.009729 0.559197 0.090253
O O9 0.395336 0.628311 0.824299
O O10 0.334705 0.492339 0.918802
O O11 0.525446 0.128335 0.561764
O O12 0.430933 0.118888 0.457471
O O13 0.500000 0.000000 0.500000
O O14 0.453434 0.249849 0.197166
O O15 0.288410 0.137873 0.394117
O O16 0.662882 0.116199 0.049786
O O17 0.965868 0.913590 0.292639
#
# Coordination Sequence:
#
# PCOD9244466 Si02
#       8
#     4   4   4   4   4   4   4   4
#     4  12  22  39  72  95 120 169 221 257 311 387
#     4   9  19  39  66  88 115 166 223 259 299 380
#     4   9  17  38  66  84 118 163 209 262 306 366
#     4  12  20  40  67  93 122 161 217 266 301 370
#     4  11  25  41  57  94 135 163 203 265 333 375
#     4  12  25  41  58  97 134 163 205 267 328 380
#     4  11  21  39  71  91 116 170 224 262 299 382
#     4  10  20  41  64  89 121 163 213 259 311 369
#
# _framework density 19.075237000000001
#
# number of rings (size 3 to 8) (size 9 to 14) (size 15 to 20)
#    0.000    1.250    3.750    4.125    0.000    1.000 
#   11.250    0.000    0.000    0.000    0.000    0.000 
#    0.000    0.000    0.000    0.000    0.000    0.000 
#
# Total GULP energy -178669.390412 kJ/mol
# GULP energy per Si atom -5583.418450 kJ/mol
# Density = 1.903182 g / cm^3
# Si number density = 19.075237 Si / 1000 Ang^3
#
#
#
# Elastic Constant Matrix: (Units=GPa)
#
#
# Indices 1 2 3 4 5 6 
#
# 1 113.7433 37.8516 27.9794 0.0000 -2.6463 0.0000
# 2 37.8516 119.3888 44.9918 0.0000 -8.7858 0.0000
# 3 27.9794 44.9918 139.9413 0.0000 -5.6367 0.0000
# 4 0.0000 0.0000 0.0000 15.8985 0.0000 7.8935
# 5 -2.6463 -8.7858 -5.6367 0.0000 26.0958 0.0000
# 6 0.0000 0.0000 0.0000 7.8935 0.0000 11.7058
#
#
#
# Elastic Compliance Matrix: (Units=1/GPa)
#
#
# Indices 1 2 3 4 5 6 
#
# 1 0.009979 -0.002755 -0.001116 0.000000 -0.000157 0.000000
# 2 -0.002755 0.010465 -0.002707 0.000000 0.002659 0.000000
# 3 -0.001116 -0.002707 0.008270 0.000000 0.000762 0.000000
# 4 0.000000 0.000000 0.000000 0.094556 0.000000 -0.063762
# 5 -0.000157 0.002659 0.000762 0.000000 0.039364 0.000000
# 6 0.000000 0.000000 0.000000 -0.063762 0.000000 0.128425
#
#
# Mechanical properties :
#
#
# Convention : Reuss Voigt Hill
#
# Bulk Modulus (GPa) = 64.26940 66.07989 65.17464
# Shear Modulus (GPa) = 16.16026 28.22340 22.19183
#
# Velocity S-wave (km/s) = 2.91380 3.85071 3.41454
# Velocity P-wave (km/s) = 6.71461 7.38157 7.05598
#
# Compressibility (1/GPa) = 0.01555951
#
# Stress axis : x y z
#
# Youngs Moduli (GPa) = 100.20694 95.55535 120.92139
#
# Poissons Ratio (x) = 0.26325 0.13493
# Poissons Ratio (y) = 0.27606 0.32729
# Poissons Ratio (z) = 0.11181 0.25864
#
# Static dielectric constant tensor:
#      x y z
#    x 1.687970 0.000000 -0.019120 
#    y 0.000000 1.636420 0.000000 
#    z -0.019120 0.000000 1.694490 
# 
# From -- ./inp_files/45421.got.cif
#   From: 2010.05.17/outbox.cif.g08.bks.cpg/sg14_23_cif.got.tgz:45421.got - 2010.06.03 17:49:19.
