data_PCOD9244527
_publ_section_title
;
Structure prediction by ZEFSAII (Michael W. Deem and Ramdas Pophale) SiO2 
 PCOD9244527
Probable space group: P 21/C
;
_chemical_formula_sum "Si O2"
_cell_formula_units_Z 20
_cell_length_a 11.896594
_cell_length_b 6.845358
_cell_length_c 17.469296
_cell_angle_alpha 90.000000
_cell_angle_beta 142.210224
_cell_angle_gamma 90.000000
_cell_volume 871.743872
_symmetry_space_group_name_H-M "P 21/C"
_symmetry_group_IT_number 14
_symmetry_cell_setting 'monoclinic'
loop_
_space_group_symop_operation_xyz
x,y,z
-x,1/2+y,1/2-z
-x,-y,-z
x,1/2-y,1/2+z
loop_
_atom_site_type_symbol
_atom_site_label
_atom_site_fract_x
_atom_site_fract_y
_atom_site_fract_z
Si Si1 0.323898 0.434957 0.093297
Si Si2 0.284740 0.536816 0.369906
Si Si3 0.043711 0.239410 0.534720
Si Si4 0.310665 0.762105 0.722806
Si Si5 0.057660 0.820997 0.352713
O O1 0.236000 0.256933 0.095173
O O2 0.518764 0.372708 0.165947
O O3 0.354946 0.611946 0.170259
O O4 0.178329 0.497695 0.950290
O O5 0.500000 0.500000 0.500000
O O6 0.273600 0.601840 0.275427
O O7 0.202632 0.699705 0.381871
O O8 0.127710 0.371034 0.292883
O O9 0.879255 0.342298 0.400930
O O10 0.016976 0.276647 0.609395
O O11 0.000000 0.000000 0.500000
#
# Coordination Sequence:
#
# PCOD9244527 Si02
#       5
#     4   4   4   4   4
#     4  10  20  41  68  89 129 167 219 268 319 379
#     4  12  26  42  66  95 136 171 217 264 333 389
#     4   8  16  39  64  80 120 163 207 260 309 369
#     4  10  21  39  65  92 121 171 215 260 323 382
#     4  10  23  44  63  93 134 172 209 273 317 386
#
# _framework density 22.942519999999998
#
# number of rings (size 3 to 8) (size 9 to 14) (size 15 to 20)
#    0.000    2.400    6.000    0.000    8.400    0.800 
#    3.600    1.000    0.000    0.000    0.000    0.000 
#    0.000    0.000    0.000    0.000    0.000    0.000 
#
# Total GULP energy -111521.099010 kJ/mol
# GULP energy per Si atom -5576.054951 kJ/mol
# Density = 2.289030 g / cm^3
# Si number density = 22.942520 Si / 1000 Ang^3
#
#
#
# Elastic Constant Matrix: (Units=GPa)
#
#
# Indices 1 2 3 4 5 6 
#
# 1 89.1368 32.4240 52.0317 0.0000 28.0399 0.0000
# 2 32.4240 37.3596 26.0543 0.0000 11.0888 0.0000
# 3 52.0317 26.0543 158.0350 0.0000 40.8066 0.0000
# 4 0.0000 0.0000 0.0000 29.5693 0.0000 13.9904
# 5 28.0399 11.0888 40.8066 0.0000 47.0126 0.0000
# 6 0.0000 0.0000 0.0000 13.9904 0.0000 49.0919
#
#
#
# Elastic Compliance Matrix: (Units=1/GPa)
#
#
# Indices 1 2 3 4 5 6 
#
# 1 0.019550 -0.013276 -0.002637 0.000000 -0.006240 0.000000
# 2 -0.013276 0.039745 -0.002327 0.000000 0.000564 0.000000
# 3 -0.002637 -0.002327 0.009063 0.000000 -0.005745 0.000000
# 4 0.000000 0.000000 0.000000 0.039090 0.000000 -0.011140
# 5 -0.006240 0.000564 -0.005745 0.000000 0.029847 0.000000
# 6 0.000000 0.000000 0.000000 -0.011140 0.000000 0.023545
#
#
# Mechanical properties :
#
#
# Convention : Reuss Voigt Hill
#
# Bulk Modulus (GPa) = 31.36959 56.17236 43.77098
# Shear Modulus (GPa) = 24.04489 36.73620 30.39055
#
# Velocity S-wave (km/s) = 3.24087 4.00588 3.64351
# Velocity P-wave (km/s) = 5.26376 6.77740 6.06796
#
# Compressibility (1/GPa) = 0.03187801
#
# Stress axis : x y z
#
# Youngs Moduli (GPa) = 51.15048 25.16054 110.34036
#
# Poissons Ratio (x) = 0.33404 0.29092
# Poissons Ratio (y) = 0.67910 0.25675
# Poissons Ratio (z) = 0.13486 0.05855
#
# Static dielectric constant tensor:
#      x y z
#    x 1.859270 0.000000 0.044230 
#    y 0.000000 2.052590 0.000000 
#    z 0.044230 0.000000 1.901140 
# 
# From -- ./inp_files/56899.got.cif
#   From: 2010.05.17/outbox.cif.g08.bks.cpg/sg14_29_cif.got.tgz:56899.got - 2010.06.03 17:49:19.
