data_PCOD9244337
_publ_section_title
;
Structure prediction by ZEFSAII (Michael W. Deem and Ramdas Pophale) SiO2 
 PCOD9244337
Probable space group: P 21/C
;
_chemical_formula_sum "Si O2"
_cell_formula_units_Z 26
_cell_length_a 9.475464
_cell_length_b 20.494862
_cell_length_c 10.557507
_cell_angle_alpha 90.000000
_cell_angle_beta 27.444663
_cell_angle_gamma 90.000000
_cell_volume 944.943323
_symmetry_space_group_name_H-M "P 21/C"
_symmetry_group_IT_number 14
_symmetry_cell_setting 'monoclinic'
loop_
_space_group_symop_operation_xyz
x,y,z
-x,1/2+y,1/2-z
-x,-y,-z
x,1/2-y,1/2+z
loop_
_atom_site_type_symbol
_atom_site_label
_atom_site_fract_x
_atom_site_fract_y
_atom_site_fract_z
Si Si1 0.055558 0.716648 0.348850
Si Si2 0.334700 0.416106 0.843931
Si Si3 0.000000 0.000000 0.500000
Si Si4 0.275005 0.038377 0.026305
Si Si5 0.773229 0.188357 0.010848
Si Si6 0.483889 0.633908 0.840300
Si Si7 0.817141 0.940674 0.274267
O O1 0.226467 0.723700 0.350424
O O2 0.710432 0.696577 0.660461
O O3 0.087376 0.772843 0.218275
O O4 0.198839 0.656664 0.151593
O O5 0.981258 0.432603 0.108128
O O6 0.443005 0.484609 0.688595
O O7 0.458061 0.345827 0.716702
O O8 0.413442 0.431336 0.925537
O O9 0.082905 0.046812 0.306405
O O10 0.024644 0.003281 0.133744
O O11 0.455625 0.103713 0.845430
O O12 0.974042 0.123857 0.878940
O O13 0.620901 0.572410 0.808099
#
# Coordination Sequence:
#
# PCOD9244337 Si02
#       7
#     4   4   2   4   4   4   4
#     4  11  26  43  70  96 138 174 235 276 342 396
#     4  10  20  40  67  90 131 175 217 279 334 410
#     4  10  22  38  58  96 134 172 218 268 340 414
#     4  10  22  38  64  93 134 172 221 267 345 400
#     4  10  23  45  64  96 130 180 224 283 333 404
#     4  11  24  42  65 101 132 169 222 284 331 406
#     4   9  20  40  64  93 127 172 214 272 336 396
#
# _framework density 27.514873999999999
#
# number of rings (size 3 to 8) (size 9 to 14) (size 15 to 20)
#    0.000    1.846    1.538    0.923    6.462    1.846 
#    8.308    0.000    0.000    0.000    0.000    0.000 
#    0.000    0.000    0.000    0.000    0.000    0.000 
#
# Total GULP energy -144777.018781 kJ/mol
# GULP energy per Si atom -5568.346876 kJ/mol
# Density = 2.745225 g / cm^3
# Si number density = 27.514874 Si / 1000 Ang^3
#
#
#
# Elastic Constant Matrix: (Units=GPa)
#
#
# Indices 1 2 3 4 5 6 
#
# 1 46.4467 17.2471 23.8515 0.0000 4.0433 0.0000
# 2 17.2471 77.6193 20.4452 0.0000 0.3631 0.0000
# 3 23.8515 20.4452 124.0662 0.0000 22.9582 0.0000
# 4 0.0000 0.0000 0.0000 53.9027 0.0000 15.1390
# 5 4.0433 0.3631 22.9582 0.0000 43.9331 0.0000
# 6 0.0000 0.0000 0.0000 15.1390 0.0000 22.1519
#
#
#
# Elastic Compliance Matrix: (Units=1/GPa)
#
#
# Indices 1 2 3 4 5 6 
#
# 1 0.025335 -0.004551 -0.004092 0.000000 -0.000156 0.000000
# 2 -0.004551 0.014339 -0.001709 0.000000 0.001193 0.000000
# 3 -0.004092 -0.001709 0.010026 0.000000 -0.004848 0.000000
# 4 0.000000 0.000000 0.000000 0.022959 0.000000 -0.015690
# 5 -0.000156 0.001193 -0.004848 0.000000 0.025300 0.000000
# 6 0.000000 0.000000 0.000000 -0.015690 0.000000 0.055866
#
#
# Mechanical properties :
#
#
# Convention : Reuss Voigt Hill
#
# Bulk Modulus (GPa) = 34.48706 41.24663 37.86685
# Shear Modulus (GPa) = 27.14551 36.43678 31.79114
#
# Velocity S-wave (km/s) = 3.14439 3.64298 3.40283
# Velocity P-wave (km/s) = 5.07386 5.71999 5.40659
#
# Compressibility (1/GPa) = 0.02899638
#
# Stress axis : x y z
#
# Youngs Moduli (GPa) = 39.47154 69.73909 99.74419
#
# Poissons Ratio (x) = 0.31738 0.40813
# Poissons Ratio (y) = 0.17963 0.17045
# Poissons Ratio (z) = 0.16151 0.11918
#
# Static dielectric constant tensor:
#      x y z
#    x 3.203580 0.000000 -1.042980 
#    y 0.000000 2.198390 0.000000 
#    z -1.042980 0.000000 3.305910 
# 
# From -- ./inp_files/30384.got.cif
#   From: 2010.05.17/outbox.cif.g08.bks.cpg/sg14_16_cif.got.tgz:30384.got - 2010.06.03 17:49:19.
