data_PCOD9244418
_publ_section_title
;
Structure prediction by ZEFSAII (Michael W. Deem and Ramdas Pophale) SiO2 
 PCOD9244418
Probable space group: P 21/C
;
_chemical_formula_sum "Si O2"
_cell_formula_units_Z 28
_cell_length_a 8.932516
_cell_length_b 12.453998
_cell_length_c 20.790942
_cell_angle_alpha 90.000000
_cell_angle_beta 40.348018
_cell_angle_gamma 90.000000
_cell_volume 1497.437567
_symmetry_space_group_name_H-M "P 21/C"
_symmetry_group_IT_number 14
_symmetry_cell_setting 'monoclinic'
loop_
_space_group_symop_operation_xyz
x,y,z
-x,1/2+y,1/2-z
-x,-y,-z
x,1/2-y,1/2+z
loop_
_atom_site_type_symbol
_atom_site_label
_atom_site_fract_x
_atom_site_fract_y
_atom_site_fract_z
Si Si1 0.487791 0.293614 0.759553
Si Si2 0.130382 0.372214 0.331349
Si Si3 0.764904 0.997770 0.394784
Si Si4 0.158151 0.609986 0.263030
Si Si5 0.712850 0.290473 0.549783
Si Si6 0.792601 0.735434 0.830018
Si Si7 0.982015 0.917909 0.563734
O O1 0.358007 0.178435 0.791901
O O2 0.663104 0.309983 0.760912
O O3 0.628633 0.322972 0.648553
O O4 0.275154 0.374046 0.841520
O O5 0.155164 0.495988 0.301851
O O6 0.114929 0.293977 0.272875
O O7 0.900618 0.361939 0.450271
O O8 0.778750 0.075872 0.329590
O O9 0.925141 0.034298 0.400324
O O10 0.500000 0.000000 0.500000
O O11 0.823234 0.877195 0.355504
O O12 0.920873 0.673355 0.328603
O O13 0.475017 0.268479 0.589823
O O14 0.849243 0.179052 0.510329
O O15 0.000000 0.000000 0.500000
#
# Coordination Sequence:
#
# PCOD9244418 Si02
#       7
#     4   4   4   4   4   4   4
#     4  10  23  38  61  90 125 163 212 261 312 380
#     4   9  22  42  61  87 129 170 205 265 324 377
#     4  11  21  38  64  93 121 162 217 269 309 374
#     4  11  23  40  62  93 129 168 213 265 321 376
#     4  10  20  41  59  86 128 167 206 261 316 384
#     4  10  22  37  62  90 124 163 214 266 311 385
#     4  11  23  39  67  92 124 168 211 263 327 368
#
# _framework density 18.698609000000001
#
# number of rings (size 3 to 8) (size 9 to 14) (size 15 to 20)
#    0.000    1.714    1.429    3.429    6.000    1.143 
#    0.000    0.000    0.000    0.000    0.000    0.000 
#    0.000    0.000    0.000    0.000    0.000    0.000 
#
# Total GULP energy -156163.124414 kJ/mol
# GULP energy per Si atom -5577.254443 kJ/mol
# Density = 1.865605 g / cm^3
# Si number density = 18.698609 Si / 1000 Ang^3
#
#
#
# Elastic Constant Matrix: (Units=GPa)
#
#
# Indices 1 2 3 4 5 6 
#
# 1 109.7110 40.4404 50.8337 0.0000 -4.6960 0.0000
# 2 40.4404 63.2100 24.6357 0.0000 7.5739 0.0000
# 3 50.8337 24.6357 119.5021 0.0000 -2.3411 0.0000
# 4 0.0000 0.0000 0.0000 -2.0883 0.0000 1.4424
# 5 -4.6960 7.5739 -2.3411 0.0000 26.0386 0.0000
# 6 0.0000 0.0000 0.0000 1.4424 0.0000 30.5210
#
#
#
# Elastic Compliance Matrix: (Units=1/GPa)
#
#
# Indices 1 2 3 4 5 6 
#
# 1 0.014252 -0.007969 -0.004331 0.000000 0.004499 0.000000
# 2 -0.007969 0.022430 -0.001393 0.000000 -0.008087 0.000000
# 3 -0.004331 -0.001393 0.010509 0.000000 0.000569 0.000000
# 4 0.000000 0.000000 0.000000 -0.463723 0.000000 0.021915
# 5 0.004499 -0.008087 0.000569 0.000000 0.041619 0.000000
# 6 0.000000 0.000000 0.000000 0.021915 0.000000 0.031729
#
#
# Mechanical properties :
#
#
# Convention : Reuss Voigt Hill
#
# Bulk Modulus (GPa) = 50.49267 58.24920 54.37093
# Shear Modulus (GPa) = -16.17094 22.66182 3.24544
#
# Velocity S-wave (km/s) = -2.94397 3.48509 1.31887
# Velocity P-wave (km/s) = 3.93778 6.88576 5.60891
#
# Compressibility (1/GPa) = 0.01980486
#
# Stress axis : x y z
#
# Youngs Moduli (GPa) = 70.16679 44.58238 95.15813
#
# Poissons Ratio (x) = 0.35527 0.41217
# Poissons Ratio (y) = 0.55915 0.13253
# Poissons Ratio (z) = 0.30392 0.06209
#
# Static dielectric constant tensor:
#      x y z
#    x 1.647150 0.000000 -0.002580 
#    y 0.000000 1.656500 0.000000 
#    z -0.002580 0.000000 1.680280 
# 
# From -- ./inp_files/48796.got.cif
#   From: 2010.05.17/outbox.cif.g08.bks.cpg/sg14_25_cif.got.tgz:48796.got - 2010.06.03 17:49:19.
