data_PCOD9244153
_publ_section_title
;
Structure prediction by ZEFSAII (Michael W. Deem and Ramdas Pophale) SiO2 
 PCOD9244153
Probable space group: P 21/C
;
_chemical_formula_sum "Si O2"
_cell_formula_units_Z 20
_cell_length_a 7.127318
_cell_length_b 9.892761
_cell_length_c 13.827184
_cell_angle_alpha 90.000000
_cell_angle_beta 108.336318
_cell_angle_gamma 90.000000
_cell_volume 925.437595
_symmetry_space_group_name_H-M "P 21/C"
_symmetry_group_IT_number 14
_symmetry_cell_setting 'monoclinic'
loop_
_space_group_symop_operation_xyz
x,y,z
-x,1/2+y,1/2-z
-x,-y,-z
x,1/2-y,1/2+z
loop_
_atom_site_type_symbol
_atom_site_label
_atom_site_fract_x
_atom_site_fract_y
_atom_site_fract_z
Si Si1 0.364427 0.329354 0.134824
Si Si2 0.732006 0.197775 0.822105
Si Si3 0.849010 0.573442 0.406220
Si Si4 0.789117 0.428331 0.989417
Si Si5 0.999820 0.298128 0.195126
O O1 0.557341 0.274084 0.218584
O O2 0.260201 0.202206 0.065602
O O3 0.368768 0.456071 0.064095
O O4 0.207748 0.364687 0.196277
O O5 0.746988 0.302085 0.912035
O O6 0.935753 0.199251 0.794654
O O7 0.701734 0.043122 0.849372
O O8 0.000000 0.500000 0.500000
O O9 0.965571 0.644561 0.336436
O O10 0.829671 0.369314 0.102569
O O11 0.000000 0.500000 0.000000
#
# Coordination Sequence:
#
# PCOD9244153 Si02
#       5
#     4   4   4   4   4
#     4   9  22  37  60  90 113 150 198 238 287 343
#     4  12  21  39  64  83 120 152 196 244 282 346
#     4  10  20  41  59  85 118 153 192 240 290 341
#     4  10  20  40  60  82 122 155 188 239 296 342
#     4   9  23  37  60  86 114 157 192 231 300 340
#
# _framework density 21.611395999999999
#
# number of rings (size 3 to 8) (size 9 to 14) (size 15 to 20)
#    1.200    0.800    2.000    1.200    5.600    0.800 
#    0.000    7.000    0.000    0.000    0.000    0.000 
#    0.000    0.000    0.000    0.000    0.000    0.000 
#
# Total GULP energy -111396.484626 kJ/mol
# GULP energy per Si atom -5569.824231 kJ/mol
# Density = 2.156221 g / cm^3
# Si number density = 21.611396 Si / 1000 Ang^3
#
#
#
# Elastic Constant Matrix: (Units=GPa)
#
#
# Indices 1 2 3 4 5 6 
#
# 1 39.4041 -3.3999 3.0786 0.0000 4.2698 0.0000
# 2 -3.3999 128.3324 12.7955 0.0000 -4.9916 0.0000
# 3 3.0786 12.7955 38.2784 0.0000 4.7256 0.0000
# 4 0.0000 0.0000 0.0000 22.0530 0.0000 16.0696
# 5 4.2698 -4.9916 4.7256 0.0000 28.5132 0.0000
# 6 0.0000 0.0000 0.0000 16.0696 0.0000 10.8905
#
#
#
# Elastic Compliance Matrix: (Units=1/GPa)
#
#
# Indices 1 2 3 4 5 6 
#
# 1 0.025965 0.000745 -0.001912 0.000000 -0.003441 0.000000
# 2 0.000745 0.008184 -0.003021 0.000000 0.001822 0.000000
# 3 -0.001912 -0.003021 0.027888 0.000000 -0.004864 0.000000
# 4 0.000000 0.000000 0.000000 -0.602905 0.000000 0.889625
# 5 -0.003441 0.001822 -0.004864 0.000000 0.036712 0.000000
# 6 0.000000 0.000000 0.000000 0.889625 0.000000 -1.220874
#
#
# Mechanical properties :
#
#
# Convention : Reuss Voigt Hill
#
# Bulk Modulus (GPa) = 18.63564 25.66259 22.14912
# Shear Modulus (GPa) = -2.94331 25.19405 11.12537
#
# Velocity S-wave (km/s) = -1.16828 3.41805 2.27136
# Velocity P-wave (km/s) = 2.61188 5.24192 4.14124
#
# Compressibility (1/GPa) = 0.05366061
#
# Stress axis : x y z
#
# Youngs Moduli (GPa) = 38.51395 122.18939 35.85722
#
# Poissons Ratio (x) = -0.09100 0.06857
# Poissons Ratio (y) = -0.02868 0.10831
# Poissons Ratio (z) = 0.07365 0.36907
#
# Static dielectric constant tensor:
#      x y z
#    x 1.855020 0.000000 0.023920 
#    y 0.000000 1.850700 0.000000 
#    z 0.023920 0.000000 1.796300 
# 
# From -- ./inp_files/54201.got.cif
#   From: 2010.05.17/outbox.cif.g08.bks.cpg/sg14_28_cif.got.tgz:54201.got - 2010.06.03 17:49:19.
