data_PCOD9244104
_publ_section_title
;
Structure prediction by ZEFSAII (Michael W. Deem and Ramdas Pophale) SiO2 
 PCOD9244104
Probable space group: P 21/C
;
_chemical_formula_sum "Si O2"
_cell_formula_units_Z 24
_cell_length_a 7.364917
_cell_length_b 7.582487
_cell_length_c 17.072497
_cell_angle_alpha 90.000000
_cell_angle_beta 64.514594
_cell_angle_gamma 90.000000
_cell_volume 860.632160
_symmetry_space_group_name_H-M "P 21/C"
_symmetry_group_IT_number 14
_symmetry_cell_setting 'monoclinic'
loop_
_space_group_symop_operation_xyz
x,y,z
-x,1/2+y,1/2-z
-x,-y,-z
x,1/2-y,1/2+z
loop_
_atom_site_type_symbol
_atom_site_label
_atom_site_fract_x
_atom_site_fract_y
_atom_site_fract_z
Si Si1 0.559645 0.713184 0.743832
Si Si2 0.039085 0.095016 0.335793
Si Si3 0.044733 0.227012 0.543071
Si Si4 0.616161 0.208176 0.059114
Si Si5 0.515507 0.801205 0.084626
Si Si6 0.943720 0.984006 0.182650
O O1 0.721147 0.873968 0.717742
O O2 0.465587 0.695947 0.847293
O O3 0.433737 0.736280 0.687256
O O4 0.711401 0.546943 0.701458
O O5 0.989210 0.966614 0.415822
O O6 0.958707 0.294579 0.352569
O O7 0.957483 0.010320 0.272026
O O8 0.250265 0.241719 0.457993
O O9 0.853552 0.295383 0.530809
O O10 0.049228 0.360095 0.616475
O O11 0.520352 0.013045 0.076992
O O12 0.563607 0.280786 0.982405
#
# Coordination Sequence:
#
# PCOD9244104 Si02
#       6
#     4   4   4   4   4   4
#     4  10  24  43  68 109 149 185 251 307 347 446
#     4  10  21  38  70 107 147 189 248 300 363 434
#     4  12  23  44  75 105 147 197 242 306 372 428
#     4  11  24  44  76 105 148 203 239 301 380 427
#     4  11  25  48  73 109 151 190 255 302 360 457
#     4  10  20  39  68 109 145 189 249 299 356 442
#
# _framework density 27.886478
#
# number of rings (size 3 to 8) (size 9 to 14) (size 15 to 20)
#    1.000    0.333    3.333    2.500    2.333    0.667 
#    0.000    4.167    0.000    0.000    0.000    0.000 
#    0.000    0.000    0.000    0.000    0.000    0.000 
#
# Total GULP energy -134631.350489 kJ/mol
# GULP energy per Si atom -5609.639604 kJ/mol
# Density = 2.782301 g / cm^3
# Si number density = 27.886478 Si / 1000 Ang^3
#
#
#
# Elastic Constant Matrix: (Units=GPa)
#
#
# Indices 1 2 3 4 5 6 
#
# 1 103.6047 -10.4996 57.6285 0.0000 26.9849 0.0000
# 2 -10.4996 126.5070 23.3136 0.0000 4.8414 0.0000
# 3 57.6285 23.3136 207.0969 0.0000 47.2370 0.0000
# 4 0.0000 0.0000 0.0000 42.9486 0.0000 4.4810
# 5 26.9849 4.8414 47.2370 0.0000 59.0024 0.0000
# 6 0.0000 0.0000 0.0000 4.4810 0.0000 26.2397
#
#
#
# Elastic Compliance Matrix: (Units=1/GPa)
#
#
# Indices 1 2 3 4 5 6 
#
# 1 0.012299 0.001673 -0.002810 0.000000 -0.003513 0.000000
# 2 0.001673 0.008300 -0.001309 0.000000 -0.000398 0.000000
# 3 -0.002810 -0.001309 0.006656 0.000000 -0.003936 0.000000
# 4 0.000000 0.000000 0.000000 0.023706 0.000000 -0.004048
# 5 -0.003513 -0.000398 -0.003936 0.000000 0.021739 0.000000
# 6 0.000000 0.000000 0.000000 -0.004048 0.000000 0.038801
#
#
# Mechanical properties :
#
#
# Convention : Reuss Voigt Hill
#
# Bulk Modulus (GPa) = 44.71511 64.23262 54.47386
# Shear Modulus (GPa) = 40.37221 50.08921 45.23071
#
# Velocity S-wave (km/s) = 3.80904 4.24274 4.03172
# Velocity P-wave (km/s) = 5.95101 6.86183 6.42259
#
# Compressibility (1/GPa) = 0.02236381
#
# Stress axis : x y z
#
# Youngs Moduli (GPa) = 81.30459 120.48135 150.24884
#
# Poissons Ratio (x) = -0.20157 0.42213
# Poissons Ratio (y) = -0.13602 0.19669
# Poissons Ratio (z) = 0.22843 0.15772
#
# Static dielectric constant tensor:
#      x y z
#    x 2.204480 0.000000 -0.026590 
#    y 0.000000 2.168980 0.000000 
#    z -0.026590 0.000000 2.123740 
# 
# From -- ./inp_files/39258.got.cif
#   From: 2010.05.17/outbox.cif.g08.bks.cpg/sg14_20_cif.got.tgz:39258.got - 2010.06.03 17:49:19.
