data_PCOD9244798
_publ_section_title
;
Structure prediction by ZEFSAII (Michael W. Deem and Ramdas Pophale) SiO2 
 PCOD9244798
Probable space group: P 21/C
;
_chemical_formula_sum "Si O2"
_cell_formula_units_Z 32
_cell_length_a 7.631448
_cell_length_b 23.553029
_cell_length_c 14.427971
_cell_angle_alpha 90.000000
_cell_angle_beta 26.342522
_cell_angle_gamma 90.000000
_cell_volume 1150.758066
_symmetry_space_group_name_H-M "P 21/C"
_symmetry_group_IT_number 14
_symmetry_cell_setting 'monoclinic'
loop_
_space_group_symop_operation_xyz
x,y,z
-x,1/2+y,1/2-z
-x,-y,-z
x,1/2-y,1/2+z
loop_
_atom_site_type_symbol
_atom_site_label
_atom_site_fract_x
_atom_site_fract_y
_atom_site_fract_z
Si Si1 0.385041 0.549784 0.625097
Si Si2 0.537428 0.052058 0.389137
Si Si3 0.143966 0.248721 0.016205
Si Si4 0.247558 0.858763 0.054694
Si Si5 0.381421 0.960128 0.331996
Si Si6 0.724617 0.255830 0.875473
Si Si7 0.583560 0.153297 0.222748
Si Si8 0.321758 0.878312 0.511681
O O1 0.500000 0.500000 0.500000
O O2 0.450841 0.610035 0.543902
O O3 0.438103 0.451352 0.355098
O O4 0.916414 0.546130 0.865145
O O5 0.645150 0.995942 0.280060
O O6 0.561417 0.106727 0.312368
O O7 0.762897 0.071394 0.374539
O O8 0.207146 0.257470 0.104681
O O9 0.992430 0.189673 0.041869
O O10 0.657245 0.239190 0.789426
O O11 0.227330 0.302049 0.909098
O O12 0.412038 0.876566 0.878279
O O13 0.286807 0.791746 0.041101
O O14 0.791807 0.872060 0.279953
O O15 0.231597 0.903077 0.452847
O O16 0.000000 0.000000 0.500000
O O17 0.800601 0.318780 0.882966
#
# Coordination Sequence:
#
# PCOD9244798 Si02
#       8
#     4   4   4   4   4   4   4   4
#     4  10  22  46  69  97 139 184 240 305 358 422
#     4  10  20  44  70 100 137 180 239 300 374 433
#     4  10  21  41  68  96 144 179 237 286 353 441
#     4  11  25  42  67 102 146 193 238 299 362 433
#     4  10  23  44  72 106 134 185 249 303 363 434
#     4  11  21  45  65 104 144 193 233 290 361 441
#     4  11  23  42  69 106 140 192 234 294 362 435
#     4  11  22  44  69 103 146 189 234 302 373 443
#
# _framework density 27.807755
#
# number of rings (size 3 to 8) (size 9 to 14) (size 15 to 20)
#    0.000    1.500    3.750    1.875    1.750    1.000 
#   15.750    9.375    0.000    0.000    0.000    0.000 
#    0.000    0.000    0.000    0.000    0.000    0.000 
#
# Total GULP energy -178966.595426 kJ/mol
# GULP energy per Si atom -5592.706107 kJ/mol
# Density = 2.774446 g / cm^3
# Si number density = 27.807755 Si / 1000 Ang^3
#
#
#
# Elastic Constant Matrix: (Units=GPa)
#
#
# Indices 1 2 3 4 5 6 
#
# 1 102.1686 61.6598 61.0976 0.0000 31.9591 0.0000
# 2 61.6598 166.2895 39.3613 0.0000 24.6240 0.0000
# 3 61.0976 39.3613 160.6024 0.0000 -1.8446 0.0000
# 4 0.0000 0.0000 0.0000 49.9503 0.0000 6.3985
# 5 31.9591 24.6240 -1.8446 0.0000 72.6340 0.0000
# 6 0.0000 0.0000 0.0000 6.3985 0.0000 35.1371
#
#
#
# Elastic Compliance Matrix: (Units=1/GPa)
#
#
# Indices 1 2 3 4 5 6 
#
# 1 0.017933 -0.004291 -0.005846 0.000000 -0.006584 0.000000
# 2 -0.004291 0.007784 -0.000284 0.000000 -0.000758 0.000000
# 3 -0.005846 -0.000284 0.008553 0.000000 0.002886 0.000000
# 4 0.000000 0.000000 0.000000 0.020498 0.000000 -0.003733
# 5 -0.006584 -0.000758 0.002886 0.000000 0.016995 0.000000
# 6 0.000000 0.000000 0.000000 -0.003733 0.000000 0.029140
#
#
# Mechanical properties :
#
#
# Convention : Reuss Voigt Hill
#
# Bulk Modulus (GPa) = 74.46955 83.69977 79.08466
# Shear Modulus (GPa) = 39.61284 49.34040 44.47662
#
# Velocity S-wave (km/s) = 3.77838 4.21686 4.00363
# Velocity P-wave (km/s) = 6.77297 7.33989 7.06212
#
# Compressibility (1/GPa) = 0.01342831
#
# Stress axis : x y z
#
# Youngs Moduli (GPa) = 55.76324 128.46649 116.91215
#
# Poissons Ratio (x) = 0.55121 0.68350
# Poissons Ratio (y) = 0.23926 0.03323
# Poissons Ratio (z) = 0.32601 0.03651
#
# Static dielectric constant tensor:
#      x y z
#    x 2.312370 0.000000 -0.140470 
#    y 0.000000 2.048470 0.000000 
#    z -0.140470 0.000000 2.255320 
# 
# From -- ./inp_files/42216.got.cif
#   From: 2010.05.17/outbox.cif.g08.bks.cpg/sg14_22_cif.got.tgz:42216.got - 2010.06.03 17:49:19.
