data_PCOD9244136
_publ_section_title
;
Structure prediction by ZEFSAII (Michael W. Deem and Ramdas Pophale) SiO2 
 PCOD9244136
Probable space group: P 21/C
;
_chemical_formula_sum "Si O2"
_cell_formula_units_Z 20
_cell_length_a 7.613875
_cell_length_b 16.143504
_cell_length_c 7.430820
_cell_angle_alpha 90.000000
_cell_angle_beta 62.514471
_cell_angle_gamma 90.000000
_cell_volume 810.263538
_symmetry_space_group_name_H-M "P 21/C"
_symmetry_group_IT_number 14
_symmetry_cell_setting 'monoclinic'
loop_
_space_group_symop_operation_xyz
x,y,z
-x,1/2+y,1/2-z
-x,-y,-z
x,1/2-y,1/2+z
loop_
_atom_site_type_symbol
_atom_site_label
_atom_site_fract_x
_atom_site_fract_y
_atom_site_fract_z
Si Si1 0.906616 0.183008 0.587332
Si Si2 0.478750 0.627434 0.108437
Si Si3 0.022713 0.922622 0.785633
Si Si4 0.621951 0.302012 0.507065
Si Si5 0.139408 0.398209 0.258060
O O1 0.996121 0.126608 0.389947
O O2 0.804750 0.263693 0.543523
O O3 0.071637 0.179313 0.665821
O O4 0.716084 0.151529 0.792580
O O5 0.257021 0.591824 0.213412
O O6 0.515738 0.643542 0.301869
O O7 0.474855 0.718637 0.020006
O O8 0.642221 0.581267 0.916204
O O9 0.002747 0.021509 0.779477
O O10 0.888890 0.889786 0.014225
#
# Coordination Sequence:
#
# PCOD9244136 Si02
#       5
#     4   4   4   4   4
#     4  10  20  40  61  82 118 155 189 245 293 343
#     4  10  20  40  58  86 119 153 194 246 290 346
#     4  10  22  41  60  87 122 154 194 245 294 340
#     4   9  20  39  61  81 121 156 189 242 302 343
#     4  11  22  38  64  88 115 158 202 236 288 357
#
# _framework density 24.683326000000001
#
# number of rings (size 3 to 8) (size 9 to 14) (size 15 to 20)
#    0.000    2.000    2.000    1.200    0.000    1.600 
#   10.800    1.000    0.000    0.000    0.000    0.000 
#    0.000    0.000    0.000    0.000    0.000    0.000 
#
# Total GULP energy -111438.454870 kJ/mol
# GULP energy per Si atom -5571.922744 kJ/mol
# Density = 2.462715 g / cm^3
# Si number density = 24.683326 Si / 1000 Ang^3
#
#
#
# Elastic Constant Matrix: (Units=GPa)
#
#
# Indices 1 2 3 4 5 6 
#
# 1 15.0633 10.7315 39.1476 0.0000 8.5041 0.0000
# 2 10.7315 24.9028 38.0049 0.0000 8.2798 0.0000
# 3 39.1476 38.0049 246.0032 0.0000 17.4865 0.0000
# 4 0.0000 0.0000 0.0000 40.4987 0.0000 -3.1853
# 5 8.5041 8.2798 17.4865 0.0000 26.9631 0.0000
# 6 0.0000 0.0000 0.0000 -3.1853 0.0000 15.3539
#
#
#
# Elastic Compliance Matrix: (Units=1/GPa)
#
#
# Indices 1 2 3 4 5 6 
#
# 1 0.145016 -0.028014 -0.016888 0.000000 -0.026183 0.000000
# 2 -0.028014 0.061523 -0.004541 0.000000 -0.007112 0.000000
# 3 -0.016888 -0.004541 0.007313 0.000000 0.001978 0.000000
# 4 0.000000 0.000000 0.000000 0.025102 0.000000 0.005208
# 5 -0.026183 -0.007112 0.001978 0.000000 0.046247 0.000000
# 6 0.000000 0.000000 0.000000 0.005208 0.000000 0.066210
#
#
# Mechanical properties :
#
#
# Convention : Reuss Voigt Hill
#
# Bulk Modulus (GPa) = 8.69818 51.30415 30.00116
# Shear Modulus (GPa) = 10.23291 29.76882 20.00086
#
# Velocity S-wave (km/s) = 2.03830 3.47656 2.84966
# Velocity P-wave (km/s) = 3.01183 6.07827 4.79669
#
# Compressibility (1/GPa) = 0.11496663
#
# Stress axis : x y z
#
# Youngs Moduli (GPa) = 6.89580 16.25399 136.73473
#
# Poissons Ratio (x) = 0.45533 2.30918
# Poissons Ratio (y) = 0.19318 0.62094
# Poissons Ratio (z) = 0.11646 0.07381
#
# Static dielectric constant tensor:
#      x y z
#    x 2.046680 0.000000 0.010280 
#    y 0.000000 2.012220 0.000000 
#    z 0.010280 0.000000 2.010750 
# 
# From -- ./inp_files/8971.got.cif
#   From: 2010.05.17/outbox.cif.g08.bks.cpg/sg14_5_cif.got.tgz:8971.got - 2010.06.03 17:49:19.
