data_PCOD9244840
_publ_section_title
;
Structure prediction by ZEFSAII (Michael W. Deem and Ramdas Pophale) SiO2 
 PCOD9244840
Probable space group: P 21/C
;
_chemical_formula_sum "Si O2"
_cell_formula_units_Z 30
_cell_length_a 5.219583
_cell_length_b 19.805634
_cell_length_c 12.265973
_cell_angle_alpha 90.000000
_cell_angle_beta 63.943223
_cell_angle_gamma 90.000000
_cell_volume 1139.138638
_symmetry_space_group_name_H-M "P 21/C"
_symmetry_group_IT_number 14
_symmetry_cell_setting 'monoclinic'
loop_
_space_group_symop_operation_xyz
x,y,z
-x,1/2+y,1/2-z
-x,-y,-z
x,1/2-y,1/2+z
loop_
_atom_site_type_symbol
_atom_site_label
_atom_site_fract_x
_atom_site_fract_y
_atom_site_fract_z
Si Si1 0.334076 0.820921 0.170531
Si Si2 0.824622 0.157517 0.037667
Si Si3 0.532099 0.076657 0.257119
Si Si4 0.186076 0.120378 0.628538
Si Si5 0.276970 0.431896 0.351427
Si Si6 0.203649 0.274957 0.966191
Si Si7 0.886800 0.392918 0.904444
Si Si8 0.000000 0.500000 0.000000
O O1 0.241812 0.807301 0.064398
O O2 0.467147 0.895683 0.134573
O O3 0.565323 0.763755 0.151828
O O4 0.095022 0.831631 0.304341
O O5 0.002487 0.090458 0.971564
O O6 0.038259 0.211756 0.051494
O O7 0.560838 0.134179 0.159801
O O8 0.198564 0.063128 0.351709
O O9 0.738493 0.100145 0.316544
O O10 0.656585 0.008205 0.186102
O O11 0.259855 0.106204 0.738905
O O12 0.361248 0.172506 0.519509
O O13 0.111387 0.052638 0.579099
O O14 0.005590 0.323689 0.929763
O O15 0.739685 0.442373 0.017812
#
# Coordination Sequence:
#
# PCOD9244840 Si02
#       8
#     4   4   4   4   4   4   4   2
#     4  10  23  43  65  99 137 193 230 291 359 423
#     4  10  25  42  67  95 144 186 237 282 353 426
#     4  12  26  45  73 107 138 184 236 301 353 424
#     4  10  21  42  70  97 140 177 231 298 353 426
#     4  10  22  43  68 101 136 182 232 291 358 421
#     4  10  25  44  64 102 137 190 237 289 354 433
#     4  11  27  44  72 105 142 179 241 297 355 427
#     4  10  20  48  68 106 136 182 232 292 368 416
#
# _framework density 26.335685999999999
#
# number of rings (size 3 to 8) (size 9 to 14) (size 15 to 20)
#    0.000    1.600    1.333    1.200    9.333    4.267 
#    7.200    0.000    0.000    0.000    0.000    0.000 
#    0.000    0.000    0.000    0.000    0.000    0.000 
#
# Total GULP energy -167360.776419 kJ/mol
# GULP energy per Si atom -5578.692547 kJ/mol
# Density = 2.627575 g / cm^3
# Si number density = 26.335686 Si / 1000 Ang^3
#
#
#
# Elastic Constant Matrix: (Units=GPa)
#
#
# Indices 1 2 3 4 5 6 
#
# 1 34.7621 6.3203 -3.2050 0.0000 0.3662 0.0000
# 2 6.3203 148.0347 39.3306 0.0000 -5.4656 0.0000
# 3 -3.2050 39.3306 51.4423 0.0000 -7.2818 0.0000
# 4 0.0000 0.0000 0.0000 35.2366 0.0000 -3.7838
# 5 0.3662 -5.4656 -7.2818 0.0000 31.5391 0.0000
# 6 0.0000 0.0000 0.0000 -3.7838 0.0000 31.0068
#
#
#
# Elastic Compliance Matrix: (Units=1/GPa)
#
#
# Indices 1 2 3 4 5 6 
#
# 1 0.029490 -0.002193 0.003527 0.000000 0.000092 0.000000
# 2 -0.002193 0.008640 -0.006748 0.000000 -0.000035 0.000000
# 3 0.003527 -0.006748 0.025479 0.000000 0.004672 0.000000
# 4 0.000000 0.000000 0.000000 0.028756 0.000000 0.003509
# 5 0.000092 -0.000035 0.004672 0.000000 0.032778 0.000000
# 6 0.000000 0.000000 0.000000 0.003509 0.000000 0.032679
#
#
# Mechanical properties :
#
#
# Convention : Reuss Voigt Hill
#
# Bulk Modulus (GPa) = 18.94574 35.45900 27.20237
# Shear Modulus (GPa) = 26.84645 32.34270 29.59458
#
# Velocity S-wave (km/s) = 3.19626 3.50822 3.35587
# Velocity P-wave (km/s) = 4.56410 5.46842 5.03660
#
# Compressibility (1/GPa) = 0.05278232
#
# Stress axis : x y z
#
# Youngs Moduli (GPa) = 33.91000 115.73791 39.24758
#
# Poissons Ratio (x) = 0.25377 -0.13841
# Poissons Ratio (y) = 0.07435 0.26482
# Poissons Ratio (z) = -0.11959 0.78094
#
# Static dielectric constant tensor:
#      x y z
#    x 2.527270 0.000000 -0.990820 
#    y 0.000000 -1.388360 0.000000 
#    z -0.990820 0.000000 4.899890 
# 
# From -- ./inp_files/21753.got.cif
#   From: 2010.05.17/outbox.cif.g08.bks.cpg/sg14_11_cif.got.tgz:21753.got - 2010.06.03 17:49:19.
