data_PCOD9244831
_publ_section_title
;
Structure prediction by ZEFSAII (Michael W. Deem and Ramdas Pophale) SiO2 
 PCOD9244831
Probable space group: P 21/C
;
_chemical_formula_sum "Si O2"
_cell_formula_units_Z 20
_cell_length_a 7.587391
_cell_length_b 15.790615
_cell_length_c 8.495498
_cell_angle_alpha 90.000000
_cell_angle_beta 126.469570
_cell_angle_gamma 90.000000
_cell_volume 818.520679
_symmetry_space_group_name_H-M "P 21/C"
_symmetry_group_IT_number 14
_symmetry_cell_setting 'monoclinic'
loop_
_space_group_symop_operation_xyz
x,y,z
-x,1/2+y,1/2-z
-x,-y,-z
x,1/2-y,1/2+z
loop_
_atom_site_type_symbol
_atom_site_label
_atom_site_fract_x
_atom_site_fract_y
_atom_site_fract_z
Si Si1 0.375252 0.068647 0.595261
Si Si2 0.025656 0.344269 0.713918
Si Si3 0.110006 0.923982 0.156957
Si Si4 0.607864 0.424245 0.664871
Si Si5 0.220378 0.159049 0.824639
O O1 0.222100 0.092815 0.368643
O O2 0.630928 0.073245 0.691217
O O3 0.316341 0.135552 0.704035
O O4 0.339066 0.975533 0.649900
O O5 0.117537 0.250831 0.786392
O O6 0.946360 0.347602 0.492351
O O7 0.818756 0.378330 0.704637
O O8 0.970248 0.908145 0.237791
O O9 0.000000 0.000000 0.000000
O O10 0.500000 0.500000 0.500000
O O11 0.411780 0.356555 0.555061
#
# Coordination Sequence:
#
# PCOD9244831 Si02
#       5
#     4   4   4   4   4
#     4  11  24  47  72  99 142 190 234 281 358 422
#     4  12  25  43  75 103 137 189 240 284 359 418
#     4  12  24  46  72 103 141 183 237 294 338 425
#     4  10  20  46  70  91 143 184 218 288 350 406
#     4  11  24  45  69 103 144 182 227 303 354 398
#
# _framework density 24.434324
#
# number of rings (size 3 to 8) (size 9 to 14) (size 15 to 20)
#    0.000    0.800    6.000    3.000    2.800    0.800 
#    3.600    0.000    0.000    0.000    0.000    0.000 
#    0.000    0.000    0.000    0.000    0.000    0.000 
#
# Total GULP energy -111975.113619 kJ/mol
# GULP energy per Si atom -5598.755681 kJ/mol
# Density = 2.437871 g / cm^3
# Si number density = 24.434324 Si / 1000 Ang^3
#
#
#
# Elastic Constant Matrix: (Units=GPa)
#
#
# Indices 1 2 3 4 5 6 
#
# 1 147.4368 42.2910 52.4759 0.0000 44.8859 0.0000
# 2 42.2910 121.7887 40.6112 0.0000 22.6929 0.0000
# 3 52.4759 40.6112 146.3366 0.0000 33.9183 0.0000
# 4 0.0000 0.0000 0.0000 42.4674 0.0000 15.0429
# 5 44.8859 22.6929 33.9183 0.0000 55.1223 0.0000
# 6 0.0000 0.0000 0.0000 15.0429 0.0000 31.5787
#
#
#
# Elastic Compliance Matrix: (Units=1/GPa)
#
#
# Indices 1 2 3 4 5 6 
#
# 1 0.009733 -0.001689 -0.001569 0.000000 -0.006264 0.000000
# 2 -0.001689 0.009658 -0.001717 0.000000 -0.001544 0.000000
# 3 -0.001569 -0.001717 0.008646 0.000000 -0.003335 0.000000
# 4 0.000000 0.000000 0.000000 0.028327 0.000000 -0.013494
# 5 -0.006264 -0.001544 -0.003335 0.000000 0.025931 0.000000
# 6 0.000000 0.000000 0.000000 -0.013494 0.000000 0.038095
#
#
# Mechanical properties :
#
#
# Convention : Reuss Voigt Hill
#
# Bulk Modulus (GPa) = 55.29143 76.25759 65.77451
# Shear Modulus (GPa) = 36.66556 44.51263 40.58909
#
# Velocity S-wave (km/s) = 3.87793 4.27280 4.08014
# Velocity P-wave (km/s) = 6.53673 7.45784 7.01242
#
# Compressibility (1/GPa) = 0.01808598
#
# Stress axis : x y z
#
# Youngs Moduli (GPa) = 102.74565 103.54526 115.66307
#
# Poissons Ratio (x) = 0.17490 0.18152
# Poissons Ratio (y) = 0.17355 0.19854
# Poissons Ratio (z) = 0.16125 0.17774
#
# Static dielectric constant tensor:
#      x y z
#    x 1.971610 0.000000 -0.041160 
#    y 0.000000 2.065850 0.000000 
#    z -0.041160 0.000000 1.966300 
# 
# From -- ./inp_files/26178.got.cif
#   From: 2010.05.17/outbox.cif.g08.bks.cpg/sg14_14_cif.got.tgz:26178.got - 2010.06.03 17:49:19.
