data_PCOD9244757
_publ_section_title
;
Structure prediction by ZEFSAII (Michael W. Deem and Ramdas Pophale) SiO2 
 PCOD9244757
Probable space group: P 21/C
;
_chemical_formula_sum "Si O2"
_cell_formula_units_Z 24
_cell_length_a 16.038401
_cell_length_b 15.405069
_cell_length_c 9.744616
_cell_angle_alpha 90.000000
_cell_angle_beta 24.229295
_cell_angle_gamma 90.000000
_cell_volume 988.065007
_symmetry_space_group_name_H-M "P 21/C"
_symmetry_group_IT_number 14
_symmetry_cell_setting 'monoclinic'
loop_
_space_group_symop_operation_xyz
x,y,z
-x,1/2+y,1/2-z
-x,-y,-z
x,1/2-y,1/2+z
loop_
_atom_site_type_symbol
_atom_site_label
_atom_site_fract_x
_atom_site_fract_y
_atom_site_fract_z
Si Si1 0.771712 0.477153 0.398573
Si Si2 0.599489 0.833086 0.212534
Si Si3 0.320219 0.566411 0.749085
Si Si4 0.207119 0.827745 0.657593
Si Si5 0.175361 0.264293 0.889582
Si Si6 0.997191 0.073785 0.806886
O O1 0.640970 0.564398 0.618988
O O2 0.688609 0.417579 0.400150
O O3 0.804618 0.431951 0.493960
O O4 0.000000 0.500000 0.000000
O O5 0.367102 0.804170 0.536560
O O6 0.705650 0.805252 0.195284
O O7 0.715230 0.784951 0.915932
O O8 0.500000 0.500000 0.500000
O O9 0.341168 0.641590 0.827221
O O10 0.116959 0.515631 0.102914
O O11 0.073379 0.901099 0.936355
O O12 0.046626 0.764648 0.828944
O O13 0.141929 0.350041 0.031747
#
# Coordination Sequence:
#
# PCOD9244757 Si02
#       6
#     4   4   4   4   4   4
#     4  10  20  43  71  95 133 179 226 281 343 406
#     4  12  26  47  69 101 138 186 230 282 355 413
#     4  11  21  44  71  99 134 180 230 282 345 411
#     4  12  27  45  71 106 138 184 234 287 350 417
#     4  12  25  47  68 100 146 180 230 288 346 422
#     4  11  24  44  68 102 138 179 227 294 343 403
#
# _framework density 24.289898999999998
#
# number of rings (size 3 to 8) (size 9 to 14) (size 15 to 20)
#    0.000    0.667    6.667    2.500    2.333    0.667 
#    6.000    0.000    0.000    0.000    0.000    0.000 
#    0.000    0.000    0.000    0.000    0.000    0.000 
#
# Total GULP energy -134164.598885 kJ/mol
# GULP energy per Si atom -5590.191620 kJ/mol
# Density = 2.423461 g / cm^3
# Si number density = 24.289899 Si / 1000 Ang^3
#
#
#
# Elastic Constant Matrix: (Units=GPa)
#
#
# Indices 1 2 3 4 5 6 
#
# 1 121.7119 23.3420 23.6828 0.0000 4.0167 0.0000
# 2 23.3420 39.7765 -1.1338 0.0000 4.6919 0.0000
# 3 23.6828 -1.1338 39.8602 0.0000 0.9310 0.0000
# 4 0.0000 0.0000 0.0000 38.3747 0.0000 -1.5090
# 5 4.0167 4.6919 0.9310 0.0000 50.2681 0.0000
# 6 0.0000 0.0000 0.0000 -1.5090 0.0000 36.9663
#
#
#
# Elastic Compliance Matrix: (Units=1/GPa)
#
#
# Indices 1 2 3 4 5 6 
#
# 1 0.010739 -0.006473 -0.006561 0.000000 -0.000132 0.000000
# 2 -0.006473 0.029346 0.004735 0.000000 -0.002310 0.000000
# 3 -0.006561 0.004735 0.029131 0.000000 -0.000457 0.000000
# 4 0.000000 0.000000 0.000000 0.026101 0.000000 0.001065
# 5 -0.000132 -0.002310 -0.000457 0.000000 0.020128 0.000000
# 6 0.000000 0.000000 0.000000 0.001065 0.000000 0.027095
#
#
# Mechanical properties :
#
#
# Convention : Reuss Voigt Hill
#
# Bulk Modulus (GPa) = 19.00530 32.57006 25.78768
# Shear Modulus (GPa) = 28.29993 35.48567 31.89280
#
# Velocity S-wave (km/s) = 3.41704 3.82635 3.62747
# Velocity P-wave (km/s) = 4.83835 5.74102 5.30890
#
# Compressibility (1/GPa) = 0.05261691
#
# Stress axis : x y z
#
# Youngs Moduli (GPa) = 93.12187 34.07567 34.32717
#
# Poissons Ratio (x) = 0.22058 0.22523
# Poissons Ratio (y) = 0.60279 -0.16253
# Poissons Ratio (z) = 0.61100 -0.16134
#
# Static dielectric constant tensor:
#      x y z
#    x 2.019710 0.000000 -0.101710 
#    y 0.000000 1.962800 0.000000 
#    z -0.101710 0.000000 2.005790 
# 
# From -- ./inp_files/16609.got.cif
#   From: 2010.05.17/outbox.cif.g08.bks.cpg/sg14_9_cif.got.tgz:16609.got - 2010.06.03 17:49:19.
