data_PCOD9244886
_publ_section_title
;
Structure prediction by ZEFSAII (Michael W. Deem and Ramdas Pophale) SiO2 
 PCOD9244886
Probable space group: P 21/C
;
_chemical_formula_sum "Si O2"
_cell_formula_units_Z 32
_cell_length_a 11.699998
_cell_length_b 25.874906
_cell_length_c 5.473434
_cell_angle_alpha 90.000000
_cell_angle_beta 113.031718
_cell_angle_gamma 90.000000
_cell_volume 1524.924727
_symmetry_space_group_name_H-M "P 21/C"
_symmetry_group_IT_number 14
_symmetry_cell_setting 'monoclinic'
loop_
_space_group_symop_operation_xyz
x,y,z
-x,1/2+y,1/2-z
-x,-y,-z
x,1/2-y,1/2+z
loop_
_atom_site_type_symbol
_atom_site_label
_atom_site_fract_x
_atom_site_fract_y
_atom_site_fract_z
Si Si1 0.632451 0.932589 0.681843
Si Si2 0.962541 0.225182 0.929490
Si Si3 0.245000 0.266556 0.177473
Si Si4 0.815588 0.460169 0.789973
Si Si5 0.646779 0.449108 0.048352
Si Si6 0.882862 0.390385 0.473347
Si Si7 0.758024 0.889618 0.288397
Si Si8 0.954981 0.953459 0.209910
O O1 0.485350 0.921933 0.540639
O O2 0.700804 0.910996 0.494597
O O3 0.639953 0.995373 0.676467
O O4 0.684257 0.908126 0.979228
O O5 0.917436 0.257890 0.125002
O O6 0.112466 0.235532 0.053374
O O7 0.920704 0.167276 0.946539
O O8 0.309692 0.246687 0.476577
O O9 0.229122 0.327988 0.184432
O O10 0.847326 0.403520 0.720607
O O11 0.857524 0.500199 0.616622
O O12 0.681747 0.462814 0.796045
O O13 0.914976 0.474603 0.080550
O O14 0.759014 0.411996 0.232299
O O15 0.004736 0.423044 0.495223
O O16 0.892665 0.913943 0.346670
#
# Coordination Sequence:
#
# PCOD9244886 Si02
#       8
#     4   4   4   4   4   4   4   4
#     4  11  26  43  68  98 135 179 231 269 324 391
#     4  10  23  40  61  94 125 165 212 270 330 394
#     4  10  21  38  62  93 128 163 212 272 330 394
#     4  10  21  36  59  92 136 171 212 260 326 401
#     4  10  24  43  65  98 133 181 228 273 314 399
#     4  11  23  37  68  89 136 174 218 268 339 401
#     4  12  24  40  68  97 132 178 217 278 337 399
#     4  10  21  34  55  98 134 170 203 261 331 409
#
# _framework density 20.984642000000001
#
# number of rings (size 3 to 8) (size 9 to 14) (size 15 to 20)
#    0.000    1.500    1.250    3.375   10.500    1.000 
#    0.000    0.000    0.000    4.500    0.000    0.000 
#    0.000    0.000    0.000    0.000    0.000    0.000 
#
# Total GULP energy -178429.737608 kJ/mol
# GULP energy per Si atom -5575.929300 kJ/mol
# Density = 2.093688 g / cm^3
# Si number density = 20.984642 Si / 1000 Ang^3
#
#
#
# Elastic Constant Matrix: (Units=GPa)
#
#
# Indices 1 2 3 4 5 6 
#
# 1 87.6029 0.5604 23.0719 0.0000 2.9995 0.0000
# 2 0.5604 63.5301 4.1933 0.0000 6.1334 0.0000
# 3 23.0719 4.1933 76.8895 0.0000 -0.0221 0.0000
# 4 0.0000 0.0000 0.0000 28.2158 0.0000 -4.8593
# 5 2.9995 6.1334 -0.0221 0.0000 20.9642 0.0000
# 6 0.0000 0.0000 0.0000 -4.8593 0.0000 24.7788
#
#
#
# Elastic Compliance Matrix: (Units=1/GPa)
#
#
# Indices 1 2 3 4 5 6 
#
# 1 0.012468 0.000320 -0.003759 0.000000 -0.001881 0.000000
# 2 0.000320 0.016267 -0.000984 0.000000 -0.004806 0.000000
# 3 -0.003759 -0.000984 0.014188 0.000000 0.000841 0.000000
# 4 0.000000 0.000000 0.000000 0.036680 0.000000 0.007193
# 5 -0.001881 -0.004806 0.000841 0.000000 0.049376 0.000000
# 6 0.000000 0.000000 0.000000 0.007193 0.000000 0.041768
#
#
# Mechanical properties :
#
#
# Convention : Reuss Voigt Hill
#
# Bulk Modulus (GPa) = 29.34761 31.51929 30.43345
# Shear Modulus (GPa) = 26.18464 28.13821 27.16143
#
# Velocity S-wave (km/s) = 3.53625 3.66580 3.60161
# Velocity P-wave (km/s) = 5.53977 5.74197 5.64178
#
# Compressibility (1/GPa) = 0.03407433
#
# Stress axis : x y z
#
# Youngs Moduli (GPa) = 80.20830 61.47524 70.48418
#
# Poissons Ratio (x) = -0.01966 0.26495
# Poissons Ratio (y) = -0.02565 0.06939
# Poissons Ratio (z) = 0.30151 0.06052
#
# Static dielectric constant tensor:
#      x y z
#    x 1.747810 0.000000 -0.036610 
#    y 0.000000 1.799960 0.000000 
#    z -0.036610 0.000000 1.890610 
# 
# From -- ./inp_files/3184.got.cif
#   From: 2010.05.17/outbox.cif.g08.bks.cpg/sg14_2_cif.got.tgz:3184.got - 2010.06.03 17:49:19.
