data_PCOD9244280
_publ_section_title
;
Structure prediction by ZEFSAII (Michael W. Deem and Ramdas Pophale) SiO2 
 PCOD9244280
Probable space group: P 21/C
;
_chemical_formula_sum "Si O2"
_cell_formula_units_Z 28
_cell_length_a 9.424594
_cell_length_b 9.060271
_cell_length_c 26.886672
_cell_angle_alpha 90.000000
_cell_angle_beta 144.360351
_cell_angle_gamma 90.000000
_cell_volume 1337.750430
_symmetry_space_group_name_H-M "P 21/C"
_symmetry_group_IT_number 14
_symmetry_cell_setting 'monoclinic'
loop_
_space_group_symop_operation_xyz
x,y,z
-x,1/2+y,1/2-z
-x,-y,-z
x,1/2-y,1/2+z
loop_
_atom_site_type_symbol
_atom_site_label
_atom_site_fract_x
_atom_site_fract_y
_atom_site_fract_z
Si Si1 0.595219 0.475425 0.582397
Si Si2 0.490201 0.543333 0.127881
Si Si3 0.638940 0.253365 0.719640
Si Si4 0.665174 0.814623 0.497539
Si Si5 0.784578 0.260751 0.873185
Si Si6 0.285165 0.007970 0.086700
Si Si7 0.832492 0.771614 0.657116
O O1 0.500000 0.500000 0.500000
O O2 0.562072 0.297636 0.576696
O O3 0.406939 0.535670 0.569595
O O4 0.815042 0.591616 0.651245
O O5 0.607247 0.417038 0.196146
O O6 0.290375 0.624600 0.105193
O O7 0.688376 0.656567 0.161796
O O8 0.381563 0.459669 0.048438
O O9 0.680913 0.290070 0.789151
O O10 0.398023 0.336879 0.633735
O O11 0.883457 0.313287 0.762550
O O12 0.711986 0.826626 0.570286
O O13 0.923180 0.749591 0.550888
O O14 0.660608 0.109357 0.855265
O O15 0.000000 0.000000 0.000000
#
# Coordination Sequence:
#
# PCOD9244280 Si02
#       7
#     4   4   4   4   4   4   4
#     4  10  20  40  65  92 120 163 209 257 309 379
#     4  12  22  38  64  89 120 165 207 260 316 368
#     4  11  26  42  59  91 132 164 207 263 318 365
#     4  10  21  41  64  93 124 158 207 263 311 376
#     4  11  23  41  61  92 127 164 207 263 314 374
#     4  12  22  43  69  90 122 173 219 253 307 389
#     4  10  24  40  63  91 128 161 204 259 316 379
#
# _framework density 20.930661000000001
#
# number of rings (size 3 to 8) (size 9 to 14) (size 15 to 20)
#    0.000    1.143    4.286    1.714    2.000    0.000 
#    0.000    0.000    0.000    0.000    0.000    0.000 
#    0.000    0.000    0.000    0.000    0.000    0.000 
#
# Total GULP energy -156097.396102 kJ/mol
# GULP energy per Si atom -5574.907004 kJ/mol
# Density = 2.088302 g / cm^3
# Si number density = 20.930661 Si / 1000 Ang^3
#
#
#
# Elastic Constant Matrix: (Units=GPa)
#
#
# Indices 1 2 3 4 5 6 
#
# 1 109.7750 22.2846 21.8496 0.0000 -8.7606 0.0000
# 2 22.2846 81.1534 18.1197 0.0000 -1.3191 0.0000
# 3 21.8496 18.1197 81.0420 0.0000 -3.1614 0.0000
# 4 0.0000 0.0000 0.0000 29.1305 0.0000 -5.2875
# 5 -8.7606 -1.3191 -3.1614 0.0000 24.3569 0.0000
# 6 0.0000 0.0000 0.0000 -5.2875 0.0000 40.3504
#
#
#
# Elastic Compliance Matrix: (Units=1/GPa)
#
#
# Indices 1 2 3 4 5 6 
#
# 1 0.010260 -0.002289 -0.002126 0.000000 0.003290 0.000000
# 2 -0.002289 0.013483 -0.002413 0.000000 -0.000406 0.000000
# 3 -0.002126 -0.002413 0.013485 0.000000 0.000855 0.000000
# 4 0.000000 0.000000 0.000000 0.035165 0.000000 0.004608
# 5 0.003290 -0.000406 0.000855 0.000000 0.042328 0.000000
# 6 0.000000 0.000000 0.000000 0.004608 0.000000 0.025387
#
#
# Mechanical properties :
#
#
# Convention : Reuss Voigt Hill
#
# Bulk Modulus (GPa) = 42.42396 44.05314 43.23855
# Shear Modulus (GPa) = 30.93626 32.74867 31.84246
#
# Velocity S-wave (km/s) = 3.84869 3.95983 3.90466
# Velocity P-wave (km/s) = 6.32951 6.48073 6.40557
#
# Compressibility (1/GPa) = 0.02357159
#
# Stress axis : x y z
#
# Youngs Moduli (GPa) = 97.46586 74.16644 74.15429
#
# Poissons Ratio (x) = 0.16978 0.15765
# Poissons Ratio (y) = 0.22312 0.17896
# Poissons Ratio (z) = 0.20721 0.17898
#
# Static dielectric constant tensor:
#      x y z
#    x 2.266610 0.000000 -0.356840 
#    y 0.000000 1.991110 0.000000 
#    z -0.356840 0.000000 1.971250 
# 
# From -- ./inp_files/60358.got.cif
#   From: 2010.05.17/outbox.cif.g08.bks.cpg/sg14_31_cif.got.tgz:60358.got - 2010.06.03 17:49:19.
