data_PCOD9244446
_publ_section_title
;
Structure prediction by ZEFSAII (Michael W. Deem and Ramdas Pophale) SiO2 
 PCOD9244446
Probable space group: P 21/C
;
_chemical_formula_sum "Si O2"
_cell_formula_units_Z 20
_cell_length_a 11.127568
_cell_length_b 10.348142
_cell_length_c 13.260449
_cell_angle_alpha 90.000000
_cell_angle_beta 32.504834
_cell_angle_gamma 90.000000
_cell_volume 820.530823
_symmetry_space_group_name_H-M "P 21/C"
_symmetry_group_IT_number 14
_symmetry_cell_setting 'monoclinic'
loop_
_space_group_symop_operation_xyz
x,y,z
-x,1/2+y,1/2-z
-x,-y,-z
x,1/2-y,1/2+z
loop_
_atom_site_type_symbol
_atom_site_label
_atom_site_fract_x
_atom_site_fract_y
_atom_site_fract_z
Si Si1 0.536434 0.805003 0.038141
Si Si2 0.238960 0.123370 0.388134
Si Si3 0.699966 0.378975 0.656541
Si Si4 0.831450 0.483604 0.276687
Si Si5 0.803206 0.872574 0.207912
O O1 0.385003 0.756132 0.236593
O O2 0.360395 0.875713 0.089429
O O3 0.743029 0.902974 0.912449
O O4 0.639450 0.683057 0.907725
O O5 0.488102 0.083411 0.240811
O O6 0.184567 0.054443 0.321126
O O7 0.212993 0.274036 0.376356
O O8 0.074156 0.080578 0.595360
O O9 0.743474 0.485341 0.712181
O O10 0.940705 0.365837 0.434780
#
# Coordination Sequence:
#
# PCOD9244446 Si02
#       5
#     4   4   4   4   4
#     4  10  20  41  63  85 126 158 198 258 301 357
#     4  10  21  40  67  87 121 167 203 250 305 366
#     4  11  23  40  63  91 123 166 198 257 307 362
#     4   9  20  40  63  89 120 159 205 253 298 361
#     4  10  23  41  60  90 129 158 204 251 310 361
#
# _framework density 24.374464
#
# number of rings (size 3 to 8) (size 9 to 14) (size 15 to 20)
#    0.000    2.000    2.000    0.600    2.800    0.000 
#   14.400    0.000    0.000    0.000    0.000    0.000 
#    0.000    0.000    0.000    0.000    0.000    0.000 
#
# Total GULP energy -111764.764182 kJ/mol
# GULP energy per Si atom -5588.238209 kJ/mol
# Density = 2.431899 g / cm^3
# Si number density = 24.374464 Si / 1000 Ang^3
#
#
#
# Elastic Constant Matrix: (Units=GPa)
#
#
# Indices 1 2 3 4 5 6 
#
# 1 33.0638 6.3545 13.5457 0.0000 -16.7591 0.0000
# 2 6.3545 61.0796 35.9308 0.0000 -6.1270 0.0000
# 3 13.5457 35.9308 133.5890 0.0000 -15.9688 0.0000
# 4 0.0000 0.0000 0.0000 40.7015 0.0000 -9.5725
# 5 -16.7591 -6.1270 -15.9688 0.0000 27.2415 0.0000
# 6 0.0000 0.0000 0.0000 -9.5725 0.0000 -0.9494
#
#
#
# Elastic Compliance Matrix: (Units=1/GPa)
#
#
# Indices 1 2 3 4 5 6 
#
# 1 0.044265 -0.001395 -0.000963 0.000000 0.026354 0.000000
# 2 -0.001395 0.019544 -0.005046 0.000000 0.000580 0.000000
# 3 -0.000963 -0.005046 0.009392 0.000000 0.003778 0.000000
# 4 0.000000 0.000000 0.000000 0.007288 0.000000 -0.073479
# 5 0.026354 0.000580 0.003778 0.000000 0.055267 0.000000
# 6 0.000000 0.000000 0.000000 -0.073479 0.000000 -0.312426
#
#
# Mechanical properties :
#
#
# Convention : Reuss Voigt Hill
#
# Bulk Modulus (GPa) = 17.12529 37.71049 27.41789
# Shear Modulus (GPa) = -35.11264 24.85882 -5.12691
#
# Velocity S-wave (km/s) = -3.79958 3.19701 -1.45188
# Velocity P-wave (km/s) = 3.49398 5.39747 2.90902
#
# Compressibility (1/GPa) = 0.05839317
#
# Stress axis : x y z
#
# Youngs Moduli (GPa) = 22.59110 51.16756 106.47270
#
# Poissons Ratio (x) = 0.07139 0.10252
# Poissons Ratio (y) = 0.03152 0.53724
# Poissons Ratio (z) = 0.02175 0.25818
#
# Static dielectric constant tensor:
#      x y z
#    x 1.967060 0.000000 0.031420 
#    y 0.000000 1.974720 0.000000 
#    z 0.031420 0.000000 1.950160 
# 
# From -- ./inp_files/28429.got.cif
#   From: 2010.05.17/outbox.cif.g08.bks.cpg/sg14_15_cif.got.tgz:28429.got - 2010.06.03 17:49:19.
