data_PCOD9244811
_publ_section_title
;
Structure prediction by ZEFSAII (Michael W. Deem and Ramdas Pophale) SiO2 
 PCOD9244811
Probable space group: P 21/C
;
_chemical_formula_sum "Si O2"
_cell_formula_units_Z 22
_cell_length_a 7.155560
_cell_length_b 11.560325
_cell_length_c 10.039699
_cell_angle_alpha 90.000000
_cell_angle_beta 91.901746
_cell_angle_gamma 90.000000
_cell_volume 830.032487
_symmetry_space_group_name_H-M "P 21/C"
_symmetry_group_IT_number 14
_symmetry_cell_setting 'monoclinic'
loop_
_space_group_symop_operation_xyz
x,y,z
-x,1/2+y,1/2-z
-x,-y,-z
x,1/2-y,1/2+z
loop_
_atom_site_type_symbol
_atom_site_label
_atom_site_fract_x
_atom_site_fract_y
_atom_site_fract_z
Si Si1 0.285621 0.368040 0.568413
Si Si2 0.736851 0.192383 0.854274
Si Si3 0.759854 0.603449 0.955595
Si Si4 0.000000 0.000000 0.000000
Si Si5 0.598022 0.978193 0.174391
Si Si6 0.798296 0.376541 0.065517
O O1 0.300980 0.235711 0.529866
O O2 0.246257 0.460232 0.439408
O O3 0.468646 0.410385 0.650670
O O4 0.091011 0.407728 0.626894
O O5 0.545250 0.122508 0.872160
O O6 0.754518 0.194867 0.696077
O O7 0.905243 0.117097 0.918317
O O8 0.728629 0.311212 0.932804
O O9 0.678872 0.553237 0.816569
O O10 0.981111 0.611518 0.943428
O O11 0.716419 0.507003 0.065713
#
# Coordination Sequence:
#
# PCOD9244811 Si02
#       6
#     4   4   4   2   4   4
#     4  10  22  44  69 104 141 197 231 303 361 450
#     4  11  25  45  71 106 144 192 239 304 357 452
#     4  11  25  45  71 105 140 189 244 305 351 451
#     4  10  20  44  72  96 136 194 242 282 370 420
#     4  10  25  41  70 103 145 187 240 296 374 424
#     4  11  27  46  73 108 143 194 244 299 369 437
#
# _framework density 26.504985999999999
#
# number of rings (size 3 to 8) (size 9 to 14) (size 15 to 20)
#    0.000    1.455    1.818    1.091    5.091    9.455 
#    0.000    0.000    0.000    0.000    0.000    0.000 
#    0.000    0.000    0.000    0.000    0.000    0.000 
#
# Total GULP energy -122858.567781 kJ/mol
# GULP energy per Si atom -5584.480354 kJ/mol
# Density = 2.644466 g / cm^3
# Si number density = 26.504986 Si / 1000 Ang^3
#
#
#
# Elastic Constant Matrix: (Units=GPa)
#
#
# Indices 1 2 3 4 5 6 
#
# 1 105.4890 46.0267 17.7649 0.0000 10.6709 0.0000
# 2 46.0267 214.8275 59.7615 0.0000 12.7278 0.0000
# 3 17.7649 59.7615 113.7698 0.0000 -1.9117 0.0000
# 4 0.0000 0.0000 0.0000 39.4768 0.0000 16.5441
# 5 10.6709 12.7278 -1.9117 0.0000 35.2965 0.0000
# 6 0.0000 0.0000 0.0000 16.5441 0.0000 41.6470
#
#
#
# Elastic Compliance Matrix: (Units=1/GPa)
#
#
# Indices 1 2 3 4 5 6 
#
# 1 0.010707 -0.001949 -0.000691 0.000000 -0.002571 0.000000
# 2 -0.001949 0.005970 -0.002860 0.000000 -0.001718 0.000000
# 3 -0.000691 -0.002860 0.010431 0.000000 0.001805 0.000000
# 4 0.000000 0.000000 0.000000 0.030391 0.000000 -0.012073
# 5 -0.002571 -0.001718 0.001805 0.000000 0.029826 0.000000
# 6 0.000000 0.000000 0.000000 -0.012073 0.000000 0.028807
#
#
# Mechanical properties :
#
#
# Convention : Reuss Voigt Hill
#
# Bulk Modulus (GPa) = 62.09064 75.68806 68.88935
# Shear Modulus (GPa) = 37.73539 43.98627 40.86083
#
# Velocity S-wave (km/s) = 3.77730 4.07817 3.93062
# Velocity P-wave (km/s) = 6.51927 7.12695 6.82987
#
# Compressibility (1/GPa) = 0.01610549
#
# Stress axis : x y z
#
# Youngs Moduli (GPa) = 93.39972 167.50169 95.87266
#
# Poissons Ratio (x) = 0.32651 0.06626
# Poissons Ratio (y) = 0.18206 0.27424
# Poissons Ratio (z) = 0.06455 0.47914
#
# Static dielectric constant tensor:
#      x y z
#    x 2.482350 0.000000 -0.158680 
#    y 0.000000 2.139900 0.000000 
#    z -0.158680 0.000000 2.149170 
# 
# From -- ./inp_files/23896.got.cif
#   From: 2010.05.17/outbox.cif.g08.bks.cpg/sg14_12_cif.got.tgz:23896.got - 2010.06.03 17:49:19.
