data_PCOD9244904
_publ_section_title
;
Structure prediction by ZEFSAII (Michael W. Deem and Ramdas Pophale) SiO2 
 PCOD9244904
Probable space group: P 21/C
;
_chemical_formula_sum "Si O2"
_cell_formula_units_Z 24
_cell_length_a 23.789041
_cell_length_b 8.512424
_cell_length_c 6.774274
_cell_angle_alpha 90.000000
_cell_angle_beta 43.741023
_cell_angle_gamma 90.000000
_cell_volume 948.467019
_symmetry_space_group_name_H-M "P 21/C"
_symmetry_group_IT_number 14
_symmetry_cell_setting 'monoclinic'
loop_
_space_group_symop_operation_xyz
x,y,z
-x,1/2+y,1/2-z
-x,-y,-z
x,1/2-y,1/2+z
loop_
_atom_site_type_symbol
_atom_site_label
_atom_site_fract_x
_atom_site_fract_y
_atom_site_fract_z
Si Si1 0.730270 0.964197 0.043076
Si Si2 0.430016 0.602569 0.920729
Si Si3 0.904136 0.515286 0.024614
Si Si4 0.070007 0.120984 0.092884
Si Si5 0.242858 0.092677 0.568085
Si Si6 0.596878 0.467198 0.466274
O O1 0.744744 0.972686 0.243757
O O2 0.638975 0.031197 0.260722
O O3 0.811055 0.042494 0.744870
O O4 0.738413 0.779050 0.974205
O O5 0.523745 0.571512 0.737561
O O6 0.416810 0.527882 0.738045
O O7 0.415874 0.787455 0.943457
O O8 0.917944 0.538008 0.226295
O O9 0.917199 0.693234 0.916332
O O10 0.978298 0.411121 0.757711
O O11 0.147602 0.066182 0.767063
O O12 0.309989 0.022026 0.251966
#
# Coordination Sequence:
#
# PCOD9244904 Si02
#       6
#     4   4   4   4   4   4
#     4   9  18  33  51  71  96 126 160 197 237 281
#     4  10  21  35  51  73  99 126 158 196 237 282
#     4   9  18  32  49  70  97 127 159 197 238 280
#     4   9  18  32  49  70  97 127 159 197 238 280
#     4   9  18  33  51  71  96 126 160 197 237 281
#     4  10  21  35  51  73  99 126 158 196 237 282
#
# _framework density 25.303989000000001
#
# number of rings (size 3 to 8) (size 9 to 14) (size 15 to 20)
#    0.000    2.667    0.000    1.000    0.000    4.000 
#    0.000    0.000    0.000    0.000    0.000    0.000 
#    0.000    0.000    0.000    0.000    0.000    0.000 
#
# Total GULP energy -134189.301759 kJ/mol
# GULP energy per Si atom -5591.220907 kJ/mol
# Density = 2.524640 g / cm^3
# Si number density = 25.303989 Si / 1000 Ang^3
#
#
#
# Elastic Constant Matrix: (Units=GPa)
#
#
# Indices 1 2 3 4 5 6 
#
# 1 71.1598 -1.4114 64.3415 0.0000 -32.8520 0.0000
# 2 -1.4114 55.4962 82.1538 0.0000 -32.6108 0.0000
# 3 64.3415 82.1538 263.0228 0.0000 -64.0340 0.0000
# 4 0.0000 0.0000 0.0000 86.1470 0.0000 84.9767
# 5 -32.8520 -32.6108 -64.0340 0.0000 66.9222 0.0000
# 6 0.0000 0.0000 0.0000 84.9767 0.0000 285.5355
#
#
#
# Elastic Compliance Matrix: (Units=1/GPa)
#
#
# Indices 1 2 3 4 5 6 
#
# 1 0.040153 0.038639 -0.016307 0.000000 0.022936 0.000000
# 2 0.038639 0.074583 -0.025137 0.000000 0.031259 0.000000
# 3 -0.016307 -0.025137 0.013965 0.000000 -0.006893 0.000000
# 4 0.000000 0.000000 0.000000 0.016432 0.000000 -0.004890
# 5 0.022936 0.031259 -0.006893 0.000000 0.034839 0.000000
# 6 0.000000 0.000000 0.000000 -0.004890 0.000000 0.004958
#
#
# Mechanical properties :
#
#
# Convention : Reuss Voigt Hill
#
# Bulk Modulus (GPa) = 8.12415 75.53852 41.83134
# Shear Modulus (GPa) = 21.59181 104.02726 62.80954
#
# Velocity S-wave (km/s) = 2.92429 6.41874 4.98757
# Velocity P-wave (km/s) = 3.82356 9.21145 7.05232
#
# Compressibility (1/GPa) = 0.12308974
#
# Stress axis : x y z
#
# Youngs Moduli (GPa) = 24.90482 13.40794 71.60981
#
# Poissons Ratio (x) = -0.51807 1.16775
# Poissons Ratio (y) = -0.96231 1.80008
# Poissons Ratio (z) = 0.40613 0.33704
#
# Static dielectric constant tensor:
#      x y z
#    x 2.118650 0.000000 0.022180 
#    y 0.000000 1.874380 0.000000 
#    z 0.022180 0.000000 2.031180 
# 
# From -- ./inp_files/15052.got.cif
#   From: 2010.05.17/outbox.cif.g08.bks.cpg/sg14_8_cif.got.tgz:15052.got - 2010.06.03 17:49:19.
