data_PCOD9244815
_publ_section_title
;
Structure prediction by ZEFSAII (Michael W. Deem and Ramdas Pophale) SiO2 
 PCOD9244815
Probable space group: P 21/C
;
_chemical_formula_sum "Si O2"
_cell_formula_units_Z 16
_cell_length_a 14.816216
_cell_length_b 7.094114
_cell_length_c 10.379459
_cell_angle_alpha 90.000000
_cell_angle_beta 143.812583
_cell_angle_gamma 90.000000
_cell_volume 644.135812
_symmetry_space_group_name_H-M "P 21/C"
_symmetry_group_IT_number 14
_symmetry_cell_setting 'monoclinic'
loop_
_space_group_symop_operation_xyz
x,y,z
-x,1/2+y,1/2-z
-x,-y,-z
x,1/2-y,1/2+z
loop_
_atom_site_type_symbol
_atom_site_label
_atom_site_fract_x
_atom_site_fract_y
_atom_site_fract_z
Si Si1 0.847928 0.825710 0.145565
Si Si2 0.879511 0.389464 0.450764
Si Si3 0.422716 0.124336 0.017092
Si Si4 0.642944 0.491566 0.993184
O O1 0.024201 0.780274 0.377266
O O2 0.754975 0.916287 0.157502
O O3 0.757436 0.623442 0.035672
O O4 0.832619 0.963923 0.008028
O O5 0.000000 0.500000 0.500000
O O6 0.740376 0.352484 0.193838
O O7 0.426458 0.346604 0.995144
O O8 0.517848 0.099298 0.258725
O O9 0.500000 0.000000 0.000000
#
# Coordination Sequence:
#
# PCOD9244815 Si02
#       4
#     4   4   4   4
#     4   9  22  40  69  95 132 174 225 268 338 392
#     4  10  20  45  66  96 137 174 222 276 330 399
#     4  10  21  42  68 102 135 172 222 275 335 396
#     4   9  21  40  70  97 137 171 222 275 332 396
#
# _framework density 24.839485
#
# number of rings (size 3 to 8) (size 9 to 14) (size 15 to 20)
#    1.500    1.000    0.000    1.500    0.000    1.000 
#    9.000    7.500    0.000    0.000    0.000    0.000 
#    0.000    0.000    0.000    0.000    0.000    0.000 
#
# Total GULP energy -89367.863776 kJ/mol
# GULP energy per Si atom -5585.491486 kJ/mol
# Density = 2.478295 g / cm^3
# Si number density = 24.839485 Si / 1000 Ang^3
#
#
#
# Elastic Constant Matrix: (Units=GPa)
#
#
# Indices 1 2 3 4 5 6 
#
# 1 102.6077 35.9443 9.9179 0.0000 4.9342 0.0000
# 2 35.9443 88.4797 50.3266 0.0000 2.7000 0.0000
# 3 9.9179 50.3266 137.3682 0.0000 -1.0808 0.0000
# 4 0.0000 0.0000 0.0000 36.6805 0.0000 6.3003
# 5 4.9342 2.7000 -1.0808 0.0000 23.4453 0.0000
# 6 0.0000 0.0000 0.0000 6.3003 0.0000 30.8554
#
#
#
# Elastic Compliance Matrix: (Units=1/GPa)
#
#
# Indices 1 2 3 4 5 6 
#
# 1 0.011569 -0.005258 0.001077 0.000000 -0.001780 0.000000
# 2 -0.005258 0.016751 -0.005766 0.000000 -0.001088 0.000000
# 3 0.001077 -0.005766 0.009321 0.000000 0.000867 0.000000
# 4 0.000000 0.000000 0.000000 0.028253 0.000000 -0.005769
# 5 -0.001780 -0.001088 0.000867 0.000000 0.043192 0.000000
# 6 0.000000 0.000000 0.000000 -0.005769 0.000000 0.033587
#
#
# Mechanical properties :
#
#
# Convention : Reuss Voigt Hill
#
# Bulk Modulus (GPa) = 56.34624 57.87035 57.10829
# Shear Modulus (GPa) = 29.67635 33.68068 31.67852
#
# Velocity S-wave (km/s) = 3.46023 3.68629 3.57505
# Velocity P-wave (km/s) = 6.22074 6.43946 6.33105
#
# Compressibility (1/GPa) = 0.01774741
#
# Stress axis : x y z
#
# Youngs Moduli (GPa) = 86.43510 59.69801 107.28292
#
# Poissons Ratio (x) = 0.31391 -0.11556
# Poissons Ratio (y) = 0.45451 0.61858
# Poissons Ratio (z) = -0.09311 0.34421
#
# Static dielectric constant tensor:
#      x y z
#    x 2.005170 0.000000 0.063450 
#    y 0.000000 1.962140 0.000000 
#    z 0.063450 0.000000 1.993110 
# 
# From -- ./inp_files/33449.got.cif
#   From: 2010.05.17/outbox.cif.g08.bks.cpg/sg14_17_cif.got.tgz:33449.got - 2010.06.03 17:49:19.
