data_PCOD9244449
_publ_section_title
;
Structure prediction by ZEFSAII (Michael W. Deem and Ramdas Pophale) SiO2 
 PCOD9244449
Probable space group: P 21/C
;
_chemical_formula_sum "Si O2"
_cell_formula_units_Z 28
_cell_length_a 8.266036
_cell_length_b 12.559803
_cell_length_c 13.897546
_cell_angle_alpha 90.000000
_cell_angle_beta 122.563611
_cell_angle_gamma 90.000000
_cell_volume 1216.017665
_symmetry_space_group_name_H-M "P 21/C"
_symmetry_group_IT_number 14
_symmetry_cell_setting 'monoclinic'
loop_
_space_group_symop_operation_xyz
x,y,z
-x,1/2+y,1/2-z
-x,-y,-z
x,1/2-y,1/2+z
loop_
_atom_site_type_symbol
_atom_site_label
_atom_site_fract_x
_atom_site_fract_y
_atom_site_fract_z
Si Si1 0.158517 0.247098 0.022430
Si Si2 0.211695 0.918651 0.785879
Si Si3 0.638508 0.878552 0.252861
Si Si4 0.258821 0.774345 0.168195
Si Si5 0.198211 0.444510 0.885262
Si Si6 0.403070 0.871384 0.545806
Si Si7 0.472379 0.162273 0.999853
O O1 0.222464 0.299593 0.143612
O O2 0.318559 0.165022 0.036072
O O3 0.169700 0.345742 0.949617
O O4 0.946356 0.198217 0.944882
O O5 0.218473 0.798205 0.747853
O O6 0.357259 0.918653 0.921443
O O7 0.994234 0.950526 0.737936
O O8 0.283639 0.001388 0.727108
O O9 0.424073 0.863592 0.228258
O O10 0.625556 0.850737 0.135260
O O11 0.354758 0.690669 0.125865
O O12 0.391598 0.429406 0.886337
O O13 0.237724 0.548300 0.961688
O O14 0.433199 0.779375 0.476764
#
# Coordination Sequence:
#
# PCOD9244449 Si02
#       7
#     4   4   4   4   4   4   4
#     4  10  20  41  63  88 125 161 209 258 301 358
#     4  11  21  40  62  90 129 161 203 252 317 373
#     4  11  22  39  64  88 121 172 201 251 315 369
#     4  10  21  39  61  91 120 160 210 256 302 358
#     4   9  19  36  63  93 115 159 209 258 302 353
#     4   9  18  37  57  90 121 152 210 255 292 361
#     4  10  22  40  59  87 132 158 199 253 310 380
#
# _framework density 23.025981999999999
#
# number of rings (size 3 to 8) (size 9 to 14) (size 15 to 20)
#    0.000    2.000    1.429    2.143    0.000    2.286 
#   30.857    0.714    0.000    0.000    0.000    0.000 
#    0.000    0.000    0.000    0.000    0.000    0.000 
#
# Total GULP energy -156339.257344 kJ/mol
# GULP energy per Si atom -5583.544905 kJ/mol
# Density = 2.297357 g / cm^3
# Si number density = 23.025982 Si / 1000 Ang^3
#
#
#
# Elastic Constant Matrix: (Units=GPa)
#
#
# Indices 1 2 3 4 5 6 
#
# 1 39.9855 6.2514 34.5795 0.0000 12.4537 0.0000
# 2 6.2514 34.6890 7.3494 0.0000 16.0301 0.0000
# 3 34.5795 7.3494 131.9607 0.0000 23.6261 0.0000
# 4 0.0000 0.0000 0.0000 20.8808 0.0000 4.7156
# 5 12.4537 16.0301 23.6261 0.0000 33.4323 0.0000
# 6 0.0000 0.0000 0.0000 4.7156 0.0000 14.4540
#
#
#
# Elastic Compliance Matrix: (Units=1/GPa)
#
#
# Indices 1 2 3 4 5 6 
#
# 1 0.033864 -0.001475 -0.007624 0.000000 -0.006519 0.000000
# 2 -0.001475 0.037287 0.001617 0.000000 -0.018472 0.000000
# 3 -0.007624 0.001617 0.010437 0.000000 -0.005311 0.000000
# 4 0.000000 0.000000 0.000000 0.051700 0.000000 -0.016867
# 5 -0.006519 -0.018472 -0.005311 0.000000 0.044949 0.000000
# 6 0.000000 0.000000 0.000000 -0.016867 0.000000 0.074688
#
#
# Mechanical properties :
#
#
# Convention : Reuss Voigt Hill
#
# Bulk Modulus (GPa) = 15.00997 33.66621 24.33809
# Shear Modulus (GPa) = 17.23564 24.31708 20.77636
#
# Velocity S-wave (km/s) = 2.73890 3.25325 3.00709
# Velocity P-wave (km/s) = 4.06632 5.36323 4.75916
#
# Compressibility (1/GPa) = 0.06662240
#
# Stress axis : x y z
#
# Youngs Moduli (GPa) = 29.53017 26.81925 95.81551
#
# Poissons Ratio (x) = 0.03955 0.73054
# Poissons Ratio (y) = 0.04355 -0.15493
# Poissons Ratio (z) = 0.22515 -0.04337
#
# Static dielectric constant tensor:
#      x y z
#    x 1.866330 0.000000 0.012210 
#    y 0.000000 1.915940 0.000000 
#    z 0.012210 0.000000 1.919360 
# 
# From -- ./inp_files/25584.got.cif
#   From: 2010.05.17/outbox.cif.g08.bks.cpg/sg14_13_cif.got.tgz:25584.got - 2010.06.03 17:49:19.
