data_PCOD9244936
_publ_section_title
;
Structure prediction by ZEFSAII (Michael W. Deem and Ramdas Pophale) SiO2 
 PCOD9244936
Probable space group: P 21/C
;
_chemical_formula_sum "Si O2"
_cell_formula_units_Z 28
_cell_length_a 8.030335
_cell_length_b 20.540811
_cell_length_c 9.120744
_cell_angle_alpha 90.000000
_cell_angle_beta 46.220421
_cell_angle_gamma 90.000000
_cell_volume 1086.232635
_symmetry_space_group_name_H-M "P 21/C"
_symmetry_group_IT_number 14
_symmetry_cell_setting 'monoclinic'
loop_
_space_group_symop_operation_xyz
x,y,z
-x,1/2+y,1/2-z
-x,-y,-z
x,1/2-y,1/2+z
loop_
_atom_site_type_symbol
_atom_site_label
_atom_site_fract_x
_atom_site_fract_y
_atom_site_fract_z
Si Si1 0.430705 0.002865 0.238393
Si Si2 0.912636 0.771444 0.975050
Si Si3 0.130736 0.917435 0.595374
Si Si4 0.798559 0.428038 0.390776
Si Si5 0.290440 0.677287 0.764265
Si Si6 0.885010 0.917643 0.043604
Si Si7 0.744937 0.676832 0.291075
O O1 0.245496 0.985276 0.475896
O O2 0.290546 0.977680 0.180442
O O3 0.656041 0.956073 0.133164
O O4 0.563324 0.071212 0.133795
O O5 0.167164 0.745654 0.859702
O O6 0.846317 0.840561 0.084775
O O7 0.907830 0.781572 0.803694
O O8 0.739248 0.717379 0.145899
O O9 0.289545 0.863200 0.416461
O O10 0.081881 0.917691 0.796766
O O11 0.881028 0.891295 0.689735
O O12 0.862112 0.365027 0.258229
O O13 0.002448 0.443706 0.376810
O O14 0.523448 0.675580 0.529761
#
# Coordination Sequence:
#
# PCOD9244936 Si02
#       7
#     4   4   4   4   4   4   4
#     4  10  22  42  62  87 127 164 201 261 309 355
#     4  10  21  35  57  87 117 158 205 247 306 375
#     4   9  19  37  58  83 117 153 197 249 304 360
#     4  10  21  40  64  88 121 166 210 249 307 374
#     4  10  21  40  57  83 124 158 200 257 309 366
#     4  11  22  39  62  92 124 160 208 258 309 366
#     4  10  21  37  57  83 119 161 199 251 312 365
#
# _framework density 25.777168
#
# number of rings (size 3 to 8) (size 9 to 14) (size 15 to 20)
#    0.000    2.000    0.000    4.714    0.000    7.429 
#    0.000   20.000    0.000    0.000    0.000    0.000 
#    0.000    0.000    0.000    0.000    0.000    0.000 
#
# Total GULP energy -156138.823452 kJ/mol
# GULP energy per Si atom -5576.386552 kJ/mol
# Density = 2.571850 g / cm^3
# Si number density = 25.777168 Si / 1000 Ang^3
#
#
#
# Elastic Constant Matrix: (Units=GPa)
#
#
# Indices 1 2 3 4 5 6 
#
# 1 122.2114 18.5216 37.1302 0.0000 10.7785 0.0000
# 2 18.5216 81.7419 23.3013 0.0000 -5.0969 0.0000
# 3 37.1302 23.3013 171.9922 0.0000 -13.0524 0.0000
# 4 0.0000 0.0000 0.0000 51.1979 0.0000 1.0966
# 5 10.7785 -5.0969 -13.0524 0.0000 33.6387 0.0000
# 6 0.0000 0.0000 0.0000 1.0966 0.0000 26.6619
#
#
#
# Elastic Compliance Matrix: (Units=1/GPa)
#
#
# Indices 1 2 3 4 5 6 
#
# 1 0.009460 -0.001799 -0.002112 0.000000 -0.004123 0.000000
# 2 -0.001799 0.013122 -0.001231 0.000000 0.002087 0.000000
# 3 -0.002112 -0.001231 0.006670 0.000000 0.003078 0.000000
# 4 0.000000 0.000000 0.000000 0.019549 0.000000 -0.000804
# 5 -0.004123 0.002087 0.003078 0.000000 0.032559 0.000000
# 6 0.000000 0.000000 0.000000 -0.000804 0.000000 0.037540
#
#
# Mechanical properties :
#
#
# Convention : Reuss Voigt Hill
#
# Bulk Modulus (GPa) = 52.71405 59.31685 56.01545
# Shear Modulus (GPa) = 36.89825 42.09919 39.49872
#
# Velocity S-wave (km/s) = 3.78753 4.04567 3.91873
# Velocity P-wave (km/s) = 6.29456 6.69960 6.50023
#
# Compressibility (1/GPa) = 0.01897027
#
# Stress axis : x y z
#
# Youngs Moduli (GPa) = 105.70469 76.20639 149.91474
#
# Poissons Ratio (x) = 0.13708 0.31655
# Poissons Ratio (y) = 0.19014 0.18456
# Poissons Ratio (z) = 0.22320 0.09382
#
# Static dielectric constant tensor:
#      x y z
#    x 2.072440 0.000000 -0.057320 
#    y 0.000000 2.162060 0.000000 
#    z -0.057320 0.000000 2.050090 
# 
# From -- ./inp_files/11024.got.cif
#   From: 2010.05.17/outbox.cif.g08.bks.cpg/sg14_6_cif.got.tgz:11024.got - 2010.06.03 17:49:19.
