data_PCOD9244167
_publ_section_title
;
Structure prediction by ZEFSAII (Michael W. Deem and Ramdas Pophale) SiO2 
 PCOD9244167
Probable space group: P 21/C
;
_chemical_formula_sum "Si O2"
_cell_formula_units_Z 26
_cell_length_a 7.169239
_cell_length_b 8.732618
_cell_length_c 19.154479
_cell_angle_alpha 90.000000
_cell_angle_beta 122.652205
_cell_angle_gamma 90.000000
_cell_volume 1009.671078
_symmetry_space_group_name_H-M "P 21/C"
_symmetry_group_IT_number 14
_symmetry_cell_setting 'monoclinic'
loop_
_space_group_symop_operation_xyz
x,y,z
-x,1/2+y,1/2-z
-x,-y,-z
x,1/2-y,1/2+z
loop_
_atom_site_type_symbol
_atom_site_label
_atom_site_fract_x
_atom_site_fract_y
_atom_site_fract_z
Si Si1 0.000000 0.000000 0.000000
Si Si2 0.510989 0.675975 0.981242
Si Si3 0.839696 0.847631 0.144814
Si Si4 0.596060 0.728397 0.277911
Si Si5 0.098225 0.339701 0.049721
Si Si6 0.799093 0.189285 0.189766
Si Si7 0.720094 0.076051 0.845647
O O1 0.950462 0.186251 0.012991
O O2 0.251460 0.017072 0.077991
O O3 0.624023 0.775886 0.065393
O O4 0.500000 0.500000 0.000000
O O5 0.694216 0.681000 0.958597
O O6 0.284453 0.727053 0.897456
O O7 0.972489 0.744538 0.227883
O O8 0.023092 0.878264 0.118075
O O9 0.806736 0.012078 0.172125
O O10 0.790194 0.831220 0.350398
O O11 0.384589 0.720791 0.287649
O O12 0.473866 0.805302 0.188973
O O13 0.667061 0.555057 0.278756
O O14 0.000000 0.500000 0.000000
#
# Coordination Sequence:
#
# PCOD9244167 Si02
#       7
#     2   4   4   4   4   4   4
#     4  10  20  40  60  92 124 166 212 260 310 388
#     4  11  23  42  60  94 128 164 218 266 313 392
#     4  11  22  42  66  87 129 171 204 270 322 389
#     4   9  22  38  58  92 123 156 210 265 309 384
#     4  10  22  40  63  90 126 165 210 260 321 377
#     4  10  23  41  60  93 125 164 216 261 325 386
#     4  10  21  38  63  86 125 161 209 262 321 376
#
# _framework density 25.750959999999999
#
# number of rings (size 3 to 8) (size 9 to 14) (size 15 to 20)
#    0.000    1.846    1.538    1.385    2.154    3.692 
#    8.308    0.000    0.000    0.000    0.000    0.000 
#    0.000    0.000    0.000    0.000    0.000    0.000 
#
# Total GULP energy -144842.409471 kJ/mol
# GULP energy per Si atom -5570.861903 kJ/mol
# Density = 2.569235 g / cm^3
# Si number density = 25.750960 Si / 1000 Ang^3
#
#
#
# Elastic Constant Matrix: (Units=GPa)
#
#
# Indices 1 2 3 4 5 6 
#
# 1 66.4371 -4.3193 15.2408 0.0000 -0.8506 0.0000
# 2 -4.3193 77.7211 -12.9770 0.0000 16.8352 0.0000
# 3 15.2408 -12.9770 65.1249 0.0000 27.5195 0.0000
# 4 0.0000 0.0000 0.0000 56.1683 0.0000 16.1114
# 5 -0.8506 16.8352 27.5195 0.0000 26.5380 0.0000
# 6 0.0000 0.0000 0.0000 16.1114 0.0000 39.5425
#
#
#
# Elastic Compliance Matrix: (Units=1/GPa)
#
#
# Indices 1 2 3 4 5 6 
#
# 1 0.017519 -0.004044 -0.011084 0.000000 0.014621 0.000000
# 2 -0.004044 0.024900 0.022495 0.000000 -0.039253 0.000000
# 3 -0.011084 0.022495 0.050928 0.000000 -0.067437 0.000000
# 4 0.000000 0.000000 0.000000 0.020160 0.000000 -0.008214
# 5 0.014621 -0.039253 -0.067437 0.000000 0.132982 0.000000
# 6 0.000000 0.000000 0.000000 -0.008214 0.000000 0.028636
#
#
# Mechanical properties :
#
#
# Convention : Reuss Voigt Hill
#
# Bulk Modulus (GPa) = 9.25234 22.79689 16.02462
# Shear Modulus (GPa) = 16.86807 38.53901 27.70354
#
# Velocity S-wave (km/s) = 2.56216 3.87279 3.28354
# Velocity P-wave (km/s) = 3.51479 5.37309 4.54003
#
# Compressibility (1/GPa) = 0.10808075
#
# Stress axis : x y z
#
# Youngs Moduli (GPa) = 57.08170 40.16025 19.63562
#
# Poissons Ratio (x) = 0.16241 0.21764
# Poissons Ratio (y) = 0.23084 -0.44170
# Poissons Ratio (z) = 0.63269 -0.90340
#
# Static dielectric constant tensor:
#      x y z
#    x 2.019180 0.000000 0.033560 
#    y 0.000000 2.640100 0.000000 
#    z 0.033560 0.000000 2.036890 
# 
# From -- ./inp_files/65034.got.cif
#   From: 2010.05.17/outbox.cif.g08.bks.cpg/sg14_33_cif.got.tgz:65034.got - 2010.06.03 17:49:19.
