data_PCOD9244534
_publ_section_title
;
Structure prediction by ZEFSAII (Michael W. Deem and Ramdas Pophale) SiO2 
 PCOD9244534
Probable space group: P 21/C
;
_chemical_formula_sum "Si O2"
_cell_formula_units_Z 24
_cell_length_a 16.569736
_cell_length_b 9.906023
_cell_length_c 13.100493
_cell_angle_alpha 90.000000
_cell_angle_beta 24.806456
_cell_angle_gamma 90.000000
_cell_volume 902.175037
_symmetry_space_group_name_H-M "P 21/C"
_symmetry_group_IT_number 14
_symmetry_cell_setting 'monoclinic'
loop_
_space_group_symop_operation_xyz
x,y,z
-x,1/2+y,1/2-z
-x,-y,-z
x,1/2-y,1/2+z
loop_
_atom_site_type_symbol
_atom_site_label
_atom_site_fract_x
_atom_site_fract_y
_atom_site_fract_z
Si Si1 0.806285 0.061413 0.272806
Si Si2 0.084941 0.413557 0.166265
Si Si3 0.274646 0.028104 0.242103
Si Si4 0.411597 0.730340 0.356939
Si Si5 0.738165 0.929857 0.969700
Si Si6 0.764225 0.237923 0.147383
O O1 0.775305 0.958496 0.401907
O O2 0.770898 0.198776 0.378058
O O3 0.701332 0.111947 0.290174
O O4 0.000000 0.000000 0.000000
O O5 0.921017 0.527149 0.327976
O O6 0.956618 0.298711 0.364591
O O7 0.190298 0.396169 0.937865
O O8 0.199928 0.874090 0.332534
O O9 0.222101 0.096224 0.195628
O O10 0.500000 0.000000 0.000000
O O11 0.381704 0.571190 0.401295
O O12 0.392828 0.762049 0.258632
O O13 0.601830 0.812799 0.171806
#
# Coordination Sequence:
#
# PCOD9244534 Si02
#       6
#     4   4   4   4   4   4
#     4  10  20  41  68  94 135 192 232 291 361 428
#     4  10  23  42  65 103 145 187 237 298 361 430
#     4  12  21  42  75 104 141 189 242 296 370 426
#     4  11  22  45  68 103 146 191 235 308 354 435
#     4  11  24  43  71 105 148 188 247 299 364 435
#     4  10  21  40  70  97 139 185 236 293 357 433
#
# _framework density 26.602376
#
# number of rings (size 3 to 8) (size 9 to 14) (size 15 to 20)
#    0.000    1.333    5.000    0.500    0.000    0.000 
#    9.000    7.500    0.000    0.000    0.000    0.000 
#    0.000    0.000    0.000    0.000    0.000    0.000 
#
# Total GULP energy -133928.979138 kJ/mol
# GULP energy per Si atom -5580.374131 kJ/mol
# Density = 2.654183 g / cm^3
# Si number density = 26.602376 Si / 1000 Ang^3
#
#
#
# Elastic Constant Matrix: (Units=GPa)
#
#
# Indices 1 2 3 4 5 6 
#
# 1 90.1957 14.2659 52.2998 0.0000 21.9662 0.0000
# 2 14.2659 117.8796 40.7635 0.0000 3.2803 0.0000
# 3 52.2998 40.7635 126.0504 0.0000 3.6662 0.0000
# 4 0.0000 0.0000 0.0000 47.7060 0.0000 6.5716
# 5 21.9662 3.2803 3.6662 0.0000 49.9117 0.0000
# 6 0.0000 0.0000 0.0000 6.5716 0.0000 43.4324
#
#
#
# Elastic Compliance Matrix: (Units=1/GPa)
#
#
# Indices 1 2 3 4 5 6 
#
# 1 0.016671 0.000559 -0.006898 0.000000 -0.006867 0.000000
# 2 0.000559 0.009578 -0.003311 0.000000 -0.000632 0.000000
# 3 -0.006898 -0.003311 0.011797 0.000000 0.002387 0.000000
# 4 0.000000 0.000000 0.000000 0.021408 0.000000 -0.003239
# 5 -0.006867 -0.000632 0.002387 0.000000 0.022924 0.000000
# 6 0.000000 0.000000 0.000000 -0.003239 0.000000 0.023514
#
#
# Mechanical properties :
#
#
# Convention : Reuss Voigt Hill
#
# Bulk Modulus (GPa) = 53.34594 60.97601 57.16097
# Shear Modulus (GPa) = 38.04018 43.32978 40.68498
#
# Velocity S-wave (km/s) = 3.78558 4.04021 3.91496
# Velocity P-wave (km/s) = 6.26131 6.68845 6.47841
#
# Compressibility (1/GPa) = 0.01874557
#
# Stress axis : x y z
#
# Youngs Moduli (GPa) = 59.98556 104.40433 84.76968
#
# Poissons Ratio (x) = -0.05835 0.58473
# Poissons Ratio (y) = -0.03353 0.28067
# Poissons Ratio (z) = 0.41377 0.34568
#
# Static dielectric constant tensor:
#      x y z
#    x 2.075500 0.000000 -0.030550 
#    y 0.000000 2.131560 0.000000 
#    z -0.030550 0.000000 2.188810 
# 
# From -- ./inp_files/50423.got.cif
#   From: 2010.05.17/outbox.cif.g08.bks.cpg/sg14_26_cif.got.tgz:50423.got - 2010.06.03 17:49:19.
