data_PCOD9244927
_publ_section_title
;
Structure prediction by ZEFSAII (Michael W. Deem and Ramdas Pophale) SiO2 
 PCOD9244927
Probable space group: P 21/C
;
_chemical_formula_sum "Si O2"
_cell_formula_units_Z 32
_cell_length_a 13.230907
_cell_length_b 6.159428
_cell_length_c 18.849520
_cell_angle_alpha 90.000000
_cell_angle_beta 112.148535
_cell_angle_gamma 90.000000
_cell_volume 1422.785968
_symmetry_space_group_name_H-M "P 21/C"
_symmetry_group_IT_number 14
_symmetry_cell_setting 'monoclinic'
loop_
_space_group_symop_operation_xyz
x,y,z
-x,1/2+y,1/2-z
-x,-y,-z
x,1/2-y,1/2+z
loop_
_atom_site_type_symbol
_atom_site_label
_atom_site_fract_x
_atom_site_fract_y
_atom_site_fract_z
Si Si1 0.437243 0.292828 0.798760
Si Si2 0.990215 0.311322 0.938372
Si Si3 0.469603 0.592445 0.416768
Si Si4 0.836987 0.429426 0.487156
Si Si5 0.687012 0.811950 0.459584
Si Si6 0.151684 0.546600 0.895062
Si Si7 0.719092 0.176424 0.695349
Si Si8 0.672225 0.453555 0.816270
O O1 0.368031 0.486542 0.813612
O O2 0.549738 0.358821 0.791321
O O3 0.350729 0.189834 0.721933
O O4 0.472642 0.104387 0.862145
O O5 0.036046 0.427322 0.880033
O O6 0.877172 0.190979 0.926238
O O7 0.000000 0.500000 0.000000
O O8 0.077850 0.124103 0.976952
O O9 0.500000 0.500000 0.500000
O O10 0.556979 0.785277 0.427732
O O11 0.346173 0.673980 0.378032
O O12 0.726260 0.566157 0.452732
O O13 0.844041 0.262618 0.554605
O O14 0.715278 0.987139 0.405882
O O15 0.749983 0.896266 0.546265
O O16 0.176293 0.593369 0.819591
O O17 0.731576 0.312457 0.771338
#
# Coordination Sequence:
#
# PCOD9244927 Si02
#       8
#     4   4   4   4   4   4   4   4
#     4  11  21  38  53  68 110 159 201 237 277 329
#     4   8  16  34  56  84 120 139 170 223 297 362
#     4  11  23  33  51  79 111 153 194 238 295 331
#     4   9  18  33  57  84 122 138 173 233 297 358
#     4  11  22  33  53  83 117 150 197 244 289 345
#     4  10  21  35  56  87 119 142 188 242 298 352
#     4  11  23  36  54  76 116 160 196 243 284 336
#     4  11  22  36  52  74 107 160 210 234 276 338
#
# _framework density 22.491087
#
# number of rings (size 3 to 8) (size 9 to 14) (size 15 to 20)
#    0.000    1.750    2.500    2.250    3.500    4.000 
#    0.000    0.000    0.000    0.000    0.000    0.000 
#  311.250    0.000    0.000    0.000    0.000    0.000 
#
# Total GULP energy -178504.711025 kJ/mol
# GULP energy per Si atom -5578.272220 kJ/mol
# Density = 2.243990 g / cm^3
# Si number density = 22.491087 Si / 1000 Ang^3
#
#
#
# Elastic Constant Matrix: (Units=GPa)
#
#
# Indices 1 2 3 4 5 6 
#
# 1 46.7353 17.7287 2.1973 0.0000 -32.2629 0.0000
# 2 17.7287 73.2249 1.9113 0.0000 -15.8342 0.0000
# 3 2.1973 1.9113 61.9839 0.0000 -22.8576 0.0000
# 4 0.0000 0.0000 0.0000 26.1331 0.0000 -5.5249
# 5 -32.2629 -15.8342 -22.8576 0.0000 40.6781 0.0000
# 6 0.0000 0.0000 0.0000 -5.5249 0.0000 38.3175
#
#
#
# Elastic Compliance Matrix: (Units=1/GPa)
#
#
# Indices 1 2 3 4 5 6 
#
# 1 0.063077 -0.002774 0.020056 0.000000 0.060218 0.000000
# 2 -0.002774 0.015258 0.001270 0.000000 0.004453 0.000000
# 3 0.020056 0.001270 0.027033 0.000000 0.031591 0.000000
# 4 0.000000 0.000000 0.000000 0.039469 0.000000 0.005691
# 5 0.060218 0.004453 0.031591 0.000000 0.091829 0.000000
# 6 0.000000 0.000000 0.000000 0.005691 0.000000 0.026918
#
#
# Mechanical properties :
#
#
# Convention : Reuss Voigt Hill
#
# Bulk Modulus (GPa) = 7.01893 25.06877 16.04385
# Shear Modulus (GPa) = 18.25019 31.69952 24.97485
#
# Velocity S-wave (km/s) = 2.85167 3.75830 3.33593
# Velocity P-wave (km/s) = 3.73768 5.47754 4.68901
#
# Compressibility (1/GPa) = 0.14247191
#
# Stress axis : x y z
#
# Youngs Moduli (GPa) = 15.85369 65.54003 36.99191
#
# Poissons Ratio (x) = 0.18178 -0.74191
# Poissons Ratio (y) = 0.04397 -0.04698
# Poissons Ratio (z) = -0.31796 -0.08323
#
# Static dielectric constant tensor:
#      x y z
#    x 1.885560 0.000000 -0.021350 
#    y 0.000000 1.914150 0.000000 
#    z -0.021350 0.000000 1.926440 
# 
# From -- ./inp_files/58461.got.cif
#   From: 2010.05.17/outbox.cif.g08.bks.cpg/sg14_30_cif.got.tgz:58461.got - 2010.06.03 17:49:19.
