data_PCOD9244477
_publ_section_title
;
Structure prediction by ZEFSAII (Michael W. Deem and Ramdas Pophale) SiO2 
 PCOD9244477
Probable space group: P 21/C
;
_chemical_formula_sum "Si O2"
_cell_formula_units_Z 32
_cell_length_a 8.048720
_cell_length_b 11.033219
_cell_length_c 22.779380
_cell_angle_alpha 90.000000
_cell_angle_beta 141.805461
_cell_angle_gamma 90.000000
_cell_volume 1250.816862
_symmetry_space_group_name_H-M "P 21/C"
_symmetry_group_IT_number 14
_symmetry_cell_setting 'monoclinic'
loop_
_space_group_symop_operation_xyz
x,y,z
-x,1/2+y,1/2-z
-x,-y,-z
x,1/2-y,1/2+z
loop_
_atom_site_type_symbol
_atom_site_label
_atom_site_fract_x
_atom_site_fract_y
_atom_site_fract_z
Si Si1 0.808883 0.204320 0.801690
Si Si2 0.815882 0.186405 0.426303
Si Si3 0.310180 0.669094 0.930478
Si Si4 0.571116 0.558339 0.114276
Si Si5 0.413104 0.572765 0.603908
Si Si6 0.160009 0.627228 0.302661
Si Si7 0.947619 0.531371 0.389838
Si Si8 0.804070 0.705316 0.858997
O O1 0.884990 0.290208 0.878248
O O2 0.828220 0.278685 0.748054
O O3 0.972184 0.079904 0.852187
O O4 0.498781 0.163522 0.722996
O O5 0.674135 0.064036 0.407721
O O6 0.585075 0.286483 0.378416
O O7 0.062164 0.211191 0.538924
O O8 0.399236 0.572577 0.906924
O O9 0.285001 0.799661 0.892485
O O10 0.014728 0.637404 0.875400
O O11 0.501030 0.648164 0.039790
O O12 0.850052 0.592663 0.221065
O O13 0.673114 0.492058 0.668016
O O14 0.230996 0.518022 0.605538
O O15 0.237679 0.562107 0.496456
O O16 0.804341 0.656795 0.335205
#
# Coordination Sequence:
#
# PCOD9244477 Si02
#       8
#     4   4   4   4   4   4   4   4
#     4  11  23  33  65  96 126 159 206 265 319 372
#     4   9  21  43  66  87 121 171 210 259 310 383
#     4  10  25  45  64  89 131 171 211 267 316 385
#     4  10  24  46  65  89 128 174 213 260 323 377
#     4   9  19  38  63  89 122 157 202 264 311 357
#     4  12  25  36  64  97 126 160 213 265 317 381
#     4   9  19  38  60  91 122 156 205 259 308 372
#     4  10  20  41  65  88 119 174 212 250 321 371
#
# _framework density 25.583280999999999
#
# number of rings (size 3 to 8) (size 9 to 14) (size 15 to 20)
#    0.000    2.000    1.250    1.500    7.000    2.000 
#    0.000    1.875    0.000    5.250    0.000    0.000 
#    0.000    0.000    0.000    0.000    0.000    0.000 
#
# Total GULP energy -179242.679122 kJ/mol
# GULP energy per Si atom -5601.333723 kJ/mol
# Density = 2.552505 g / cm^3
# Si number density = 25.583281 Si / 1000 Ang^3
#
#
#
# Elastic Constant Matrix: (Units=GPa)
#
#
# Indices 1 2 3 4 5 6 
#
# 1 54.1882 1.6390 17.0805 0.0000 -30.5228 0.0000
# 2 1.6390 53.0208 18.8346 0.0000 -22.2437 0.0000
# 3 17.0805 18.8346 93.0966 0.0000 -24.2315 0.0000
# 4 0.0000 0.0000 0.0000 47.1374 0.0000 -5.7892
# 5 -30.5228 -22.2437 -24.2315 0.0000 36.6479 0.0000
# 6 0.0000 0.0000 0.0000 -5.7892 0.0000 34.3448
#
#
#
# Elastic Compliance Matrix: (Units=1/GPa)
#
#
# Indices 1 2 3 4 5 6 
#
# 1 0.046452 0.019765 0.000811 0.000000 0.051221 0.000000
# 2 0.019765 0.033856 -0.001018 0.000000 0.036337 0.000000
# 3 0.000811 -0.001018 0.013062 0.000000 0.008694 0.000000
# 4 0.000000 0.000000 0.000000 0.021663 0.000000 0.003652
# 5 0.051221 0.036337 0.008694 0.000000 0.097750 0.000000
# 6 0.000000 0.000000 0.000000 0.003652 0.000000 0.029732
#
#
# Mechanical properties :
#
#
# Convention : Reuss Voigt Hill
#
# Bulk Modulus (GPa) = 7.54807 30.60152 19.07480
# Shear Modulus (GPa) = 20.19710 34.47613 27.33662
#
# Velocity S-wave (km/s) = 2.81279 3.67496 3.27239
# Velocity P-wave (km/s) = 3.67503 5.47673 4.66371
#
# Compressibility (1/GPa) = 0.13248426
#
# Stress axis : x y z
#
# Youngs Moduli (GPa) = 21.52757 29.53729 76.56071
#
# Poissons Ratio (x) = -0.58379 -0.06207
# Poissons Ratio (y) = -0.42548 0.07791
# Poissons Ratio (z) = -0.01745 0.03006
#
# Static dielectric constant tensor:
#      x y z
#    x 2.022120 0.000000 -0.039460 
#    y 0.000000 2.036000 0.000000 
#    z -0.039460 0.000000 2.006900 
# 
# From -- ./inp_files/72366.got.cif
#   From: 2010.05.17/outbox.cif.g08.bks.cpg/sg14_37_cif.got.tgz:72366.got - 2010.06.03 17:49:19.
