data_PCOD9244086
_publ_section_title
;
Structure prediction by ZEFSAII (Michael W. Deem and Ramdas Pophale) SiO2 
 PCOD9244086
Probable space group: P 21/C
;
_chemical_formula_sum "Si O2"
_cell_formula_units_Z 12
_cell_length_a 7.051562
_cell_length_b 6.910257
_cell_length_c 13.739765
_cell_angle_alpha 90.000000
_cell_angle_beta 139.788643
_cell_angle_gamma 90.000000
_cell_volume 432.243487
_symmetry_space_group_name_H-M "P 21/C"
_symmetry_group_IT_number 14
_symmetry_cell_setting 'monoclinic'
loop_
_space_group_symop_operation_xyz
x,y,z
-x,1/2+y,1/2-z
-x,-y,-z
x,1/2-y,1/2+z
loop_
_atom_site_type_symbol
_atom_site_label
_atom_site_fract_x
_atom_site_fract_y
_atom_site_fract_z
Si Si1 0.809025 0.688371 0.414076
Si Si2 0.505312 0.725932 0.986291
Si Si3 0.740683 0.497590 0.746019
O O1 0.763491 0.760485 0.506067
O O2 0.480223 0.606798 0.263355
O O3 0.916594 0.851084 0.381904
O O4 0.000000 0.500000 0.500000
O O5 0.226207 0.823357 0.820451
O O6 0.500000 0.500000 0.000000
O O7 0.571987 0.852120 0.107026
#
# Coordination Sequence:
#
# PCOD9244086 Si02
#       3
#     4   4   4
#     4  10  20  39  67 102 133 181 233 280 345 413
#     4   9  19  39  67  88 136 187 218 284 359 391
#     4   9  20  38  64  91 141 178 220 288 342 415
#
# _framework density 27.762128000000001
#
# number of rings (size 3 to 8) (size 9 to 14) (size 15 to 20)
#    2.000    0.667    0.000    2.000    0.000    0.000 
#    0.000   16.667    0.000    0.000    0.000    0.000 
#    0.000    0.000    0.000    0.000    0.000    0.000 
#
# Total GULP energy -66901.918296 kJ/mol
# GULP energy per Si atom -5575.159858 kJ/mol
# Density = 2.769894 g / cm^3
# Si number density = 27.762128 Si / 1000 Ang^3
#
#
#
# Elastic Constant Matrix: (Units=GPa)
#
#
# Indices 1 2 3 4 5 6 
#
# 1 96.4837 56.9339 14.2124 0.0000 -29.1870 0.0000
# 2 56.9339 247.4083 55.8073 0.0000 -37.2901 0.0000
# 3 14.2124 55.8073 131.0008 0.0000 -40.0795 0.0000
# 4 0.0000 0.0000 0.0000 68.9458 0.0000 -17.3567
# 5 -29.1870 -37.2901 -40.0795 0.0000 27.3801 0.0000
# 6 0.0000 0.0000 0.0000 -17.3567 0.0000 73.9685
#
#
#
# Elastic Compliance Matrix: (Units=1/GPa)
#
#
# Indices 1 2 3 4 5 6 
#
# 1 0.019032 -0.001710 0.007531 0.000000 0.028982 0.000000
# 2 -0.001710 0.005240 -0.000763 0.000000 0.004198 0.000000
# 3 0.007531 -0.000763 0.016807 0.000000 0.031591 0.000000
# 4 0.000000 0.000000 0.000000 0.015415 0.000000 0.003617
# 5 0.028982 0.004198 0.031591 0.000000 0.119379 0.000000
# 6 0.000000 0.000000 0.000000 0.003617 0.000000 0.014368
#
#
# Mechanical properties :
#
#
# Convention : Reuss Voigt Hill
#
# Bulk Modulus (GPa) = 19.53319 80.97777 50.25548
# Shear Modulus (GPa) = 25.35650 57.25482 41.30566
#
# Velocity S-wave (km/s) = 3.02544 4.54622 3.86144
# Velocity P-wave (km/s) = 4.38812 7.53586 6.16623
#
# Compressibility (1/GPa) = 0.05119492
#
# Stress axis : x y z
#
# Youngs Moduli (GPa) = 52.54441 190.83650 59.50036
#
# Poissons Ratio (x) = 0.32632 -0.44809
# Poissons Ratio (y) = 0.08985 0.04537
# Poissons Ratio (z) = -0.39570 0.14552
#
# Static dielectric constant tensor:
#      x y z
#    x 2.398860 0.000000 0.390690 
#    y 0.000000 1.957290 0.000000 
#    z 0.390690 0.000000 2.527700 
# 
# From -- ./inp_files/20063.got.cif
#   From: 2010.05.17/outbox.cif.g08.bks.cpg/sg14_11_cif.got.tgz:20063.got - 2010.06.03 17:49:19.
