data_PCOD9244568
_publ_section_title
;
Structure prediction by ZEFSAII (Michael W. Deem and Ramdas Pophale) SiO2 
 PCOD9244568
Probable space group: P 21/C
;
_chemical_formula_sum "Si O2"
_cell_formula_units_Z 24
_cell_length_a 9.112424
_cell_length_b 10.908896
_cell_length_c 23.886974
_cell_angle_alpha 90.000000
_cell_angle_beta 28.781803
_cell_angle_gamma 90.000000
_cell_volume 1143.272884
_symmetry_space_group_name_H-M "P 21/C"
_symmetry_group_IT_number 14
_symmetry_cell_setting 'monoclinic'
loop_
_space_group_symop_operation_xyz
x,y,z
-x,1/2+y,1/2-z
-x,-y,-z
x,1/2-y,1/2+z
loop_
_atom_site_type_symbol
_atom_site_label
_atom_site_fract_x
_atom_site_fract_y
_atom_site_fract_z
Si Si1 0.160090 0.094837 0.864314
Si Si2 0.401419 0.426879 0.171366
Si Si3 0.335450 0.397767 0.431992
Si Si4 0.390648 0.751200 0.986635
Si Si5 0.832479 0.948200 0.818431
Si Si6 0.545561 0.151602 0.419378
O O1 0.421552 0.067825 0.731337
O O2 0.276298 0.128957 0.886858
O O3 0.952718 0.203806 0.907858
O O4 0.942248 0.976727 0.948724
O O5 0.503702 0.302374 0.108271
O O6 0.561091 0.535492 0.082009
O O7 0.041805 0.453980 0.280329
O O8 0.635699 0.482406 0.337932
O O9 0.396757 0.273120 0.444491
O O10 0.589352 0.871422 0.934660
O O11 0.476635 0.654527 0.006122
O O12 0.088813 0.853079 0.712286
#
# Coordination Sequence:
#
# PCOD9244568 Si02
#       6
#     4   4   4   4   4   4
#     4  10  22  39  63  80 123 158 195 229 289 362
#     4  10  22  38  56  94 112 153 194 245 293 333
#     4  10  20  42  59  88 112 160 194 232 293 347
#     4  11  19  38  59  86 119 151 193 242 289 343
#     4   9  20  34  63  83 110 152 193 244 275 341
#     4  10  22  36  60  90 114 148 199 246 288 335
#
# _framework density 20.992363000000001
#
# number of rings (size 3 to 8) (size 9 to 14) (size 15 to 20)
#    1.000    1.000    0.000    4.500    0.000    2.667 
#   12.000    0.833    0.000    0.000    0.000    0.000 
#    0.000    0.000    0.000    0.000    0.000    0.000 
#
# Total GULP energy -133701.899234 kJ/mol
# GULP energy per Si atom -5570.912468 kJ/mol
# Density = 2.094458 g / cm^3
# Si number density = 20.992363 Si / 1000 Ang^3
#
#
#
# Elastic Constant Matrix: (Units=GPa)
#
#
# Indices 1 2 3 4 5 6 
#
# 1 82.4482 25.5274 21.2619 0.0000 35.6357 0.0000
# 2 25.5274 64.9887 1.3544 0.0000 11.2284 0.0000
# 3 21.2619 1.3544 19.6595 0.0000 22.4256 0.0000
# 4 0.0000 0.0000 0.0000 14.5177 0.0000 4.7626
# 5 35.6357 11.2284 22.4256 0.0000 34.6461 0.0000
# 6 0.0000 0.0000 0.0000 4.7626 0.0000 22.2463
#
#
#
# Elastic Compliance Matrix: (Units=1/GPa)
#
#
# Indices 1 2 3 4 5 6 
#
# 1 0.023494 -0.005127 0.002347 0.000000 -0.024023 0.000000
# 2 -0.005127 0.019450 0.020561 0.000000 -0.014339 0.000000
# 3 0.002347 0.020561 0.218863 0.000000 -0.150743 0.000000
# 4 0.000000 0.000000 0.000000 0.074084 0.000000 -0.015860
# 5 -0.024023 -0.014339 -0.150743 0.000000 0.155791 0.000000
# 6 0.000000 0.000000 0.000000 -0.015860 0.000000 0.048347
#
#
# Mechanical properties :
#
#
# Convention : Reuss Voigt Hill
#
# Bulk Modulus (GPa) = 3.36282 29.26487 16.31384
# Shear Modulus (GPa) = 8.28378 22.21222 15.24800
#
# Velocity S-wave (km/s) = 1.98863 3.25639 2.69803
# Velocity P-wave (km/s) = 2.62265 5.30186 4.18258
#
# Compressibility (1/GPa) = 0.29736962
#
# Stress axis : x y z
#
# Youngs Moduli (GPa) = 42.56412 51.41400 4.56907
#
# Poissons Ratio (x) = 0.26359 -0.01072
# Poissons Ratio (y) = 0.21822 -0.09395
# Poissons Ratio (z) = -0.09990 -1.05713
#
# Static dielectric constant tensor:
#      x y z
#    x 1.755030 0.000000 0.028730 
#    y 0.000000 1.768800 0.000000 
#    z 0.028730 0.000000 1.779030 
# 
# From -- ./inp_files/68501.got.cif
#   From: 2010.05.17/outbox.cif.g08.bks.cpg/sg14_35_cif.got.tgz:68501.got - 2010.06.03 17:49:19.
