data_PCOD9244371
_publ_section_title
;
Structure prediction by ZEFSAII (Michael W. Deem and Ramdas Pophale) SiO2 
 PCOD9244371
Probable space group: P 21/C
;
_chemical_formula_sum "Si O2"
_cell_formula_units_Z 16
_cell_length_a 11.502597
_cell_length_b 11.404237
_cell_length_c 13.080050
_cell_angle_alpha 90.000000
_cell_angle_beta 158.401919
_cell_angle_gamma 90.000000
_cell_volume 631.581771
_symmetry_space_group_name_H-M "P 21/C"
_symmetry_group_IT_number 14
_symmetry_cell_setting 'monoclinic'
loop_
_space_group_symop_operation_xyz
x,y,z
-x,1/2+y,1/2-z
-x,-y,-z
x,1/2-y,1/2+z
loop_
_atom_site_type_symbol
_atom_site_label
_atom_site_fract_x
_atom_site_fract_y
_atom_site_fract_z
Si Si1 0.248529 0.600888 0.265395
Si Si2 0.714401 0.557460 0.331566
Si Si3 0.954760 0.934683 0.737258
Si Si4 0.824901 0.736043 0.784694
O O1 0.500000 0.500000 0.500000
O O2 0.488425 0.709702 0.459773
O O3 0.022036 0.602789 0.177841
O O4 0.034381 0.623766 0.990049
O O5 0.736578 0.691395 0.314891
O O6 0.000000 0.500000 0.500000
O O7 0.794693 0.529766 0.514650
O O8 0.387236 0.495508 0.034644
O O9 0.992618 0.822011 0.841728
#
# Coordination Sequence:
#
# PCOD9244371 Si02
#       4
#     4   4   4   4
#     4  12  27  43  62  99 140 173 216 269 329 396
#     4  10  20  40  68  97 123 163 223 277 318 385
#     4  11  23  42  68  98 132 171 217 278 334 378
#     4  11  23  43  67  94 127 177 226 264 320 401
#
# _framework density 25.333221000000002
#
# number of rings (size 3 to 8) (size 9 to 14) (size 15 to 20)
#    0.000    1.000    0.000    9.750    0.000    6.000 
#    0.000    0.000    0.000    0.000    0.000    0.000 
#    0.000    0.000    0.000    0.000    0.000    0.000 
#
# Total GULP energy -89469.131511 kJ/mol
# GULP energy per Si atom -5591.820719 kJ/mol
# Density = 2.527556 g / cm^3
# Si number density = 25.333221 Si / 1000 Ang^3
#
#
#
# Elastic Constant Matrix: (Units=GPa)
#
#
# Indices 1 2 3 4 5 6 
#
# 1 83.9842 29.8208 23.5243 0.0000 -6.3428 0.0000
# 2 29.8208 53.5078 26.1679 0.0000 0.4448 0.0000
# 3 23.5243 26.1679 156.4010 0.0000 -27.1669 0.0000
# 4 0.0000 0.0000 0.0000 52.9208 0.0000 -17.4192
# 5 -6.3428 0.4448 -27.1669 0.0000 35.7378 0.0000
# 6 0.0000 0.0000 0.0000 -17.4192 0.0000 33.4924
#
#
#
# Elastic Compliance Matrix: (Units=1/GPa)
#
#
# Indices 1 2 3 4 5 6 
#
# 1 0.015146 -0.008226 -0.000480 0.000000 0.002425 0.000000
# 2 -0.008226 0.025160 -0.003779 0.000000 -0.004646 0.000000
# 3 -0.000480 -0.003779 0.008171 0.000000 0.006173 0.000000
# 4 0.000000 0.000000 0.000000 0.022799 0.000000 0.011858
# 5 0.002425 -0.004646 0.006173 0.000000 0.033162 0.000000
# 6 0.000000 0.000000 0.000000 0.011858 0.000000 0.036025
#
#
# Mechanical properties :
#
#
# Convention : Reuss Voigt Hill
#
# Bulk Modulus (GPa) = 42.54466 50.32434 46.43450
# Shear Modulus (GPa) = 28.85679 38.72221 33.78950
#
# Velocity S-wave (km/s) = 3.37870 3.91386 3.65609
# Velocity P-wave (km/s) = 5.66139 6.35079 6.01597
#
# Compressibility (1/GPa) = 0.02350471
#
# Stress axis : x y z
#
# Youngs Moduli (GPa) = 66.02568 39.74516 122.38922
#
# Poissons Ratio (x) = 0.32695 0.05880
# Poissons Ratio (y) = 0.54313 0.46256
# Poissons Ratio (z) = 0.03172 0.15021
#
# Static dielectric constant tensor:
#      x y z
#    x 1.995680 0.000000 -0.015810 
#    y 0.000000 2.195250 0.000000 
#    z -0.015810 0.000000 1.937100 
# 
# From -- ./inp_files/29952.got.cif
#   From: 2010.05.17/outbox.cif.g08.bks.cpg/sg14_15_cif.got.tgz:29952.got - 2010.06.03 17:49:19.
