data_PCOD9244285
_publ_section_title
;
Structure prediction by ZEFSAII (Michael W. Deem and Ramdas Pophale) SiO2 
 PCOD9244285
Probable space group: P 21/C
;
_chemical_formula_sum "Si O2"
_cell_formula_units_Z 28
_cell_length_a 10.114441
_cell_length_b 9.754175
_cell_length_c 14.858088
_cell_angle_alpha 90.000000
_cell_angle_beta 49.410091
_cell_angle_gamma 90.000000
_cell_volume 1113.160763
_symmetry_space_group_name_H-M "P 21/C"
_symmetry_group_IT_number 14
_symmetry_cell_setting 'monoclinic'
loop_
_space_group_symop_operation_xyz
x,y,z
-x,1/2+y,1/2-z
-x,-y,-z
x,1/2-y,1/2+z
loop_
_atom_site_type_symbol
_atom_site_label
_atom_site_fract_x
_atom_site_fract_y
_atom_site_fract_z
Si Si1 0.098147 0.492221 0.816754
Si Si2 0.580330 0.422408 0.753511
Si Si3 0.017738 0.793837 0.486073
Si Si4 0.672242 0.700619 0.383468
Si Si5 0.881557 0.524446 0.746890
Si Si6 0.789997 0.568351 0.506789
Si Si7 0.396864 0.809679 0.378363
O O1 0.075587 0.645158 0.863666
O O2 0.269932 0.440663 0.690454
O O3 0.937481 0.467742 0.819867
O O4 0.092955 0.401398 0.908483
O O5 0.735616 0.436878 0.758340
O O6 0.660327 0.484815 0.626092
O O7 0.525674 0.272286 0.743494
O O8 0.435710 0.528979 0.851190
O O9 0.194723 0.780594 0.461994
O O10 0.906441 0.660393 0.521065
O O11 0.805482 0.822305 0.294450
O O12 0.692674 0.667191 0.478881
O O13 0.490124 0.753042 0.425915
O O14 0.064749 0.516871 0.613030
#
# Coordination Sequence:
#
# PCOD9244285 Si02
#       7
#     4   4   4   4   4   4   4
#     4  10  22  38  65  93 127 162 212 268 313 384
#     4  11  24  42  66  93 130 173 212 267 324 386
#     4  11  21  40  65  95 121 166 215 260 324 379
#     4  10  22  41  60  94 131 162 203 273 320 375
#     4  10  20  40  65  94 120 162 218 264 309 368
#     4  11  22  40  68  92 122 169 221 258 308 387
#     4  11  24  41  61  95 131 169 209 265 331 378
#
# _framework density 25.153600999999998
#
# number of rings (size 3 to 8) (size 9 to 14) (size 15 to 20)
#    0.000    1.429    2.857    3.000    2.000    1.714 
#    2.571    1.429    0.000    0.000    0.000    0.000 
#    0.000    0.000    0.000    0.000    0.000    0.000 
#
# Total GULP energy -156729.190162 kJ/mol
# GULP energy per Si atom -5597.471077 kJ/mol
# Density = 2.509635 g / cm^3
# Si number density = 25.153601 Si / 1000 Ang^3
#
#
#
# Elastic Constant Matrix: (Units=GPa)
#
#
# Indices 1 2 3 4 5 6 
#
# 1 158.1121 3.8461 17.2990 0.0000 9.7547 0.0000
# 2 3.8461 44.2490 -5.2830 0.0000 8.1400 0.0000
# 3 17.2990 -5.2830 38.4866 0.0000 15.3953 0.0000
# 4 0.0000 0.0000 0.0000 29.9544 0.0000 -0.4291
# 5 9.7547 8.1400 15.3953 0.0000 28.5957 0.0000
# 6 0.0000 0.0000 0.0000 -0.4291 0.0000 37.9274
#
#
#
# Elastic Compliance Matrix: (Units=1/GPa)
#
#
# Indices 1 2 3 4 5 6 
#
# 1 0.006696 -0.000849 -0.002943 0.000000 -0.000458 0.000000
# 2 -0.000849 0.025855 0.008614 0.000000 -0.011708 0.000000
# 3 -0.002943 0.008614 0.037046 0.000000 -0.021393 0.000000
# 4 0.000000 0.000000 0.000000 0.033390 0.000000 0.000378
# 5 -0.000458 -0.011708 -0.021393 0.000000 0.049977 0.000000
# 6 0.000000 0.000000 0.000000 0.000378 0.000000 0.026370
#
#
# Mechanical properties :
#
#
# Convention : Reuss Voigt Hill
#
# Bulk Modulus (GPa) = 12.61968 30.28575 21.45272
# Shear Modulus (GPa) = 25.49683 34.29453 29.89568
#
# Velocity S-wave (km/s) = 3.18723 3.69644 3.45124
# Velocity P-wave (km/s) = 4.30959 5.50315 4.94253
#
# Compressibility (1/GPa) = 0.07924132
#
# Stress axis : x y z
#
# Youngs Moduli (GPa) = 149.35376 38.67655 26.99357
#
# Poissons Ratio (x) = 0.03284 0.07944
# Poissons Ratio (y) = 0.12682 -0.23253
# Poissons Ratio (z) = 0.43953 -0.33317
#
# Static dielectric constant tensor:
#      x y z
#    x 1.965050 0.000000 0.008820 
#    y 0.000000 2.046390 0.000000 
#    z 0.008820 0.000000 1.983330 
# 
# From -- ./inp_files/40238.got.cif
#   From: 2010.05.17/outbox.cif.g08.bks.cpg/sg14_21_cif.got.tgz:40238.got - 2010.06.03 17:49:19.
