data_PCOD9244031
_publ_section_title
;
Structure prediction by ZEFSAII (Michael W. Deem and Ramdas Pophale) SiO2 
 PCOD9244031
Probable space group: P 21/C
;
_chemical_formula_sum "Si O2"
_cell_formula_units_Z 20
_cell_length_a 5.237191
_cell_length_b 7.648460
_cell_length_c 21.932936
_cell_angle_alpha 90.000000
_cell_angle_beta 64.604375
_cell_angle_gamma 90.000000
_cell_volume 793.658930
_symmetry_space_group_name_H-M "P 21/C"
_symmetry_group_IT_number 14
_symmetry_cell_setting 'monoclinic'
loop_
_space_group_symop_operation_xyz
x,y,z
-x,1/2+y,1/2-z
-x,-y,-z
x,1/2-y,1/2+z
loop_
_atom_site_type_symbol
_atom_site_label
_atom_site_fract_x
_atom_site_fract_y
_atom_site_fract_z
Si Si1 0.389323 0.866927 0.960945
Si Si2 0.078821 0.354644 0.942938
Si Si3 0.329078 0.008140 0.612887
Si Si4 0.559780 0.464239 0.316251
Si Si5 0.843736 0.814012 0.242520
O O1 0.559869 0.679862 0.937219
O O2 0.435379 0.956976 0.891091
O O3 0.074717 0.814390 0.014527
O O4 0.500000 0.000000 0.000000
O O5 0.413643 0.371725 0.905976
O O6 0.926914 0.417553 0.896696
O O7 0.000000 0.500000 0.000000
O O8 0.286861 0.375753 0.734018
O O9 0.245802 0.083174 0.686931
O O10 0.306369 0.396218 0.300699
O O11 0.819395 0.329697 0.297144
#
# Coordination Sequence:
#
# PCOD9244031 Si02
#       5
#     4   4   4   4   4
#     4  10  23  41  63  97 133 163 209 274 328 376
#     4  10  20  39  64  92 125 169 209 252 320 395
#     4  10  22  42  67  90 124 171 218 261 317 394
#     4  11  25  44  68  96 133 173 219 272 326 387
#     4  11  24  44  67  97 129 172 224 273 323 384
#
# _framework density 25.199742000000001
#
# number of rings (size 3 to 8) (size 9 to 14) (size 15 to 20)
#    0.000    1.600    0.000    4.800    0.000   14.400 
#    0.000   16.000    0.000    0.000    0.000    0.000 
#    0.000    0.000    0.000    0.000    0.000    0.000 
#
# Total GULP energy -112225.818053 kJ/mol
# GULP energy per Si atom -5611.290903 kJ/mol
# Density = 2.514239 g / cm^3
# Si number density = 25.199742 Si / 1000 Ang^3
#
#
#
# Elastic Constant Matrix: (Units=GPa)
#
#
# Indices 1 2 3 4 5 6 
#
# 1 140.5239 48.8360 71.8238 0.0000 7.9990 0.0000
# 2 48.8360 128.9550 61.8941 0.0000 -7.6090 0.0000
# 3 71.8238 61.8941 147.8477 0.0000 0.9413 0.0000
# 4 0.0000 0.0000 0.0000 42.2568 0.0000 -11.6730
# 5 7.9990 -7.6090 0.9413 0.0000 54.1662 0.0000
# 6 0.0000 0.0000 0.0000 -11.6730 0.0000 51.2653
#
#
#
# Elastic Compliance Matrix: (Units=1/GPa)
#
#
# Indices 1 2 3 4 5 6 
#
# 1 0.009930 -0.001938 -0.004002 0.000000 -0.001669 0.000000
# 2 -0.001938 0.010196 -0.003338 0.000000 0.001776 0.000000
# 3 -0.004002 -0.003338 0.010106 0.000000 -0.000054 0.000000
# 4 0.000000 0.000000 0.000000 0.025253 0.000000 0.005750
# 5 -0.001669 0.001776 -0.000054 0.000000 0.018959 0.000000
# 6 0.000000 0.000000 0.000000 0.005750 0.000000 0.020816
#
#
# Mechanical properties :
#
#
# Convention : Reuss Voigt Hill
#
# Bulk Modulus (GPa) = 85.65312 86.93715 86.29513
# Shear Modulus (GPa) = 42.47822 45.18918 43.83370
#
# Velocity S-wave (km/s) = 4.11013 4.23926 4.17520
# Velocity P-wave (km/s) = 7.52248 7.65087 7.58695
#
# Compressibility (1/GPa) = 0.01167500
#
# Stress axis : x y z
#
# Youngs Moduli (GPa) = 100.70114 98.08144 98.95500
#
# Poissons Ratio (x) = 0.19011 0.39602
# Poissons Ratio (y) = 0.19519 0.33030
# Poissons Ratio (z) = 0.40301 0.32739
#
# Static dielectric constant tensor:
#      x y z
#    x 1.969520 0.000000 -0.081190 
#    y 0.000000 2.044970 0.000000 
#    z -0.081190 0.000000 2.068890 
# 
# From -- ./inp_files/62984.got.cif
#   From: 2010.05.17/outbox.cif.g08.bks.cpg/sg14_32_cif.got.tgz:62984.got - 2010.06.03 17:49:19.
