data_PCOD9244986
_publ_section_title
;
Structure prediction by ZEFSAII (Michael W. Deem and Ramdas Pophale) SiO2 
 PCOD9244986
Probable space group: P 21/C
;
_chemical_formula_sum "Si O2"
_cell_formula_units_Z 32
_cell_length_a 26.269395
_cell_length_b 5.218212
_cell_length_c 23.344051
_cell_angle_alpha 90.000000
_cell_angle_beta 147.945590
_cell_angle_gamma 90.000000
_cell_volume 1698.310269
_symmetry_space_group_name_H-M "P 21/C"
_symmetry_group_IT_number 14
_symmetry_cell_setting 'monoclinic'
loop_
_space_group_symop_operation_xyz
x,y,z
-x,1/2+y,1/2-z
-x,-y,-z
x,1/2-y,1/2+z
loop_
_atom_site_type_symbol
_atom_site_label
_atom_site_fract_x
_atom_site_fract_y
_atom_site_fract_z
Si Si1 0.441107 0.692187 0.903200
Si Si2 0.355420 0.109746 0.216375
Si Si3 0.819399 0.756584 0.757765
Si Si4 0.029835 0.616265 0.966211
Si Si5 0.534163 0.054203 0.913766
Si Si6 0.151525 0.356377 0.580176
Si Si7 0.700556 0.252920 0.631948
Si Si8 0.558302 0.655774 0.317124
O O1 0.404216 0.593171 0.806201
O O2 0.346289 0.752320 0.849236
O O3 0.517027 0.905662 0.956554
O O4 0.500000 0.500000 0.000000
O O5 0.428933 0.343806 0.297578
O O6 0.247687 0.134889 0.134839
O O7 0.362995 0.077142 0.155209
O O8 0.819972 0.775743 0.827842
O O9 0.753909 0.521593 0.675931
O O10 0.928800 0.705514 0.843684
O O11 0.774135 0.022582 0.694903
O O12 0.084108 0.371624 0.991713
O O13 0.000000 0.500000 0.000000
O O14 0.097313 0.868750 0.033274
O O15 0.576152 0.898015 0.900630
O O16 0.611807 0.269095 0.003505
O O17 0.474168 0.450207 0.220850
#
# Coordination Sequence:
#
# PCOD9244986 Si02
#       8
#     4   4   4   4   4   4   4   4
#     4  12  22  36  51  84 123 159 189 229 281 342
#     4  11  23  36  59  82 118 156 198 232 289 335
#     4  11  21  36  53  80 112 150 184 223 289 341
#     4  10  21  36  53  77 113 148 183 231 284 344
#     4  11  24  38  55  82 123 154 200 234 283 336
#     4  11  21  34  55  81 112 148 186 231 283 342
#     4  12  23  33  55  82 115 154 183 225 279 349
#     4  10  22  40  58  77 111 160 201 239 272 324
#
# _framework density 18.842258999999999
#
# number of rings (size 3 to 8) (size 9 to 14) (size 15 to 20)
#    0.000    1.000    3.750    5.625    1.750    0.000 
#    0.000    0.000    0.000    0.000    0.000    3.500 
#    0.000    2.000    0.000    0.000    0.000    0.000 
#
# Total GULP energy -178423.426640 kJ/mol
# GULP energy per Si atom -5575.732082 kJ/mol
# Density = 1.879937 g / cm^3
# Si number density = 18.842259 Si / 1000 Ang^3
#
#
#
# Elastic Constant Matrix: (Units=GPa)
#
#
# Indices 1 2 3 4 5 6 
#
# 1 85.6356 20.9526 43.5400 0.0000 17.8487 0.0000
# 2 20.9526 91.0469 34.0049 0.0000 11.2029 0.0000
# 3 43.5400 34.0049 69.4129 0.0000 23.1803 0.0000
# 4 0.0000 0.0000 0.0000 35.1266 0.0000 7.0099
# 5 17.8487 11.2029 23.1803 0.0000 31.3319 0.0000
# 6 0.0000 0.0000 0.0000 7.0099 0.0000 21.9213
#
#
#
# Elastic Compliance Matrix: (Units=1/GPa)
#
#
# Indices 1 2 3 4 5 6 
#
# 1 0.017283 0.000083 -0.010072 0.000000 -0.002423 0.000000
# 2 0.000083 0.013444 -0.006663 0.000000 0.000076 0.000000
# 3 -0.010072 -0.006663 0.028259 0.000000 -0.012786 0.000000
# 4 0.000000 0.000000 0.000000 0.030409 0.000000 -0.009724
# 5 -0.002423 0.000076 -0.012786 0.000000 0.042730 0.000000
# 6 0.000000 0.000000 0.000000 -0.009724 0.000000 0.048727
#
#
# Mechanical properties :
#
#
# Convention : Reuss Voigt Hill
#
# Bulk Modulus (GPa) = 38.94050 49.23225 44.08638
# Shear Modulus (GPa) = 22.45003 27.51584 24.98293
#
# Velocity S-wave (km/s) = 3.45552 3.82557 3.64524
# Velocity P-wave (km/s) = 6.05246 6.76008 6.41603
#
# Compressibility (1/GPa) = 0.02568020
#
# Stress axis : x y z
#
# Youngs Moduli (GPa) = 57.85902 74.38505 35.38739
#
# Poissons Ratio (x) = -0.00615 0.35644
# Poissons Ratio (y) = -0.00478 0.23579
# Poissons Ratio (z) = 0.58278 0.49563
#
# Static dielectric constant tensor:
#      x y z
#    x 0.683840 0.000000 -0.539820 
#    y 0.000000 1.765510 0.000000 
#    z -0.539820 0.000000 1.383680 
# 
# From -- ./inp_files/75107.got.cif
#   From: 2010.05.17/outbox.cif.g08.bks.cpg/sg14_38_cif.got.tgz:75107.got - 2010.06.03 17:49:19.
