data_PCOD9244067
_publ_section_title
;
Structure prediction by ZEFSAII (Michael W. Deem and Ramdas Pophale) SiO2 
 PCOD9244067
Probable space group: P 21/C
;
_chemical_formula_sum "Si O2"
_cell_formula_units_Z 32
_cell_length_a 22.936446
_cell_length_b 9.255112
_cell_length_c 27.778868
_cell_angle_alpha 90.000000
_cell_angle_beta 14.023685
_cell_angle_gamma 90.000000
_cell_volume 1428.949706
_symmetry_space_group_name_H-M "P 21/C"
_symmetry_group_IT_number 14
_symmetry_cell_setting 'monoclinic'
loop_
_space_group_symop_operation_xyz
x,y,z
-x,1/2+y,1/2-z
-x,-y,-z
x,1/2-y,1/2+z
loop_
_atom_site_type_symbol
_atom_site_label
_atom_site_fract_x
_atom_site_fract_y
_atom_site_fract_z
Si Si1 0.990700 0.875066 0.659306
Si Si2 0.161089 0.220632 0.817752
Si Si3 0.975519 0.664830 0.329718
Si Si4 0.182898 0.855423 0.078302
Si Si5 0.118472 0.663063 0.867973
Si Si6 0.284923 0.124577 0.391747
Si Si7 0.753565 0.072067 0.291052
Si Si8 0.483305 0.949937 0.958150
O O1 0.919900 0.806708 0.664838
O O2 0.033886 0.741988 0.659889
O O3 0.774127 0.982716 0.849364
O O4 0.231454 0.970871 0.459942
O O5 0.431573 0.283184 0.612020
O O6 0.112982 0.052988 0.845833
O O7 0.006985 0.267649 0.986305
O O8 0.122059 0.772154 0.176867
O O9 0.122863 0.604422 0.257385
O O10 0.894018 0.523376 0.365066
O O11 0.768851 0.756937 0.523422
O O12 0.276902 0.784701 0.715424
O O13 0.294080 0.535576 0.744064
O O14 0.923133 0.628864 0.982879
O O15 0.538435 0.146324 0.162213
O O16 0.500000 0.000000 0.500000
O O17 0.500000 0.000000 0.000000
#
# Coordination Sequence:
#
# PCOD9244067 Si02
#       8
#     4   4   4   4   4   4   4   4
#     4  11  23  45  69 101 139 183 230 292 343 417
#     4  11  22  40  66 102 139 176 226 287 356 416
#     4  11  27  48  72 102 135 189 240 285 359 421
#     4  12  26  50  70 100 137 188 242 286 348 427
#     4  11  23  39  64 106 135 179 226 281 357 418
#     4  11  25  45  70 101 141 181 235 292 344 414
#     4  11  24  43  66  97 141 176 222 293 357 416
#     4  10  20  39  66 100 134 176 228 282 346 418
#
# _framework density 22.394069999999999
#
# number of rings (size 3 to 8) (size 9 to 14) (size 15 to 20)
#    0.000    1.000    3.750    3.750    3.500    1.000 
#    2.250    0.000    0.000    0.000    0.000    0.000 
#    0.000    0.000    0.000    0.000    0.000    0.000 
#
# Total GULP energy -178755.488134 kJ/mol
# GULP energy per Si atom -5586.109004 kJ/mol
# Density = 2.234310 g / cm^3
# Si number density = 22.394070 Si / 1000 Ang^3
#
#
#
# Elastic Constant Matrix: (Units=GPa)
#
#
# Indices 1 2 3 4 5 6 
#
# 1 55.4310 36.2888 22.0989 0.0000 13.7141 0.0000
# 2 36.2888 146.6311 43.2671 0.0000 6.3103 0.0000
# 3 22.0989 43.2671 122.3617 0.0000 3.9438 0.0000
# 4 0.0000 0.0000 0.0000 40.6096 0.0000 5.9603
# 5 13.7141 6.3103 3.9438 0.0000 33.8611 0.0000
# 6 0.0000 0.0000 0.0000 5.9603 0.0000 40.6939
#
#
#
# Elastic Compliance Matrix: (Units=1/GPa)
#
#
# Indices 1 2 3 4 5 6 
#
# 1 0.024379 -0.004961 -0.002369 0.000000 -0.008673 0.000000
# 2 -0.004961 0.008666 -0.002189 0.000000 0.000649 0.000000
# 3 -0.002369 -0.002189 0.009366 0.000000 0.000277 0.000000
# 4 0.000000 0.000000 0.000000 0.025166 0.000000 -0.003686
# 5 -0.008673 0.000649 0.000277 0.000000 0.032892 0.000000
# 6 0.000000 0.000000 0.000000 -0.003686 0.000000 0.025114
#
#
# Mechanical properties :
#
#
# Convention : Reuss Voigt Hill
#
# Bulk Modulus (GPa) = 42.78756 58.63704 50.71230
# Shear Modulus (GPa) = 32.80631 37.88418 35.34525
#
# Velocity S-wave (km/s) = 3.83163 4.11750 3.97713
# Velocity P-wave (km/s) = 6.22280 6.98900 6.61700
#
# Compressibility (1/GPa) = 0.02337128
#
# Stress axis : x y z
#
# Youngs Moduli (GPa) = 41.01966 115.39869 106.77471
#
# Poissons Ratio (x) = 0.57249 0.25296
# Poissons Ratio (y) = 0.20350 0.23374
# Poissons Ratio (z) = 0.09718 0.25262
#
# Static dielectric constant tensor:
#      x y z
#    x 1.864840 0.000000 -0.026980 
#    y 0.000000 2.343510 0.000000 
#    z -0.026980 0.000000 1.969840 
# 
# From -- ./inp_files/74909.got.cif
#   From: 2010.05.17/outbox.cif.g08.bks.cpg/sg14_38_cif.got.tgz:74909.got - 2010.06.03 17:49:19.
