data_PCOD9244766
_publ_section_title
;
Structure prediction by ZEFSAII (Michael W. Deem and Ramdas Pophale) SiO2 
 PCOD9244766
Probable space group: P 21/C
;
_chemical_formula_sum "Si O2"
_cell_formula_units_Z 28
_cell_length_a 6.888776
_cell_length_b 11.844855
_cell_length_c 20.248443
_cell_angle_alpha 90.000000
_cell_angle_beta 138.530457
_cell_angle_gamma 90.000000
_cell_volume 1094.124991
_symmetry_space_group_name_H-M "P 21/C"
_symmetry_group_IT_number 14
_symmetry_cell_setting 'monoclinic'
loop_
_space_group_symop_operation_xyz
x,y,z
-x,1/2+y,1/2-z
-x,-y,-z
x,1/2-y,1/2+z
loop_
_atom_site_type_symbol
_atom_site_label
_atom_site_fract_x
_atom_site_fract_y
_atom_site_fract_z
Si Si1 0.948434 0.497739 0.882122
Si Si2 0.722382 0.068665 0.806028
Si Si3 0.926327 0.419466 0.218100
Si Si4 0.678817 0.698193 0.974975
Si Si5 0.380899 0.237945 0.274233
Si Si6 0.384319 0.800444 0.536231
Si Si7 0.906767 0.870670 0.929162
O O1 0.604284 0.523446 0.796040
O O2 0.856653 0.393504 0.047056
O O3 0.029089 0.482100 0.824835
O O4 0.062930 0.394169 0.954638
O O5 0.846717 0.001621 0.900832
O O6 0.936487 0.055957 0.798219
O O7 0.654083 0.196495 0.810482
O O8 0.606414 0.364654 0.126656
O O9 0.165420 0.329128 0.253643
O O10 0.742849 0.806302 0.946618
O O11 0.596690 0.721908 0.029464
O O12 0.469430 0.161759 0.358497
O O13 0.222280 0.177535 0.173629
O O14 0.229129 0.681438 0.511904
#
# Coordination Sequence:
#
# PCOD9244766 Si02
#       7
#     4   4   4   4   4   4   4
#     4  10  23  42  71 108 130 172 233 296 341 388
#     4  11  25  45  70  99 143 180 221 286 345 406
#     4  10  20  44  63  94 139 172 219 282 346 397
#     4  11  23  41  67 104 139 169 228 287 340 399
#     4  11  25  44  67 100 138 180 228 279 344 410
#     4  11  24  44  69 102 138 181 232 279 339 411
#     4  12  26  42  67 104 138 179 229 278 345 415
#
# _framework density 25.591225999999999
#
# number of rings (size 3 to 8) (size 9 to 14) (size 15 to 20)
#    0.000    1.143    5.714    1.714    6.000    6.286 
#    0.000    1.429    0.000    0.000    0.000    0.000 
#    0.000    0.000    0.000    0.000    0.000    0.000 
#
# Total GULP energy -156869.830805 kJ/mol
# GULP energy per Si atom -5602.493957 kJ/mol
# Density = 2.553298 g / cm^3
# Si number density = 25.591226 Si / 1000 Ang^3
#
#
#
# Elastic Constant Matrix: (Units=GPa)
#
#
# Indices 1 2 3 4 5 6 
#
# 1 142.3482 18.6391 26.0906 0.0000 -33.3719 0.0000
# 2 18.6391 58.1337 -0.0107 0.0000 2.4644 0.0000
# 3 26.0906 -0.0107 100.3441 0.0000 -17.5260 0.0000
# 4 0.0000 0.0000 0.0000 39.2030 0.0000 -15.9473
# 5 -33.3719 2.4644 -17.5260 0.0000 40.2612 0.0000
# 6 0.0000 0.0000 0.0000 -15.9473 0.0000 36.0381
#
#
#
# Elastic Compliance Matrix: (Units=1/GPa)
#
#
# Indices 1 2 3 4 5 6 
#
# 1 0.009438 -0.003345 -0.001139 0.000000 0.007532 0.000000
# 2 -0.003345 0.018436 0.000206 0.000000 -0.003812 0.000000
# 3 -0.001139 0.000206 0.010925 0.000000 0.003799 0.000000
# 4 0.000000 0.000000 0.000000 0.031108 0.000000 0.013766
# 5 0.007532 -0.003812 0.003799 0.000000 0.032968 0.000000
# 6 0.000000 0.000000 0.000000 0.013766 0.000000 0.033840
#
#
# Mechanical properties :
#
#
# Convention : Reuss Voigt Hill
#
# Bulk Modulus (GPa) = 33.06580 43.36267 38.21423
# Shear Modulus (GPa) = 32.18503 40.17425 36.17964
#
# Velocity S-wave (km/s) = 3.55020 3.96642 3.76407
# Velocity P-wave (km/s) = 5.45472 6.16099 5.81858
#
# Compressibility (1/GPa) = 0.03024273
#
# Stress axis : x y z
#
# Youngs Moduli (GPa) = 105.96023 54.24178 91.52966
#
# Poissons Ratio (x) = 0.18146 0.10423
# Poissons Ratio (y) = 0.35448 -0.01886
# Poissons Ratio (z) = 0.12066 -0.01118
#
# Static dielectric constant tensor:
#      x y z
#    x 1.984680 0.000000 -0.021190 
#    y 0.000000 2.119040 0.000000 
#    z -0.021190 0.000000 2.047980 
# 
# From -- ./inp_files/53240.got.cif
#   From: 2010.05.17/outbox.cif.g08.bks.cpg/sg14_27_cif.got.tgz:53240.got - 2010.06.03 17:49:19.
