data_PCOD9244050
_publ_section_title
;
Structure prediction by ZEFSAII (Michael W. Deem and Ramdas Pophale) SiO2 
 PCOD9244050
Probable space group: P 21/C
;
_chemical_formula_sum "Si O2"
_cell_formula_units_Z 32
_cell_length_a 31.366931
_cell_length_b 7.940551
_cell_length_c 13.728941
_cell_angle_alpha 90.000000
_cell_angle_beta 27.442675
_cell_angle_gamma 90.000000
_cell_volume 1575.903385
_symmetry_space_group_name_H-M "P 21/C"
_symmetry_group_IT_number 14
_symmetry_cell_setting 'monoclinic'
loop_
_space_group_symop_operation_xyz
x,y,z
-x,1/2+y,1/2-z
-x,-y,-z
x,1/2-y,1/2+z
loop_
_atom_site_type_symbol
_atom_site_label
_atom_site_fract_x
_atom_site_fract_y
_atom_site_fract_z
Si Si1 0.799361 0.362337 0.930063
Si Si2 0.394881 0.237194 0.571505
Si Si3 0.286436 0.761720 0.207174
Si Si4 0.883594 0.303963 0.563101
Si Si5 0.551070 0.034390 0.681086
Si Si6 0.764992 0.852195 0.735213
Si Si7 0.324303 0.157631 0.414095
Si Si8 0.937094 0.005878 0.315509
O O1 0.843578 0.262721 0.750625
O O2 0.881950 0.429351 0.831999
O O3 0.732246 0.262321 0.139586
O O4 0.739649 0.515515 0.006626
O O5 0.453763 0.398888 0.416669
O O6 0.295437 0.250038 0.720681
O O7 0.378332 0.245093 0.719428
O O8 0.447408 0.078299 0.419152
O O9 0.206229 0.650135 0.319183
O O10 0.267098 0.952225 0.210000
O O11 0.383947 0.692460 0.976723
O O12 0.960122 0.447868 0.415487
O O13 0.930863 0.150322 0.409910
O O14 0.602210 0.929035 0.662097
O O15 0.872427 0.856518 0.489393
O O16 0.739317 0.778366 0.891558
#
# Coordination Sequence:
#
# PCOD9244050 Si02
#       8
#     4   4   4   4   4   4   4   4
#     4  10  20  39  65  83 121 161 201 247 306 357
#     4  11  22  41  58  95 117 158 205 244 302 361
#     4  10  21  42  61  88 122 161 198 255 305 355
#     4  10  21  38  60  88 118 159 203 244 305 356
#     4  11  24  39  68  86 127 160 196 255 302 357
#     4   9  21  39  60  87 121 157 198 253 298 351
#     4  11  21  40  66  89 120 163 202 247 302 368
#     4  10  22  38  62  86 124 158 198 255 299 361
#
# _framework density 20.305812
#
# number of rings (size 3 to 8) (size 9 to 14) (size 15 to 20)
#    0.000    2.000    3.750    1.500    1.750    2.000 
#    0.000    5.625    0.000    0.000    0.000    0.000 
#    0.000    0.000    0.000    0.000    0.000    0.000 
#
# Total GULP energy -178635.512012 kJ/mol
# GULP energy per Si atom -5582.359750 kJ/mol
# Density = 2.025960 g / cm^3
# Si number density = 20.305812 Si / 1000 Ang^3
#
#
#
# Elastic Constant Matrix: (Units=GPa)
#
#
# Indices 1 2 3 4 5 6 
#
# 1 64.1902 11.7004 43.3936 0.0000 26.1792 0.0000
# 2 11.7004 10.3488 5.9638 0.0000 5.2271 0.0000
# 3 43.3936 5.9638 79.7859 0.0000 21.1397 0.0000
# 4 0.0000 0.0000 0.0000 35.4530 0.0000 2.9509
# 5 26.1792 5.2271 21.1397 0.0000 42.2854 0.0000
# 6 0.0000 0.0000 0.0000 2.9509 0.0000 25.3611
#
#
#
# Elastic Compliance Matrix: (Units=1/GPa)
#
#
# Indices 1 2 3 4 5 6 
#
# 1 0.033805 -0.024794 -0.013601 0.000000 -0.011065 0.000000
# 2 -0.024794 0.123001 0.004901 0.000000 -0.002305 0.000000
# 3 -0.013601 0.004901 0.020165 0.000000 -0.002267 0.000000
# 4 0.000000 0.000000 0.000000 0.028482 0.000000 -0.003314
# 5 -0.011065 -0.002305 -0.002267 0.000000 0.031917 0.000000
# 6 0.000000 0.000000 0.000000 -0.003314 0.000000 0.039816
#
#
# Mechanical properties :
#
#
# Convention : Reuss Voigt Hill
#
# Bulk Modulus (GPa) = 9.09216 30.71561 19.90388
# Shear Modulus (GPa) = 13.12909 26.83771 19.98340
#
# Velocity S-wave (km/s) = 2.54553 3.63943 3.14048
# Velocity P-wave (km/s) = 3.62311 5.72887 4.79306
#
# Compressibility (1/GPa) = 0.10998492
#
# Stress axis : x y z
#
# Youngs Moduli (GPa) = 29.58151 8.13001 49.59126
#
# Poissons Ratio (x) = 0.20157 0.67448
# Poissons Ratio (y) = 0.73343 -0.24306
# Poissons Ratio (z) = 0.40233 -0.03985
#
# Static dielectric constant tensor:
#      x y z
#    x 1.713300 0.000000 -0.006990 
#    y 0.000000 1.760650 0.000000 
#    z -0.006990 0.000000 1.713150 
# 
# From -- ./inp_files/36453.got.cif
#   From: 2010.05.17/outbox.cif.g08.bks.cpg/sg14_19_cif.got.tgz:36453.got - 2010.06.03 17:49:19.
