data_PCOD9244552
_publ_section_title
;
Structure prediction by ZEFSAII (Michael W. Deem and Ramdas Pophale) SiO2 
 PCOD9244552
Probable space group: P 21/C
;
_chemical_formula_sum "Si O2"
_cell_formula_units_Z 20
_cell_length_a 5.602457
_cell_length_b 23.745056
_cell_length_c 7.313407
_cell_angle_alpha 90.000000
_cell_angle_beta 62.404138
_cell_angle_gamma 90.000000
_cell_volume 862.226505
_symmetry_space_group_name_H-M "P 21/C"
_symmetry_group_IT_number 14
_symmetry_cell_setting 'monoclinic'
loop_
_space_group_symop_operation_xyz
x,y,z
-x,1/2+y,1/2-z
-x,-y,-z
x,1/2-y,1/2+z
loop_
_atom_site_type_symbol
_atom_site_label
_atom_site_fract_x
_atom_site_fract_y
_atom_site_fract_z
Si Si1 0.435569 0.880842 0.734110
Si Si2 0.083369 0.195510 0.406513
Si Si3 0.675716 0.997727 0.627386
Si Si4 0.622752 0.119067 0.671368
Si Si5 0.064331 0.325746 0.482694
O O1 0.619318 0.825161 0.647347
O O2 0.348200 0.891807 0.556936
O O3 0.192749 0.865874 0.955625
O O4 0.597767 0.936564 0.735624
O O5 0.031097 0.261669 0.431322
O O6 0.071695 0.178581 0.199274
O O7 0.875417 0.160984 0.608316
O O8 0.612701 0.055984 0.754907
O O9 0.500000 0.000000 0.500000
O O10 0.000000 0.000000 0.500000
O O11 0.343313 0.149409 0.812904
#
# Coordination Sequence:
#
# PCOD9244552 Si02
#       5
#     4   4   4   4   4
#     4  10  22  40  64  90 129 165 217 263 323 391
#     4  11  22  40  60  88 128 164 215 267 325 389
#     4  10  20  41  70  96 132 175 214 268 333 390
#     4  10  22  40  64  91 126 170 212 264 327 384
#     4  11  24  38  61  94 122 168 217 268 322 389
#
# _framework density 23.195762999999999
#
# number of rings (size 3 to 8) (size 9 to 14) (size 15 to 20)
#    0.000    1.600    2.000    2.400    0.000    7.200 
#    0.000    1.000    0.000    0.000    0.000    0.000 
#    0.000    0.000    0.000    0.000    0.000    0.000 
#
# Total GULP energy -111600.128406 kJ/mol
# GULP energy per Si atom -5580.006420 kJ/mol
# Density = 2.314297 g / cm^3
# Si number density = 23.195763 Si / 1000 Ang^3
#
#
#
# Elastic Constant Matrix: (Units=GPa)
#
#
# Indices 1 2 3 4 5 6 
#
# 1 58.3405 5.6209 17.8537 0.0000 -21.7422 0.0000
# 2 5.6209 125.6749 29.3363 0.0000 -14.3261 0.0000
# 3 17.8537 29.3363 112.1342 0.0000 -22.6011 0.0000
# 4 0.0000 0.0000 0.0000 4.1598 0.0000 -14.7738
# 5 -21.7422 -14.3261 -22.6011 0.0000 42.1509 0.0000
# 6 0.0000 0.0000 0.0000 -14.7738 0.0000 35.8907
#
#
#
# Elastic Compliance Matrix: (Units=1/GPa)
#
#
# Indices 1 2 3 4 5 6 
#
# 1 0.021432 0.000574 -0.001452 0.000000 0.010472 0.000000
# 2 0.000574 0.008627 -0.001904 0.000000 0.002208 0.000000
# 3 -0.001452 -0.001904 0.010501 0.000000 0.004234 0.000000
# 4 0.000000 0.000000 0.000000 -0.520398 0.000000 -0.214213
# 5 0.010472 0.002208 0.004234 0.000000 0.032147 0.000000
# 6 0.000000 0.000000 0.000000 -0.214213 0.000000 -0.060315
#
#
# Mechanical properties :
#
#
# Convention : Reuss Voigt Hill
#
# Bulk Modulus (GPa) = 28.57347 44.64128 36.60737
# Shear Modulus (GPa) = -10.18793 32.66284 11.23746
#
# Velocity S-wave (km/s) = -2.09802 3.75659 2.20344
# Velocity P-wave (km/s) = 2.54484 6.17278 4.72120
#
# Compressibility (1/GPa) = 0.03499751
#
# Stress axis : x y z
#
# Youngs Moduli (GPa) = 46.65829 115.91033 95.23343
#
# Poissons Ratio (x) = -0.06654 0.13828
# Poissons Ratio (y) = -0.02679 0.18128
# Poissons Ratio (z) = 0.06775 0.22064
#
# Static dielectric constant tensor:
#      x y z
#    x 2.164910 0.000000 0.088640 
#    y 0.000000 1.930920 0.000000 
#    z 0.088640 0.000000 1.859420 
# 
# From -- ./inp_files/5834.got.cif
#   From: 2010.05.17/outbox.cif.g08.bks.cpg/sg14_3_cif.got.tgz:5834.got - 2010.06.03 17:49:19.
