data_PCOD9244838
_publ_section_title
;
Structure prediction by ZEFSAII (Michael W. Deem and Ramdas Pophale) SiO2 
 PCOD9244838
Probable space group: P 21/C
;
_chemical_formula_sum "Si O2"
_cell_formula_units_Z 20
_cell_length_a 8.627130
_cell_length_b 13.968572
_cell_length_c 11.935849
_cell_angle_alpha 90.000000
_cell_angle_beta 139.656528
_cell_angle_gamma 90.000000
_cell_volume 931.157330
_symmetry_space_group_name_H-M "P 21/C"
_symmetry_group_IT_number 14
_symmetry_cell_setting 'monoclinic'
loop_
_space_group_symop_operation_xyz
x,y,z
-x,1/2+y,1/2-z
-x,-y,-z
x,1/2-y,1/2+z
loop_
_atom_site_type_symbol
_atom_site_label
_atom_site_fract_x
_atom_site_fract_y
_atom_site_fract_z
Si Si1 0.993928 0.578058 0.191680
Si Si2 0.660296 0.419091 0.025190
Si Si3 0.487594 0.312102 0.126570
Si Si4 0.820142 0.066014 0.974754
Si Si5 0.536836 0.402425 0.697916
O O1 0.043960 0.613467 0.345769
O O2 0.216253 0.589927 0.233027
O O3 0.920860 0.466381 0.165077
O O4 0.762616 0.630798 0.012884
O O5 0.618598 0.327522 0.079030
O O6 0.500000 0.500000 0.000000
O O7 0.575982 0.407094 0.852850
O O8 0.671025 0.359460 0.316970
O O9 0.433421 0.201829 0.116277
O O10 0.631530 0.991297 0.923476
O O11 0.000000 0.000000 0.000000
#
# Coordination Sequence:
#
# PCOD9244838 Si02
#       5
#     4   4   4   4   4
#     4  11  24  46  72 101 144 185 240 297 349 419
#     4  10  20  47  70  91 144 188 222 292 363 403
#     4  11  26  46  70 108 145 185 242 291 360 420
#     4  12  24  48  74  98 145 196 225 289 371 428
#     4  12  26  44  75 110 137 189 249 293 348 433
#
# _framework density 21.478646999999999
#
# number of rings (size 3 to 8) (size 9 to 14) (size 15 to 20)
#    0.000    0.800    6.000    2.400    5.600    0.000 
#    0.000    0.000    0.000    0.000    0.000    0.000 
#    0.000    0.000    0.000    0.000    0.000    0.000 
#
# Total GULP energy -111806.858325 kJ/mol
# GULP energy per Si atom -5590.342916 kJ/mol
# Density = 2.142976 g / cm^3
# Si number density = 21.478647 Si / 1000 Ang^3
#
#
#
# Elastic Constant Matrix: (Units=GPa)
#
#
# Indices 1 2 3 4 5 6 
#
# 1 94.9719 3.5546 1.3541 0.0000 -2.5206 0.0000
# 2 3.5546 33.6867 -12.9315 0.0000 -3.0410 0.0000
# 3 1.3541 -12.9315 83.7333 0.0000 -14.5525 0.0000
# 4 0.0000 0.0000 0.0000 17.3812 0.0000 -2.0246
# 5 -2.5206 -3.0410 -14.5525 0.0000 39.2765 0.0000
# 6 0.0000 0.0000 0.0000 -2.0246 0.0000 17.5527
#
#
#
# Elastic Compliance Matrix: (Units=1/GPa)
#
#
# Indices 1 2 3 4 5 6 
#
# 1 0.010590 -0.001176 -0.000268 0.000000 0.000489 0.000000
# 2 -0.001176 0.032463 0.005832 0.000000 0.004599 0.000000
# 3 -0.000268 0.005832 0.013813 0.000000 0.005552 0.000000
# 4 0.000000 0.000000 0.000000 0.058317 0.000000 0.006727
# 5 0.000489 0.004599 0.005552 0.000000 0.027905 0.000000
# 6 0.000000 0.000000 0.000000 0.006727 0.000000 0.057747
#
#
# Mechanical properties :
#
#
# Convention : Reuss Voigt Hill
#
# Bulk Modulus (GPa) = 15.23422 21.81625 18.52524
# Shear Modulus (GPa) = 23.37100 29.53639 26.45369
#
# Velocity S-wave (km/s) = 3.30222 3.71233 3.51326
# Velocity P-wave (km/s) = 4.65271 5.34363 5.01009
#
# Compressibility (1/GPa) = 0.06564167
#
# Stress axis : x y z
#
# Youngs Moduli (GPa) = 94.42640 30.80407 72.39782
#
# Poissons Ratio (x) = 0.03623 0.01939
# Poissons Ratio (y) = 0.11106 -0.42221
# Poissons Ratio (z) = 0.02529 -0.17964
#
# Static dielectric constant tensor:
#      x y z
#    x 1.772520 0.000000 0.002140 
#    y 0.000000 1.837330 0.000000 
#    z 0.002140 0.000000 1.833210 
# 
# From -- ./inp_files/24718.got.cif
#   From: 2010.05.17/outbox.cif.g08.bks.cpg/sg14_13_cif.got.tgz:24718.got - 2010.06.03 17:49:19.
