data_PCOD9244324
_publ_section_title
;
Structure prediction by ZEFSAII (Michael W. Deem and Ramdas Pophale) SiO2 
 PCOD9244324
Probable space group: P 21/C
;
_chemical_formula_sum "Si O2"
_cell_formula_units_Z 30
_cell_length_a 9.005931
_cell_length_b 11.226736
_cell_length_c 12.087682
_cell_angle_alpha 90.000000
_cell_angle_beta 62.030430
_cell_angle_gamma 90.000000
_cell_volume 1079.400566
_symmetry_space_group_name_H-M "P 21/C"
_symmetry_group_IT_number 14
_symmetry_cell_setting 'monoclinic'
loop_
_space_group_symop_operation_xyz
x,y,z
-x,1/2+y,1/2-z
-x,-y,-z
x,1/2-y,1/2+z
loop_
_atom_site_type_symbol
_atom_site_label
_atom_site_fract_x
_atom_site_fract_y
_atom_site_fract_z
Si Si1 0.095963 0.272035 0.605727
Si Si2 0.144879 0.001241 0.572388
Si Si3 0.774168 0.509960 0.186955
Si Si4 0.259764 0.628674 0.228036
Si Si5 0.000000 0.000000 0.000000
Si Si6 0.512983 0.346149 0.346084
Si Si7 0.291502 0.564784 0.474028
Si Si8 0.408520 0.271114 0.669393
O O1 0.111202 0.138450 0.555627
O O2 0.086543 0.367519 0.508810
O O3 0.257112 0.267741 0.633403
O O4 0.912032 0.294729 0.723386
O O5 0.958573 0.952958 0.656144
O O6 0.219959 0.948743 0.434548
O O7 0.257400 0.972610 0.637069
O O8 0.687402 0.417435 0.297837
O O9 0.652007 0.620971 0.231328
O O10 0.422482 0.711598 0.156215
O O11 0.237574 0.569466 0.358512
O O12 0.901880 0.059144 0.922746
O O13 0.393949 0.441950 0.449125
O O14 0.446428 0.335127 0.241870
O O15 0.415363 0.677097 0.442815
#
# Coordination Sequence:
#
# PCOD9244324 Si02
#       8
#     4   4   4   4   2   4   4   4
#     4  11  22  41  67  97 135 172 224 273 330 409
#     4  11  22  40  66 102 131 169 226 281 319 398
#     4  10  22  40  63  96 135 168 228 274 331 398
#     4  10  20  40  66  94 131 177 223 269 343 404
#     4  10  24  42  64  96 128 172 224 274 330 400
#     4  10  20  41  63  92 132 182 210 278 344 398
#     4   9  21  40  63  90 129 170 220 274 329 405
#     4  10  21  40  65  92 128 177 218 267 338 398
#
# _framework density 27.793202999999998
#
# number of rings (size 3 to 8) (size 9 to 14) (size 15 to 20)
#    0.000    1.867    2.667    0.800    1.867    0.533 
#    2.400   12.000    0.000    0.000    0.000    0.000 
#    0.000    0.000    0.000    0.000    0.000    0.000 
#
# Total GULP energy -167049.522417 kJ/mol
# GULP energy per Si atom -5568.317414 kJ/mol
# Density = 2.772994 g / cm^3
# Si number density = 27.793203 Si / 1000 Ang^3
#
#
#
# Elastic Constant Matrix: (Units=GPa)
#
#
# Indices 1 2 3 4 5 6 
#
# 1 173.0717 43.4435 9.3415 0.0000 17.5384 0.0000
# 2 43.4435 87.9854 -11.6624 0.0000 -3.9092 0.0000
# 3 9.3415 -11.6624 21.1945 0.0000 -2.0347 0.0000
# 4 0.0000 0.0000 0.0000 34.9124 0.0000 16.3527
# 5 17.5384 -3.9092 -2.0347 0.0000 37.8254 0.0000
# 6 0.0000 0.0000 0.0000 16.3527 0.0000 48.4704
#
#
#
# Elastic Compliance Matrix: (Units=1/GPa)
#
#
# Indices 1 2 3 4 5 6 
#
# 1 0.007830 -0.004941 -0.006602 0.000000 -0.004496 0.000000
# 2 -0.004941 0.015479 0.011126 0.000000 0.004489 0.000000
# 3 -0.006602 0.011126 0.056912 0.000000 0.007272 0.000000
# 4 0.000000 0.000000 0.000000 0.034019 0.000000 -0.011477
# 5 -0.004496 0.004489 0.007272 0.000000 0.029377 0.000000
# 6 0.000000 0.000000 0.000000 -0.011477 0.000000 0.024503
#
#
# Mechanical properties :
#
#
# Convention : Reuss Voigt Hill
#
# Bulk Modulus (GPa) = 12.59617 40.49966 26.54792
# Shear Modulus (GPa) = 25.58634 40.31691 32.95163
#
# Velocity S-wave (km/s) = 3.03743 3.81281 3.44699
# Velocity P-wave (km/s) = 4.10405 5.82982 5.04133
#
# Compressibility (1/GPa) = 0.07938919
#
# Stress axis : x y z
#
# Youngs Moduli (GPa) = 127.71090 64.60179 17.57095
#
# Poissons Ratio (x) = 0.31920 0.11600
# Poissons Ratio (y) = 0.63102 -0.19550
# Poissons Ratio (z) = 0.84310 -0.71878
#
# Static dielectric constant tensor:
#      x y z
#    x 1.831060 0.000000 0.378420 
#    y 0.000000 2.177670 0.000000 
#    z 0.378420 0.000000 2.020730 
# 
# From -- ./inp_files/40266.got.cif
#   From: 2010.05.17/outbox.cif.g08.bks.cpg/sg14_21_cif.got.tgz:40266.got - 2010.06.03 17:49:19.
