data_PCOD9244458
_publ_section_title
;
Structure prediction by ZEFSAII (Michael W. Deem and Ramdas Pophale) SiO2 
 PCOD9244458
Probable space group: P 21/C
;
_chemical_formula_sum "Si O2"
_cell_formula_units_Z 28
_cell_length_a 8.000543
_cell_length_b 17.029142
_cell_length_c 9.112257
_cell_angle_alpha 90.000000
_cell_angle_beta 115.261295
_cell_angle_gamma 90.000000
_cell_volume 1122.754581
_symmetry_space_group_name_H-M "P 21/C"
_symmetry_group_IT_number 14
_symmetry_cell_setting 'monoclinic'
loop_
_space_group_symop_operation_xyz
x,y,z
-x,1/2+y,1/2-z
-x,-y,-z
x,1/2-y,1/2+z
loop_
_atom_site_type_symbol
_atom_site_label
_atom_site_fract_x
_atom_site_fract_y
_atom_site_fract_z
Si Si1 0.754617 0.809353 0.879758
Si Si2 0.622022 0.945925 0.376015
Si Si3 0.592865 0.585177 0.544266
Si Si4 0.123984 0.574459 0.003696
Si Si5 0.742963 0.143642 0.703396
Si Si6 0.104308 0.169466 0.371359
Si Si7 0.393017 0.767173 0.086506
O O1 0.709061 0.890250 0.946050
O O2 0.827107 0.749264 0.028874
O O3 0.900922 0.819796 0.803691
O O4 0.572048 0.768261 0.739435
O O5 0.410453 0.921132 0.311329
O O6 0.736234 0.895336 0.536362
O O7 0.670767 0.037277 0.407896
O O8 0.687557 0.916761 0.240128
O O9 0.500000 0.500000 0.500000
O O10 0.452812 0.658104 0.511307
O O11 0.094933 0.600864 0.824525
O O12 0.000000 0.500000 0.000000
O O13 0.072622 0.637860 0.106907
O O14 0.674910 0.200416 0.547252
O O15 0.750201 0.198305 0.848108
#
# Coordination Sequence:
#
# PCOD9244458 Si02
#       7
#     4   4   4   4   4   4   4
#     4  12  19  40  65  94 126 171 222 262 332 393
#     4  10  20  41  63  91 129 167 216 271 327 378
#     4  11  23  36  61 104 132 159 214 289 331 374
#     4  10  25  39  58  94 133 173 215 261 330 395
#     4  11  21  38  67  92 123 167 220 274 312 387
#     4  11  21  39  66  90 125 176 217 257 321 408
#     4  11  20  37  64  97 120 161 222 271 321 381
#
# _framework density 24.938662000000001
#
# number of rings (size 3 to 8) (size 9 to 14) (size 15 to 20)
#    0.000    1.143    7.143    0.429    2.000    5.714 
#    0.000    0.714    0.000    0.000    0.000    0.000 
#    0.000    0.000    0.000    0.000    0.000    0.000 
#
# Total GULP energy -156635.502999 kJ/mol
# GULP energy per Si atom -5594.125107 kJ/mol
# Density = 2.488190 g / cm^3
# Si number density = 24.938662 Si / 1000 Ang^3
#
#
#
# Elastic Constant Matrix: (Units=GPa)
#
#
# Indices 1 2 3 4 5 6 
#
# 1 79.6520 38.6928 45.4411 0.0000 -29.9854 0.0000
# 2 38.6928 124.7188 28.2766 0.0000 -13.9445 0.0000
# 3 45.4411 28.2766 127.6241 0.0000 -42.7290 0.0000
# 4 0.0000 0.0000 0.0000 46.2171 0.0000 -16.0024
# 5 -29.9854 -13.9445 -42.7290 0.0000 44.4797 0.0000
# 6 0.0000 0.0000 0.0000 -16.0024 0.0000 47.2119
#
#
#
# Elastic Compliance Matrix: (Units=1/GPa)
#
#
# Indices 1 2 3 4 5 6 
#
# 1 0.019877 -0.004461 -0.003053 0.000000 0.009069 0.000000
# 2 -0.004461 0.009491 -0.000774 0.000000 -0.000775 0.000000
# 3 -0.003053 -0.000774 0.012270 0.000000 0.009486 0.000000
# 4 0.000000 0.000000 0.000000 0.024514 0.000000 0.008309
# 5 0.009069 -0.000775 0.009486 0.000000 0.037466 0.000000
# 6 0.000000 0.000000 0.000000 0.008309 0.000000 0.023997
#
#
# Mechanical properties :
#
#
# Convention : Reuss Voigt Hill
#
# Bulk Modulus (GPa) = 39.89961 61.86842 50.88401
# Shear Modulus (GPa) = 32.77739 42.22070 37.49905
#
# Velocity S-wave (km/s) = 3.62929 4.11905 3.88190
# Velocity P-wave (km/s) = 5.79622 6.89088 6.36712
#
# Compressibility (1/GPa) = 0.02506290
#
# Stress axis : x y z
#
# Youngs Moduli (GPa) = 50.30942 105.36615 81.49913
#
# Poissons Ratio (x) = 0.46999 0.24879
# Poissons Ratio (y) = 0.22441 0.06309
# Poissons Ratio (z) = 0.15358 0.08157
#
# Static dielectric constant tensor:
#      x y z
#    x 2.122090 0.000000 0.005580 
#    y 0.000000 1.984410 0.000000 
#    z 0.005580 0.000000 1.968460 
# 
# From -- ./inp_files/9446.got.cif
#   From: 2010.05.17/outbox.cif.g08.bks.cpg/sg14_5_cif.got.tgz:9446.got - 2010.06.03 17:49:19.
