data_PCOD9244724
_publ_section_title
;
Structure prediction by ZEFSAII (Michael W. Deem and Ramdas Pophale) SiO2 
 PCOD9244724
Probable space group: P 21/C
;
_chemical_formula_sum "Si O2"
_cell_formula_units_Z 28
_cell_length_a 9.356382
_cell_length_b 19.003512
_cell_length_c 10.182428
_cell_angle_alpha 90.000000
_cell_angle_beta 41.886185
_cell_angle_gamma 90.000000
_cell_volume 1208.770944
_symmetry_space_group_name_H-M "P 21/C"
_symmetry_group_IT_number 14
_symmetry_cell_setting 'monoclinic'
loop_
_space_group_symop_operation_xyz
x,y,z
-x,1/2+y,1/2-z
-x,-y,-z
x,1/2-y,1/2+z
loop_
_atom_site_type_symbol
_atom_site_label
_atom_site_fract_x
_atom_site_fract_y
_atom_site_fract_z
Si Si1 0.723302 0.578160 0.553013
Si Si2 0.875072 0.841217 0.478834
Si Si3 0.615782 0.308527 0.951087
Si Si4 0.949056 0.105079 0.387233
Si Si5 0.346361 0.482796 0.889586
Si Si6 0.472083 0.230739 0.810215
Si Si7 0.807778 0.906242 0.276858
O O1 0.700756 0.596014 0.125538
O O2 0.574535 0.512304 0.692608
O O3 0.573285 0.647789 0.644457
O O4 0.871754 0.586397 0.582294
O O5 0.001731 0.841654 0.527500
O O6 0.758703 0.768609 0.527606
O O7 0.964819 0.870764 0.277653
O O8 0.562978 0.255525 0.104521
O O9 0.404817 0.357372 0.082148
O O10 0.626301 0.264934 0.811534
O O11 0.807520 0.355314 0.874310
O O12 0.148421 0.074549 0.169486
O O13 0.821124 0.041381 0.542019
O O14 0.281020 0.475888 0.089249
#
# Coordination Sequence:
#
# PCOD9244724 Si02
#       7
#     4   4   4   4   4   4   4
#     4  11  22  38  69  91 126 168 210 257 315 375
#     4   9  22  39  67  88 129 168 209 257 317 373
#     4  10  21  39  65  89 124 163 210 260 310 370
#     4  12  23  38  64  98 122 162 216 260 307 375
#     4  10  21  43  65  90 134 162 207 259 323 360
#     4  10  20  43  64  87 125 175 202 256 321 367
#     4   8  19  40  62  86 126 170 193 254 316 364
#
# _framework density 23.164024000000001
#
# number of rings (size 3 to 8) (size 9 to 14) (size 15 to 20)
#    0.857    1.143    2.857    1.714    0.000    2.286 
#    0.000    1.429    6.286    0.000    0.000    0.000 
#    0.000    0.000    0.000    0.000    0.000    0.000 
#
# Total GULP energy -156012.067725 kJ/mol
# GULP energy per Si atom -5571.859562 kJ/mol
# Density = 2.311130 g / cm^3
# Si number density = 23.164024 Si / 1000 Ang^3
#
#
#
# Elastic Constant Matrix: (Units=GPa)
#
#
# Indices 1 2 3 4 5 6 
#
# 1 88.7761 4.0407 24.6832 0.0000 32.6225 0.0000
# 2 4.0407 48.3613 -2.8321 0.0000 0.9945 0.0000
# 3 24.6832 -2.8321 39.2802 0.0000 5.5606 0.0000
# 4 0.0000 0.0000 0.0000 22.2000 0.0000 6.1855
# 5 32.6225 0.9945 5.5606 0.0000 16.4784 0.0000
# 6 0.0000 0.0000 0.0000 6.1855 0.0000 24.4103
#
#
#
# Elastic Compliance Matrix: (Units=1/GPa)
#
#
# Indices 1 2 3 4 5 6 
#
# 1 0.052698 -0.003544 -0.019566 0.000000 -0.097510 0.000000
# 2 -0.003544 0.021057 0.003079 0.000000 0.004706 0.000000
# 3 -0.019566 0.003079 0.034149 0.000000 0.027026 0.000000
# 4 0.000000 0.000000 0.000000 0.048467 0.000000 -0.012281
# 5 -0.097510 0.004706 0.027026 0.000000 0.244323 0.000000
# 6 0.000000 0.000000 0.000000 -0.012281 0.000000 0.044078
#
#
# Mechanical properties :
#
#
# Convention : Reuss Voigt Hill
#
# Bulk Modulus (GPa) = 14.74008 25.35568 20.04788
# Shear Modulus (GPa) = 9.85322 22.65279 16.25300
#
# Velocity S-wave (km/s) = 2.06468 3.13058 2.65174
# Velocity P-wave (km/s) = 3.47290 4.90278 4.24843
#
# Compressibility (1/GPa) = 0.06784223
#
# Stress axis : x y z
#
# Youngs Moduli (GPa) = 18.97623 47.48947 29.28309
#
# Poissons Ratio (x) = 0.16829 0.57296
# Poissons Ratio (y) = 0.06725 -0.09016
# Poissons Ratio (z) = 0.37129 -0.14622
#
# Static dielectric constant tensor:
#      x y z
#    x 1.995780 0.000000 -0.006320 
#    y 0.000000 1.873060 0.000000 
#    z -0.006320 0.000000 1.871370 
# 
# From -- ./inp_files/25417.got.cif
#   From: 2010.05.17/outbox.cif.g08.bks.cpg/sg14_13_cif.got.tgz:25417.got - 2010.06.03 17:49:19.
