data_PCOD9244856
_publ_section_title
;
Structure prediction by ZEFSAII (Michael W. Deem and Ramdas Pophale) SiO2 
 PCOD9244856
Probable space group: P 21/C
;
_chemical_formula_sum "Si O2"
_cell_formula_units_Z 24
_cell_length_a 10.204875
_cell_length_b 5.522492
_cell_length_c 19.990436
_cell_angle_alpha 90.000000
_cell_angle_beta 71.797570
_cell_angle_gamma 90.000000
_cell_volume 1070.212017
_symmetry_space_group_name_H-M "P 21/C"
_symmetry_group_IT_number 14
_symmetry_cell_setting 'monoclinic'
loop_
_space_group_symop_operation_xyz
x,y,z
-x,1/2+y,1/2-z
-x,-y,-z
x,1/2-y,1/2+z
loop_
_atom_site_type_symbol
_atom_site_label
_atom_site_fract_x
_atom_site_fract_y
_atom_site_fract_z
Si Si1 0.141831 0.499993 0.280556
Si Si2 0.465528 0.500000 0.585433
Si Si3 0.983456 1.000000 0.922628
Si Si4 0.116681 0.500000 0.037778
Si Si5 0.574959 0.500000 0.060840
Si Si6 0.186005 0.999993 0.204673
O O1 0.130362 0.500000 0.362678
O O2 0.203584 0.748485 0.242692
O O3 0.976743 0.499994 0.288872
O O4 0.203583 0.251495 0.242695
O O5 0.500000 0.500000 0.500000
O O6 0.530115 0.749771 0.601833
O O7 0.304793 0.500002 0.629484
O O8 0.530113 0.250227 0.601833
O O9 0.907103 0.747442 0.918328
O O10 0.907103 0.252557 0.918328
O O11 0.000000 0.000000 0.000000
O O12 0.264052 0.500001 0.980267
O O13 0.000000 0.500000 0.000000
O O14 0.500000 0.500000 0.000000
#
# Coordination Sequence:
#
# PCOD9244856 Si02
#       6
#     4   4   4   4   4   4
#     4  10  21  35  57  82 122 160 193 250 295 369
#     4  10  21  35  53  85 120 158 191 240 293 374
#     4  10  21  36  59  87 113 159 201 256 289 342
#     4  10  21  36  55  86 121 150 196 254 294 345
#     4  10  21  32  53  86 115 155 188 242 308 343
#     4  10  21  36  53  86 122 160 192 234 322 359
#
# _framework density 22.425464000000002
#
# number of rings (size 3 to 8) (size 9 to 14) (size 15 to 20)
#    0.000    2.000    0.000    3.000    9.333    0.000 
#    0.000    0.000    0.000    0.000    0.000   93.333 
#    0.000    0.000    0.000    0.000    0.000    0.000 
#
# Total GULP energy -133937.910897 kJ/mol
# GULP energy per Si atom -5580.746287 kJ/mol
# Density = 2.237442 g / cm^3
# Si number density = 22.425464 Si / 1000 Ang^3
#
#
#
# Elastic Constant Matrix: (Units=GPa)
#
#
# Indices 1 2 3 4 5 6 
#
# 1 69.8520 26.5281 23.7145 0.0000 -28.5540 0.0000
# 2 26.5281 278.7710 57.6824 0.0000 -24.9356 0.0000
# 3 23.7145 57.6824 139.7763 0.0000 -26.0978 0.0000
# 4 0.0000 0.0000 0.0000 41.6690 0.0000 -14.3105
# 5 -28.5540 -24.9356 -26.0978 0.0000 33.7675 0.0000
# 6 0.0000 0.0000 0.0000 -14.3105 0.0000 11.6158
#
#
#
# Elastic Compliance Matrix: (Units=1/GPa)
#
#
# Indices 1 2 3 4 5 6 
#
# 1 0.021936 -0.000435 -0.000162 0.000000 0.018103 0.000000
# 2 -0.000435 0.004041 -0.001292 0.000000 0.001618 0.000000
# 3 -0.000162 -0.001292 0.008778 0.000000 0.005693 0.000000
# 4 0.000000 0.000000 0.000000 0.041600 0.000000 0.051251
# 5 0.018103 0.001618 0.005693 0.000000 0.050517 0.000000
# 6 0.000000 0.000000 0.000000 0.051251 0.000000 0.149230
#
#
# Mechanical properties :
#
#
# Convention : Reuss Voigt Hill
#
# Bulk Modulus (GPa) = 32.28150 78.24993 55.26571
# Shear Modulus (GPa) = 17.22925 42.77541 30.00233
#
# Velocity S-wave (km/s) = 2.77481 4.37217 3.66166
# Velocity P-wave (km/s) = 4.96914 7.77541 6.52493
#
# Compressibility (1/GPa) = 0.03097750
#
# Stress axis : x y z
#
# Youngs Moduli (GPa) = 45.58665 247.49363 113.92381
#
# Poissons Ratio (x) = 0.10756 0.01849
# Poissons Ratio (y) = 0.01981 0.14714
# Poissons Ratio (z) = 0.00740 0.31966
#
# Static dielectric constant tensor:
#      x y z
#    x 1.872500 0.000000 0.070940 
#    y 0.000000 2.088370 0.000000 
#    z 0.070940 0.000000 1.878310 
# 
# From -- ./inp_files/72731.got.cif
#   From: 2010.05.17/outbox.cif.g08.bks.cpg/sg14_37_cif.got.tgz:72731.got - 2010.06.03 17:49:19.
