data_PCOD9244144
_publ_section_title
;
Structure prediction by ZEFSAII (Michael W. Deem and Ramdas Pophale) SiO2 
 PCOD9244144
Probable space group: P 21/C
;
_chemical_formula_sum "Si O2"
_cell_formula_units_Z 32
_cell_length_a 8.231318
_cell_length_b 12.051123
_cell_length_c 14.992794
_cell_angle_alpha 90.000000
_cell_angle_beta 84.571133
_cell_angle_gamma 90.000000
_cell_volume 1480.563471
_symmetry_space_group_name_H-M "P 21/C"
_symmetry_group_IT_number 14
_symmetry_cell_setting 'monoclinic'
loop_
_space_group_symop_operation_xyz
x,y,z
-x,1/2+y,1/2-z
-x,-y,-z
x,1/2-y,1/2+z
loop_
_atom_site_type_symbol
_atom_site_label
_atom_site_fract_x
_atom_site_fract_y
_atom_site_fract_z
Si Si1 0.809372 0.380073 0.822979
Si Si2 0.158456 0.716705 0.836618
Si Si3 0.163193 0.122790 0.709099
Si Si4 0.437308 0.621727 0.529216
Si Si5 0.494025 0.225712 0.643829
Si Si6 0.072231 0.622154 0.496429
Si Si7 0.473459 0.302755 0.844992
Si Si8 0.878348 0.786943 0.619000
O O1 0.817792 0.270761 0.761429
O O2 0.825654 0.493717 0.767553
O O3 0.628608 0.370913 0.873244
O O4 0.967757 0.367838 0.876356
O O5 0.330899 0.664590 0.856208
O O6 0.998593 0.641894 0.841262
O O7 0.124839 0.822868 0.900939
O O8 0.330842 0.153981 0.651196
O O9 0.146861 0.207051 0.792927
O O10 0.500000 0.500000 0.500000
O O11 0.492389 0.699394 0.444248
O O12 0.239921 0.622506 0.544659
O O13 0.508260 0.678247 0.614823
O O14 0.481628 0.298027 0.736540
O O15 0.000000 0.500000 0.500000
O O16 0.932879 0.702868 0.540192
O O17 0.296005 0.343906 0.883800
#
# Coordination Sequence:
#
# PCOD9244144 Si02
#       8
#     4   4   4   4   4   4   4   4
#     4  10  20  40  59  86 119 161 208 246 310 371
#     4   9  21  38  59  87 124 153 198 262 299 377
#     4  10  21  38  63  84 119 166 204 252 311 376
#     4  11  23  40  67  98 125 166 214 264 322 378
#     4   9  22  40  59  92 127 161 208 257 316 377
#     4  11  21  36  62  94 125 153 197 265 322 365
#     4  10  21  40  62  87 133 162 200 268 307 380
#     4  10  21  38  59  92 120 156 205 253 314 371
#
# _framework density 21.613394
#
# number of rings (size 3 to 8) (size 9 to 14) (size 15 to 20)
#    0.000    2.000    1.250    1.500    3.500    6.000 
#    2.250    1.250    0.000    0.000    0.000    0.000 
#    0.000    0.000    0.000    0.000    0.000    0.000 
#
# Total GULP energy -178467.504755 kJ/mol
# GULP energy per Si atom -5577.109524 kJ/mol
# Density = 2.156420 g / cm^3
# Si number density = 21.613394 Si / 1000 Ang^3
#
#
#
# Elastic Constant Matrix: (Units=GPa)
#
#
# Indices 1 2 3 4 5 6 
#
# 1 193.1250 21.2892 12.4593 0.0000 -11.6021 0.0000
# 2 21.2892 46.5479 1.0434 0.0000 -3.1935 0.0000
# 3 12.4593 1.0434 46.4203 0.0000 -9.4628 0.0000
# 4 0.0000 0.0000 0.0000 16.3879 0.0000 -2.8380
# 5 -11.6021 -3.1935 -9.4628 0.0000 20.7152 0.0000
# 6 0.0000 0.0000 0.0000 -2.8380 0.0000 17.6302
#
#
#
# Elastic Compliance Matrix: (Units=1/GPa)
#
#
# Indices 1 2 3 4 5 6 
#
# 1 0.005647 -0.002400 -0.000984 0.000000 0.002343 0.000000
# 2 -0.002400 0.022735 0.000632 0.000000 0.002450 0.000000
# 3 -0.000984 0.000632 0.023928 0.000000 0.010477 0.000000
# 4 0.000000 0.000000 0.000000 0.062771 0.000000 0.010105
# 5 0.002343 0.002450 0.010477 0.000000 0.054750 0.000000
# 6 0.000000 0.000000 0.000000 0.010105 0.000000 0.058347
#
#
# Mechanical properties :
#
#
# Convention : Reuss Voigt Hill
#
# Bulk Modulus (GPa) = 21.36446 39.51966 30.44206
# Shear Modulus (GPa) = 20.05759 27.70006 23.87883
#
# Velocity S-wave (km/s) = 3.04964 3.58385 3.32748
# Velocity P-wave (km/s) = 4.72300 5.95397 5.37385
#
# Compressibility (1/GPa) = 0.04680670
#
# Stress axis : x y z
#
# Youngs Moduli (GPa) = 177.09184 43.98559 41.79221
#
# Poissons Ratio (x) = 0.10556 0.04112
# Poissons Ratio (y) = 0.42499 -0.02643
# Poissons Ratio (z) = 0.17426 -0.02782
#
# Static dielectric constant tensor:
#      x y z
#    x 1.874260 0.000000 0.015670 
#    y 0.000000 1.224040 0.000000 
#    z 0.015670 0.000000 1.797440 
# 
# From -- ./inp_files/40075.got.cif
#   From: 2010.05.17/outbox.cif.g08.bks.cpg/sg14_21_cif.got.tgz:40075.got - 2010.06.03 17:49:19.
