data_PCOD9244003
_publ_section_title
;
Structure prediction by ZEFSAII (Michael W. Deem and Ramdas Pophale) SiO2 
 PCOD9244003
Probable space group: P 21/C
;
_chemical_formula_sum "Si O2"
_cell_formula_units_Z 32
_cell_length_a 11.719465
_cell_length_b 11.223311
_cell_length_c 12.167962
_cell_angle_alpha 90.000000
_cell_angle_beta 102.716847
_cell_angle_gamma 90.000000
_cell_volume 1561.206977
_symmetry_space_group_name_H-M "P 21/C"
_symmetry_group_IT_number 14
_symmetry_cell_setting 'monoclinic'
loop_
_space_group_symop_operation_xyz
x,y,z
-x,1/2+y,1/2-z
-x,-y,-z
x,1/2-y,1/2+z
loop_
_atom_site_type_symbol
_atom_site_label
_atom_site_fract_x
_atom_site_fract_y
_atom_site_fract_z
Si Si1 0.109751 0.583886 0.990119
Si Si2 0.520521 0.518084 0.671014
Si Si3 0.868848 0.573831 0.599949
Si Si4 0.222545 0.664543 0.804785
Si Si5 0.619712 0.835013 0.999483
Si Si6 0.884917 0.143533 0.935536
Si Si7 0.481504 0.895012 0.408662
Si Si8 0.774698 0.071059 0.263809
O O1 0.146288 0.582013 0.870213
O O2 0.100378 0.726271 0.009062
O O3 0.208964 0.555697 0.102578
O O4 0.000000 0.500000 0.000000
O O5 0.422331 0.436770 0.594386
O O6 0.553151 0.628359 0.598330
O O7 0.493305 0.556976 0.787746
O O8 0.640335 0.442252 0.701471
O O9 0.758685 0.655671 0.544862
O O10 0.867137 0.456099 0.523427
O O11 0.847314 0.531347 0.718933
O O12 0.994835 0.627558 0.605819
O O13 0.216659 0.624679 0.676383
O O14 0.351015 0.659810 0.884886
O O15 0.183859 0.801927 0.776401
O O16 0.575108 0.708092 0.950766
O O17 0.500000 0.000000 0.500000
#
# Coordination Sequence:
#
# PCOD9244003 Si02
#       8
#     4   4   4   4   4   4   4   4
#     4  11  23  38  63  91 126 161 211 258 317 375
#     4  10  22  42  64  89 126 167 214 259 328 393
#     4  10  20  41  63  89 121 159 221 255 321 380
#     4  11  22  40  61  90 125 163 214 253 324 393
#     4  10  23  41  66  92 126 173 212 272 331 396
#     4  10  22  38  64  89 120 169 207 266 310 391
#     4  12  26  39  66 100 133 164 218 279 334 389
#     4  10  20  39  64  86 119 169 207 254 310 390
#
# _framework density 20.496962
#
# number of rings (size 3 to 8) (size 9 to 14) (size 15 to 20)
#    0.000    1.500    2.500    2.250    1.750    4.000 
#    0.000    0.000    0.000    0.000    0.000    0.000 
#    0.000    0.000    0.000    0.000    0.000    0.000 
#
# Total GULP energy -178547.278145 kJ/mol
# GULP energy per Si atom -5579.602442 kJ/mol
# Density = 2.045031 g / cm^3
# Si number density = 20.496962 Si / 1000 Ang^3
#
#
#
# Elastic Constant Matrix: (Units=GPa)
#
#
# Indices 1 2 3 4 5 6 
#
# 1 35.3515 9.2377 -0.0044 0.0000 0.6856 0.0000
# 2 9.2377 43.3210 14.5960 0.0000 -2.2455 0.0000
# 3 -0.0044 14.5960 90.5304 0.0000 -10.2252 0.0000
# 4 0.0000 0.0000 0.0000 19.3313 0.0000 5.6680
# 5 0.6856 -2.2455 -10.2252 0.0000 32.1570 0.0000
# 6 0.0000 0.0000 0.0000 5.6680 0.0000 21.6160
#
#
#
# Elastic Compliance Matrix: (Units=1/GPa)
#
#
# Indices 1 2 3 4 5 6 
#
# 1 0.030078 -0.006794 0.001007 0.000000 -0.000796 0.000000
# 2 -0.006794 0.025951 -0.004111 0.000000 0.000650 0.000000
# 3 0.001007 -0.004111 0.012109 0.000000 0.003542 0.000000
# 4 0.000000 0.000000 0.000000 0.056038 0.000000 -0.014694
# 5 -0.000796 0.000650 0.003542 0.000000 0.032286 0.000000
# 6 0.000000 0.000000 0.000000 -0.014694 0.000000 0.050115
#
#
# Mechanical properties :
#
#
# Convention : Reuss Voigt Hill
#
# Bulk Modulus (GPa) = 20.68608 24.09573 22.39090
# Shear Modulus (GPa) = 20.61961 24.31244 22.46602
#
# Velocity S-wave (km/s) = 3.17517 3.44779 3.31428
# Velocity P-wave (km/s) = 4.85349 5.25651 5.05902
#
# Compressibility (1/GPa) = 0.04834169
#
# Stress axis : x y z
#
# Youngs Moduli (GPa) = 33.24651 38.53403 82.58387
#
# Poissons Ratio (x) = 0.26182 -0.08317
# Poissons Ratio (y) = 0.22589 0.33950
# Poissons Ratio (z) = -0.03348 0.15841
#
# Static dielectric constant tensor:
#      x y z
#    x 1.741190 0.000000 -0.013330 
#    y 0.000000 1.724280 0.000000 
#    z -0.013330 0.000000 1.739980 
# 
# From -- ./inp_files/29079.got.cif
#   From: 2010.05.17/outbox.cif.g08.bks.cpg/sg14_15_cif.got.tgz:29079.got - 2010.06.03 17:49:19.
