data_PCOD9244333
_publ_section_title
;
Structure prediction by ZEFSAII (Michael W. Deem and Ramdas Pophale) SiO2 
 PCOD9244333
Probable space group: P 21/C
;
_chemical_formula_sum "Si O2"
_cell_formula_units_Z 32
_cell_length_a 9.664703
_cell_length_b 18.621523
_cell_length_c 12.019466
_cell_angle_alpha 90.000000
_cell_angle_beta 141.363208
_cell_angle_gamma 90.000000
_cell_volume 1350.637431
_symmetry_space_group_name_H-M "P 21/C"
_symmetry_group_IT_number 14
_symmetry_cell_setting 'monoclinic'
loop_
_space_group_symop_operation_xyz
x,y,z
-x,1/2+y,1/2-z
-x,-y,-z
x,1/2-y,1/2+z
loop_
_atom_site_type_symbol
_atom_site_label
_atom_site_fract_x
_atom_site_fract_y
_atom_site_fract_z
Si Si1 0.834991 0.039068 0.679715
Si Si2 0.639289 0.565249 0.238839
Si Si3 0.966266 0.312041 0.775540
Si Si4 0.494248 0.987305 0.865594
Si Si5 0.446526 0.850898 0.140004
Si Si6 0.676916 0.779466 0.677335
Si Si7 0.943540 0.048421 0.360403
Si Si8 0.749510 0.184219 0.742474
O O1 0.614914 0.048313 0.462064
O O2 0.862353 0.115461 0.755738
O O3 0.781920 0.981349 0.742343
O O4 0.028602 0.006681 0.725310
O O5 0.664976 0.541257 0.382120
O O6 0.698183 0.648452 0.263230
O O7 0.753253 0.343965 0.575719
O O8 0.073141 0.381495 0.901348
O O9 0.902432 0.253677 0.827072
O O10 0.117589 0.275461 0.777200
O O11 0.456162 0.068965 0.799190
O O12 0.298360 0.927972 0.747456
O O13 0.500000 0.000000 0.000000
O O14 0.623223 0.790894 0.214415
O O15 0.336055 0.834012 0.189087
O O16 0.464211 0.796206 0.466368
O O17 0.000000 0.000000 0.500000
#
# Coordination Sequence:
#
# PCOD9244333 Si02
#       8
#     4   4   4   4   4   4   4   4
#     4  10  20  40  66  98 119 167 227 273 316 387
#     4  10  20  40  68  92 125 168 223 276 321 382
#     4  11  25  45  62 101 134 172 225 276 330 408
#     4  12  25  43  64  96 139 173 216 280 343 391
#     4  11  25  44  63  97 137 174 215 282 346 392
#     4  10  24  43  69  92 129 177 227 270 333 405
#     4  12  25  40  69  97 131 174 231 275 323 401
#     4  10  24  43  69  92 134 174 220 277 337 395
#
# _framework density 23.692516000000001
#
# number of rings (size 3 to 8) (size 9 to 14) (size 15 to 20)
#    0.000    1.250    5.000    0.000    5.250    2.000 
#    2.250    1.875    0.000    0.000    0.000    0.000 
#    0.000    0.000    0.000    0.000    0.000    0.000 
#
# Total GULP energy -178746.730842 kJ/mol
# GULP energy per Si atom -5585.835339 kJ/mol
# Density = 2.363859 g / cm^3
# Si number density = 23.692516 Si / 1000 Ang^3
#
#
#
# Elastic Constant Matrix: (Units=GPa)
#
#
# Indices 1 2 3 4 5 6 
#
# 1 159.0894 54.6950 28.4656 0.0000 -39.3588 0.0000
# 2 54.6950 125.8997 16.7941 0.0000 -26.4384 0.0000
# 3 28.4656 16.7941 49.0654 0.0000 -28.8036 0.0000
# 4 0.0000 0.0000 0.0000 24.9645 0.0000 -9.8729
# 5 -39.3588 -26.4384 -28.8036 0.0000 49.9178 0.0000
# 6 0.0000 0.0000 0.0000 -9.8729 0.0000 48.2059
#
#
#
# Elastic Compliance Matrix: (Units=1/GPa)
#
#
# Indices 1 2 3 4 5 6 
#
# 1 0.008550 -0.002567 -0.001395 0.000000 0.004577 0.000000
# 2 -0.002567 0.009713 -0.000005 0.000000 0.003117 0.000000
# 3 -0.001395 -0.000005 0.031069 0.000000 0.016825 0.000000
# 4 0.000000 0.000000 0.000000 0.043587 0.000000 0.008927
# 5 0.004577 0.003117 0.016825 0.000000 0.035001 0.000000
# 6 0.000000 0.000000 0.000000 0.008927 0.000000 0.022573
#
#
# Mechanical properties :
#
#
# Convention : Reuss Voigt Hill
#
# Bulk Modulus (GPa) = 24.15578 59.32931 41.74254
# Shear Modulus (GPa) = 29.03129 40.22431 34.62780
#
# Velocity S-wave (km/s) = 3.50428 4.12486 3.82717
# Velocity P-wave (km/s) = 5.15664 6.91243 6.09806
#
# Compressibility (1/GPa) = 0.04139795
#
# Stress axis : x y z
#
# Youngs Moduli (GPa) = 116.95383 102.94960 32.18651
#
# Poissons Ratio (x) = 0.26431 0.04489
# Poissons Ratio (y) = 0.30026 0.00017
# Poissons Ratio (z) = 0.16313 0.00054
#
# Static dielectric constant tensor:
#      x y z
#    x 7.268480 0.000000 3.772070 
#    y 0.000000 1.815190 0.000000 
#    z 3.772070 0.000000 4.622620 
# 
# From -- ./inp_files/26270.got.cif
#   From: 2010.05.17/outbox.cif.g08.bks.cpg/sg14_14_cif.got.tgz:26270.got - 2010.06.03 17:49:19.
