data_PCOD9244836
_publ_section_title
;
Structure prediction by ZEFSAII (Michael W. Deem and Ramdas Pophale) SiO2 
 PCOD9244836
Probable space group: P 21/C
;
_chemical_formula_sum "Si O2"
_cell_formula_units_Z 20
_cell_length_a 6.849536
_cell_length_b 24.034540
_cell_length_c 7.227928
_cell_angle_alpha 90.000000
_cell_angle_beta 140.616469
_cell_angle_gamma 90.000000
_cell_volume 755.002071
_symmetry_space_group_name_H-M "P 21/C"
_symmetry_group_IT_number 14
_symmetry_cell_setting 'monoclinic'
loop_
_space_group_symop_operation_xyz
x,y,z
-x,1/2+y,1/2-z
-x,-y,-z
x,1/2-y,1/2+z
loop_
_atom_site_type_symbol
_atom_site_label
_atom_site_fract_x
_atom_site_fract_y
_atom_site_fract_z
Si Si1 0.300026 0.445794 0.133087
Si Si2 0.383232 0.565115 0.259070
Si Si3 0.959090 0.716334 0.073153
Si Si4 0.368197 0.661582 0.682739
Si Si5 0.499293 0.685882 0.198173
O O1 0.340860 0.509944 0.104603
O O2 0.366595 0.446563 0.401200
O O3 0.554654 0.403813 0.237562
O O4 0.942506 0.427465 0.869045
O O5 0.497258 0.620787 0.244106
O O6 0.089851 0.684371 0.352651
O O7 0.223832 0.788834 0.616660
O O8 0.669083 0.680704 0.789221
O O9 0.795451 0.776778 0.966286
O O10 0.416341 0.688451 0.920251
#
# Coordination Sequence:
#
# PCOD9244836 Si02
#       5
#     4   4   4   4   4
#     4  10  20  46  80 117 157 205 256 338 408 479
#     4  10  22  44  81 115 160 202 261 336 409 470
#     4  12  32  51  74 117 165 208 276 333 400 474
#     4  12  28  50  83 115 161 213 270 331 403 492
#     4  12  30  53  82 117 162 220 270 335 402 488
#
# _framework density 26.489992999999998
#
# number of rings (size 3 to 8) (size 9 to 14) (size 15 to 20)
#    0.000    0.800    4.000    0.000    5.600    7.200 
#    0.000    0.000    0.000    9.600    0.000    0.000 
#    0.000    0.000    0.000    0.000    0.000    0.000 
#
# Total GULP energy -111849.058669 kJ/mol
# GULP energy per Si atom -5592.452933 kJ/mol
# Density = 2.642970 g / cm^3
# Si number density = 26.489993 Si / 1000 Ang^3
#
#
#
# Elastic Constant Matrix: (Units=GPa)
#
#
# Indices 1 2 3 4 5 6 
#
# 1 105.0523 50.1749 37.5886 0.0000 1.7240 0.0000
# 2 50.1749 232.2905 55.3433 0.0000 -8.8259 0.0000
# 3 37.5886 55.3433 145.8624 0.0000 23.7638 0.0000
# 4 0.0000 0.0000 0.0000 38.6036 0.0000 8.2897
# 5 1.7240 -8.8259 23.7638 0.0000 45.1677 0.0000
# 6 0.0000 0.0000 0.0000 8.2897 0.0000 49.0456
#
#
#
# Elastic Compliance Matrix: (Units=1/GPa)
#
#
# Indices 1 2 3 4 5 6 
#
# 1 0.011209 -0.001873 -0.002241 0.000000 0.000385 0.000000
# 2 -0.001873 0.005225 -0.001835 0.000000 0.002058 0.000000
# 3 -0.002241 -0.001835 0.008940 0.000000 -0.004977 0.000000
# 4 0.000000 0.000000 0.000000 0.026880 0.000000 -0.004543
# 5 0.000385 0.002058 -0.004977 0.000000 0.025146 0.000000
# 6 0.000000 0.000000 0.000000 -0.004543 0.000000 0.021157
#
#
# Mechanical properties :
#
#
# Convention : Reuss Voigt Hill
#
# Bulk Modulus (GPa) = 74.20024 85.49101 79.84562
# Shear Modulus (GPa) = 43.49866 49.23659 46.36763
#
# Velocity S-wave (km/s) = 4.05665 4.31593 4.18830
# Velocity P-wave (km/s) = 7.07201 7.56170 7.32095
#
# Compressibility (1/GPa) = 0.01347705
#
# Stress axis : x y z
#
# Youngs Moduli (GPa) = 89.21473 191.39279 111.85287
#
# Poissons Ratio (x) = 0.35841 0.25064
# Poissons Ratio (y) = 0.16707 0.20526
# Poissons Ratio (z) = 0.19991 0.35123
#
# Static dielectric constant tensor:
#      x y z
#    x 2.079480 0.000000 -0.006600 
#    y 0.000000 2.294850 0.000000 
#    z -0.006600 0.000000 2.019200 
# 
# From -- ./inp_files/10763.got.cif
#   From: 2010.05.17/outbox.cif.g08.bks.cpg/sg14_6_cif.got.tgz:10763.got - 2010.06.03 17:49:19.
