data_PCOD9244334
_publ_section_title
;
Structure prediction by ZEFSAII (Michael W. Deem and Ramdas Pophale) SiO2 
 PCOD9244334
Probable space group: P 21/C
;
_chemical_formula_sum "Si O2"
_cell_formula_units_Z 28
_cell_length_a 11.250309
_cell_length_b 15.073701
_cell_length_c 11.618325
_cell_angle_alpha 90.000000
_cell_angle_beta 144.499720
_cell_angle_gamma 90.000000
_cell_volume 1144.155046
_symmetry_space_group_name_H-M "P 21/C"
_symmetry_group_IT_number 14
_symmetry_cell_setting 'monoclinic'
loop_
_space_group_symop_operation_xyz
x,y,z
-x,1/2+y,1/2-z
-x,-y,-z
x,1/2-y,1/2+z
loop_
_atom_site_type_symbol
_atom_site_label
_atom_site_fract_x
_atom_site_fract_y
_atom_site_fract_z
Si Si1 0.315551 0.590746 0.961094
Si Si2 0.044045 0.313931 0.304528
Si Si3 0.310838 0.495322 0.196860
Si Si4 0.212350 0.995096 0.872071
Si Si5 0.135409 0.666092 0.483029
Si Si6 0.254102 0.085464 0.278286
Si Si7 0.377159 0.178028 0.615022
O O1 0.270149 0.516887 0.828429
O O2 0.184250 0.676336 0.822778
O O3 0.261814 0.552367 0.045102
O O4 0.558106 0.604683 0.156937
O O5 0.110044 0.414623 0.334860
O O6 0.230956 0.262749 0.510026
O O7 0.981983 0.255990 0.143694
O O8 0.548882 0.509788 0.414084
O O9 0.308468 0.392341 0.157543
O O10 0.811177 0.483908 0.783297
O O11 0.141218 0.907211 0.883511
O O12 0.375196 0.686437 0.693372
O O13 0.970349 0.616757 0.435521
O O14 0.317480 0.135041 0.445827
#
# Coordination Sequence:
#
# PCOD9244334 Si02
#       7
#     4   4   4   4   4   4   4
#     4  10  20  40  67 100 135 181 230 285 354 414
#     4  11  23  40  64 103 138 180 236 287 344 419
#     4   9  21  43  73  96 136 187 227 291 353 415
#     4  10  21  44  70 100 139 179 236 287 348 418
#     4  10  21  44  67 100 140 184 231 289 350 415
#     4   9  19  42  65  93 138 179 231 283 337 423
#     4   9  21  43  63  98 142 179 236 287 341 413
#
# _framework density 24.472207999999998
#
# number of rings (size 3 to 8) (size 9 to 14) (size 15 to 20)
#    0.000    2.286    1.429    0.000    2.000    0.571 
#   20.571    2.857    0.000    0.000    0.000    0.000 
#    0.000    0.000    0.000    0.000    0.000    0.000 
#
# Total GULP energy -156396.632564 kJ/mol
# GULP energy per Si atom -5585.594020 kJ/mol
# Density = 2.441651 g / cm^3
# Si number density = 24.472208 Si / 1000 Ang^3
#
#
#
# Elastic Constant Matrix: (Units=GPa)
#
#
# Indices 1 2 3 4 5 6 
#
# 1 71.7093 23.4334 48.6847 0.0000 21.6447 0.0000
# 2 23.4334 60.4377 51.9609 0.0000 8.8201 0.0000
# 3 48.6847 51.9609 184.1360 0.0000 7.4661 0.0000
# 4 0.0000 0.0000 0.0000 49.6396 0.0000 9.8348
# 5 21.6447 8.8201 7.4661 0.0000 37.0449 0.0000
# 6 0.0000 0.0000 0.0000 9.8348 0.0000 15.9412
#
#
#
# Elastic Compliance Matrix: (Units=1/GPa)
#
#
# Indices 1 2 3 4 5 6 
#
# 1 0.021066 -0.002885 -0.004320 0.000000 -0.010751 0.000000
# 2 -0.002885 0.022843 -0.005577 0.000000 -0.002629 0.000000
# 3 -0.004320 -0.005577 0.008056 0.000000 0.002228 0.000000
# 4 0.000000 0.000000 0.000000 0.022950 0.000000 -0.014159
# 5 -0.010751 -0.002629 0.002228 0.000000 0.033453 0.000000
# 6 0.000000 0.000000 0.000000 -0.014159 0.000000 0.071466
#
#
# Mechanical properties :
#
#
# Convention : Reuss Voigt Hill
#
# Bulk Modulus (GPa) = 37.87586 62.71566 50.29576
# Shear Modulus (GPa) = 23.34303 33.33873 28.34088
#
# Velocity S-wave (km/s) = 3.09181 3.69495 3.40676
# Velocity P-wave (km/s) = 5.31568 6.62469 6.00595
#
# Compressibility (1/GPa) = 0.02640204
#
# Stress axis : x y z
#
# Youngs Moduli (GPa) = 47.47058 43.77780 124.12894
#
# Poissons Ratio (x) = 0.12630 0.53619
# Poissons Ratio (y) = 0.13696 0.69221
# Poissons Ratio (z) = 0.20505 0.24413
#
# Static dielectric constant tensor:
#      x y z
#    x 2.034910 0.000000 0.037020 
#    y 0.000000 1.965470 0.000000 
#    z 0.037020 0.000000 1.997760 
# 
# From -- ./inp_files/69399.got.cif
#   From: 2010.05.17/outbox.cif.g08.bks.cpg/sg14_35_cif.got.tgz:69399.got - 2010.06.03 17:49:19.
