data_PCOD9244551
_publ_section_title
;
Structure prediction by ZEFSAII (Michael W. Deem and Ramdas Pophale) SiO2 
 PCOD9244551
Probable space group: P 21/C
;
_chemical_formula_sum "Si O2"
_cell_formula_units_Z 20
_cell_length_a 28.335536
_cell_length_b 7.446457
_cell_length_c 18.415796
_cell_angle_alpha 90.000000
_cell_angle_beta 165.569976
_cell_angle_gamma 90.000000
_cell_volume 968.311598
_symmetry_space_group_name_H-M "P 21/C"
_symmetry_group_IT_number 14
_symmetry_cell_setting 'monoclinic'
loop_
_space_group_symop_operation_xyz
x,y,z
-x,1/2+y,1/2-z
-x,-y,-z
x,1/2-y,1/2+z
loop_
_atom_site_type_symbol
_atom_site_label
_atom_site_fract_x
_atom_site_fract_y
_atom_site_fract_z
Si Si1 0.754664 0.758736 0.962646
Si Si2 0.685005 0.305198 0.682966
Si Si3 0.753606 0.704413 0.790704
Si Si4 0.629237 0.126954 0.744620
Si Si5 0.943590 0.030980 0.998299
O O1 0.894791 0.643658 0.219883
O O2 0.541378 0.690965 0.658506
O O3 0.794372 0.720889 0.937217
O O4 0.753552 0.976974 0.970625
O O5 0.768735 0.498663 0.791049
O O6 0.731199 0.250437 0.836207
O O7 0.760682 0.154301 0.741702
O O8 0.530935 0.764990 0.450022
O O9 0.891777 0.840390 0.956418
O O10 0.500000 0.000000 0.500000
O O11 0.000000 0.000000 0.000000
#
# Coordination Sequence:
#
# PCOD9244551 Si02
#       5
#     4   4   4   4   4
#     4  10  20  41  70  96 125 184 217 275 345 389
#     4  10  20  42  69  97 134 169 226 287 331 395
#     4  10  20  41  70  97 131 172 228 283 323 404
#     4   8  14  36  68  96 117 164 224 276 328 387
#     4  12  26  43  62 104 144 172 228 279 336 414
#
# _framework density 20.654508
#
# number of rings (size 3 to 8) (size 9 to 14) (size 15 to 20)
#    0.000    2.400    6.000    2.400    2.800    0.800 
#    7.200    0.000    0.000    0.000    0.000    0.000 
#    0.000    0.000    0.000    0.000    0.000    0.000 
#
# Total GULP energy -111599.891634 kJ/mol
# GULP energy per Si atom -5579.994582 kJ/mol
# Density = 2.060750 g / cm^3
# Si number density = 20.654508 Si / 1000 Ang^3
#
#
#
# Elastic Constant Matrix: (Units=GPa)
#
#
# Indices 1 2 3 4 5 6 
#
# 1 143.1222 53.1757 -5.0199 0.0000 26.4080 0.0000
# 2 53.1757 164.1236 8.2888 0.0000 8.3040 0.0000
# 3 -5.0199 8.2888 336.6209 0.0000 -94.9113 0.0000
# 4 0.0000 0.0000 0.0000 30.6877 0.0000 -1.7101
# 5 26.4080 8.3040 -94.9113 0.0000 56.4224 0.0000
# 6 0.0000 0.0000 0.0000 -1.7101 0.0000 3.3416
#
#
#
# Elastic Compliance Matrix: (Units=1/GPa)
#
#
# Indices 1 2 3 4 5 6 
#
# 1 0.009115 -0.002524 -0.001712 0.000000 -0.006774 0.000000
# 2 -0.002524 0.006945 -0.000312 0.000000 -0.000365 0.000000
# 3 -0.001712 -0.000312 0.006071 0.000000 0.011060 0.000000
# 4 0.000000 0.000000 0.000000 0.033543 0.000000 0.017166
# 5 -0.006774 -0.000365 0.011060 0.000000 0.039552 0.000000
# 6 0.000000 0.000000 0.000000 0.017166 0.000000 0.308043
#
#
# Mechanical properties :
#
#
# Convention : Reuss Voigt Hill
#
# Bulk Modulus (GPa) = 76.71111 84.08399 80.39755
# Shear Modulus (GPa) = 11.99877 57.25182 34.62529
#
# Velocity S-wave (km/s) = 2.41286 5.27058 4.09883
# Velocity P-wave (km/s) = 6.70696 8.82251 7.83645
#
# Compressibility (1/GPa) = 0.01303592
#
# Stress axis : x y z
#
# Youngs Moduli (GPa) = 109.71278 143.99049 164.71217
#
# Poissons Ratio (x) = 0.36342 0.28199
# Poissons Ratio (y) = 0.27691 0.05131
# Poissons Ratio (z) = 0.18783 0.04485
#
# Static dielectric constant tensor:
#      x y z
#    x 1.712540 0.000000 0.027560 
#    y 0.000000 1.798120 0.000000 
#    z 0.027560 0.000000 1.824290 
# 
# From -- ./inp_files/51305.got.cif
#   From: 2010.05.17/outbox.cif.g08.bks.cpg/sg14_26_cif.got.tgz:51305.got - 2010.06.03 17:49:19.
