data_PCOD9244047
_publ_section_title
;
Structure prediction by ZEFSAII (Michael W. Deem and Ramdas Pophale) SiO2 
 PCOD9244047
Probable space group: P 21/C
;
_chemical_formula_sum "Si O2"
_cell_formula_units_Z 24
_cell_length_a 15.461677
_cell_length_b 5.918185
_cell_length_c 14.513369
_cell_angle_alpha 90.000000
_cell_angle_beta 129.083529
_cell_angle_gamma 90.000000
_cell_volume 1030.866661
_symmetry_space_group_name_H-M "P 21/C"
_symmetry_group_IT_number 14
_symmetry_cell_setting 'monoclinic'
loop_
_space_group_symop_operation_xyz
x,y,z
-x,1/2+y,1/2-z
-x,-y,-z
x,1/2-y,1/2+z
loop_
_atom_site_type_symbol
_atom_site_label
_atom_site_fract_x
_atom_site_fract_y
_atom_site_fract_z
Si Si1 0.649725 0.115136 0.952293
Si Si2 0.747779 0.657134 0.754505
Si Si3 0.933764 0.319671 0.895241
Si Si4 0.431149 0.856036 0.776500
Si Si5 0.627237 0.060149 0.604543
Si Si6 0.140798 0.058840 0.010437
O O1 0.603005 0.309601 0.851084
O O2 0.560182 0.911722 0.880574
O O3 0.770428 0.026872 0.003582
O O4 0.652192 0.233875 0.052750
O O5 0.834671 0.462555 0.781979
O O6 0.632753 0.557725 0.715801
O O7 0.802283 0.763793 0.882384
O O8 0.714239 0.853387 0.660140
O O9 0.886119 0.147587 0.939011
O O10 0.000000 0.500000 0.000000
O O11 0.024844 0.174311 0.899067
O O12 0.380462 0.641053 0.795154
O O13 0.500000 0.000000 0.500000
#
# Coordination Sequence:
#
# PCOD9244047 Si02
#       6
#     4   4   4   4   4   4
#     4  12  23  39  67  98 142 188 242 286 356 443
#     4  11  20  41  64  95 141 182 227 292 362 418
#     4   9  19  37  68 100 125 169 234 294 353 418
#     4  12  24  44  62 101 144 181 227 292 354 428
#     4  12  25  41  60 103 143 194 232 282 361 440
#     4  10  20  39  65 105 123 181 235 291 356 425
#
# _framework density 23.281382000000001
#
# number of rings (size 3 to 8) (size 9 to 14) (size 15 to 20)
#    0.000    1.000    5.000    2.500    0.000    0.000 
#    0.000    0.000    0.000    0.000   73.667    0.000 
#    0.000    0.000    0.000    0.000    0.000    0.000 
#
# Total GULP energy -134113.452923 kJ/mol
# GULP energy per Si atom -5588.060538 kJ/mol
# Density = 2.322839 g / cm^3
# Si number density = 23.281382 Si / 1000 Ang^3
#
#
#
# Elastic Constant Matrix: (Units=GPa)
#
#
# Indices 1 2 3 4 5 6 
#
# 1 161.7548 59.3989 40.4263 0.0000 32.0476 0.0000
# 2 59.3989 86.7783 21.1785 0.0000 14.5971 0.0000
# 3 40.4263 21.1785 83.3446 0.0000 4.2809 0.0000
# 4 0.0000 0.0000 0.0000 58.7636 0.0000 19.8136
# 5 32.0476 14.5971 4.2809 0.0000 28.8210 0.0000
# 6 0.0000 0.0000 0.0000 19.8136 0.0000 43.8630
#
#
#
# Elastic Compliance Matrix: (Units=1/GPa)
#
#
# Indices 1 2 3 4 5 6 
#
# 1 0.010589 -0.004936 -0.003432 0.000000 -0.008765 0.000000
# 2 -0.004936 0.015632 -0.001464 0.000000 -0.002211 0.000000
# 3 -0.003432 -0.001464 0.013907 0.000000 0.002492 0.000000
# 4 0.000000 0.000000 0.000000 0.020075 0.000000 -0.009068
# 5 -0.008765 -0.002211 0.002492 0.000000 0.045192 0.000000
# 6 0.000000 0.000000 0.000000 -0.009068 0.000000 0.026894
#
#
# Mechanical properties :
#
#
# Convention : Reuss Voigt Hill
#
# Bulk Modulus (GPa) = 48.86796 63.76502 56.31649
# Shear Modulus (GPa) = 31.49114 40.34779 35.91946
#
# Velocity S-wave (km/s) = 3.68180 4.16751 3.93216
# Velocity P-wave (km/s) = 6.25380 7.11378 6.69760
#
# Compressibility (1/GPa) = 0.02046330
#
# Stress axis : x y z
#
# Youngs Moduli (GPa) = 94.43732 63.97283 71.90621
#
# Poissons Ratio (x) = 0.31579 0.24676
# Poissons Ratio (y) = 0.46617 0.10529
# Poissons Ratio (z) = 0.32408 0.09367
#
# Static dielectric constant tensor:
#      x y z
#    x 1.922220 0.000000 0.342260 
#    y 0.000000 3.453710 0.000000 
#    z 0.342260 0.000000 3.283600 
# 
# From -- ./inp_files/45991.got.cif
#   From: 2010.05.17/outbox.cif.g08.bks.cpg/sg14_23_cif.got.tgz:45991.got - 2010.06.03 17:49:19.
