data_PCOD9244670
_publ_section_title
;
Structure prediction by ZEFSAII (Michael W. Deem and Ramdas Pophale) SiO2 
 PCOD9244670
Probable space group: P 21/C
;
_chemical_formula_sum "Si O2"
_cell_formula_units_Z 32
_cell_length_a 17.791578
_cell_length_b 11.130930
_cell_length_c 22.797282
_cell_angle_alpha 90.000000
_cell_angle_beta 161.921939
_cell_angle_gamma 90.000000
_cell_volume 1400.967911
_symmetry_space_group_name_H-M "P 21/C"
_symmetry_group_IT_number 14
_symmetry_cell_setting 'monoclinic'
loop_
_space_group_symop_operation_xyz
x,y,z
-x,1/2+y,1/2-z
-x,-y,-z
x,1/2-y,1/2+z
loop_
_atom_site_type_symbol
_atom_site_label
_atom_site_fract_x
_atom_site_fract_y
_atom_site_fract_z
Si Si1 0.645541 0.286586 0.039313
Si Si2 0.118417 0.919807 0.037973
Si Si3 0.912245 0.521216 0.265962
Si Si4 0.348393 0.106498 0.025348
Si Si5 0.812333 0.351086 0.925269
Si Si6 0.308230 0.108742 0.857353
Si Si7 0.406210 0.923340 0.620487
Si Si8 0.137302 0.351521 0.883137
O O1 0.756349 0.400815 0.155264
O O2 0.864569 0.193506 0.189626
O O3 0.447204 0.219953 0.930268
O O4 0.571993 0.342671 0.921719
O O5 0.358731 0.993503 0.199006
O O6 0.153696 0.780026 0.078481
O O7 0.952931 0.921011 0.858047
O O8 0.000000 0.000000 0.000000
O O9 0.164912 0.482900 0.421928
O O10 0.799785 0.613153 0.136809
O O11 0.629587 0.076341 0.246597
O O12 0.268672 0.121474 0.898385
O O13 0.298456 0.236607 0.017625
O O14 0.661663 0.342873 0.874545
O O15 0.068385 0.403878 0.138394
O O16 0.500000 0.000000 0.000000
O O17 0.198155 0.025302 0.460766
#
# Coordination Sequence:
#
# PCOD9244670 Si02
#       8
#     4   4   4   4   4   4   4   4
#     4  10  22  39  65  95 129 171 223 283 339 409
#     4  12  25  41  65 100 136 174 227 292 350 405
#     4  10  21  40  66  92 127 175 225 273 345 408
#     4  11  23  42  69  97 132 179 230 279 342 422
#     4  12  25  45  69  99 137 183 233 284 343 428
#     4  12  26  45  66  98 141 179 224 288 347 412
#     4  11  22  42  67  96 134 174 227 283 345 416
#     4  10  20  42  68  96 126 176 229 280 339 418
#
# _framework density 22.841352000000001
#
# number of rings (size 3 to 8) (size 9 to 14) (size 15 to 20)
#    0.000    1.000    2.500    6.000    1.750    0.500 
#    0.000    3.125    0.000    0.000    0.000    0.000 
#    0.000    0.000    0.000    0.000    0.000    0.000 
#
# Total GULP energy -178801.811686 kJ/mol
# GULP energy per Si atom -5587.556615 kJ/mol
# Density = 2.278936 g / cm^3
# Si number density = 22.841352 Si / 1000 Ang^3
#
#
#
# Elastic Constant Matrix: (Units=GPa)
#
#
# Indices 1 2 3 4 5 6 
#
# 1 31.0943 17.7139 -0.6887 0.0000 4.9225 0.0000
# 2 17.7139 71.5012 26.2383 0.0000 8.7788 0.0000
# 3 -0.6887 26.2383 114.2474 0.0000 -4.6989 0.0000
# 4 0.0000 0.0000 0.0000 16.6540 0.0000 4.8633
# 5 4.9225 8.7788 -4.6989 0.0000 23.1347 0.0000
# 6 0.0000 0.0000 0.0000 4.8633 0.0000 23.8183
#
#
#
# Elastic Compliance Matrix: (Units=1/GPa)
#
#
# Indices 1 2 3 4 5 6 
#
# 1 0.038483 -0.009909 0.002345 0.000000 -0.003952 0.000000
# 2 -0.009909 0.018881 -0.004643 0.000000 -0.005999 0.000000
# 3 0.002345 -0.004643 0.009969 0.000000 0.003287 0.000000
# 4 0.000000 0.000000 0.000000 0.063853 0.000000 -0.013038
# 5 -0.003952 -0.005999 0.003287 0.000000 0.047010 0.000000
# 6 0.000000 0.000000 0.000000 -0.013038 0.000000 0.044647
#
#
# Mechanical properties :
#
#
# Convention : Reuss Voigt Hill
#
# Bulk Modulus (GPa) = 23.29976 33.70776 28.50376
# Shear Modulus (GPa) = 19.11590 24.29334 21.70462
#
# Velocity S-wave (km/s) = 2.89606 3.26478 3.08593
# Velocity P-wave (km/s) = 4.62663 5.38526 5.02030
#
# Compressibility (1/GPa) = 0.04291890
#
# Stress axis : x y z
#
# Youngs Moduli (GPa) = 25.98555 52.96321 100.31555
#
# Poissons Ratio (x) = 0.52483 -0.23527
# Poissons Ratio (y) = 0.25750 0.46574
# Poissons Ratio (z) = -0.06094 0.24589
#
# Static dielectric constant tensor:
#      x y z
#    x 1.877840 0.000000 0.003260 
#    y 0.000000 1.907340 0.000000 
#    z 0.003260 0.000000 1.979600 
# 
# From -- ./inp_files/74410.got.cif
#   From: 2010.05.17/outbox.cif.g08.bks.cpg/sg14_38_cif.got.tgz:74410.got - 2010.06.03 17:49:19.
