data_PCOD9244002
_publ_section_title
;
Structure prediction by ZEFSAII (Michael W. Deem and Ramdas Pophale) SiO2 
 PCOD9244002
Probable space group: P 21/C
;
_chemical_formula_sum "Si O2"
_cell_formula_units_Z 28
_cell_length_a 9.093403
_cell_length_b 12.895223
_cell_length_c 12.146991
_cell_angle_alpha 90.000000
_cell_angle_beta 113.127660
_cell_angle_gamma 90.000000
_cell_volume 1309.899793
_symmetry_space_group_name_H-M "P 21/C"
_symmetry_group_IT_number 14
_symmetry_cell_setting 'monoclinic'
loop_
_space_group_symop_operation_xyz
x,y,z
-x,1/2+y,1/2-z
-x,-y,-z
x,1/2-y,1/2+z
loop_
_atom_site_type_symbol
_atom_site_label
_atom_site_fract_x
_atom_site_fract_y
_atom_site_fract_z
Si Si1 0.593478 0.465529 0.742320
Si Si2 0.820318 0.399027 0.626140
Si Si3 0.850892 0.619261 0.901157
Si Si4 0.304656 0.161174 0.207935
Si Si5 0.986293 0.393634 0.276678
Si Si6 0.913730 0.686148 0.154967
Si Si7 0.270853 0.562759 0.635573
O O1 0.660050 0.428486 0.644335
O O2 0.739371 0.518685 0.849505
O O3 0.492524 0.369601 0.763279
O O4 0.462043 0.556927 0.693461
O O5 0.935692 0.497581 0.669101
O O6 0.790326 0.378282 0.489910
O O7 0.921529 0.318096 0.726959
O O8 0.749245 0.726492 0.851912
O O9 0.985198 0.617945 0.845448
O O10 0.917693 0.624389 0.043571
O O11 0.229608 0.152754 0.307745
O O12 0.233296 0.061910 0.120025
O O13 0.096755 0.308064 0.368148
O O14 0.811631 0.394382 0.279155
#
# Coordination Sequence:
#
# PCOD9244002 Si02
#       7
#     4   4   4   4   4   4   4
#     4   9  22  38  62  89 120 164 196 246 309 356
#     4  11  20  38  63  90 121 152 208 254 295 362
#     4  10  22  41  61  90 126 153 208 250 302 369
#     4   9  21  41  62  89 119 165 204 245 304 358
#     4  10  22  36  63  88 114 161 203 251 294 355
#     4  11  23  37  63  92 119 164 198 255 309 346
#     4  10  20  39  64  86 118 157 211 243 297 354
#
# _framework density 21.375682000000001
#
# number of rings (size 3 to 8) (size 9 to 14) (size 15 to 20)
#    0.857    1.143    1.429    1.714    4.000    4.000 
#    0.000    0.000    3.143    0.000    0.000    0.000 
#    0.000    0.000    0.000    0.000    0.000    0.000 
#
# Total GULP energy -155995.333872 kJ/mol
# GULP energy per Si atom -5571.261924 kJ/mol
# Density = 2.132703 g / cm^3
# Si number density = 21.375682 Si / 1000 Ang^3
#
#
#
# Elastic Constant Matrix: (Units=GPa)
#
#
# Indices 1 2 3 4 5 6 
#
# 1 131.9726 11.6917 36.8819 0.0000 -29.7356 0.0000
# 2 11.6917 54.7259 12.4048 0.0000 -0.4027 0.0000
# 3 36.8819 12.4048 46.1637 0.0000 -3.5731 0.0000
# 4 0.0000 0.0000 0.0000 22.5990 0.0000 -1.2494
# 5 -29.7356 -0.4027 -3.5731 0.0000 15.4199 0.0000
# 6 0.0000 0.0000 0.0000 -1.2494 0.0000 31.7978
#
#
#
# Elastic Compliance Matrix: (Units=1/GPa)
#
#
# Indices 1 2 3 4 5 6 
#
# 1 0.018301 -0.000987 -0.011839 0.000000 0.032523 0.000000
# 2 -0.000987 0.019519 -0.004648 0.000000 -0.002471 0.000000
# 3 -0.011839 -0.004648 0.031152 0.000000 -0.015733 0.000000
# 4 0.000000 0.000000 0.000000 0.044346 0.000000 0.001742
# 5 0.032523 -0.002471 -0.015733 0.000000 0.123859 0.000000
# 6 0.000000 0.000000 0.000000 0.001742 0.000000 0.031517
#
#
# Mechanical properties :
#
#
# Convention : Reuss Voigt Hill
#
# Bulk Modulus (GPa) = 29.39044 39.42431 34.40737
# Shear Modulus (GPa) = 15.87385 25.42227 20.64806
#
# Velocity S-wave (km/s) = 2.72805 3.45238 3.11136
# Velocity P-wave (km/s) = 4.86850 5.86306 5.38877
#
# Compressibility (1/GPa) = 0.03402467
#
# Stress axis : x y z
#
# Youngs Moduli (GPa) = 54.64050 51.23192 32.10079
#
# Poissons Ratio (x) = 0.05057 0.38005
# Poissons Ratio (y) = 0.05393 0.14919
# Poissons Ratio (z) = 0.64690 0.23811
#
# Static dielectric constant tensor:
#      x y z
#    x 1.793540 0.000000 0.011770 
#    y 0.000000 1.861350 0.000000 
#    z 0.011770 0.000000 1.780460 
# 
# From -- ./inp_files/24970.got.cif
#   From: 2010.05.17/outbox.cif.g08.bks.cpg/sg14_13_cif.got.tgz:24970.got - 2010.06.03 17:49:19.
