data_PCOD9244506
_publ_section_title
;
Structure prediction by ZEFSAII (Michael W. Deem and Ramdas Pophale) SiO2 
 PCOD9244506
Probable space group: P 21/C
;
_chemical_formula_sum "Si O2"
_cell_formula_units_Z 28
_cell_length_a 14.160126
_cell_length_b 14.715125
_cell_length_c 8.941282
_cell_angle_alpha 90.000000
_cell_angle_beta 35.142669
_cell_angle_gamma 90.000000
_cell_volume 1072.414065
_symmetry_space_group_name_H-M "P 21/C"
_symmetry_group_IT_number 14
_symmetry_cell_setting 'monoclinic'
loop_
_space_group_symop_operation_xyz
x,y,z
-x,1/2+y,1/2-z
-x,-y,-z
x,1/2-y,1/2+z
loop_
_atom_site_type_symbol
_atom_site_label
_atom_site_fract_x
_atom_site_fract_y
_atom_site_fract_z
Si Si1 0.347601 0.503900 0.019342
Si Si2 0.124186 0.221237 0.576322
Si Si3 0.157605 0.837749 0.422964
Si Si4 0.330427 0.708855 0.985394
Si Si5 0.069020 0.021860 0.620544
Si Si6 0.302496 0.045297 0.908605
Si Si7 0.670616 0.738152 0.456106
O O1 0.338518 0.613730 0.065117
O O2 0.196308 0.489129 0.098169
O O3 0.341831 0.446871 0.179843
O O4 0.539694 0.493510 0.722364
O O5 0.185060 0.200953 0.664020
O O6 0.991244 0.298878 0.780104
O O7 0.067844 0.126992 0.579517
O O8 0.288231 0.241456 0.270289
O O9 0.196220 0.772485 0.235701
O O10 0.304698 0.823992 0.348768
O O11 0.136651 0.944130 0.421970
O O12 0.496589 0.764758 0.746635
O O13 0.877895 0.997092 0.878902
O O14 0.297885 0.137517 0.013208
#
# Coordination Sequence:
#
# PCOD9244506 Si02
#       7
#     4   4   4   4   4   4   4
#     4   9  21  40  70 101 134 187 239 290 358 434
#     4  12  26  45  70 105 141 187 236 295 367 426
#     4  11  23  45  71 102 139 186 236 291 356 428
#     4  10  22  45  68  98 138 183 235 291 348 426
#     4  11  24  43  71 101 146 185 240 301 363 422
#     4  10  20  41  67 100 138 179 238 294 353 428
#     4  11  25  45  69 100 142 183 236 295 361 424
#
# _framework density 26.109318999999999
#
# number of rings (size 3 to 8) (size 9 to 14) (size 15 to 20)
#    0.000    1.429    1.429    3.000    2.000    2.857 
#    7.714   10.000    0.000    0.000    0.000    0.000 
#    0.000    0.000    0.000    0.000    0.000    0.000 
#
# Total GULP energy -156097.855606 kJ/mol
# GULP energy per Si atom -5574.923415 kJ/mol
# Density = 2.604989 g / cm^3
# Si number density = 26.109319 Si / 1000 Ang^3
#
#
#
# Elastic Constant Matrix: (Units=GPa)
#
#
# Indices 1 2 3 4 5 6 
#
# 1 122.1776 -7.2196 20.3520 0.0000 -18.7007 0.0000
# 2 -7.2196 112.7389 13.0200 0.0000 -18.8928 0.0000
# 3 20.3520 13.0200 107.6837 0.0000 -26.5967 0.0000
# 4 0.0000 0.0000 0.0000 -10.9015 0.0000 -2.6185
# 5 -18.7007 -18.8928 -26.5967 0.0000 32.0622 0.0000
# 6 0.0000 0.0000 0.0000 -2.6185 0.0000 28.4301
#
#
#
# Elastic Compliance Matrix: (Units=1/GPa)
#
#
# Indices 1 2 3 4 5 6 
#
# 1 0.009279 0.001653 -0.000473 0.000000 0.005994 0.000000
# 2 0.001653 0.010144 0.000221 0.000000 0.007125 0.000000
# 3 -0.000473 0.000221 0.011713 0.000000 0.009570 0.000000
# 4 0.000000 0.000000 0.000000 -0.089745 0.000000 -0.008266
# 5 0.005994 0.007125 0.009570 0.000000 0.046823 0.000000
# 6 0.000000 0.000000 0.000000 -0.008266 0.000000 0.034413
#
#
# Mechanical properties :
#
#
# Convention : Reuss Voigt Hill
#
# Bulk Modulus (GPa) = 29.46565 43.87833 36.67199
# Shear Modulus (GPa) = 160.58008 31.01471 95.79739
#
# Velocity S-wave (km/s) = 7.85089 3.45030 6.06387
# Velocity P-wave (km/s) = 9.66913 5.71969 7.94377
#
# Compressibility (1/GPa) = 0.03393782
#
# Stress axis : x y z
#
# Youngs Moduli (GPa) = 107.77366 98.57610 85.37534
#
# Poissons Ratio (x) = -0.16297 0.04040
# Poissons Ratio (y) = -0.17818 -0.01885
# Poissons Ratio (z) = 0.05100 -0.02177
#
# Static dielectric constant tensor:
#      x y z
#    x 2.075080 0.000000 -0.043800 
#    y 0.000000 2.031770 0.000000 
#    z -0.043800 0.000000 2.041790 
# 
# From -- ./inp_files/16391.got.cif
#   From: 2010.05.17/outbox.cif.g08.bks.cpg/sg14_9_cif.got.tgz:16391.got - 2010.06.03 17:49:19.
