data_PCOD9244417
_publ_section_title
;
Structure prediction by ZEFSAII (Michael W. Deem and Ramdas Pophale) SiO2 
 PCOD9244417
Probable space group: P 21/C
;
_chemical_formula_sum "Si O2"
_cell_formula_units_Z 32
_cell_length_a 16.495028
_cell_length_b 5.548458
_cell_length_c 13.928095
_cell_angle_alpha 90.000000
_cell_angle_beta 105.733801
_cell_angle_gamma 90.000000
_cell_volume 1226.965159
_symmetry_space_group_name_H-M "P 21/C"
_symmetry_group_IT_number 14
_symmetry_cell_setting 'monoclinic'
loop_
_space_group_symop_operation_xyz
x,y,z
-x,1/2+y,1/2-z
-x,-y,-z
x,1/2-y,1/2+z
loop_
_atom_site_type_symbol
_atom_site_label
_atom_site_fract_x
_atom_site_fract_y
_atom_site_fract_z
Si Si1 0.669809 0.079647 0.980160
Si Si2 0.874623 0.779064 0.905981
Si Si3 0.959577 0.547648 0.770359
Si Si4 0.559495 0.697721 0.889532
Si Si5 0.713221 0.447554 0.839225
Si Si6 0.827342 0.782429 0.093585
Si Si7 0.778649 0.071260 0.724824
Si Si8 0.609751 0.479912 0.107975
O O1 0.639954 0.249152 0.055912
O O2 0.735790 0.879500 0.035741
O O3 0.720492 0.238379 0.920813
O O4 0.588704 0.973532 0.898544
O O5 0.945081 0.620545 0.876102
O O6 0.787320 0.632992 0.881040
O O7 0.848627 0.996476 0.826023
O O8 0.888376 0.823756 0.022182
O O9 0.867800 0.560828 0.691360
O O10 0.995607 0.283940 0.761576
O O11 0.623129 0.562029 0.837980
O O12 0.465203 0.605561 0.847377
O O13 0.576854 0.645105 0.009847
O O14 0.736115 0.316646 0.747826
O O15 0.818831 0.511692 0.135434
O O16 0.690475 0.916681 0.690390
#
# Coordination Sequence:
#
# PCOD9244417 Si02
#       8
#     4   4   4   4   4   4   4   4
#     4  11  20  41  67 100 133 185 252 292 361 432
#     4  11  25  47  75 104 143 184 243 299 358 458
#     4  11  30  51  77 117 153 187 237 305 382 466
#     4  10  20  41  58  98 137 184 244 302 368 421
#     4  11  22  39  66  95 138 182 247 302 351 436
#     4  11  23  45  76 104 141 193 240 300 365 451
#     4  11  23  41  64 104 139 189 249 298 354 423
#     4  10  22  35  66  92 140 189 237 307 364 416
#
# _framework density 26.080611000000001
#
# number of rings (size 3 to 8) (size 9 to 14) (size 15 to 20)
#    0.000    1.250    3.750    1.125    7.000    2.000 
#    4.500    0.000    0.000    0.000    0.000    0.000 
#    0.000    0.000    0.000    0.000    0.000    0.000 
#
# Total GULP energy -178743.529692 kJ/mol
# GULP energy per Si atom -5585.735303 kJ/mol
# Density = 2.602125 g / cm^3
# Si number density = 26.080611 Si / 1000 Ang^3
#
#
#
# Elastic Constant Matrix: (Units=GPa)
#
#
# Indices 1 2 3 4 5 6 
#
# 1 90.4695 22.2661 15.9839 0.0000 -26.9692 0.0000
# 2 22.2661 50.9483 17.6202 0.0000 -18.4238 0.0000
# 3 15.9839 17.6202 97.5380 0.0000 -23.1116 0.0000
# 4 0.0000 0.0000 0.0000 37.9025 0.0000 -4.6012
# 5 -26.9692 -18.4238 -23.1116 0.0000 45.5815 0.0000
# 6 0.0000 0.0000 0.0000 -4.6012 0.0000 29.4252
#
#
#
# Elastic Compliance Matrix: (Units=1/GPa)
#
#
# Indices 1 2 3 4 5 6 
#
# 1 0.013978 -0.003647 -0.000024 0.000000 0.006784 0.000000
# 2 -0.003647 0.024369 -0.002253 0.000000 0.006550 0.000000
# 3 -0.000024 -0.002253 0.011870 0.000000 0.005094 0.000000
# 4 0.000000 0.000000 0.000000 0.026894 0.000000 0.004205
# 5 0.006784 0.006550 0.005094 0.000000 0.031183 0.000000
# 6 0.000000 0.000000 0.000000 0.004205 0.000000 0.034642
#
#
# Mechanical properties :
#
#
# Convention : Reuss Voigt Hill
#
# Bulk Modulus (GPa) = 26.06282 38.96626 32.51454
# Shear Modulus (GPa) = 29.83762 34.78756 32.31259
#
# Velocity S-wave (km/s) = 3.38606 3.65615 3.52369
# Velocity P-wave (km/s) = 5.03011 5.72681 5.38973
#
# Compressibility (1/GPa) = 0.03836883
#
# Stress axis : x y z
#
# Youngs Moduli (GPa) = 71.54308 41.03533 84.24372
#
# Poissons Ratio (x) = 0.14966 0.00205
# Poissons Ratio (y) = 0.26093 0.18977
# Poissons Ratio (z) = 0.00174 0.09244
#
# Static dielectric constant tensor:
#      x y z
#    x 2.083550 0.000000 0.017930 
#    y 0.000000 2.129690 0.000000 
#    z 0.017930 0.000000 2.133820 
# 
# From -- ./inp_files/47985.got.cif
#   From: 2010.05.17/outbox.cif.g08.bks.cpg/sg14_24_cif.got.tgz:47985.got - 2010.06.03 17:49:19.
