data_PCOD9244730
_publ_section_title
;
Structure prediction by ZEFSAII (Michael W. Deem and Ramdas Pophale) SiO2 
 PCOD9244730
Probable space group: P 21/C
;
_chemical_formula_sum "Si O2"
_cell_formula_units_Z 24
_cell_length_a 9.605825
_cell_length_b 16.793004
_cell_length_c 9.510472
_cell_angle_alpha 90.000000
_cell_angle_beta 41.674945
_cell_angle_gamma 90.000000
_cell_volume 1020.055831
_symmetry_space_group_name_H-M "P 21/C"
_symmetry_group_IT_number 14
_symmetry_cell_setting 'monoclinic'
loop_
_space_group_symop_operation_xyz
x,y,z
-x,1/2+y,1/2-z
-x,-y,-z
x,1/2-y,1/2+z
loop_
_atom_site_type_symbol
_atom_site_label
_atom_site_fract_x
_atom_site_fract_y
_atom_site_fract_z
Si Si1 0.463257 0.153164 0.881398
Si Si2 0.458381 0.624413 0.141306
Si Si3 0.074276 0.114823 0.823210
Si Si4 0.774919 0.986748 0.046096
Si Si5 0.135574 0.743952 0.882800
Si Si6 0.675856 0.786609 0.714596
O O1 0.384684 0.063388 0.927231
O O2 0.709353 0.171386 0.703461
O O3 0.390000 0.201383 0.798514
O O4 0.354373 0.193778 0.099215
O O5 0.352841 0.539552 0.244426
O O6 0.296611 0.689104 0.196329
O O7 0.515485 0.656281 0.254152
O O8 0.688139 0.619533 0.903793
O O9 0.088228 0.077376 0.970801
O O10 0.960796 0.199949 0.920503
O O11 0.928888 0.049894 0.855690
O O12 0.919915 0.708151 0.985556
#
# Coordination Sequence:
#
# PCOD9244730 Si02
#       6
#     4   4   4   4   4   4
#     4  11  25  42  65  99 130 172 217 264 329 383
#     4  10  23  41  65  94 130 171 217 268 324 382
#     4  10  20  43  64  96 128 172 220 265 314 387
#     4  10  22  40  65  95 129 172 216 267 318 387
#     4  10  21  39  65  92 129 169 211 268 315 383
#     4  11  24  43  63  96 135 168 217 268 324 388
#
# _framework density 23.528122
#
# number of rings (size 3 to 8) (size 9 to 14) (size 15 to 20)
#    0.000    1.667    1.667    2.500    0.000    8.667 
#    0.000    1.667    0.000    0.000    0.000    0.000 
#    0.000    0.000    0.000    0.000    0.000    0.000 
#
# Total GULP energy -133785.174084 kJ/mol
# GULP energy per Si atom -5574.382254 kJ/mol
# Density = 2.347457 g / cm^3
# Si number density = 23.528122 Si / 1000 Ang^3
#
#
#
# Elastic Constant Matrix: (Units=GPa)
#
#
# Indices 1 2 3 4 5 6 
#
# 1 62.7559 24.1563 30.7666 0.0000 -20.8374 0.0000
# 2 24.1563 55.3020 7.2153 0.0000 -5.7339 0.0000
# 3 30.7666 7.2153 138.4536 0.0000 -30.7400 0.0000
# 4 0.0000 0.0000 0.0000 31.8217 0.0000 -18.5276
# 5 -20.8374 -5.7339 -30.7400 0.0000 56.6307 0.0000
# 6 0.0000 0.0000 0.0000 -18.5276 0.0000 36.5745
#
#
#
# Elastic Compliance Matrix: (Units=1/GPa)
#
#
# Indices 1 2 3 4 5 6 
#
# 1 0.022937 -0.008989 -0.003362 0.000000 0.005705 0.000000
# 2 -0.008989 0.021843 0.000700 0.000000 -0.000716 0.000000
# 3 -0.003362 0.000700 0.008726 0.000000 0.003570 0.000000
# 4 0.000000 0.000000 0.000000 0.044571 0.000000 0.022578
# 5 0.005705 -0.000716 0.003570 0.000000 0.021623 0.000000
# 6 0.000000 0.000000 0.000000 0.022578 0.000000 0.038779
#
#
# Mechanical properties :
#
#
# Convention : Reuss Voigt Hill
#
# Bulk Modulus (GPa) = 33.10699 42.30979 37.70839
# Shear Modulus (GPa) = 26.06208 37.96359 32.01283
#
# Velocity S-wave (km/s) = 3.33182 4.02125 3.69266
# Velocity P-wave (km/s) = 5.37617 6.29144 5.85173
#
# Compressibility (1/GPa) = 0.03020511
#
# Stress axis : x y z
#
# Youngs Moduli (GPa) = 43.59709 45.78035 114.60065
#
# Poissons Ratio (x) = 0.41152 0.38529
# Poissons Ratio (y) = 0.39190 -0.08025
# Poissons Ratio (z) = 0.14657 -0.03206
#
# Static dielectric constant tensor:
#      x y z
#    x 1.943760 0.000000 -0.005420 
#    y 0.000000 1.960400 0.000000 
#    z -0.005420 0.000000 1.933870 
# 
# From -- ./inp_files/30359.got.cif
#   From: 2010.05.17/outbox.cif.g08.bks.cpg/sg14_16_cif.got.tgz:30359.got - 2010.06.03 17:49:19.
