data_PCOD9244129
_publ_section_title
;
Structure prediction by ZEFSAII (Michael W. Deem and Ramdas Pophale) SiO2 
 PCOD9244129
Probable space group: P 21/C
;
_chemical_formula_sum "Si O2"
_cell_formula_units_Z 16
_cell_length_a 9.124482
_cell_length_b 5.136038
_cell_length_c 26.197497
_cell_angle_alpha 90.000000
_cell_angle_beta 147.482632
_cell_angle_gamma 90.000000
_cell_volume 659.962632
_symmetry_space_group_name_H-M "P 21/C"
_symmetry_group_IT_number 14
_symmetry_cell_setting 'monoclinic'
loop_
_space_group_symop_operation_xyz
x,y,z
-x,1/2+y,1/2-z
-x,-y,-z
x,1/2-y,1/2+z
loop_
_atom_site_type_symbol
_atom_site_label
_atom_site_fract_x
_atom_site_fract_y
_atom_site_fract_z
Si Si1 0.340571 0.513834 0.322271
Si Si2 0.981220 0.211903 0.854260
Si Si3 0.197561 0.698276 0.869536
Si Si4 0.147176 0.751141 0.565646
O O1 0.276064 0.713413 0.257425
O O2 0.416161 0.670076 0.395885
O O3 0.548986 0.296149 0.365227
O O4 0.052617 0.364313 0.243304
O O5 0.883310 0.251037 0.882690
O O6 0.209044 0.426760 0.903501
O O7 0.094555 0.925296 0.876763
O O8 0.000000 0.500000 0.500000
O O9 0.000000 0.000000 0.500000
#
# Coordination Sequence:
#
# PCOD9244129 Si02
#       4
#     4   4   4   4
#     4  10  23  41  75  94 135 165 244 276 340 386
#     4  10  22  41  68  97 127 175 237 271 337 390
#     4  10  20  39  73 101 118 167 242 294 314 382
#     4  12  29  43  61 100 148 181 213 277 354 412
#
# _framework density 24.243794999999999
#
# number of rings (size 3 to 8) (size 9 to 14) (size 15 to 20)
#    1.500    0.000    2.500    1.500    7.000    0.000 
#    0.000    7.500    0.000    0.000    0.000    0.000 
#    0.000    0.000    0.000    0.000    0.000    0.000 
#
# Total GULP energy -89415.468328 kJ/mol
# GULP energy per Si atom -5588.466770 kJ/mol
# Density = 2.418862 g / cm^3
# Si number density = 24.243795 Si / 1000 Ang^3
#
#
#
# Elastic Constant Matrix: (Units=GPa)
#
#
# Indices 1 2 3 4 5 6 
#
# 1 104.2055 16.9305 15.9780 0.0000 -37.3453 0.0000
# 2 16.9305 156.2084 10.4079 0.0000 -23.6282 0.0000
# 3 15.9780 10.4079 27.9763 0.0000 -11.9910 0.0000
# 4 0.0000 0.0000 0.0000 28.6503 0.0000 -2.8257
# 5 -37.3453 -23.6282 -11.9910 0.0000 35.1080 0.0000
# 6 0.0000 0.0000 0.0000 -2.8257 0.0000 45.1093
#
#
#
# Elastic Compliance Matrix: (Units=1/GPa)
#
#
# Indices 1 2 3 4 5 6 
#
# 1 0.015741 0.000957 -0.002218 0.000000 0.016631 0.000000
# 2 0.000957 0.007197 -0.000834 0.000000 0.005577 0.000000
# 3 -0.002218 -0.000834 0.042256 0.000000 0.011512 0.000000
# 4 0.000000 0.000000 0.000000 0.035121 0.000000 0.002200
# 5 0.016631 0.005577 0.011512 0.000000 0.053860 0.000000
# 6 0.000000 0.000000 0.000000 0.002200 0.000000 0.022306
#
#
# Mechanical properties :
#
#
# Convention : Reuss Voigt Hill
#
# Bulk Modulus (GPa) = 16.39210 41.66921 29.03066
# Shear Modulus (GPa) = 24.87503 38.11176 31.49339
#
# Velocity S-wave (km/s) = 3.20666 3.96917 3.60811
# Velocity P-wave (km/s) = 4.52617 6.18310 5.41834
#
# Compressibility (1/GPa) = 0.06100498
#
# Stress axis : x y z
#
# Youngs Moduli (GPa) = 63.52732 138.94416 23.66550
#
# Poissons Ratio (x) = -0.13302 0.05249
# Poissons Ratio (y) = -0.06082 0.01973
# Poissons Ratio (z) = 0.14091 0.11584
#
# Static dielectric constant tensor:
#      x y z
#    x 2.018190 0.000000 0.128860 
#    y 0.000000 1.900770 0.000000 
#    z 0.128860 0.000000 2.058130 
# 
# From -- ./inp_files/47781.got.cif
#   From: 2010.05.17/outbox.cif.g08.bks.cpg/sg14_24_cif.got.tgz:47781.got - 2010.06.03 17:49:19.
