data_PCOD9244500
_publ_section_title
;
Structure prediction by ZEFSAII (Michael W. Deem and Ramdas Pophale) SiO2 
 PCOD9244500
Probable space group: P 21/C
;
_chemical_formula_sum "Si O2"
_cell_formula_units_Z 28
_cell_length_a 12.242480
_cell_length_b 7.083298
_cell_length_c 14.284122
_cell_angle_alpha 90.000000
_cell_angle_beta 112.772330
_cell_angle_gamma 90.000000
_cell_volume 1142.123396
_symmetry_space_group_name_H-M "P 21/C"
_symmetry_group_IT_number 14
_symmetry_cell_setting 'monoclinic'
loop_
_space_group_symop_operation_xyz
x,y,z
-x,1/2+y,1/2-z
-x,-y,-z
x,1/2-y,1/2+z
loop_
_atom_site_type_symbol
_atom_site_label
_atom_site_fract_x
_atom_site_fract_y
_atom_site_fract_z
Si Si1 0.821514 0.731525 0.016351
Si Si2 0.136580 0.687114 0.005986
Si Si3 0.991156 0.452191 0.660262
Si Si4 0.233637 0.192524 0.210806
Si Si5 0.393263 0.244162 0.425838
Si Si6 0.651739 0.193482 0.061495
Si Si7 0.176678 0.865163 0.729456
O O1 0.884464 0.533436 0.017486
O O2 0.770133 0.822246 0.903115
O O3 0.908665 0.873237 0.100451
O O4 0.708779 0.667495 0.040520
O O5 0.155015 0.718520 0.121040
O O6 0.027811 0.805553 0.930879
O O7 0.250420 0.760404 0.984951
O O8 0.930273 0.363529 0.731811
O O9 0.131842 0.443563 0.719896
O O10 0.356370 0.179299 0.309099
O O11 0.199412 0.411305 0.220730
O O12 0.373628 0.469199 0.437824
O O13 0.528418 0.207645 0.497605
O O14 0.712356 0.229896 0.181532
#
# Coordination Sequence:
#
# PCOD9244500 Si02
#       7
#     4   4   4   4   4   4   4
#     4  11  22  41  63  94 128 168 219 272 326 398
#     4  10  22  40  65  96 128 169 218 269 332 394
#     4  11  22  44  62  93 134 174 216 269 334 390
#     4  10  22  38  61  94 127 170 220 267 326 394
#     4  10  20  41  66  93 132 169 220 270 327 393
#     4   9  19  41  67  92 131 173 210 275 329 389
#     4   9  20  42  63  95 130 169 219 273 330 389
#
# _framework density 24.515740999999998
#
# number of rings (size 3 to 8) (size 9 to 14) (size 15 to 20)
#    0.000    2.000    4.286    0.429    0.000    6.286 
#    7.714    0.000    0.000    0.000    0.000    0.000 
#    0.000    0.000    0.000    0.000    0.000    0.000 
#
# Total GULP energy -156741.656003 kJ/mol
# GULP energy per Si atom -5597.916286 kJ/mol
# Density = 2.445994 g / cm^3
# Si number density = 24.515741 Si / 1000 Ang^3
#
#
#
# Elastic Constant Matrix: (Units=GPa)
#
#
# Indices 1 2 3 4 5 6 
#
# 1 94.7656 24.4969 70.7577 0.0000 28.3274 0.0000
# 2 24.4969 94.6767 37.6159 0.0000 14.3019 0.0000
# 3 70.7577 37.6159 209.0158 0.0000 12.8303 0.0000
# 4 0.0000 0.0000 0.0000 37.0167 0.0000 -1.0050
# 5 28.3274 14.3019 12.8303 0.0000 45.3267 0.0000
# 6 0.0000 0.0000 0.0000 -1.0050 0.0000 33.4023
#
#
#
# Elastic Compliance Matrix: (Units=1/GPa)
#
#
# Indices 1 2 3 4 5 6 
#
# 1 0.017372 -0.001088 -0.005129 0.000000 -0.009062 0.000000
# 2 -0.001088 0.011878 -0.001609 0.000000 -0.002612 0.000000
# 3 -0.005129 -0.001609 0.006699 0.000000 0.001817 0.000000
# 4 0.000000 0.000000 0.000000 0.027037 0.000000 0.000813
# 5 -0.009062 -0.002612 0.001817 0.000000 0.028035 0.000000
# 6 0.000000 0.000000 0.000000 0.000813 0.000000 0.029963
#
#
# Mechanical properties :
#
#
# Convention : Reuss Voigt Hill
#
# Bulk Modulus (GPa) = 49.27005 73.79990 61.53498
# Shear Modulus (GPa) = 34.86757 40.85497 37.86127
#
# Velocity S-wave (km/s) = 3.77537 4.08668 3.93411
# Velocity P-wave (km/s) = 6.25663 7.24130 6.76690
#
# Compressibility (1/GPa) = 0.02029630
#
# Stress axis : x y z
#
# Youngs Moduli (GPa) = 57.56459 84.19177 149.28577
#
# Poissons Ratio (x) = 0.09162 0.76565
# Poissons Ratio (y) = 0.06265 0.24017
# Poissons Ratio (z) = 0.29523 0.13545
#
# Static dielectric constant tensor:
#      x y z
#    x 1.933830 0.000000 0.016070 
#    y 0.000000 2.058750 0.000000 
#    z 0.016070 0.000000 1.938810 
# 
# From -- ./inp_files/43481.got.cif
#   From: 2010.05.17/outbox.cif.g08.bks.cpg/sg14_22_cif.got.tgz:43481.got - 2010.06.03 17:49:19.
