data_PCOD9244602
_publ_section_title
;
Structure prediction by ZEFSAII (Michael W. Deem and Ramdas Pophale) SiO2 
 PCOD9244602
Probable space group: P 21/C
;
_chemical_formula_sum "Si O2"
_cell_formula_units_Z 32
_cell_length_a 11.920802
_cell_length_b 14.824706
_cell_length_c 18.552816
_cell_angle_alpha 90.000000
_cell_angle_beta 31.126575
_cell_angle_gamma 90.000000
_cell_volume 1694.858704
_symmetry_space_group_name_H-M "P 21/C"
_symmetry_group_IT_number 14
_symmetry_cell_setting 'monoclinic'
loop_
_space_group_symop_operation_xyz
x,y,z
-x,1/2+y,1/2-z
-x,-y,-z
x,1/2-y,1/2+z
loop_
_atom_site_type_symbol
_atom_site_label
_atom_site_fract_x
_atom_site_fract_y
_atom_site_fract_z
Si Si1 0.368232 0.728022 0.539450
Si Si2 0.547859 0.811495 0.223428
Si Si3 0.054456 0.435842 0.538298
Si Si4 0.803207 0.118970 0.472909
Si Si5 0.653884 0.195819 0.293396
Si Si6 0.963257 0.102018 0.848132
Si Si7 0.664556 0.550845 0.964382
Si Si8 0.798774 0.767319 0.716005
O O1 0.261810 0.813207 0.556450
O O2 0.320953 0.742034 0.649413
O O3 0.252426 0.641064 0.569378
O O4 0.619915 0.728150 0.377893
O O5 0.369514 0.862829 0.369346
O O6 0.429763 0.754989 0.226756
O O7 0.671723 0.745327 0.211312
O O8 0.723590 0.881805 0.096560
O O9 0.066072 0.506022 0.597999
O O10 0.000000 0.500000 0.500000
O O11 0.866659 0.362066 0.656128
O O12 0.040407 0.148470 0.368205
O O13 0.772708 0.020284 0.458532
O O14 0.472084 0.123694 0.416871
O O15 0.148743 0.094190 0.686286
O O16 0.053957 0.177534 0.853883
O O17 0.500000 0.500000 0.000000
#
# Coordination Sequence:
#
# PCOD9244602 Si02
#       8
#     4   4   4   4   4   4   4   4
#     4  10  22  39  67  92 129 165 210 264 322 374
#     4  11  24  40  63  94 131 166 207 259 323 385
#     4  12  24  40  65  96 127 165 217 263 312 381
#     4  10  21  41  65  90 123 170 212 259 316 386
#     4  12  25  39  65  96 129 164 213 263 316 384
#     4  11  22  39  68  96 121 166 219 266 315 378
#     4  12  20  41  66  94 120 162 219 267 309 374
#     4  10  20  42  64  91 127 169 211 259 328 378
#
# _framework density 18.88063
#
# number of rings (size 3 to 8) (size 9 to 14) (size 15 to 20)
#    0.000    1.000    5.000    2.250    5.250    1.000 
#    0.000    3.125    0.000    0.000    0.000    0.000 
#    0.000    0.000    0.000    0.000    0.000    0.000 
#
# Total GULP energy -178844.893587 kJ/mol
# GULP energy per Si atom -5588.902925 kJ/mol
# Density = 1.883766 g / cm^3
# Si number density = 18.880630 Si / 1000 Ang^3
#
#
#
# Elastic Constant Matrix: (Units=GPa)
#
#
# Indices 1 2 3 4 5 6 
#
# 1 100.5655 54.8534 52.5544 0.0000 8.9631 0.0000
# 2 54.8534 75.7541 26.8815 0.0000 -2.0610 0.0000
# 3 52.5544 26.8815 81.1130 0.0000 0.1885 0.0000
# 4 0.0000 0.0000 0.0000 28.9376 0.0000 -6.5064
# 5 8.9631 -2.0610 0.1885 0.0000 27.0819 0.0000
# 6 0.0000 0.0000 0.0000 -6.5064 0.0000 35.3027
#
#
#
# Elastic Compliance Matrix: (Units=1/GPa)
#
#
# Indices 1 2 3 4 5 6 
#
# 1 0.023909 -0.013672 -0.010940 0.000000 -0.008877 0.000000
# 2 -0.013672 0.022816 0.001283 0.000000 0.006252 0.000000
# 3 -0.010940 0.001283 0.018983 0.000000 0.003586 0.000000
# 4 0.000000 0.000000 0.000000 0.036051 0.000000 0.006644
# 5 -0.008877 0.006252 0.003586 0.000000 0.040314 0.000000
# 6 0.000000 0.000000 0.000000 0.006644 0.000000 0.029551
#
#
# Mechanical properties :
#
#
# Convention : Reuss Voigt Hill
#
# Bulk Modulus (GPa) = 52.49436 58.44569 55.47002
# Shear Modulus (GPa) = 22.25858 26.47399 24.36629
#
# Velocity S-wave (km/s) = 3.43725 3.74863 3.59631
# Velocity P-wave (km/s) = 6.60429 7.05400 6.83284
#
# Compressibility (1/GPa) = 0.01904967
#
# Stress axis : x y z
#
# Youngs Moduli (GPa) = 41.82447 43.82951 52.67886
#
# Poissons Ratio (x) = 0.59925 0.57628
# Poissons Ratio (y) = 0.57184 -0.06757
# Poissons Ratio (z) = 0.45754 -0.05622
#
# Static dielectric constant tensor:
#      x y z
#    x 1.665490 0.000000 -0.000630 
#    y 0.000000 1.667040 0.000000 
#    z -0.000630 0.000000 1.649930 
# 
# From -- ./inp_files/34251.got.cif
#   From: 2010.05.17/outbox.cif.g08.bks.cpg/sg14_18_cif.got.tgz:34251.got - 2010.06.03 17:49:19.
