data_PCOD9244585
_publ_section_title
;
Structure prediction by ZEFSAII (Michael W. Deem and Ramdas Pophale) SiO2 
 PCOD9244585
Probable space group: P 21/C
;
_chemical_formula_sum "Si O2"
_cell_formula_units_Z 28
_cell_length_a 18.336593
_cell_length_b 10.855605
_cell_length_c 21.133297
_cell_angle_alpha 90.000000
_cell_angle_beta 160.289822
_cell_angle_gamma 90.000000
_cell_volume 1418.756890
_symmetry_space_group_name_H-M "P 21/C"
_symmetry_group_IT_number 14
_symmetry_cell_setting 'monoclinic'
loop_
_space_group_symop_operation_xyz
x,y,z
-x,1/2+y,1/2-z
-x,-y,-z
x,1/2-y,1/2+z
loop_
_atom_site_type_symbol
_atom_site_label
_atom_site_fract_x
_atom_site_fract_y
_atom_site_fract_z
Si Si1 0.760541 0.612515 0.718686
Si Si2 0.317428 0.212723 0.978344
Si Si3 0.289676 0.830495 0.827397
Si Si4 0.821179 0.509752 0.409454
Si Si5 0.399557 0.486834 0.989112
Si Si6 0.794666 0.261850 0.879002
Si Si7 0.999555 0.671453 0.664953
O O1 0.750022 0.623692 0.634072
O O2 0.736290 0.470263 0.717089
O O3 0.536001 0.681823 0.553383
O O4 0.984715 0.665971 0.927380
O O5 0.335123 0.348835 0.960079
O O6 0.145997 0.198743 0.893719
O O7 0.558796 0.182441 0.201833
O O8 0.235609 0.746737 0.722041
O O9 0.116644 0.795770 0.738120
O O10 0.815813 0.369522 0.430659
O O11 0.000000 0.500000 0.500000
O O12 0.866057 0.611054 0.498482
O O13 0.591568 0.531878 0.190484
O O14 0.193273 0.573180 0.830147
O O15 0.500000 0.500000 0.000000
#
# Coordination Sequence:
#
# PCOD9244585 Si02
#       7
#     4   4   4   4   4   4   4
#     4  10  21  40  64  86 121 168 204 252 321 373
#     4  10  25  40  59  94 131 162 209 263 323 381
#     4  10  22  37  62  93 120 157 213 256 305 385
#     4  11  21  37  65  95 117 159 219 263 308 371
#     4  11  22  42  71  95 122 169 221 269 315 383
#     4  10  20  42  63  86 120 162 209 262 302 378
#     4  12  24  39  61  94 132 161 206 268 320 378
#
# _framework density 19.735585
#
# number of rings (size 3 to 8) (size 9 to 14) (size 15 to 20)
#    0.000    1.429    2.857    3.000    4.000    1.143 
#    2.571    0.000    0.000    0.000    0.000    0.000 
#    0.000    0.000    0.000    0.000    0.000    0.000 
#
# Total GULP energy -156176.027426 kJ/mol
# GULP energy per Si atom -5577.715265 kJ/mol
# Density = 1.969067 g / cm^3
# Si number density = 19.735585 Si / 1000 Ang^3
#
#
#
# Elastic Constant Matrix: (Units=GPa)
#
#
# Indices 1 2 3 4 5 6 
#
# 1 121.0052 22.4114 35.6658 0.0000 31.1423 0.0000
# 2 22.4114 65.7257 35.9159 0.0000 -2.8324 0.0000
# 3 35.6658 35.9159 145.1033 0.0000 10.6417 0.0000
# 4 0.0000 0.0000 0.0000 24.7995 0.0000 0.7897
# 5 31.1423 -2.8324 10.6417 0.0000 27.3650 0.0000
# 6 0.0000 0.0000 0.0000 0.7897 0.0000 22.1384
#
#
#
# Elastic Compliance Matrix: (Units=1/GPa)
#
#
# Indices 1 2 3 4 5 6 
#
# 1 0.013362 -0.004665 -0.001008 0.000000 -0.015297 0.000000
# 2 -0.004665 0.019578 -0.004362 0.000000 0.009031 0.000000
# 3 -0.001008 -0.004362 0.008408 0.000000 -0.002574 0.000000
# 4 0.000000 0.000000 0.000000 0.040369 0.000000 -0.001440
# 5 -0.015297 0.009031 -0.002574 0.000000 0.055888 0.000000
# 6 0.000000 0.000000 0.000000 -0.001440 0.000000 0.045222
#
#
# Mechanical properties :
#
#
# Convention : Reuss Voigt Hill
#
# Bulk Modulus (GPa) = 46.99408 57.75782 52.37595
# Shear Modulus (GPa) = 23.81084 30.71667 27.26375
#
# Velocity S-wave (km/s) = 3.47723 3.94942 3.72082
# Velocity P-wave (km/s) = 6.32337 7.08001 6.71236
#
# Compressibility (1/GPa) = 0.02127927
#
# Stress axis : x y z
#
# Youngs Moduli (GPa) = 74.83828 51.07769 118.93779
#
# Poissons Ratio (x) = 0.23827 0.11987
# Poissons Ratio (y) = 0.34910 0.51877
# Poissons Ratio (z) = 0.07543 0.22279
#
# Static dielectric constant tensor:
#      x y z
#    x 1.528470 0.000000 0.093490 
#    y 0.000000 1.746880 0.000000 
#    z 0.093490 0.000000 1.678500 
# 
# From -- ./inp_files/69315.got.cif
#   From: 2010.05.17/outbox.cif.g08.bks.cpg/sg14_35_cif.got.tgz:69315.got - 2010.06.03 17:49:19.
