data_PCOD9244940
_publ_section_title
;
Structure prediction by ZEFSAII (Michael W. Deem and Ramdas Pophale) SiO2 
 PCOD9244940
Probable space group: P 21/C
;
_chemical_formula_sum "Si O2"
_cell_formula_units_Z 24
_cell_length_a 7.911809
_cell_length_b 11.777188
_cell_length_c 18.579130
_cell_angle_alpha 90.000000
_cell_angle_beta 39.411577
_cell_angle_gamma 90.000000
_cell_volume 1099.104438
_symmetry_space_group_name_H-M "P 21/C"
_symmetry_group_IT_number 14
_symmetry_cell_setting 'monoclinic'
loop_
_space_group_symop_operation_xyz
x,y,z
-x,1/2+y,1/2-z
-x,-y,-z
x,1/2-y,1/2+z
loop_
_atom_site_type_symbol
_atom_site_label
_atom_site_fract_x
_atom_site_fract_y
_atom_site_fract_z
Si Si1 0.777784 0.151679 0.932647
Si Si2 0.768305 0.239182 0.786345
Si Si3 0.833461 0.909639 0.884255
Si Si4 0.096296 0.862995 0.516402
Si Si5 0.699414 0.911278 0.524427
Si Si6 0.102767 0.988618 0.294829
O O1 0.903439 0.201170 0.817589
O O2 0.814254 0.242808 0.982921
O O3 0.873840 0.024036 0.916680
O O4 0.468051 0.133780 0.013081
O O5 0.541254 0.327642 0.884041
O O6 0.696703 0.118340 0.773672
O O7 0.962008 0.309281 0.670938
O O8 0.879156 0.949663 0.786751
O O9 0.942947 0.863095 0.492171
O O10 0.328871 0.958460 0.438312
O O11 0.891823 0.920540 0.642332
O O12 0.813205 0.930720 0.406630
#
# Coordination Sequence:
#
# PCOD9244940 Si02
#       6
#     4   4   4   4   4   4
#     4  10  21  37  58  82 122 141 189 247 279 333
#     4  11  19  35  59  82 112 148 184 236 283 337
#     4  10  21  35  57  90 110 147 195 237 285 337
#     4   9  19  41  54  81 112 153 186 237 280 341
#     4   9  20  37  55  81 114 145 193 231 278 343
#     4   9  19  37  55  80 113 144 188 231 282 335
#
# _framework density 21.835961000000001
#
# number of rings (size 3 to 8) (size 9 to 14) (size 15 to 20)
#    1.000    1.333    1.667    1.000    0.000    5.333 
#    6.000    0.000    0.000    4.000    0.000    0.000 
#    0.000    0.000    0.000    0.000    0.000    0.000 
#
# Total GULP energy -133630.049837 kJ/mol
# GULP energy per Si atom -5567.918743 kJ/mol
# Density = 2.178626 g / cm^3
# Si number density = 21.835961 Si / 1000 Ang^3
#
#
#
# Elastic Constant Matrix: (Units=GPa)
#
#
# Indices 1 2 3 4 5 6 
#
# 1 30.0866 29.9404 -3.3581 0.0000 10.4940 0.0000
# 2 29.9404 149.8339 21.5266 0.0000 2.5817 0.0000
# 3 -3.3581 21.5266 54.9912 0.0000 5.0532 0.0000
# 4 0.0000 0.0000 0.0000 43.9215 0.0000 6.9381
# 5 10.4940 2.5817 5.0532 0.0000 14.7126 0.0000
# 6 0.0000 0.0000 0.0000 6.9381 0.0000 27.0196
#
#
#
# Elastic Compliance Matrix: (Units=1/GPa)
#
#
# Indices 1 2 3 4 5 6 
#
# 1 0.066744 -0.014539 0.014360 0.000000 -0.049987 0.000000
# 2 -0.014539 0.010240 -0.005869 0.000000 0.010589 0.000000
# 3 0.014360 -0.005869 0.022930 0.000000 -0.017088 0.000000
# 4 0.000000 0.000000 0.000000 0.023730 0.000000 -0.006094
# 5 -0.049987 0.010589 -0.017088 0.000000 0.107634 0.000000
# 6 0.000000 0.000000 0.000000 -0.006094 0.000000 0.038575
#
#
# Mechanical properties :
#
#
# Convention : Reuss Voigt Hill
#
# Bulk Modulus (GPa) = 11.38723 36.79215 24.08969
# Shear Modulus (GPa) = 16.06576 29.58426 22.82501
#
# Velocity S-wave (km/s) = 2.71541 3.68481 3.23661
# Velocity P-wave (km/s) = 3.88040 5.91521 5.00236
#
# Compressibility (1/GPa) = 0.08781768
#
# Stress axis : x y z
#
# Youngs Moduli (GPa) = 14.98271 97.65558 43.61183
#
# Poissons Ratio (x) = 1.41980 -0.62629
# Poissons Ratio (y) = 0.21783 0.25598
# Poissons Ratio (z) = -0.21516 0.57318
#
# Static dielectric constant tensor:
#      x y z
#    x 1.757470 0.000000 -0.020040 
#    y 0.000000 1.889680 0.000000 
#    z -0.020040 0.000000 1.871950 
# 
# From -- ./inp_files/65335.got.cif
#   From: 2010.05.17/outbox.cif.g08.bks.cpg/sg14_33_cif.got.tgz:65335.got - 2010.06.03 17:49:19.
