data_PCOD9244425
_publ_section_title
;
Structure prediction by ZEFSAII (Michael W. Deem and Ramdas Pophale) SiO2 
 PCOD9244425
Probable space group: P 21/C
;
_chemical_formula_sum "Si O2"
_cell_formula_units_Z 32
_cell_length_a 6.531525
_cell_length_b 13.670813
_cell_length_c 25.491170
_cell_angle_alpha 90.000000
_cell_angle_beta 43.006184
_cell_angle_gamma 90.000000
_cell_volume 1552.502458
_symmetry_space_group_name_H-M "P 21/C"
_symmetry_group_IT_number 14
_symmetry_cell_setting 'monoclinic'
loop_
_space_group_symop_operation_xyz
x,y,z
-x,1/2+y,1/2-z
-x,-y,-z
x,1/2-y,1/2+z
loop_
_atom_site_type_symbol
_atom_site_label
_atom_site_fract_x
_atom_site_fract_y
_atom_site_fract_z
Si Si1 0.723281 0.418644 0.309018
Si Si2 0.406317 0.205304 0.596277
Si Si3 0.031724 0.573467 0.043421
Si Si4 0.625554 0.152100 0.974987
Si Si5 0.696580 0.975915 0.028349
Si Si6 0.888373 0.060323 0.665237
Si Si7 0.340586 0.319296 0.228009
Si Si8 0.730990 0.749839 0.648569
O O1 0.566687 0.489854 0.379870
O O2 0.821135 0.473573 0.237246
O O3 0.484994 0.333344 0.336021
O O4 0.010947 0.367042 0.281869
O O5 0.671425 0.133819 0.526984
O O6 0.457434 0.304277 0.555977
O O7 0.420075 0.220149 0.655752
O O8 0.099351 0.154047 0.636126
O O9 0.047798 0.512480 0.094711
O O10 0.766824 0.652895 0.106235
O O11 0.000000 0.500000 0.000000
O O12 0.730776 0.044386 0.971232
O O13 0.382106 0.134466 0.975374
O O14 0.925601 0.212238 0.909976
O O15 0.000000 0.000000 0.000000
O O16 0.578474 0.095548 0.697255
O O17 0.362345 0.243821 0.272584
#
# Coordination Sequence:
#
# PCOD9244425 Si02
#       8
#     4   4   4   4   4   4   4   4
#     4  10  21  39  62  87 120 167 200 251 320 366
#     4  10  22  40  63  90 125 163 205 260 315 369
#     4  11  22  41  63  96 126 165 212 263 316 372
#     4  10  22  36  59  93 117 150 203 256 304 371
#     4  11  21  37  62  90 121 156 203 255 310 362
#     4  10  22  39  62  87 122 163 206 253 307 375
#     4  10  20  41  61  83 124 166 201 252 309 367
#     4  10  21  39  62  88 124 161 206 253 311 381
#
# _framework density 20.611882000000001
#
# number of rings (size 3 to 8) (size 9 to 14) (size 15 to 20)
#    0.000    1.750    3.750    0.375    0.000    3.000 
#    2.250    6.250    0.000    0.000    0.000    0.000 
#    0.000    0.000    0.000    0.000    0.000    0.000 
#
# Total GULP energy -178152.792917 kJ/mol
# GULP energy per Si atom -5567.274779 kJ/mol
# Density = 2.056497 g / cm^3
# Si number density = 20.611882 Si / 1000 Ang^3
#
#
#
# Elastic Constant Matrix: (Units=GPa)
#
#
# Indices 1 2 3 4 5 6 
#
# 1 83.1469 16.5202 27.9258 0.0000 3.4930 0.0000
# 2 16.5202 38.7845 17.6093 0.0000 8.7620 0.0000
# 3 27.9258 17.6093 117.7308 0.0000 22.7049 0.0000
# 4 0.0000 0.0000 0.0000 34.1892 0.0000 1.8536
# 5 3.4930 8.7620 22.7049 0.0000 39.2613 0.0000
# 6 0.0000 0.0000 0.0000 1.8536 0.0000 18.6447
#
#
#
# Elastic Compliance Matrix: (Units=1/GPa)
#
#
# Indices 1 2 3 4 5 6 
#
# 1 0.013908 -0.004974 -0.002848 0.000000 0.001520 0.000000
# 2 -0.004974 0.030088 -0.002376 0.000000 -0.004898 0.000000
# 3 -0.002848 -0.002376 0.010550 0.000000 -0.005318 0.000000
# 4 0.000000 0.000000 0.000000 0.029407 0.000000 -0.002924
# 5 0.001520 -0.004898 -0.005318 0.000000 0.029504 0.000000
# 6 0.000000 0.000000 0.000000 -0.002924 0.000000 0.053925
#
#
# Mechanical properties :
#
#
# Convention : Reuss Voigt Hill
#
# Bulk Modulus (GPa) = 29.28281 40.41920 34.85101
# Shear Modulus (GPa) = 25.10526 30.25950 27.68238
#
# Velocity S-wave (km/s) = 3.49377 3.83569 3.66871
# Velocity P-wave (km/s) = 5.52384 6.26649 5.90685
#
# Compressibility (1/GPa) = 0.03414973
#
# Stress axis : x y z
#
# Youngs Moduli (GPa) = 71.90140 33.23635 94.78300
#
# Poissons Ratio (x) = 0.16533 0.26995
# Poissons Ratio (y) = 0.35766 0.22518
# Poissons Ratio (z) = 0.20478 0.07896
#
# Static dielectric constant tensor:
#      x y z
#    x 2.005410 0.000000 0.026900 
#    y 0.000000 1.887620 0.000000 
#    z 0.026900 0.000000 1.808840 
# 
# From -- ./inp_files/71395.got.cif
#   From: 2010.05.17/outbox.cif.g08.bks.cpg/sg14_36_cif.got.tgz:71395.got - 2010.06.03 17:49:19.
