data_PCOD9244708
_publ_section_title
;
Structure prediction by ZEFSAII (Michael W. Deem and Ramdas Pophale) SiO2 
 PCOD9244708
Probable space group: P 21/C
;
_chemical_formula_sum "Si O2"
_cell_formula_units_Z 24
_cell_length_a 17.414103
_cell_length_b 11.185807
_cell_length_c 12.664203
_cell_angle_alpha 90.000000
_cell_angle_beta 22.994512
_cell_angle_gamma 90.000000
_cell_volume 963.665460
_symmetry_space_group_name_H-M "P 21/C"
_symmetry_group_IT_number 14
_symmetry_cell_setting 'monoclinic'
loop_
_space_group_symop_operation_xyz
x,y,z
-x,1/2+y,1/2-z
-x,-y,-z
x,1/2-y,1/2+z
loop_
_atom_site_type_symbol
_atom_site_label
_atom_site_fract_x
_atom_site_fract_y
_atom_site_fract_z
Si Si1 0.896315 0.252255 0.594271
Si Si2 0.576226 0.162773 0.159123
Si Si3 0.855216 0.911591 0.612626
Si Si4 0.286315 0.546001 0.302993
Si Si5 0.472232 0.592861 0.722421
Si Si6 0.948555 0.090305 0.326086
O O1 0.958894 0.185363 0.407304
O O2 0.823775 0.382061 0.651096
O O3 0.070213 0.221486 0.456018
O O4 0.715483 0.185897 0.881883
O O5 0.682957 0.135936 0.136287
O O6 0.451694 0.284623 0.320511
O O7 0.473993 0.035350 0.274119
O O8 0.891483 0.961915 0.451372
O O9 0.000000 0.000000 0.500000
O O10 0.626921 0.921334 0.931132
O O11 0.149975 0.437225 0.513374
O O12 0.500000 0.500000 0.000000
O O13 0.243844 0.621730 0.996022
#
# Coordination Sequence:
#
# PCOD9244708 Si02
#       6
#     4   4   4   4   4   4
#     4  11  23  47  76 108 151 205 261 323 391 470
#     4  12  25  49  73 113 161 198 265 318 398 470
#     4  10  20  42  73 103 144 195 263 306 376 469
#     4  12  27  51  74 115 162 205 262 339 394 464
#     4  12  25  44  75 117 152 207 255 326 386 478
#     4  11  23  47  76 107 152 205 268 310 395 471
#
# _framework density 24.904909
#
# number of rings (size 3 to 8) (size 9 to 14) (size 15 to 20)
#    0.000    0.667    6.667    2.500    2.333    0.000 
#    6.000    1.667    0.000    0.000    0.000    0.000 
#    0.000    0.000    0.000    0.000    0.000    0.000 
#
# Total GULP energy -133998.994868 kJ/mol
# GULP energy per Si atom -5583.291453 kJ/mol
# Density = 2.484822 g / cm^3
# Si number density = 24.904909 Si / 1000 Ang^3
#
#
#
# Elastic Constant Matrix: (Units=GPa)
#
#
# Indices 1 2 3 4 5 6 
#
# 1 39.7122 42.4771 11.0633 0.0000 -3.0947 0.0000
# 2 42.4771 140.0907 50.3133 0.0000 8.7346 0.0000
# 3 11.0633 50.3133 175.3051 0.0000 8.1503 0.0000
# 4 0.0000 0.0000 0.0000 40.5101 0.0000 -5.0728
# 5 -3.0947 8.7346 8.1503 0.0000 20.6636 0.0000
# 6 0.0000 0.0000 0.0000 -5.0728 0.0000 47.9257
#
#
#
# Elastic Compliance Matrix: (Units=1/GPa)
#
#
# Indices 1 2 3 4 5 6 
#
# 1 0.039770 -0.013009 0.000704 0.000000 0.011177 0.000000
# 2 -0.013009 0.012343 -0.002433 0.000000 -0.006206 0.000000
# 3 0.000704 -0.002433 0.006423 0.000000 -0.001400 0.000000
# 4 0.000000 0.000000 0.000000 0.025017 0.000000 0.002648
# 5 0.011177 -0.006206 -0.001400 0.000000 0.053244 0.000000
# 6 0.000000 0.000000 0.000000 0.002648 0.000000 0.021146
#
#
# Mechanical properties :
#
#
# Convention : Reuss Voigt Hill
#
# Bulk Modulus (GPa) = 34.40962 62.53505 48.47233
# Shear Modulus (GPa) = 25.36707 38.57017 31.96862
#
# Velocity S-wave (km/s) = 3.19495 3.93962 3.58666
# Velocity P-wave (km/s) = 5.23991 6.77187 6.05454
#
# Compressibility (1/GPa) = 0.02906164
#
# Stress axis : x y z
#
# Youngs Moduli (GPa) = 25.14437 81.01510 155.68331
#
# Poissons Ratio (x) = 1.05389 -0.10960
# Poissons Ratio (y) = 0.32709 0.37879
# Poissons Ratio (z) = -0.01770 0.19712
#
# Static dielectric constant tensor:
#      x y z
#    x 2.094290 0.000000 0.004250 
#    y 0.000000 2.104960 0.000000 
#    z 0.004250 0.000000 1.967350 
# 
# From -- ./inp_files/50414.got.cif
#   From: 2010.05.17/outbox.cif.g08.bks.cpg/sg14_26_cif.got.tgz:50414.got - 2010.06.03 17:49:19.
