data_PCOD9244960
_publ_section_title
;
Structure prediction by ZEFSAII (Michael W. Deem and Ramdas Pophale) SiO2 
 PCOD9244960
Probable space group: P 21/C
;
_chemical_formula_sum "Si O2"
_cell_formula_units_Z 20
_cell_length_a 8.311751
_cell_length_b 19.251133
_cell_length_c 5.282766
_cell_angle_alpha 90.000000
_cell_angle_beta 87.586972
_cell_angle_gamma 90.000000
_cell_volume 844.549143
_symmetry_space_group_name_H-M "P 21/C"
_symmetry_group_IT_number 14
_symmetry_cell_setting 'monoclinic'
loop_
_space_group_symop_operation_xyz
x,y,z
-x,1/2+y,1/2-z
-x,-y,-z
x,1/2-y,1/2+z
loop_
_atom_site_type_symbol
_atom_site_label
_atom_site_fract_x
_atom_site_fract_y
_atom_site_fract_z
Si Si1 0.074202 0.274209 0.817566
Si Si2 0.360190 0.070649 0.770325
Si Si3 0.994498 0.546142 0.752432
Si Si4 0.548718 0.407632 0.759980
Si Si5 0.851906 0.341224 0.524516
O O1 0.161599 0.237583 0.575690
O O2 0.000565 0.346123 0.720447
O O3 0.909941 0.229097 0.884937
O O4 0.468461 0.101129 0.538136
O O5 0.174277 0.086145 0.737558
O O6 0.377940 0.986189 0.752314
O O7 0.418263 0.093344 0.042929
O O8 0.136522 0.600679 0.694516
O O9 0.000000 0.500000 0.500000
O O10 0.000000 0.500000 0.000000
O O11 0.687012 0.353229 0.678752
#
# Coordination Sequence:
#
# PCOD9244960 Si02
#       5
#     4   4   4   4   4
#     4   8  20  35  58  86 104 149 205 251 278 322
#     4  10  22  37  50  91 119 154 180 224 310 348
#     4  12  25  36  59  89 123 156 193 243 296 363
#     4  10  21  35  60  76 124 152 183 235 285 354
#     4  10  22  38  64  84 114 154 205 248 281 350
#
# _framework density 23.681273999999998
#
# number of rings (size 3 to 8) (size 9 to 14) (size 15 to 20)
#    1.200    0.800    2.000    1.200   11.200    0.000 
#    0.000    0.000    0.000    7.200    0.000    0.000 
#    0.000    0.000    0.000    0.000    0.000    0.000 
#
# Total GULP energy -111561.966146 kJ/mol
# GULP energy per Si atom -5578.098307 kJ/mol
# Density = 2.362737 g / cm^3
# Si number density = 23.681274 Si / 1000 Ang^3
#
#
#
# Elastic Constant Matrix: (Units=GPa)
#
#
# Indices 1 2 3 4 5 6 
#
# 1 56.1012 -7.3663 15.5134 0.0000 -8.7177 0.0000
# 2 -7.3663 51.7788 16.6248 0.0000 -9.0316 0.0000
# 3 15.5134 16.6248 165.2294 0.0000 -8.6548 0.0000
# 4 0.0000 0.0000 0.0000 33.8037 0.0000 -7.7400
# 5 -8.7177 -9.0316 -8.6548 0.0000 27.3550 0.0000
# 6 0.0000 0.0000 0.0000 -7.7400 0.0000 20.3149
#
#
#
# Elastic Compliance Matrix: (Units=1/GPa)
#
#
# Indices 1 2 3 4 5 6 
#
# 1 0.020150 0.004791 -0.001988 0.000000 0.007374 0.000000
# 2 0.004791 0.022134 -0.002251 0.000000 0.008122 0.000000
# 3 -0.001988 -0.002251 0.006501 0.000000 0.000680 0.000000
# 4 0.000000 0.000000 0.000000 0.032410 0.000000 0.012348
# 5 0.007374 0.008122 0.000680 0.000000 0.041803 0.000000
# 6 0.000000 0.000000 0.000000 0.012348 0.000000 0.053930
#
#
# Mechanical properties :
#
#
# Convention : Reuss Voigt Hill
#
# Bulk Modulus (GPa) = 20.04464 35.85033 27.94749
# Shear Modulus (GPa) = 25.98036 32.85056 29.41546
#
# Velocity S-wave (km/s) = 3.31582 3.72855 3.52822
# Velocity P-wave (km/s) = 4.81064 5.80583 5.33151
#
# Compressibility (1/GPa) = 0.04988866
#
# Stress axis : x y z
#
# Youngs Moduli (GPa) = 49.62885 45.17903 153.82335
#
# Poissons Ratio (x) = -0.21645 0.30574
# Poissons Ratio (y) = -0.23777 0.34632
# Poissons Ratio (z) = 0.09864 0.10172
#
# Static dielectric constant tensor:
#      x y z
#    x 1.946510 0.000000 0.072750 
#    y 0.000000 2.032430 0.000000 
#    z 0.072750 0.000000 2.058920 
# 
# From -- ./inp_files/1509.got.cif
#   From: 2010.05.17/outbox.cif.g08.bks.cpg/sg14_1_cif.got.tgz:1509.got - 2010.06.03 17:49:19.
