data_PCOD9244816
_publ_section_title
;
Structure prediction by ZEFSAII (Michael W. Deem and Ramdas Pophale) SiO2 
 PCOD9244816
Probable space group: P 21/C
;
_chemical_formula_sum "Si O2"
_cell_formula_units_Z 20
_cell_length_a 7.429637
_cell_length_b 11.737125
_cell_length_c 10.480896
_cell_angle_alpha 90.000000
_cell_angle_beta 119.014877
_cell_angle_gamma 90.000000
_cell_volume 799.253357
_symmetry_space_group_name_H-M "P 21/C"
_symmetry_group_IT_number 14
_symmetry_cell_setting 'monoclinic'
loop_
_space_group_symop_operation_xyz
x,y,z
-x,1/2+y,1/2-z
-x,-y,-z
x,1/2-y,1/2+z
loop_
_atom_site_type_symbol
_atom_site_label
_atom_site_fract_x
_atom_site_fract_y
_atom_site_fract_z
Si Si1 0.838367 0.251691 0.994725
Si Si2 0.528355 0.435565 0.811268
Si Si3 0.789347 0.631589 0.765604
Si Si4 0.523604 0.134395 0.038448
Si Si5 0.106182 0.551494 0.665480
O O1 0.691494 0.362028 0.945431
O O2 0.748758 0.173988 0.076952
O O3 0.824797 0.176087 0.862518
O O4 0.069704 0.288246 0.101026
O O5 0.656418 0.545044 0.804376
O O6 0.479493 0.356884 0.670852
O O7 0.307315 0.481690 0.778495
O O8 0.634846 0.692957 0.613461
O O9 0.946317 0.565584 0.724917
O O10 0.500000 0.000000 0.000000
O O11 0.000000 0.500000 0.500000
#
# Coordination Sequence:
#
# PCOD9244816 Si02
#       5
#     4   4   4   4   4
#     4  12  25  43  71 103 134 182 227 289 349 390
#     4  11  24  48  67  98 144 173 231 292 337 414
#     4  11  24  44  69 102 136 174 237 283 332 419
#     4  10  20  45  67  91 137 176 222 277 336 414
#     4  12  24  43  73  97 134 192 222 270 363 411
#
# _framework density 25.023351999999999
#
# number of rings (size 3 to 8) (size 9 to 14) (size 15 to 20)
#    0.000    0.800    6.000    3.000    2.800    0.800 
#    3.600    0.000    0.000    0.000    0.000    0.000 
#    0.000    0.000    0.000    0.000    0.000    0.000 
#
# Total GULP energy -111960.968583 kJ/mol
# GULP energy per Si atom -5598.048429 kJ/mol
# Density = 2.496640 g / cm^3
# Si number density = 25.023352 Si / 1000 Ang^3
#
#
#
# Elastic Constant Matrix: (Units=GPa)
#
#
# Indices 1 2 3 4 5 6 
#
# 1 105.5777 17.5112 -14.4438 0.0000 21.7765 0.0000
# 2 17.5112 62.2201 32.3386 0.0000 21.4427 0.0000
# 3 -14.4438 32.3386 57.6844 0.0000 23.3364 0.0000
# 4 0.0000 0.0000 0.0000 38.6702 0.0000 23.0227
# 5 21.7765 21.4427 23.3364 0.0000 39.1589 0.0000
# 6 0.0000 0.0000 0.0000 23.0227 0.0000 47.1620
#
#
#
# Elastic Compliance Matrix: (Units=1/GPa)
#
#
# Indices 1 2 3 4 5 6 
#
# 1 0.014563 -0.006224 0.011903 0.000000 -0.011784 0.000000
# 2 -0.006224 0.026619 -0.015792 0.000000 -0.001704 0.000000
# 3 0.011903 -0.015792 0.037355 0.000000 -0.020233 0.000000
# 4 0.000000 0.000000 0.000000 0.036455 0.000000 -0.017796
# 5 -0.011784 -0.001704 -0.020233 0.000000 0.045081 0.000000
# 6 0.000000 0.000000 0.000000 -0.017796 0.000000 0.029891
#
#
# Mechanical properties :
#
#
# Convention : Reuss Voigt Hill
#
# Bulk Modulus (GPa) = 17.14974 32.92158 25.03566
# Shear Modulus (GPa) = 21.77464 37.66996 29.72230
#
# Velocity S-wave (km/s) = 2.95307 3.88415 3.45016
# Velocity P-wave (km/s) = 4.30068 5.77065 5.08902
#
# Compressibility (1/GPa) = 0.05830993
#
# Stress axis : x y z
#
# Youngs Moduli (GPa) = 68.66726 37.56777 26.77042
#
# Poissons Ratio (x) = 0.23382 -0.31865
# Poissons Ratio (y) = 0.42739 0.42276
# Poissons Ratio (z) = -0.81734 0.59327
#
# Static dielectric constant tensor:
#      x y z
#    x 1.938950 0.000000 0.008510 
#    y 0.000000 2.022790 0.000000 
#    z 0.008510 0.000000 2.029730 
# 
# From -- ./inp_files/24319.got.cif
#   From: 2010.05.17/outbox.cif.g08.bks.cpg/sg14_13_cif.got.tgz:24319.got - 2010.06.03 17:49:19.
