data_PCOD9244112
_publ_section_title
;
Structure prediction by ZEFSAII (Michael W. Deem and Ramdas Pophale) SiO2 
 PCOD9244112
Probable space group: P 21/C
;
_chemical_formula_sum "Si O2"
_cell_formula_units_Z 28
_cell_length_a 9.730846
_cell_length_b 14.003205
_cell_length_c 11.236192
_cell_angle_alpha 90.000000
_cell_angle_beta 110.146800
_cell_angle_gamma 90.000000
_cell_volume 1437.395895
_symmetry_space_group_name_H-M "P 21/C"
_symmetry_group_IT_number 14
_symmetry_cell_setting 'monoclinic'
loop_
_space_group_symop_operation_xyz
x,y,z
-x,1/2+y,1/2-z
-x,-y,-z
x,1/2-y,1/2+z
loop_
_atom_site_type_symbol
_atom_site_label
_atom_site_fract_x
_atom_site_fract_y
_atom_site_fract_z
Si Si1 0.619669 0.467802 0.683223
Si Si2 0.868122 0.506674 0.186295
Si Si3 0.749416 0.187242 0.052760
Si Si4 0.213825 0.874332 0.552597
Si Si5 0.852851 0.911624 0.114053
Si Si6 0.714440 0.481910 0.371354
Si Si7 0.991282 0.795033 0.680954
O O1 0.642984 0.374280 0.606484
O O2 0.688037 0.436385 0.829125
O O3 0.715523 0.552168 0.652036
O O4 0.453408 0.499099 0.646286
O O5 0.738946 0.483090 0.238765
O O6 0.879512 0.617842 0.162016
O O7 0.015231 0.477792 0.300418
O O8 0.857549 0.443727 0.065346
O O9 0.896507 0.204948 0.173566
O O10 0.700546 0.289926 0.990273
O O11 0.768663 0.117060 0.945958
O O12 0.091372 0.821605 0.596723
O O13 0.907389 0.804346 0.145019
O O14 0.810258 0.937262 0.966342
#
# Coordination Sequence:
#
# PCOD9244112 Si02
#       7
#     4   4   4   4   4   4   4
#     4  10  24  46  63  93 132 182 207 263 322 385
#     4  12  23  39  64 100 130 163 210 280 323 368
#     4  10  20  39  69  89 122 167 220 253 322 380
#     4  11  23  41  66  95 133 165 214 269 328 380
#     4  11  21  41  69  91 128 168 222 267 315 378
#     4  11  24  43  65  94 132 173 216 259 318 395
#     4  11  23  37  64 103 122 166 214 273 327 367
#
# _framework density 19.479669999999999
#
# number of rings (size 3 to 8) (size 9 to 14) (size 15 to 20)
#    0.000    1.143    5.714    3.429    4.000    0.571 
#    5.143    0.000    0.000    0.000    0.000    0.000 
#    0.000    0.000    0.000    0.000    0.000    0.000 
#
# Total GULP energy -156426.366492 kJ/mol
# GULP energy per Si atom -5586.655946 kJ/mol
# Density = 1.943533 g / cm^3
# Si number density = 19.479670 Si / 1000 Ang^3
#
#
#
# Elastic Constant Matrix: (Units=GPa)
#
#
# Indices 1 2 3 4 5 6 
#
# 1 61.5044 23.3625 37.1406 0.0000 3.8021 0.0000
# 2 23.3625 112.9236 43.3177 0.0000 2.9613 0.0000
# 3 37.1406 43.3177 89.7988 0.0000 -9.0778 0.0000
# 4 0.0000 0.0000 0.0000 21.1872 0.0000 0.1355
# 5 3.8021 2.9613 -9.0778 0.0000 16.3474 0.0000
# 6 0.0000 0.0000 0.0000 0.1355 0.0000 6.1849
#
#
#
# Elastic Compliance Matrix: (Units=1/GPa)
#
#
# Indices 1 2 3 4 5 6 
#
# 1 0.023583 -0.000493 -0.010660 0.000000 -0.011315 0.000000
# 2 -0.000493 0.011305 -0.005769 0.000000 -0.005137 0.000000
# 3 -0.010660 -0.005769 0.019795 0.000000 0.014517 0.000000
# 4 0.000000 0.000000 0.000000 0.047205 0.000000 -0.001034
# 5 -0.011315 -0.005137 0.014517 0.000000 0.072795 0.000000
# 6 0.000000 0.000000 0.000000 -0.001034 0.000000 0.161706
#
#
# Mechanical properties :
#
#
# Convention : Reuss Voigt Hill
#
# Bulk Modulus (GPa) = 47.98510 52.42983 50.20746
# Shear Modulus (GPa) = 13.25630 19.43766 16.34698
#
# Velocity S-wave (km/s) = 2.61151 3.16229 2.90001
# Velocity P-wave (km/s) = 5.81207 6.34878 6.08635
#
# Compressibility (1/GPa) = 0.02083980
#
# Stress axis : x y z
#
# Youngs Moduli (GPa) = 42.40353 88.45510 50.51749
#
# Poissons Ratio (x) = 0.04362 0.53851
# Poissons Ratio (y) = 0.02091 0.29142
# Poissons Ratio (z) = 0.45201 0.51027
#
# Static dielectric constant tensor:
#      x y z
#    x 1.694190 0.000000 -0.034570 
#    y 0.000000 1.672660 0.000000 
#    z -0.034570 0.000000 1.694010 
# 
# From -- ./inp_files/25311.got.cif
#   From: 2010.05.17/outbox.cif.g08.bks.cpg/sg14_13_cif.got.tgz:25311.got - 2010.06.03 17:49:19.
