data_PCOD9244157
_publ_section_title
;
Structure prediction by ZEFSAII (Michael W. Deem and Ramdas Pophale) SiO2 
 PCOD9244157
Probable space group: P 21/C
;
_chemical_formula_sum "Si O2"
_cell_formula_units_Z 32
_cell_length_a 15.307465
_cell_length_b 13.358686
_cell_length_c 18.543253
_cell_angle_alpha 90.000000
_cell_angle_beta 26.834717
_cell_angle_gamma 90.000000
_cell_volume 1711.717538
_symmetry_space_group_name_H-M "P 21/C"
_symmetry_group_IT_number 14
_symmetry_cell_setting 'monoclinic'
loop_
_space_group_symop_operation_xyz
x,y,z
-x,1/2+y,1/2-z
-x,-y,-z
x,1/2-y,1/2+z
loop_
_atom_site_type_symbol
_atom_site_label
_atom_site_fract_x
_atom_site_fract_y
_atom_site_fract_z
Si Si1 0.966609 0.654002 0.350980
Si Si2 0.721524 0.162645 0.040211
Si Si3 0.009158 0.648194 0.156219
Si Si4 0.692007 0.778000 0.642181
Si Si5 0.686634 0.775716 0.312110
Si Si6 0.285450 0.827771 0.121373
Si Si7 0.044759 0.464291 0.384721
Si Si8 0.005605 0.952872 0.416510
O O1 0.770793 0.690734 0.533228
O O2 0.061652 0.562889 0.323842
O O3 0.931012 0.631921 0.293995
O O4 0.116069 0.745705 0.243804
O O5 0.510392 0.172812 0.229776
O O6 0.814785 0.273606 0.970061
O O7 0.704008 0.129436 0.968767
O O8 0.862364 0.094695 0.984238
O O9 0.848640 0.701137 0.224566
O O10 0.062142 0.541566 0.085505
O O11 0.668374 0.735789 0.739848
O O12 0.854739 0.862770 0.525780
O O13 0.482818 0.733267 0.492431
O O14 0.773367 0.887877 0.258445
O O15 0.210347 0.909949 0.234551
O O16 0.000000 0.500000 0.500000
O O17 0.000000 0.000000 0.500000
#
# Coordination Sequence:
#
# PCOD9244157 Si02
#       8
#     4   4   4   4   4   4   4   4
#     4  10  21  39  60  85 119 156 197 249 302 362
#     4   9  21  39  59  86 122 158 196 250 305 367
#     4  10  21  39  59  86 118 154 195 251 305 357
#     4  10  20  40  60  86 120 157 200 246 306 367
#     4  10  20  40  61  86 119 158 198 247 309 369
#     4   9  21  39  60  85 122 158 196 250 307 361
#     4  11  21  37  63  88 121 158 202 250 301 365
#     4  11  21  37  61  88 118 157 203 252 294 364
#
# _framework density 18.694673000000002
#
# number of rings (size 3 to 8) (size 9 to 14) (size 15 to 20)
#    0.000    2.000    2.500    0.750    0.000    3.000 
#    9.000    0.000    0.000    0.000    0.000    0.000 
#    0.000    0.000    0.000    0.000    0.000    0.000 
#
# Total GULP energy -178339.185014 kJ/mol
# GULP energy per Si atom -5573.099532 kJ/mol
# Density = 1.865212 g / cm^3
# Si number density = 18.694673 Si / 1000 Ang^3
#
#
#
# Elastic Constant Matrix: (Units=GPa)
#
#
# Indices 1 2 3 4 5 6 
#
# 1 60.8419 12.3436 19.3462 0.0000 7.6235 0.0000
# 2 12.3436 59.0523 10.7953 0.0000 17.0329 0.0000
# 3 19.3462 10.7953 88.2204 0.0000 -1.7004 0.0000
# 4 0.0000 0.0000 0.0000 20.2451 0.0000 5.9550
# 5 7.6235 17.0329 -1.7004 0.0000 26.8109 0.0000
# 6 0.0000 0.0000 0.0000 5.9550 0.0000 29.0619
#
#
#
# Elastic Compliance Matrix: (Units=1/GPa)
#
#
# Indices 1 2 3 4 5 6 
#
# 1 0.018618 -0.001928 -0.003930 0.000000 -0.004319 0.000000
# 2 -0.001928 0.021645 -0.002483 0.000000 -0.013360 0.000000
# 3 -0.003930 -0.002483 0.012568 0.000000 0.003492 0.000000
# 4 0.000000 0.000000 0.000000 0.052563 0.000000 -0.010770
# 5 -0.004319 -0.013360 0.003492 0.000000 0.047235 0.000000
# 6 0.000000 0.000000 0.000000 -0.010770 0.000000 0.036616
#
#
# Mechanical properties :
#
#
# Convention : Reuss Voigt Hill
#
# Bulk Modulus (GPa) = 27.66359 32.56498 30.11429
# Shear Modulus (GPa) = 22.93820 26.26556 24.60188
#
# Velocity S-wave (km/s) = 3.50664 3.75237 3.63158
# Velocity P-wave (km/s) = 5.58794 6.01921 5.80758
#
# Compressibility (1/GPa) = 0.03614859
#
# Stress axis : x y z
#
# Youngs Moduli (GPa) = 53.71170 46.20086 79.56527
#
# Poissons Ratio (x) = 0.08906 0.31270
# Poissons Ratio (y) = 0.10353 0.19759
# Poissons Ratio (z) = 0.21110 0.11473
#
# Static dielectric constant tensor:
#      x y z
#    x 1.641500 0.000000 0.001500 
#    y 0.000000 1.655990 0.000000 
#    z 0.001500 0.000000 1.682330 
# 
# From -- ./inp_files/55573.got.cif
#   From: 2010.05.17/outbox.cif.g08.bks.cpg/sg14_28_cif.got.tgz:55573.got - 2010.06.03 17:49:19.
