data_PCOD9244315
_publ_section_title
;
Structure prediction by ZEFSAII (Michael W. Deem and Ramdas Pophale) SiO2 
 PCOD9244315
Probable space group: P 21/C
;
_chemical_formula_sum "Si O2"
_cell_formula_units_Z 26
_cell_length_a 17.942055
_cell_length_b 8.336412
_cell_length_c 24.723230
_cell_angle_alpha 90.000000
_cell_angle_beta 162.286795
_cell_angle_gamma 90.000000
_cell_volume 1125.099367
_symmetry_space_group_name_H-M "P 21/C"
_symmetry_group_IT_number 14
_symmetry_cell_setting 'monoclinic'
loop_
_space_group_symop_operation_xyz
x,y,z
-x,1/2+y,1/2-z
-x,-y,-z
x,1/2-y,1/2+z
loop_
_atom_site_type_symbol
_atom_site_label
_atom_site_fract_x
_atom_site_fract_y
_atom_site_fract_z
Si Si1 0.517216 0.118947 0.723380
Si Si2 0.201432 0.379363 0.743856
Si Si3 0.000000 0.500000 0.500000
Si Si4 0.094694 0.614347 0.311911
Si Si5 0.295925 0.783852 0.351434
Si Si6 0.375775 0.283885 0.519665
Si Si7 0.741703 0.206002 0.471888
O O1 0.466523 0.253869 0.643008
O O2 0.539907 0.193502 0.798446
O O3 0.323292 0.977959 0.582104
O O4 0.782322 0.047287 0.891788
O O5 0.151991 0.554542 0.736493
O O6 0.199790 0.412053 0.678986
O O7 0.003094 0.250553 0.625986
O O8 0.463780 0.327081 0.947821
O O9 0.142183 0.668704 0.283335
O O10 0.207742 0.440134 0.398676
O O11 0.231421 0.732101 0.448539
O O12 0.804708 0.636754 0.121269
O O13 0.398823 0.711934 0.366298
#
# Coordination Sequence:
#
# PCOD9244315 Si02
#       7
#     4   4   2   4   4   4   4
#     4  11  24  44  68  98 137 176 232 275 346 400
#     4  10  21  39  69  96 133 177 226 271 347 394
#     4  10  20  40  66  92 126 184 214 270 330 410
#     4  12  25  42  69  99 140 174 231 278 343 400
#     4  11  23  42  68 101 134 181 221 284 338 417
#     4  12  25  44  67 102 132 182 222 285 337 411
#     4  11  23  42  66 100 131 182 220 282 333 410
#
# _framework density 23.109072000000001
#
# number of rings (size 3 to 8) (size 9 to 14) (size 15 to 20)
#    0.000    0.923    3.077    4.154    4.308    1.231 
#    0.000    0.000    0.000    5.538    0.000    0.000 
#    0.000    0.000    0.000    0.000    0.000    0.000 
#
# Total GULP energy -145065.611004 kJ/mol
# GULP energy per Si atom -5579.446577 kJ/mol
# Density = 2.305647 g / cm^3
# Si number density = 23.109072 Si / 1000 Ang^3
#
#
#
# Elastic Constant Matrix: (Units=GPa)
#
#
# Indices 1 2 3 4 5 6 
#
# 1 90.0632 21.2649 21.0008 0.0000 1.1134 0.0000
# 2 21.2649 59.8734 20.6763 0.0000 -0.6943 0.0000
# 3 21.0008 20.6763 74.6606 0.0000 -13.6666 0.0000
# 4 0.0000 0.0000 0.0000 34.2833 0.0000 -6.2196
# 5 1.1134 -0.6943 -13.6666 0.0000 29.7439 0.0000
# 6 0.0000 0.0000 0.0000 -6.2196 0.0000 29.6133
#
#
#
# Elastic Compliance Matrix: (Units=1/GPa)
#
#
# Indices 1 2 3 4 5 6 
#
# 1 0.012637 -0.003497 -0.002934 0.000000 -0.001903 0.000000
# 2 -0.003497 0.019556 -0.004722 0.000000 -0.001582 0.000000
# 3 -0.002934 -0.004722 0.016953 0.000000 0.007789 0.000000
# 4 0.000000 0.000000 0.000000 0.030324 0.000000 0.006369
# 5 -0.001903 -0.001582 0.007789 0.000000 0.037233 0.000000
# 6 0.000000 0.000000 0.000000 0.006369 0.000000 0.035106
#
#
# Mechanical properties :
#
#
# Convention : Reuss Voigt Hill
#
# Bulk Modulus (GPa) = 37.25861 38.94235 38.10048
# Shear Modulus (GPa) = 27.31311 29.50512 28.40912
#
# Velocity S-wave (km/s) = 3.44164 3.57708 3.51001
# Velocity P-wave (km/s) = 5.65253 5.82656 5.74020
#
# Compressibility (1/GPa) = 0.02683944
#
# Stress axis : x y z
#
# Youngs Moduli (GPa) = 79.13440 51.13494 58.98733
#
# Poissons Ratio (x) = 0.17881 0.17309
# Poissons Ratio (y) = 0.27672 0.27853
# Poissons Ratio (z) = 0.23222 0.24145
#
# Static dielectric constant tensor:
#      x y z
#    x 1.858820 0.000000 -0.020430 
#    y 0.000000 1.864290 0.000000 
#    z -0.020430 0.000000 1.895480 
# 
# From -- ./inp_files/74317.got.cif
#   From: 2010.05.17/outbox.cif.g08.bks.cpg/sg14_38_cif.got.tgz:74317.got - 2010.06.03 17:49:19.
