data_PCOD9244395
_publ_section_title
;
Structure prediction by ZEFSAII (Michael W. Deem and Ramdas Pophale) SiO2 
 PCOD9244395
Probable space group: P 21/C
;
_chemical_formula_sum "Si O2"
_cell_formula_units_Z 24
_cell_length_a 10.344465
_cell_length_b 22.789951
_cell_length_c 7.314998
_cell_angle_alpha 90.000000
_cell_angle_beta 45.121752
_cell_angle_gamma 90.000000
_cell_volume 1222.000956
_symmetry_space_group_name_H-M "P 21/C"
_symmetry_group_IT_number 14
_symmetry_cell_setting 'monoclinic'
loop_
_space_group_symop_operation_xyz
x,y,z
-x,1/2+y,1/2-z
-x,-y,-z
x,1/2-y,1/2+z
loop_
_atom_site_type_symbol
_atom_site_label
_atom_site_fract_x
_atom_site_fract_y
_atom_site_fract_z
Si Si1 0.641521 0.384185 0.219362
Si Si2 0.890460 0.449578 0.215909
Si Si3 0.218242 0.105848 0.572368
Si Si4 0.645624 0.693387 0.342646
Si Si5 0.487864 0.506868 0.232844
Si Si6 0.613831 0.826735 0.270703
O O1 0.831319 0.403060 0.117593
O O2 0.543592 0.343191 0.467969
O O3 0.541317 0.445856 0.276126
O O4 0.590131 0.348109 0.085598
O O5 0.708843 0.473251 0.497028
O O6 0.020786 0.421319 0.238402
O O7 0.000000 0.500000 0.000000
O O8 0.233945 0.163543 0.430938
O O9 0.362102 0.056018 0.367591
O O10 0.284301 0.127181 0.703997
O O11 0.611642 0.762083 0.357141
O O12 0.716293 0.679101 0.474715
O O13 0.500000 0.500000 0.000000
#
# Coordination Sequence:
#
# PCOD9244395 Si02
#       6
#     4   4   4   4   4   4
#     4  10  21  40  63  95 129 170 220 266 324 398
#     4  12  25  39  66  99 134 175 215 270 338 394
#     4  12  22  41  67  94 134 170 218 275 330 391
#     4  10  20  40  70  87 127 175 223 262 335 388
#     4  12  22  42  65  96 135 174 216 274 329 393
#     4  10  21  39  70  91 123 180 221 265 330 398
#
# _framework density 19.639918000000002
#
# number of rings (size 3 to 8) (size 9 to 14) (size 15 to 20)
#    1.000    0.000    6.667    1.500    0.000    0.667 
#    3.000    1.667    0.000    0.000    0.000    0.000 
#    0.000    0.000    0.000    0.000    0.000    0.000 
#
# Total GULP energy -133654.860011 kJ/mol
# GULP energy per Si atom -5568.952500 kJ/mol
# Density = 1.959522 g / cm^3
# Si number density = 19.639918 Si / 1000 Ang^3
#
#
#
# Elastic Constant Matrix: (Units=GPa)
#
#
# Indices 1 2 3 4 5 6 
#
# 1 93.7288 22.5441 38.2864 0.0000 3.9519 0.0000
# 2 22.5441 97.2670 17.7845 0.0000 -10.3445 0.0000
# 3 38.2864 17.7845 57.0227 0.0000 -2.8090 0.0000
# 4 0.0000 0.0000 0.0000 14.7306 0.0000 6.8293
# 5 3.9519 -10.3445 -2.8090 0.0000 31.9136 0.0000
# 6 0.0000 0.0000 0.0000 6.8293 0.0000 29.3267
#
#
#
# Elastic Compliance Matrix: (Units=1/GPa)
#
#
# Indices 1 2 3 4 5 6 
#
# 1 0.015329 -0.002128 -0.009798 0.000000 -0.003450 0.000000
# 2 -0.002128 0.011544 -0.001983 0.000000 0.003831 0.000000
# 3 -0.009798 -0.001983 0.024870 0.000000 0.002760 0.000000
# 4 0.000000 0.000000 0.000000 0.076102 0.000000 -0.017722
# 5 -0.003450 0.003831 0.002760 0.000000 0.033247 0.000000
# 6 0.000000 0.000000 0.000000 -0.017722 0.000000 0.038225
#
#
# Mechanical properties :
#
#
# Convention : Reuss Voigt Hill
#
# Bulk Modulus (GPa) = 41.79841 45.02758 43.41300
# Shear Modulus (GPa) = 21.26658 26.48776 23.87717
#
# Velocity S-wave (km/s) = 3.29420 3.67641 3.49054
# Velocity P-wave (km/s) = 5.98311 6.40294 6.19658
#
# Compressibility (1/GPa) = 0.02392436
#
# Stress axis : x y z
#
# Youngs Moduli (GPa) = 65.23619 86.62339 40.20897
#
# Poissons Ratio (x) = 0.18436 0.39398
# Poissons Ratio (y) = 0.13884 0.07973
# Poissons Ratio (z) = 0.63921 0.17175
#
# Static dielectric constant tensor:
#      x y z
#    x 1.738310 0.000000 0.030850 
#    y 0.000000 1.700790 0.000000 
#    z 0.030850 0.000000 1.698370 
# 
# From -- ./inp_files/14088.got.cif
#   From: 2010.05.17/outbox.cif.g08.bks.cpg/sg14_8_cif.got.tgz:14088.got - 2010.06.03 17:49:19.
