data_PCOD9244820
_publ_section_title
;
Structure prediction by ZEFSAII (Michael W. Deem and Ramdas Pophale) SiO2 
 PCOD9244820
Probable space group: P 21/C
;
_chemical_formula_sum "Si O2"
_cell_formula_units_Z 32
_cell_length_a 10.635291
_cell_length_b 8.862429
_cell_length_c 26.649547
_cell_angle_alpha 90.000000
_cell_angle_beta 31.490541
_cell_angle_gamma 90.000000
_cell_volume 1312.079219
_symmetry_space_group_name_H-M "P 21/C"
_symmetry_group_IT_number 14
_symmetry_cell_setting 'monoclinic'
loop_
_space_group_symop_operation_xyz
x,y,z
-x,1/2+y,1/2-z
-x,-y,-z
x,1/2-y,1/2+z
loop_
_atom_site_type_symbol
_atom_site_label
_atom_site_fract_x
_atom_site_fract_y
_atom_site_fract_z
Si Si1 0.200898 0.758835 0.076427
Si Si2 0.080493 0.871791 0.717421
Si Si3 0.342534 0.178482 0.646674
Si Si4 0.960851 0.984923 0.600652
Si Si5 0.019753 0.508042 0.410382
Si Si6 0.343209 0.516219 0.885015
Si Si7 0.166580 0.729995 0.796314
Si Si8 0.326344 0.344946 0.389669
O O1 0.225410 0.725116 0.126637
O O2 0.981587 0.654793 0.130476
O O3 0.438097 0.705931 0.966031
O O4 0.122989 0.924180 0.085528
O O5 0.116249 0.806582 0.760716
O O6 0.804806 0.832501 0.799088
O O7 0.170361 0.043249 0.685574
O O8 0.438835 0.113148 0.666986
O O9 0.133728 0.939824 0.495631
O O10 0.731239 0.041129 0.646874
O O11 0.038418 0.125905 0.608672
O O12 0.192134 0.634335 0.327665
O O13 0.174980 0.395520 0.392413
O O14 0.820155 0.582952 0.514683
O O15 0.351228 0.335508 0.887917
O O16 0.392622 0.617816 0.711791
#
# Coordination Sequence:
#
# PCOD9244820 Si02
#       8
#     4   4   4   4   4   4   4   4
#     4  11  25  45  73 102 139 190 239 293 356 422
#     4  12  26  47  69 103 142 192 250 292 342 427
#     4  11  26  47  72 100 140 189 239 300 358 420
#     4  10  22  41  73 105 139 182 230 292 364 433
#     4  11  26  46  71 112 142 180 242 297 358 435
#     4  10  20  45  72 101 138 183 228 292 370 425
#     4  12  26  43  70 103 148 193 237 296 357 418
#     4  11  24  44  72 107 147 183 229 299 365 424
#
# _framework density 24.388771999999999
#
# number of rings (size 3 to 8) (size 9 to 14) (size 15 to 20)
#    0.000    1.000    3.750    1.875    1.750    4.000 
#    0.000    1.875    0.000    0.000    0.000    0.000 
#    0.000    0.000    0.000    0.000    0.000    0.000 
#
# Total GULP energy -178784.010069 kJ/mol
# GULP energy per Si atom -5587.000315 kJ/mol
# Density = 2.433326 g / cm^3
# Si number density = 24.388772 Si / 1000 Ang^3
#
#
#
# Elastic Constant Matrix: (Units=GPa)
#
#
# Indices 1 2 3 4 5 6 
#
# 1 85.7955 33.8391 45.3377 0.0000 10.9997 0.0000
# 2 33.8391 70.5121 29.3282 0.0000 -7.5826 0.0000
# 3 45.3377 29.3282 94.1888 0.0000 9.0530 0.0000
# 4 0.0000 0.0000 0.0000 42.8037 0.0000 -2.8382
# 5 10.9997 -7.5826 9.0530 0.0000 34.8243 0.0000
# 6 0.0000 0.0000 0.0000 -2.8382 0.0000 38.4382
#
#
#
# Elastic Compliance Matrix: (Units=1/GPa)
#
#
# Indices 1 2 3 4 5 6 
#
# 1 0.018336 -0.006855 -0.006145 0.000000 -0.005687 0.000000
# 2 -0.006855 0.019747 -0.003559 0.000000 0.007390 0.000000
# 3 -0.006145 -0.003559 0.014944 0.000000 -0.002719 0.000000
# 4 0.000000 0.000000 0.000000 0.023477 0.000000 0.001734
# 5 -0.005687 0.007390 -0.002719 0.000000 0.032828 0.000000
# 6 0.000000 0.000000 0.000000 0.001734 0.000000 0.026144
#
#
# Mechanical properties :
#
#
# Convention : Reuss Voigt Hill
#
# Bulk Modulus (GPa) = 50.22968 51.94517 51.08743
# Shear Modulus (GPa) = 28.53385 32.67932 30.60659
#
# Velocity S-wave (km/s) = 3.42418 3.66448 3.54636
# Velocity P-wave (km/s) = 6.02274 6.26495 6.14504
#
# Compressibility (1/GPa) = 0.01990855
#
# Stress axis : x y z
#
# Youngs Moduli (GPa) = 54.53878 50.64085 66.91471
#
# Poissons Ratio (x) = 0.34715 0.41117
# Poissons Ratio (y) = 0.37387 0.23817
# Poissons Ratio (z) = 0.33513 0.18025
#
# Static dielectric constant tensor:
#      x y z
#    x 1.966670 0.000000 -0.086850 
#    y 0.000000 1.932190 0.000000 
#    z -0.086850 0.000000 2.079500 
# 
# From -- ./inp_files/80003.got.cif
#   From: 2010.05.17/outbox.cif.g08.bks.cpg/sg14_41_cif.got.tgz:80003.got - 2010.06.03 17:49:19.
