data_PCOD9244948
_publ_section_title
;
Structure prediction by ZEFSAII (Michael W. Deem and Ramdas Pophale) SiO2 
 PCOD9244948
Probable space group: P 21/C
;
_chemical_formula_sum "Si O2"
_cell_formula_units_Z 32
_cell_length_a 15.486469
_cell_length_b 9.349878
_cell_length_c 24.320308
_cell_angle_alpha 90.000000
_cell_angle_beta 27.470638
_cell_angle_gamma 90.000000
_cell_volume 1624.445781
_symmetry_space_group_name_H-M "P 21/C"
_symmetry_group_IT_number 14
_symmetry_cell_setting 'monoclinic'
loop_
_space_group_symop_operation_xyz
x,y,z
-x,1/2+y,1/2-z
-x,-y,-z
x,1/2-y,1/2+z
loop_
_atom_site_type_symbol
_atom_site_label
_atom_site_fract_x
_atom_site_fract_y
_atom_site_fract_z
Si Si1 0.998015 0.361727 0.927737
Si Si2 0.724626 0.427931 0.175498
Si Si3 0.937940 0.553725 0.659101
Si Si4 0.788431 0.227088 0.243294
Si Si5 0.146481 0.113563 0.567981
Si Si6 0.678268 0.891807 0.059496
Si Si7 0.555032 0.866799 0.005468
Si Si8 0.301080 0.417776 0.101148
O O1 0.936677 0.477355 0.916383
O O2 0.165780 0.426393 0.870515
O O3 0.059278 0.212069 0.866759
O O4 0.817048 0.359553 0.069585
O O5 0.774873 0.325037 0.197746
O O6 0.501187 0.439163 0.304179
O O7 0.792821 0.434604 0.719030
O O8 0.869017 0.544902 0.761658
O O9 0.138783 0.484494 0.532147
O O10 0.619488 0.269542 0.377600
O O11 0.972828 0.276138 0.172547
O O12 0.286352 0.219788 0.455499
O O13 0.240041 0.066708 0.572132
O O14 0.639784 0.913939 0.015953
O O15 0.677879 0.753557 0.903036
O O16 0.500000 0.000000 0.000000
O O17 0.500000 0.500000 0.000000
#
# Coordination Sequence:
#
# PCOD9244948 Si02
#       8
#     4   4   4   4   4   4   4   4
#     4  10  22  39  64  92 117 156 204 254 298 369
#     4   9  20  42  64  85 119 157 202 252 308 359
#     4  11  23  37  57  93 123 155 205 251 305 363
#     4   9  19  39  58  82 123 156 198 249 305 360
#     4   9  21  38  58  82 117 161 195 243 300 358
#     4   9  21  39  57  83 120 156 197 251 303 368
#     4  10  21  35  59  84 113 169 203 239 306 365
#     4  11  23  38  56  86 128 159 199 251 300 359
#
# _framework density 19.699024999999999
#
# number of rings (size 3 to 8) (size 9 to 14) (size 15 to 20)
#    0.000    2.250    1.250    0.000    7.000    4.500 
#    0.000    0.000    0.000    0.000    0.000    0.000 
#    0.000    0.000    0.000    0.000    0.000    0.000 
#
# Total GULP energy -178150.784728 kJ/mol
# GULP energy per Si atom -5567.212023 kJ/mol
# Density = 1.965419 g / cm^3
# Si number density = 19.699025 Si / 1000 Ang^3
#
#
#
# Elastic Constant Matrix: (Units=GPa)
#
#
# Indices 1 2 3 4 5 6 
#
# 1 26.6341 9.4449 10.7434 0.0000 -2.2167 0.0000
# 2 9.4449 98.6579 41.3862 0.0000 8.6494 0.0000
# 3 10.7434 41.3862 97.6425 0.0000 8.5980 0.0000
# 4 0.0000 0.0000 0.0000 27.1048 0.0000 1.2501
# 5 -2.2167 8.6494 8.5980 0.0000 17.5524 0.0000
# 6 0.0000 0.0000 0.0000 1.2501 0.0000 4.9880
#
#
#
# Elastic Compliance Matrix: (Units=1/GPa)
#
#
# Indices 1 2 3 4 5 6 
#
# 1 0.040935 -0.002999 -0.003990 0.000000 0.008602 0.000000
# 2 -0.002999 0.012779 -0.004701 0.000000 -0.004373 0.000000
# 3 -0.003990 -0.004701 0.013078 0.000000 -0.004593 0.000000
# 4 0.000000 0.000000 0.000000 0.037325 0.000000 -0.009354
# 5 0.008602 -0.004373 -0.004593 0.000000 0.062464 0.000000
# 6 0.000000 0.000000 0.000000 -0.009354 0.000000 0.202827
#
#
# Mechanical properties :
#
#
# Convention : Reuss Voigt Hill
#
# Bulk Modulus (GPa) = 23.03622 38.45372 30.74497
# Shear Modulus (GPa) = 12.27720 20.68635 16.48178
#
# Velocity S-wave (km/s) = 2.49918 3.24407 2.89568
# Velocity P-wave (km/s) = 4.47743 5.79612 5.17892
#
# Compressibility (1/GPa) = 0.04340991
#
# Stress axis : x y z
#
# Youngs Moduli (GPa) = 24.42900 78.25546 76.46668
#
# Poissons Ratio (x) = 0.23470 0.30512
# Poissons Ratio (y) = 0.07327 0.35949
# Poissons Ratio (z) = 0.09748 0.36790
#
# Static dielectric constant tensor:
#      x y z
#    x -9.752290 0.000000 4.209160 
#    y 0.000000 1.747430 0.000000 
#    z 4.209160 0.000000 0.186060 
# 
# From -- ./inp_files/73830.got.cif
#   From: 2010.05.17/outbox.cif.g08.bks.cpg/sg14_37_cif.got.tgz:73830.got - 2010.06.03 17:49:19.
