data_PCOD9244340
_publ_section_title
;
Structure prediction by ZEFSAII (Michael W. Deem and Ramdas Pophale) SiO2 
 PCOD9244340
Probable space group: P 21/C
;
_chemical_formula_sum "Si O2"
_cell_formula_units_Z 32
_cell_length_a 8.519353
_cell_length_b 11.928345
_cell_length_c 14.290898
_cell_angle_alpha 90.000000
_cell_angle_beta 87.635106
_cell_angle_gamma 90.000000
_cell_volume 1451.029623
_symmetry_space_group_name_H-M "P 21/C"
_symmetry_group_IT_number 14
_symmetry_cell_setting 'monoclinic'
loop_
_space_group_symop_operation_xyz
x,y,z
-x,1/2+y,1/2-z
-x,-y,-z
x,1/2-y,1/2+z
loop_
_atom_site_type_symbol
_atom_site_label
_atom_site_fract_x
_atom_site_fract_y
_atom_site_fract_z
Si Si1 0.502474 0.509490 0.765290
Si Si2 0.432700 0.642402 0.409583
Si Si3 0.122140 0.985232 0.913331
Si Si4 0.666278 0.492070 0.943860
Si Si5 0.959002 0.777914 0.849835
Si Si6 0.262310 0.304450 0.305548
Si Si7 0.285119 0.238898 0.502041
Si Si8 0.757437 0.129685 0.616908
O O1 0.494172 0.424523 0.679558
O O2 0.622929 0.458285 0.839870
O O3 0.584810 0.626483 0.731347
O O4 0.337426 0.541429 0.817148
O O5 0.289014 0.563896 0.447488
O O6 0.570578 0.680141 0.475369
O O7 0.351762 0.759908 0.384735
O O8 0.058638 0.891813 0.841799
O O9 0.156395 0.098182 0.855684
O O10 0.000000 0.000000 0.000000
O O11 0.716018 0.620753 0.944495
O O12 0.500000 0.500000 0.000000
O O13 0.770598 0.416751 0.009928
O O14 0.829447 0.758003 0.774055
O O15 0.873137 0.789274 0.952068
O O16 0.077164 0.672581 0.849066
O O17 0.294192 0.222024 0.391302
#
# Coordination Sequence:
#
# PCOD9244340 Si02
#       8
#     4   4   4   4   4   4   4   4
#     4  10  21  41  67  97 130 173 232 283 330 416
#     4  10  22  41  68  97 132 177 229 277 346 407
#     4  10  22  45  66  96 142 176 224 287 348 413
#     4  10  20  40  67  93 131 171 221 286 335 405
#     4  11  24  44  67  98 141 176 228 282 343 421
#     4  11  24  43  67  97 136 181 226 287 334 399
#     4  12  23  43  69  97 134 180 231 279 343 408
#     4  10  22  44  63  99 135 176 224 287 350 396
#
# _framework density 22.053304000000001
#
# number of rings (size 3 to 8) (size 9 to 14) (size 15 to 20)
#    0.000    1.500    5.000    0.000    0.000    8.500 
#    9.000    0.000    0.000    0.000    0.000    0.000 
#    0.000    0.000    0.000    0.000    0.000    0.000 
#
# Total GULP energy -178691.892343 kJ/mol
# GULP energy per Si atom -5584.121636 kJ/mol
# Density = 2.200311 g / cm^3
# Si number density = 22.053304 Si / 1000 Ang^3
#
#
#
# Elastic Constant Matrix: (Units=GPa)
#
#
# Indices 1 2 3 4 5 6 
#
# 1 78.3062 25.0033 34.3576 0.0000 -2.7535 0.0000
# 2 25.0033 80.0353 17.9125 0.0000 7.4938 0.0000
# 3 34.3576 17.9125 103.7455 0.0000 5.2953 0.0000
# 4 0.0000 0.0000 0.0000 34.7367 0.0000 -1.2085
# 5 -2.7535 7.4938 5.2953 0.0000 31.9617 0.0000
# 6 0.0000 0.0000 0.0000 -1.2085 0.0000 26.2449
#
#
#
# Elastic Compliance Matrix: (Units=1/GPa)
#
#
# Indices 1 2 3 4 5 6 
#
# 1 0.016396 -0.004340 -0.004845 0.000000 0.003233 0.000000
# 2 -0.004340 0.014381 -0.000862 0.000000 -0.003603 0.000000
# 3 -0.004845 -0.000862 0.011501 0.000000 -0.002121 0.000000
# 4 0.000000 0.000000 0.000000 0.028834 0.000000 0.001328
# 5 0.003233 -0.003603 -0.002121 0.000000 0.032762 0.000000
# 6 0.000000 0.000000 0.000000 0.001328 0.000000 0.038164
#
#
# Mechanical properties :
#
#
# Convention : Reuss Voigt Hill
#
# Bulk Modulus (GPa) = 45.08107 46.29263 45.68685
# Shear Modulus (GPa) = 29.49392 30.90956 30.20174
#
# Velocity S-wave (km/s) = 3.66101 3.74783 3.70467
# Velocity P-wave (km/s) = 6.19329 6.30596 6.24988
#
# Compressibility (1/GPa) = 0.02218226
#
# Stress axis : x y z
#
# Youngs Moduli (GPa) = 60.99068 69.53800 86.95144
#
# Poissons Ratio (x) = 0.30182 0.42132
# Poissons Ratio (y) = 0.26472 0.07492
# Poissons Ratio (z) = 0.29553 0.05992
#
# Static dielectric constant tensor:
#      x y z
#    x 1.758340 0.000000 0.045670 
#    y 0.000000 1.656170 0.000000 
#    z 0.045670 0.000000 1.810840 
# 
# From -- ./inp_files/40338.got.cif
#   From: 2010.05.17/outbox.cif.g08.bks.cpg/sg14_21_cif.got.tgz:40338.got - 2010.06.03 17:49:19.
