data_PCOD9244342
_publ_section_title
;
Structure prediction by ZEFSAII (Michael W. Deem and Ramdas Pophale) SiO2 
 PCOD9244342
Probable space group: P 21/C
;
_chemical_formula_sum "Si O2"
_cell_formula_units_Z 16
_cell_length_a 12.480093
_cell_length_b 12.032518
_cell_length_c 14.517432
_cell_angle_alpha 90.000000
_cell_angle_beta 160.367719
_cell_angle_gamma 90.000000
_cell_volume 732.454272
_symmetry_space_group_name_H-M "P 21/C"
_symmetry_group_IT_number 14
_symmetry_cell_setting 'monoclinic'
loop_
_space_group_symop_operation_xyz
x,y,z
-x,1/2+y,1/2-z
-x,-y,-z
x,1/2-y,1/2+z
loop_
_atom_site_type_symbol
_atom_site_label
_atom_site_fract_x
_atom_site_fract_y
_atom_site_fract_z
Si Si1 0.187463 0.382915 0.641992
Si Si2 0.683781 0.985155 0.436353
Si Si3 0.408376 0.037748 0.027476
Si Si4 0.528724 0.294245 0.101664
O O1 0.472344 0.411502 0.803103
O O2 0.000000 0.500000 0.500000
O O3 0.907404 0.299260 0.386579
O O4 0.339727 0.343313 0.861071
O O5 0.638320 0.985701 0.290348
O O6 0.547490 0.875308 0.374629
O O7 0.049438 0.000374 0.759196
O O8 0.427946 0.170511 0.043407
O O9 0.500000 0.000000 0.000000
#
# Coordination Sequence:
#
# PCOD9244342 Si02
#       4
#     4   4   4   4
#     4  10  20  40  67  96 121 157 216 267 305 371
#     4  11  23  43  66  93 124 170 218 255 308 386
#     4  12  27  43  61  96 135 167 209 261 317 379
#     4  11  23  42  67  95 127 166 209 267 322 364
#
# _framework density 21.844367999999999
#
# number of rings (size 3 to 8) (size 9 to 14) (size 15 to 20)
#    0.000    1.000    0.000    9.750    0.000    6.000 
#    0.000    0.000    0.000    0.000    0.000    0.000 
#    0.000    0.000    0.000    0.000    0.000    0.000 
#
# Total GULP energy -89560.131996 kJ/mol
# GULP energy per Si atom -5597.508250 kJ/mol
# Density = 2.179465 g / cm^3
# Si number density = 21.844368 Si / 1000 Ang^3
#
#
#
# Elastic Constant Matrix: (Units=GPa)
#
#
# Indices 1 2 3 4 5 6 
#
# 1 64.5576 40.8283 2.5811 0.0000 -21.4631 0.0000
# 2 40.8283 100.2058 10.8399 0.0000 -6.0509 0.0000
# 3 2.5811 10.8399 57.9245 0.0000 -16.3403 0.0000
# 4 0.0000 0.0000 0.0000 3.4808 0.0000 5.8156
# 5 -21.4631 -6.0509 -16.3403 0.0000 54.2391 0.0000
# 6 0.0000 0.0000 0.0000 5.8156 0.0000 24.8334
#
#
#
# Elastic Compliance Matrix: (Units=1/GPa)
#
#
# Indices 1 2 3 4 5 6 
#
# 1 0.024886 -0.009928 0.003513 0.000000 0.009799 0.000000
# 2 -0.009928 0.014165 -0.003138 0.000000 -0.003294 0.000000
# 3 0.003513 -0.003138 0.019659 0.000000 0.006963 0.000000
# 4 0.000000 0.000000 0.000000 0.471941 0.000000 -0.110521
# 5 0.009799 -0.003294 0.006963 0.000000 0.024044 0.000000
# 6 0.000000 0.000000 0.000000 -0.110521 0.000000 0.066150
#
#
# Mechanical properties :
#
#
# Convention : Reuss Voigt Hill
#
# Bulk Modulus (GPa) = 25.24945 36.79850 31.02397
# Shear Modulus (GPa) = 7.65519 27.73989 17.69754
#
# Velocity S-wave (km/s) = 1.87404 3.56741 2.84943
# Velocity P-wave (km/s) = 4.03319 5.81815 5.00587
#
# Compressibility (1/GPa) = 0.03960483
#
# Stress axis : x y z
#
# Youngs Moduli (GPa) = 40.18314 70.59601 50.86831
#
# Poissons Ratio (x) = 0.70088 -0.17871
# Poissons Ratio (y) = 0.39894 0.15960
# Poissons Ratio (z) = -0.14117 0.22150
#
# Static dielectric constant tensor:
#      x y z
#    x 1.799750 0.000000 0.023230 
#    y 0.000000 1.690660 0.000000 
#    z 0.023230 0.000000 1.793780 
# 
# From -- ./inp_files/20466.got.cif
#   From: 2010.05.17/outbox.cif.g08.bks.cpg/sg14_11_cif.got.tgz:20466.got - 2010.06.03 17:49:19.
