data_PCOD9244680
_publ_section_title
;
Structure prediction by ZEFSAII (Michael W. Deem and Ramdas Pophale) SiO2 
 PCOD9244680
Probable space group: P 21/C
;
_chemical_formula_sum "Si O2"
_cell_formula_units_Z 32
_cell_length_a 16.325304
_cell_length_b 11.733527
_cell_length_c 13.658808
_cell_angle_alpha 90.000000
_cell_angle_beta 147.006275
_cell_angle_gamma 90.000000
_cell_volume 1424.748370
_symmetry_space_group_name_H-M "P 21/C"
_symmetry_group_IT_number 14
_symmetry_cell_setting 'monoclinic'
loop_
_space_group_symop_operation_xyz
x,y,z
-x,1/2+y,1/2-z
-x,-y,-z
x,1/2-y,1/2+z
loop_
_atom_site_type_symbol
_atom_site_label
_atom_site_fract_x
_atom_site_fract_y
_atom_site_fract_z
Si Si1 0.137972 0.074429 0.678353
Si Si2 0.684003 0.570393 0.262562
Si Si3 0.787381 0.000815 0.547265
Si Si4 0.402979 0.450846 0.311181
Si Si5 0.107009 0.550706 0.398494
Si Si6 0.866796 0.675081 0.266739
Si Si7 0.653206 0.135675 0.591839
Si Si8 0.297651 0.635660 0.436912
O O1 0.257044 0.108398 0.711734
O O2 0.102331 0.191797 0.696186
O O3 0.231322 0.984358 0.835512
O O4 0.000000 0.000000 0.500000
O O5 0.780235 0.547723 0.455433
O O6 0.780098 0.635032 0.276638
O O7 0.659187 0.442639 0.193529
O O8 0.522571 0.627965 0.114547
O O9 0.676746 0.031414 0.348413
O O10 0.771718 0.871943 0.577433
O O11 0.963431 0.000329 0.696343
O O12 0.750569 0.078205 0.603479
O O13 0.500000 0.500000 0.500000
O O14 0.524896 0.380485 0.371665
O O15 0.197196 0.650102 0.432666
O O16 0.021498 0.605159 0.406478
O O17 0.712211 0.264649 0.652993
#
# Coordination Sequence:
#
# PCOD9244680 Si02
#       8
#     4   4   4   4   4   4   4   4
#     4  11  24  41  66  93 135 174 224 273 340 405
#     4  10  20  42  69  95 128 176 228 283 329 394
#     4   9  21  42  63  93 130 169 223 277 327 396
#     4  10  22  44  62  90 132 172 219 267 334 403
#     4  10  22  39  65  95 131 173 225 275 335 391
#     4   9  22  41  64  97 128 174 226 273 333 394
#     4  10  22  39  68  97 131 169 226 278 338 395
#     4  11  24  40  59  98 132 172 214 268 346 399
#
# _framework density 22.460107000000001
#
# number of rings (size 3 to 8) (size 9 to 14) (size 15 to 20)
#    0.750    1.250    0.000    2.625    1.750    2.000 
#   11.250    0.000    0.000    0.000    0.000    0.000 
#    0.000    0.000    0.000    0.000    0.000    0.000 
#
# Total GULP energy -178198.076714 kJ/mol
# GULP energy per Si atom -5568.689897 kJ/mol
# Density = 2.240899 g / cm^3
# Si number density = 22.460107 Si / 1000 Ang^3
#
#
#
# Elastic Constant Matrix: (Units=GPa)
#
#
# Indices 1 2 3 4 5 6 
#
# 1 83.3339 8.6863 20.1254 0.0000 30.6004 0.0000
# 2 8.6863 83.2617 19.7532 0.0000 8.1346 0.0000
# 3 20.1254 19.7532 106.5076 0.0000 5.2009 0.0000
# 4 0.0000 0.0000 0.0000 15.3650 0.0000 2.2541
# 5 30.6004 8.1346 5.2009 0.0000 40.7201 0.0000
# 6 0.0000 0.0000 0.0000 2.2541 0.0000 26.1688
#
#
#
# Elastic Compliance Matrix: (Units=1/GPa)
#
#
# Indices 1 2 3 4 5 6 
#
# 1 0.017285 0.000065 -0.002660 0.000000 -0.012663 0.000000
# 2 0.000065 0.012767 -0.002267 0.000000 -0.002310 0.000000
# 3 -0.002660 -0.002267 0.010256 0.000000 0.001142 0.000000
# 4 0.000000 0.000000 0.000000 0.065916 0.000000 -0.005678
# 5 -0.012663 -0.002310 0.001142 0.000000 0.034389 0.000000
# 6 0.000000 0.000000 0.000000 -0.005678 0.000000 0.038702
#
#
# Mechanical properties :
#
#
# Convention : Reuss Voigt Hill
#
# Bulk Modulus (GPa) = 32.69664 41.13702 36.91683
# Shear Modulus (GPa) = 25.09586 31.41999 28.25793
#
# Velocity S-wave (km/s) = 3.34631 3.74428 3.55087
# Velocity P-wave (km/s) = 5.43320 6.08672 5.76922
#
# Compressibility (1/GPa) = 0.03058418
#
# Stress axis : x y z
#
# Youngs Moduli (GPa) = 57.85244 78.32631 97.50057
#
# Poissons Ratio (x) = -0.00508 0.25934
# Poissons Ratio (y) = -0.00375 0.22106
# Poissons Ratio (z) = 0.15388 0.17759
#
# Static dielectric constant tensor:
#      x y z
#    x 1.992200 0.000000 -0.036540 
#    y 0.000000 1.825720 0.000000 
#    z -0.036540 0.000000 1.875590 
# 
# From -- ./inp_files/48937.got.cif
#   From: 2010.05.17/outbox.cif.g08.bks.cpg/sg14_25_cif.got.tgz:48937.got - 2010.06.03 17:49:19.
