data_PCOD9244130
_publ_section_title
;
Structure prediction by ZEFSAII (Michael W. Deem and Ramdas Pophale) SiO2 
 PCOD9244130
Probable space group: P 21/C
;
_chemical_formula_sum "Si O2"
_cell_formula_units_Z 28
_cell_length_a 10.003342
_cell_length_b 8.709351
_cell_length_c 19.958849
_cell_angle_alpha 90.000000
_cell_angle_beta 126.846040
_cell_angle_gamma 90.000000
_cell_volume 1391.528032
_symmetry_space_group_name_H-M "P 21/C"
_symmetry_group_IT_number 14
_symmetry_cell_setting 'monoclinic'
loop_
_space_group_symop_operation_xyz
x,y,z
-x,1/2+y,1/2-z
-x,-y,-z
x,1/2-y,1/2+z
loop_
_atom_site_type_symbol
_atom_site_label
_atom_site_fract_x
_atom_site_fract_y
_atom_site_fract_z
Si Si1 0.428715 0.722785 0.119240
Si Si2 0.231084 0.953840 0.131656
Si Si3 0.138848 0.153632 0.980642
Si Si4 0.887408 0.165050 0.658720
Si Si5 0.198271 0.389224 0.766150
Si Si6 0.844702 0.498853 0.003831
Si Si7 0.327334 0.914582 0.959182
O O1 0.382749 0.834426 0.167384
O O2 0.620647 0.683992 0.165933
O O3 0.314604 0.571255 0.082497
O O4 0.359076 0.817846 0.035548
O O5 0.059703 0.858837 0.067984
O O6 0.216800 0.033522 0.198692
O O7 0.227916 0.084580 0.073364
O O8 0.190167 0.327278 0.984251
O O9 0.188441 0.041944 0.934688
O O10 0.741148 0.294781 0.615729
O O11 0.057432 0.257254 0.724339
O O12 0.849881 0.024471 0.696748
O O13 0.889971 0.098363 0.583743
O O14 0.000000 0.500000 0.000000
O O15 0.500000 0.000000 0.000000
#
# Coordination Sequence:
#
# PCOD9244130 Si02
#       7
#     4   4   4   4   4   4   4
#     4  10  25  42  64 100 127 169 226 280 317 404
#     4  10  21  44  64  93 130 176 220 272 339 387
#     4  10  20  39  73  91 124 171 227 279 319 402
#     4  11  28  42  65  99 134 186 214 274 342 407
#     4  12  27  45  63  98 148 172 225 272 351 404
#     4  11  22  41  72  99 126 174 229 271 327 397
#     4  10  23  43  68  93 127 173 227 271 333 391
#
# _framework density 20.121765
#
# number of rings (size 3 to 8) (size 9 to 14) (size 15 to 20)
#    0.000    1.429    2.857    0.857    8.000    3.429 
#    2.571    0.000    0.000    0.000    0.000    0.000 
#    0.000    0.000    0.000    0.000    0.000    0.000 
#
# Total GULP energy -156366.540722 kJ/mol
# GULP energy per Si atom -5584.519312 kJ/mol
# Density = 2.007597 g / cm^3
# Si number density = 20.121765 Si / 1000 Ang^3
#
#
#
# Elastic Constant Matrix: (Units=GPa)
#
#
# Indices 1 2 3 4 5 6 
#
# 1 88.9013 54.9811 33.5067 0.0000 18.3422 0.0000
# 2 54.9811 135.2656 40.9211 0.0000 19.4874 0.0000
# 3 33.5067 40.9211 55.0066 0.0000 17.8163 0.0000
# 4 0.0000 0.0000 0.0000 28.1950 0.0000 4.4185
# 5 18.3422 19.4874 17.8163 0.0000 37.1677 0.0000
# 6 0.0000 0.0000 0.0000 4.4185 0.0000 45.4583
#
#
#
# Elastic Compliance Matrix: (Units=1/GPa)
#
#
# Indices 1 2 3 4 5 6 
#
# 1 0.016999 -0.004688 -0.005855 0.000000 -0.003124 0.000000
# 2 -0.004688 0.010947 -0.004946 0.000000 -0.001055 0.000000
# 3 -0.005855 -0.004946 0.027997 0.000000 -0.007937 0.000000
# 4 0.000000 0.000000 0.000000 0.036016 0.000000 -0.003501
# 5 -0.003124 -0.001055 -0.007937 0.000000 0.032805 0.000000
# 6 0.000000 0.000000 0.000000 -0.003501 0.000000 0.022338
#
#
# Mechanical properties :
#
#
# Convention : Reuss Voigt Hill
#
# Bulk Modulus (GPa) = 40.05847 59.77680 49.91763
# Shear Modulus (GPa) = 26.82366 32.14850 29.48608
#
# Velocity S-wave (km/s) = 3.65508 4.00146 3.83218
# Velocity P-wave (km/s) = 6.14525 7.14989 6.66652
#
# Compressibility (1/GPa) = 0.02496351
#
# Stress axis : x y z
#
# Youngs Moduli (GPa) = 58.82597 91.35098 35.71835
#
# Poissons Ratio (x) = 0.42827 0.20914
# Poissons Ratio (y) = 0.27579 0.17667
# Poissons Ratio (z) = 0.34444 0.45184
#
# Static dielectric constant tensor:
#      x y z
#    x 1.735490 0.000000 0.003990 
#    y 0.000000 1.765520 0.000000 
#    z 0.003990 0.000000 1.713390 
# 
# From -- ./inp_files/65038.got.cif
#   From: 2010.05.17/outbox.cif.g08.bks.cpg/sg14_33_cif.got.tgz:65038.got - 2010.06.03 17:49:19.
