data_PCOD9244673
_publ_section_title
;
Structure prediction by ZEFSAII (Michael W. Deem and Ramdas Pophale) SiO2 
 PCOD9244673
Probable space group: P 21/C
;
_chemical_formula_sum "Si O2"
_cell_formula_units_Z 20
_cell_length_a 7.280708
_cell_length_b 13.312172
_cell_length_c 8.744363
_cell_angle_alpha 90.000000
_cell_angle_beta 124.751067
_cell_angle_gamma 90.000000
_cell_volume 696.354429
_symmetry_space_group_name_H-M "P 21/C"
_symmetry_group_IT_number 14
_symmetry_cell_setting 'monoclinic'
loop_
_space_group_symop_operation_xyz
x,y,z
-x,1/2+y,1/2-z
-x,-y,-z
x,1/2-y,1/2+z
loop_
_atom_site_type_symbol
_atom_site_label
_atom_site_fract_x
_atom_site_fract_y
_atom_site_fract_z
Si Si1 0.380088 0.880665 0.535602
Si Si2 0.119948 0.579095 0.172415
Si Si3 0.618373 0.885736 0.146828
Si Si4 0.251959 0.278654 0.982495
Si Si5 0.240167 0.961303 0.169542
O O1 0.530395 0.807582 0.510743
O O2 0.204567 0.915039 0.322887
O O3 0.554505 0.964291 0.681359
O O4 0.254429 0.844952 0.625831
O O5 0.295725 0.500591 0.322907
O O6 0.367998 0.608827 0.604898
O O7 0.000000 0.500000 0.000000
O O8 0.947535 0.650714 0.177231
O O9 0.734322 0.817881 0.337460
O O10 0.722019 0.838352 0.039693
O O11 0.000000 0.000000 0.000000
#
# Coordination Sequence:
#
# PCOD9244673 Si02
#       5
#     4   4   4   4   4
#     4   9  19  38  64  97 134 178 231 289 356 434
#     4   9  18  38  68  93 131 190 236 286 368 433
#     4   9  20  39  67 104 141 187 250 300 361 447
#     4  10  20  42  68  97 143 189 237 304 366 425
#     4   9  17  36  69 101 134 180 236 296 361 427
#
# _framework density 28.72101
#
# number of rings (size 3 to 8) (size 9 to 14) (size 15 to 20)
#    0.000    2.800    0.000    3.600    0.000    0.000 
#    0.000   27.000    0.000   43.200    0.000   16.800 
#    0.000    0.000    0.000    0.000    0.000    0.000 
#
# Total GULP energy -111558.766130 kJ/mol
# GULP energy per Si atom -5577.938307 kJ/mol
# Density = 2.865564 g / cm^3
# Si number density = 28.721010 Si / 1000 Ang^3
#
#
#
# Elastic Constant Matrix: (Units=GPa)
#
#
# Indices 1 2 3 4 5 6 
#
# 1 169.4308 65.9757 53.3925 0.0000 9.1238 0.0000
# 2 65.9757 79.7923 59.5458 0.0000 -10.9175 0.0000
# 3 53.3925 59.5458 144.8514 0.0000 25.5803 0.0000
# 4 0.0000 0.0000 0.0000 34.8935 0.0000 -22.9793
# 5 9.1238 -10.9175 25.5803 0.0000 57.0127 0.0000
# 6 0.0000 0.0000 0.0000 -22.9793 0.0000 66.3102
#
#
#
# Elastic Compliance Matrix: (Units=1/GPa)
#
#
# Indices 1 2 3 4 5 6 
#
# 1 0.009229 -0.008702 0.000793 0.000000 -0.003499 0.000000
# 2 -0.008702 0.029680 -0.011125 0.000000 0.012068 0.000000
# 3 0.000793 -0.011125 0.012580 0.000000 -0.007902 0.000000
# 4 0.000000 0.000000 0.000000 0.037133 0.000000 0.012868
# 5 -0.003499 0.012068 -0.007902 0.000000 0.023956 0.000000
# 6 0.000000 0.000000 0.000000 0.012868 0.000000 0.019540
#
#
# Mechanical properties :
#
#
# Convention : Reuss Voigt Hill
#
# Bulk Modulus (GPa) = 74.49945 83.54473 79.02209
# Shear Modulus (GPa) = 28.62723 45.98732 37.30728
#
# Velocity S-wave (km/s) = 3.16054 4.00581 3.60801
# Velocity P-wave (km/s) = 6.27009 7.10963 6.70301
#
# Compressibility (1/GPa) = 0.01342292
#
# Stress axis : x y z
#
# Youngs Moduli (GPa) = 108.35486 33.69219 79.49218
#
# Poissons Ratio (x) = 0.29317 -0.06305
# Poissons Ratio (y) = 0.94285 0.88433
# Poissons Ratio (z) = -0.08594 0.37482
#
# Static dielectric constant tensor:
#      x y z
#    x 2.199230 0.000000 0.107990 
#    y 0.000000 -0.217380 0.000000 
#    z 0.107990 0.000000 2.613320 
# 
# From -- ./inp_files/13824.got.cif
#   From: 2010.05.17/outbox.cif.g08.bks.cpg/sg14_7_cif.got.tgz:13824.got - 2010.06.03 17:49:19.
