data_PCOD9244953
_publ_section_title
;
Structure prediction by ZEFSAII (Michael W. Deem and Ramdas Pophale) SiO2 
 PCOD9244953
Probable space group: P 21/C
;
_chemical_formula_sum "Si O2"
_cell_formula_units_Z 32
_cell_length_a 10.968806
_cell_length_b 7.008675
_cell_length_c 21.521414
_cell_angle_alpha 90.000000
_cell_angle_beta 56.761607
_cell_angle_gamma 90.000000
_cell_volume 1383.816981
_symmetry_space_group_name_H-M "P 21/C"
_symmetry_group_IT_number 14
_symmetry_cell_setting 'monoclinic'
loop_
_space_group_symop_operation_xyz
x,y,z
-x,1/2+y,1/2-z
-x,-y,-z
x,1/2-y,1/2+z
loop_
_atom_site_type_symbol
_atom_site_label
_atom_site_fract_x
_atom_site_fract_y
_atom_site_fract_z
Si Si1 0.833894 0.572166 0.247724
Si Si2 0.660520 0.517553 0.169968
Si Si3 0.567797 0.064558 0.880788
Si Si4 0.621281 0.425311 0.682314
Si Si5 0.624350 0.705482 0.473901
Si Si6 0.096378 0.481597 0.568537
Si Si7 0.125385 0.301277 0.428039
Si Si8 0.111309 0.168486 0.657972
O O1 0.743389 0.585194 0.209830
O O2 0.736623 0.421535 0.314974
O O3 0.843727 0.761809 0.286120
O O4 0.993222 0.493195 0.191800
O O5 0.489328 0.568233 0.227620
O O6 0.662714 0.292801 0.161251
O O7 0.767652 0.621825 0.092253
O O8 0.475038 0.014643 0.846245
O O9 0.561035 0.881310 0.928500
O O10 0.495238 0.234172 0.940213
O O11 0.768296 0.546282 0.636184
O O12 0.730229 0.532347 0.469261
O O13 0.741359 0.865069 0.422768
O O14 0.076353 0.361831 0.510566
O O15 0.042346 0.355997 0.642151
O O16 0.017990 0.681184 0.575603
#
# Coordination Sequence:
#
# PCOD9244953 Si02
#       8
#     4   4   4   4   4   4   4   4
#     4  10  21  35  59  92 115 155 203 258 302 365
#     4  11  24  36  59  94 122 159 205 247 307 369
#     4   9  17  33  62  83 113 156 205 239 304 365
#     4  11  20  39  57  90 122 157 199 251 300 363
#     4   8  16  34  60  83 109 159 200 243 303 369
#     4   9  20  37  61  84 116 166 196 247 310 358
#     4  11  21  39  63  85 123 164 200 247 310 362
#     4   9  19  37  59  84 119 152 197 254 304 359
#
# _framework density 23.124447
#
# number of rings (size 3 to 8) (size 9 to 14) (size 15 to 20)
#    0.750    1.500    2.500    0.750    1.750    0.000 
#    0.000    5.625    8.250    1.500    0.000    0.000 
#    0.000    0.000    0.000    0.000    0.000    0.000 
#
# Total GULP energy -178158.882154 kJ/mol
# GULP energy per Si atom -5567.465067 kJ/mol
# Density = 2.307181 g / cm^3
# Si number density = 23.124447 Si / 1000 Ang^3
#
#
#
# Elastic Constant Matrix: (Units=GPa)
#
#
# Indices 1 2 3 4 5 6 
#
# 1 41.2258 -16.1874 -0.1238 0.0000 0.9860 0.0000
# 2 -16.1874 54.9295 10.6103 0.0000 -11.7893 0.0000
# 3 -0.1238 10.6103 70.7689 0.0000 -8.5013 0.0000
# 4 0.0000 0.0000 0.0000 20.8831 0.0000 -11.4553
# 5 0.9860 -11.7893 -8.5013 0.0000 32.3939 0.0000
# 6 0.0000 0.0000 0.0000 -11.4553 0.0000 13.7835
#
#
#
# Elastic Compliance Matrix: (Units=1/GPa)
#
#
# Indices 1 2 3 4 5 6 
#
# 1 0.027657 0.008796 -0.001019 0.000000 0.002092 0.000000
# 2 0.008796 0.022872 -0.002526 0.000000 0.007393 0.000000
# 3 -0.001019 -0.002526 0.014869 0.000000 0.003014 0.000000
# 4 0.000000 0.000000 0.000000 0.088006 0.000000 0.073141
# 5 0.002092 0.007393 0.003014 0.000000 0.034288 0.000000
# 6 0.000000 0.000000 0.000000 0.073141 0.000000 0.133336
#
#
# Mechanical properties :
#
#
# Convention : Reuss Voigt Hill
#
# Bulk Modulus (GPa) = 13.17485 17.28026 15.22755
# Shear Modulus (GPa) = 14.88862 24.92047 19.90454
#
# Velocity S-wave (km/s) = 2.54017 3.28635 2.93705
# Velocity P-wave (km/s) = 3.78325 4.67857 4.25453
#
# Compressibility (1/GPa) = 0.07590221
#
# Stress axis : x y z
#
# Youngs Moduli (GPa) = 36.15657 43.72143 67.25195
#
# Poissons Ratio (x) = -0.38459 0.06854
# Poissons Ratio (y) = -0.31805 0.16985
# Poissons Ratio (z) = 0.03685 0.11042
#
# Static dielectric constant tensor:
#      x y z
#    x 1.894440 0.000000 0.004950 
#    y 0.000000 1.901230 0.000000 
#    z 0.004950 0.000000 1.974340 
# 
# From -- ./inp_files/72985.got.cif
#   From: 2010.05.17/outbox.cif.g08.bks.cpg/sg14_37_cif.got.tgz:72985.got - 2010.06.03 17:49:19.
