data_PCOD9244402
_publ_section_title
;
Structure prediction by ZEFSAII (Michael W. Deem and Ramdas Pophale) SiO2 
 PCOD9244402
Probable space group: P 21/C
;
_chemical_formula_sum "Si O2"
_cell_formula_units_Z 28
_cell_length_a 8.227797
_cell_length_b 5.108908
_cell_length_c 33.029783
_cell_angle_alpha 90.000000
_cell_angle_beta 61.331686
_cell_angle_gamma 90.000000
_cell_volume 1218.206030
_symmetry_space_group_name_H-M "P 21/C"
_symmetry_group_IT_number 14
_symmetry_cell_setting 'monoclinic'
loop_
_space_group_symop_operation_xyz
x,y,z
-x,1/2+y,1/2-z
-x,-y,-z
x,1/2-y,1/2+z
loop_
_atom_site_type_symbol
_atom_site_label
_atom_site_fract_x
_atom_site_fract_y
_atom_site_fract_z
Si Si1 0.287369 0.800560 0.549517
Si Si2 0.560515 0.754362 0.352728
Si Si3 0.967300 0.570757 0.146005
Si Si4 0.508685 0.202604 0.049879
Si Si5 0.718301 0.438847 0.675810
Si Si6 0.887583 0.093372 0.803044
Si Si7 0.702867 0.390578 0.764698
O O1 0.309490 0.713830 0.500167
O O2 0.413066 0.583342 0.558038
O O3 0.087140 0.833336 0.593416
O O4 0.371674 0.089445 0.545220
O O5 0.472007 0.807556 0.406914
O O6 0.412787 0.576875 0.346856
O O7 0.756927 0.617719 0.340059
O O8 0.596565 0.974136 0.314262
O O9 0.883875 0.278811 0.153985
O O10 0.091697 0.653854 0.170334
O O11 0.796573 0.770165 0.168962
O O12 0.617237 0.378236 0.730650
O O13 0.773355 0.120183 0.774999
O O14 0.095637 0.022666 0.766599
#
# Coordination Sequence:
#
# PCOD9244402 Si02
#       7
#     4   4   4   4   4   4   4
#     4  10  20  40  71  98 133 161 221 278 332 383
#     4  12  26  42  63  97 136 172 220 278 326 400
#     4  11  23  45  65  95 129 176 217 274 324 396
#     4  10  22  39  67 107 124 168 217 280 332 384
#     4  11  29  41  64  94 138 177 216 261 346 397
#     4  11  22  38  66  90 119 166 231 268 320 379
#     4  11  24  39  63  89 126 171 217 274 319 389
#
# _framework density 22.984618000000001
#
# number of rings (size 3 to 8) (size 9 to 14) (size 15 to 20)
#    0.000    1.143    2.857    2.571   10.000    0.000 
#    0.000    1.429    0.000    0.000    0.000    0.000 
#    0.000    0.000    0.000    0.000    0.000    0.000 
#
# Total GULP energy -156283.610991 kJ/mol
# GULP energy per Si atom -5581.557535 kJ/mol
# Density = 2.293230 g / cm^3
# Si number density = 22.984618 Si / 1000 Ang^3
#
#
#
# Elastic Constant Matrix: (Units=GPa)
#
#
# Indices 1 2 3 4 5 6 
#
# 1 50.0469 2.9346 21.3857 0.0000 7.2835 0.0000
# 2 2.9346 69.6615 -3.7186 0.0000 -9.0512 0.0000
# 3 21.3857 -3.7186 178.7178 0.0000 9.3355 0.0000
# 4 0.0000 0.0000 0.0000 30.8810 0.0000 -4.6779
# 5 7.2835 -9.0512 9.3355 0.0000 22.3819 0.0000
# 6 0.0000 0.0000 0.0000 -4.6779 0.0000 32.5653
#
#
#
# Elastic Compliance Matrix: (Units=1/GPa)
#
#
# Indices 1 2 3 4 5 6 
#
# 1 0.022110 -0.001968 -0.002320 0.000000 -0.007023 0.000000
# 2 -0.001968 0.015326 0.000202 0.000000 0.006754 0.000000
# 3 -0.002320 0.000202 0.005963 0.000000 -0.001651 0.000000
# 4 0.000000 0.000000 0.000000 0.033103 0.000000 0.004755
# 5 -0.007023 0.006754 -0.001651 0.000000 0.050384 0.000000
# 6 0.000000 0.000000 0.000000 0.004755 0.000000 0.031391
#
#
# Mechanical properties :
#
#
# Convention : Reuss Voigt Hill
#
# Bulk Modulus (GPa) = 28.38670 37.73663 33.06166
# Shear Modulus (GPa) = 28.05957 35.68727 31.87342
#
# Velocity S-wave (km/s) = 3.49778 3.94465 3.72792
# Velocity P-wave (km/s) = 5.35628 6.09926 5.73980
#
# Compressibility (1/GPa) = 0.03522777
#
# Stress axis : x y z
#
# Youngs Moduli (GPa) = 45.22831 65.24698 167.68849
#
# Poissons Ratio (x) = 0.12839 0.38901
# Poissons Ratio (y) = 0.08900 -0.03380
# Poissons Ratio (z) = 0.10492 -0.01315
#
# Static dielectric constant tensor:
#      x y z
#    x 1.911730 0.000000 -0.012240 
#    y 0.000000 1.934690 0.000000 
#    z -0.012240 0.000000 1.939420 
# 
# From -- ./inp_files/79073.got.cif
#   From: 2010.05.17/outbox.cif.g08.bks.cpg/sg14_40_cif.got.tgz:79073.got - 2010.06.03 17:49:19.
