data_PCOD9244274
_publ_section_title
;
Structure prediction by ZEFSAII (Michael W. Deem and Ramdas Pophale) SiO2 
 PCOD9244274
Probable space group: P 21/C
;
_chemical_formula_sum "Si O2"
_cell_formula_units_Z 24
_cell_length_a 7.515720
_cell_length_b 9.429107
_cell_length_c 13.499276
_cell_angle_alpha 90.000000
_cell_angle_beta 107.717618
_cell_angle_gamma 90.000000
_cell_volume 911.271100
_symmetry_space_group_name_H-M "P 21/C"
_symmetry_group_IT_number 14
_symmetry_cell_setting 'monoclinic'
loop_
_space_group_symop_operation_xyz
x,y,z
-x,1/2+y,1/2-z
-x,-y,-z
x,1/2-y,1/2+z
loop_
_atom_site_type_symbol
_atom_site_label
_atom_site_fract_x
_atom_site_fract_y
_atom_site_fract_z
Si Si1 0.545486 0.376673 0.355700
Si Si2 0.715908 0.115457 0.466256
Si Si3 0.246570 0.598702 0.810896
Si Si4 0.771172 0.962359 0.066318
Si Si5 0.844095 0.693302 0.948891
Si Si6 0.945293 0.839767 0.782111
O O1 0.581120 0.209178 0.376164
O O2 0.625604 0.415255 0.262991
O O3 0.346216 0.438369 0.353293
O O4 0.670184 0.444184 0.465725
O O5 0.653505 0.134326 0.569569
O O6 0.932163 0.168551 0.503583
O O7 0.737152 0.953287 0.440305
O O8 0.094396 0.724934 0.768384
O O9 0.146164 0.446352 0.811260
O O10 0.954004 0.046940 0.128032
O O11 0.795018 0.809880 0.021578
O O12 0.809170 0.757016 0.833327
#
# Coordination Sequence:
#
# PCOD9244274 Si02
#       6
#     4   4   4   4   4   4
#     4  11  23  43  65  89 136 173 211 263 328 398
#     4  10  23  41  65  99 125 168 221 277 323 374
#     4  11  24  40  64  99 129 166 222 275 318 390
#     4  11  22  42  65  91 127 178 213 258 334 394
#     4  10  20  40  65  89 124 162 220 272 314 381
#     4  11  23  39  65  98 124 172 219 274 326 381
#
# _framework density 26.336839999999999
#
# number of rings (size 3 to 8) (size 9 to 14) (size 15 to 20)
#    0.000    1.333    5.000    1.500    9.333    0.667 
#    3.000    3.333    0.000    0.000    0.000    0.000 
#    0.000    0.000    0.000    0.000    0.000    0.000 
#
# Total GULP energy -134667.006478 kJ/mol
# GULP energy per Si atom -5611.125270 kJ/mol
# Density = 2.627690 g / cm^3
# Si number density = 26.336840 Si / 1000 Ang^3
#
#
#
# Elastic Constant Matrix: (Units=GPa)
#
#
# Indices 1 2 3 4 5 6 
#
# 1 62.1597 27.5247 20.5242 0.0000 -23.7170 0.0000
# 2 27.5247 178.0259 28.5663 0.0000 -9.3966 0.0000
# 3 20.5242 28.5663 82.2564 0.0000 -22.7331 0.0000
# 4 0.0000 0.0000 0.0000 45.0802 0.0000 -4.2573
# 5 -23.7170 -9.3966 -22.7331 0.0000 48.2544 0.0000
# 6 0.0000 0.0000 0.0000 -4.2573 0.0000 17.7539
#
#
#
# Elastic Compliance Matrix: (Units=1/GPa)
#
#
# Indices 1 2 3 4 5 6 
#
# 1 0.021295 -0.002503 -0.001939 0.000000 0.009066 0.000000
# 2 -0.002503 0.006245 -0.001780 0.000000 -0.000853 0.000000
# 3 -0.001939 -0.001780 0.014831 0.000000 0.005687 0.000000
# 4 0.000000 0.000000 0.000000 0.022697 0.000000 0.005443
# 5 0.009066 -0.000853 0.005687 0.000000 0.027693 0.000000
# 6 0.000000 0.000000 0.000000 0.005443 0.000000 0.057631
#
#
# Mechanical properties :
#
#
# Convention : Reuss Voigt Hill
#
# Bulk Modulus (GPa) = 33.41379 52.85249 43.13314
# Shear Modulus (GPa) = 28.93361 38.60615 33.76988
#
# Velocity S-wave (km/s) = 3.31811 3.83281 3.58471
# Velocity P-wave (km/s) = 5.23397 6.30069 5.79194
#
# Compressibility (1/GPa) = 0.02992776
#
# Stress axis : x y z
#
# Youngs Moduli (GPa) = 46.95924 160.13540 67.42735
#
# Poissons Ratio (x) = 0.40079 0.13072
# Poissons Ratio (y) = 0.11753 0.12001
# Poissons Ratio (z) = 0.09104 0.28501
#
# Static dielectric constant tensor:
#      x y z
#    x 2.076630 0.000000 0.026090 
#    y 0.000000 2.028070 0.000000 
#    z 0.026090 0.000000 2.014250 
# 
# From -- ./inp_files/39002.got.cif
#   From: 2010.05.17/outbox.cif.g08.bks.cpg/sg14_20_cif.got.tgz:39002.got - 2010.06.03 17:49:19.
