data_PCOD9244493
_publ_section_title
;
Structure prediction by ZEFSAII (Michael W. Deem and Ramdas Pophale) SiO2 
 PCOD9244493
Probable space group: P 21/C
;
_chemical_formula_sum "Si O2"
_cell_formula_units_Z 28
_cell_length_a 11.179842
_cell_length_b 12.986682
_cell_length_c 8.905401
_cell_angle_alpha 90.000000
_cell_angle_beta 110.187234
_cell_angle_gamma 90.000000
_cell_volume 1213.539706
_symmetry_space_group_name_H-M "P 21/C"
_symmetry_group_IT_number 14
_symmetry_cell_setting 'monoclinic'
loop_
_space_group_symop_operation_xyz
x,y,z
-x,1/2+y,1/2-z
-x,-y,-z
x,1/2-y,1/2+z
loop_
_atom_site_type_symbol
_atom_site_label
_atom_site_fract_x
_atom_site_fract_y
_atom_site_fract_z
Si Si1 0.756849 0.115893 0.438763
Si Si2 0.404414 0.142601 0.902005
Si Si3 0.700149 0.864296 0.648504
Si Si4 0.517799 0.971981 0.762639
Si Si5 0.170379 0.406032 0.112316
Si Si6 0.963186 0.801550 0.902055
Si Si7 0.864205 0.221603 0.767643
O O1 0.617720 0.068800 0.353666
O O2 0.788668 0.150269 0.620432
O O3 0.775247 0.214393 0.340537
O O4 0.852833 0.025150 0.428393
O O5 0.391917 0.264748 0.881429
O O6 0.263120 0.103456 0.795972
O O7 0.497879 0.084826 0.825771
O O8 0.440028 0.102211 0.081531
O O9 0.621176 0.959511 0.677836
O O10 0.749481 0.870966 0.500286
O O11 0.826663 0.848533 0.804179
O O12 0.062691 0.320925 0.085648
O O13 0.056922 0.802728 0.800993
O O14 0.034265 0.837773 0.082597
#
# Coordination Sequence:
#
# PCOD9244493 Si02
#       7
#     4   4   4   4   4   4   4
#     4  10  24  43  60  91 126 174 205 258 325 388
#     4   9  20  38  60  94 128 164 203 263 318 374
#     4  11  21  38  67  98 120 166 211 270 316 370
#     4  10  22  39  61  95 133 161 212 258 326 388
#     4  10  21  40  67  95 122 162 220 266 314 373
#     4  10  20  41  66  90 119 164 219 268 309 370
#     4  10  22  41  62  83 129 167 215 257 319 373
#
# _framework density 23.072997999999998
#
# number of rings (size 3 to 8) (size 9 to 14) (size 15 to 20)
#    0.000    2.000    1.429    1.714    4.000    4.571 
#    2.571    3.571    0.000    0.000    0.000    0.000 
#    0.000    0.000    0.000    0.000    0.000    0.000 
#
# Total GULP energy -156564.161269 kJ/mol
# GULP energy per Si atom -5591.577188 kJ/mol
# Density = 2.302048 g / cm^3
# Si number density = 23.072998 Si / 1000 Ang^3
#
#
#
# Elastic Constant Matrix: (Units=GPa)
#
#
# Indices 1 2 3 4 5 6 
#
# 1 67.9936 16.0509 35.7999 0.0000 -3.4656 0.0000
# 2 16.0509 61.5066 29.4298 0.0000 2.4631 0.0000
# 3 35.7999 29.4298 166.1884 0.0000 15.4003 0.0000
# 4 0.0000 0.0000 0.0000 24.8355 0.0000 -0.8591
# 5 -3.4656 2.4631 15.4003 0.0000 22.6062 0.0000
# 6 0.0000 0.0000 0.0000 -0.8591 0.0000 23.0115
#
#
#
# Elastic Compliance Matrix: (Units=1/GPa)
#
#
# Indices 1 2 3 4 5 6 
#
# 1 0.017711 -0.003029 -0.003801 0.000000 0.005634 0.000000
# 2 -0.003029 0.018283 -0.002516 0.000000 -0.000742 0.000000
# 3 -0.003801 -0.002516 0.007803 0.000000 -0.005624 0.000000
# 4 0.000000 0.000000 0.000000 0.040317 0.000000 0.001505
# 5 0.005634 -0.000742 -0.005624 0.000000 0.049012 0.000000
# 6 0.000000 0.000000 0.000000 0.001505 0.000000 0.043513
#
#
# Mechanical properties :
#
#
# Convention : Reuss Voigt Hill
#
# Bulk Modulus (GPa) = 39.83448 50.91664 45.37556
# Shear Modulus (GPa) = 24.54616 28.38450 26.46533
#
# Velocity S-wave (km/s) = 3.26521 3.51123 3.39045
# Velocity P-wave (km/s) = 5.61404 6.20918 5.91909
#
# Compressibility (1/GPa) = 0.02510388
#
# Stress axis : x y z
#
# Youngs Moduli (GPa) = 56.46296 54.69687 128.15810
#
# Poissons Ratio (x) = 0.16566 0.48713
# Poissons Ratio (y) = 0.17101 0.32250
# Poissons Ratio (z) = 0.21461 0.13764
#
# Static dielectric constant tensor:
#      x y z
#    x 1.856500 0.000000 0.014070 
#    y 0.000000 1.861060 0.000000 
#    z 0.014070 0.000000 1.852870 
# 
# From -- ./inp_files/13036.got.cif
#   From: 2010.05.17/outbox.cif.g08.bks.cpg/sg14_7_cif.got.tgz:13036.got - 2010.06.03 17:49:19.
