data_PCOD9244740
_publ_section_title
;
Structure prediction by ZEFSAII (Michael W. Deem and Ramdas Pophale) SiO2 
 PCOD9244740
Probable space group: P 21/C
;
_chemical_formula_sum "Si O2"
_cell_formula_units_Z 32
_cell_length_a 8.763002
_cell_length_b 14.885664
_cell_length_c 9.801561
_cell_angle_alpha 90.000000
_cell_angle_beta 90.995614
_cell_angle_gamma 90.000000
_cell_volume 1278.353011
_symmetry_space_group_name_H-M "P 21/C"
_symmetry_group_IT_number 14
_symmetry_cell_setting 'monoclinic'
loop_
_space_group_symop_operation_xyz
x,y,z
-x,1/2+y,1/2-z
-x,-y,-z
x,1/2-y,1/2+z
loop_
_atom_site_type_symbol
_atom_site_label
_atom_site_fract_x
_atom_site_fract_y
_atom_site_fract_z
Si Si1 0.060414 0.833236 0.187258
Si Si2 0.169550 0.164442 0.608239
Si Si3 0.098121 0.648771 0.088266
Si Si4 0.108588 0.033023 0.237593
Si Si5 0.416463 0.038896 0.129429
Si Si6 0.554776 0.774113 0.969175
Si Si7 0.412207 0.653342 0.749375
Si Si8 0.318902 0.998000 0.515072
O O1 0.094528 0.756541 0.076884
O O2 0.036373 0.940322 0.180224
O O3 0.230210 0.831231 0.255203
O O4 0.905509 0.798436 0.256248
O O5 0.269936 0.238223 0.530345
O O6 0.018167 0.125524 0.533942
O O7 0.270950 0.075598 0.621128
O O8 0.254228 0.596038 0.069816
O O9 0.017927 0.605898 0.221869
O O10 0.234214 0.055555 0.125248
O O11 0.216479 0.022280 0.377178
O O12 0.436687 0.952977 0.227382
O O13 0.473917 0.141027 0.133232
O O14 0.500000 0.000000 0.000000
O O15 0.473178 0.694094 0.889074
O O16 0.490329 0.799297 0.117469
O O17 0.500000 0.000000 0.500000
#
# Coordination Sequence:
#
# PCOD9244740 Si02
#       8
#     4   4   4   4   4   4   4   4
#     4  11  23  40  67  93 138 185 222 293 357 435
#     4  11  24  41  69 100 139 181 235 300 357 434
#     4  11  23  43  68 100 138 183 233 291 374 417
#     4  10  20  43  66  95 132 178 230 292 357 422
#     4   9  21  43  65  91 143 188 222 292 373 427
#     4  11  25  45  69 108 137 187 247 296 367 438
#     4  10  26  44  72 100 145 188 245 302 366 436
#     4  11  24  40  71 102 135 173 237 312 359 414
#
# _framework density 25.032209000000002
#
# number of rings (size 3 to 8) (size 9 to 14) (size 15 to 20)
#    0.000    1.500    2.500    1.500   12.250    0.000 
#    0.000    0.625    2.750    2.250    0.000    0.000 
#    0.000    0.000    0.000    0.000    0.000    0.000 
#
# Total GULP energy -178221.014732 kJ/mol
# GULP energy per Si atom -5569.406710 kJ/mol
# Density = 2.497523 g / cm^3
# Si number density = 25.032209 Si / 1000 Ang^3
#
#
#
# Elastic Constant Matrix: (Units=GPa)
#
#
# Indices 1 2 3 4 5 6 
#
# 1 129.5140 33.5023 40.5314 0.0000 -23.4355 0.0000
# 2 33.5023 115.7105 30.1960 0.0000 -9.9398 0.0000
# 3 40.5314 30.1960 51.8845 0.0000 -25.5084 0.0000
# 4 0.0000 0.0000 0.0000 40.8745 0.0000 -16.7359
# 5 -23.4355 -9.9398 -25.5084 0.0000 30.8469 0.0000
# 6 0.0000 0.0000 0.0000 -16.7359 0.0000 44.0160
#
#
#
# Elastic Compliance Matrix: (Units=1/GPa)
#
#
# Indices 1 2 3 4 5 6 
#
# 1 0.010421 -0.001168 -0.006325 0.000000 0.002310 0.000000
# 2 -0.001168 0.010459 -0.006663 0.000000 -0.003027 0.000000
# 3 -0.006325 -0.006663 0.041578 0.000000 0.027430 0.000000
# 4 0.000000 0.000000 0.000000 0.028976 0.000000 0.011017
# 5 0.002310 -0.003027 0.027430 0.000000 0.055881 0.000000
# 6 0.000000 0.000000 0.000000 0.011017 0.000000 0.026908
#
#
# Mechanical properties :
#
#
# Convention : Reuss Voigt Hill
#
# Bulk Modulus (GPa) = 29.28576 56.17426 42.73001
# Shear Modulus (GPa) = 23.37369 36.00612 29.68990
#
# Velocity S-wave (km/s) = 3.05904 3.79673 3.44767
# Velocity P-wave (km/s) = 4.91951 6.45830 5.74070
#
# Compressibility (1/GPa) = 0.03414629
#
# Stress axis : x y z
#
# Youngs Moduli (GPa) = 95.96226 95.60994 24.05145
#
# Poissons Ratio (x) = 0.11169 0.15212
# Poissons Ratio (y) = 0.11210 0.16025
# Poissons Ratio (z) = 0.60694 0.63701
#
# Static dielectric constant tensor:
#      x y z
#    x 1.995400 0.000000 -0.027480 
#    y 0.000000 2.054840 0.000000 
#    z -0.027480 0.000000 2.114170 
# 
# From -- ./inp_files/25518.got.cif
#   From: 2010.05.17/outbox.cif.g08.bks.cpg/sg14_13_cif.got.tgz:25518.got - 2010.06.03 17:49:19.
