data_PCOD9244592
_publ_section_title
;
Structure prediction by ZEFSAII (Michael W. Deem and Ramdas Pophale) SiO2 
 PCOD9244592
Probable space group: P 21/C
;
_chemical_formula_sum "Si O2"
_cell_formula_units_Z 32
_cell_length_a 11.671017
_cell_length_b 14.659759
_cell_length_c 17.646283
_cell_angle_alpha 90.000000
_cell_angle_beta 148.114240
_cell_angle_gamma 90.000000
_cell_volume 1594.812500
_symmetry_space_group_name_H-M "P 21/C"
_symmetry_group_IT_number 14
_symmetry_cell_setting 'monoclinic'
loop_
_space_group_symop_operation_xyz
x,y,z
-x,1/2+y,1/2-z
-x,-y,-z
x,1/2-y,1/2+z
loop_
_atom_site_type_symbol
_atom_site_label
_atom_site_fract_x
_atom_site_fract_y
_atom_site_fract_z
Si Si1 0.702289 0.296808 0.420183
Si Si2 0.939272 0.882532 0.131569
Si Si3 0.488729 0.488786 0.084497
Si Si4 0.114709 0.621463 0.898806
Si Si5 0.632871 0.583278 0.674558
Si Si6 0.532044 0.119867 0.088112
Si Si7 0.052264 0.449116 0.608428
Si Si8 0.686293 0.297205 0.238154
O O1 0.748038 0.206884 0.494376
O O2 0.513979 0.361338 0.348694
O O3 0.646458 0.272714 0.302493
O O4 0.926711 0.354474 0.542737
O O5 0.053196 0.865406 0.275898
O O6 0.073174 0.835484 0.140692
O O7 0.692852 0.854879 0.997509
O O8 0.952789 0.989672 0.120556
O O9 0.690064 0.545694 0.233403
O O10 0.533545 0.382768 0.129148
O O11 0.500000 0.500000 0.000000
O O12 0.264266 0.531341 0.987224
O O13 0.884975 0.612109 0.812905
O O14 0.527147 0.603477 0.532670
O O15 0.620267 0.473485 0.673770
O O16 0.673895 0.208670 0.179040
O O17 0.000000 0.500000 0.500000
#
# Coordination Sequence:
#
# PCOD9244592 Si02
#       8
#     4   4   4   4   4   4   4   4
#     4  12  25  41  66 100 137 181 222 276 344 414
#     4  10  20  42  63  94 129 173 234 274 332 401
#     4  11  23  42  71  99 134 170 233 288 331 390
#     4  11  25  42  65 104 137 177 227 282 341 407
#     4  10  24  43  65  97 136 178 221 272 352 405
#     4  10  22  41  68  91 132 177 221 281 333 408
#     4  11  21  41  72  94 129 176 231 280 330 399
#     4  11  24  40  67 101 128 176 232 277 335 400
#
# _framework density 20.065055999999998
#
# number of rings (size 3 to 8) (size 9 to 14) (size 15 to 20)
#    0.000    1.250    6.250    0.750    1.750    5.000 
#    0.000    1.250    0.000    0.000    0.000    0.000 
#    0.000    0.000    0.000    0.000    0.000    0.000 
#
# Total GULP energy -178645.879139 kJ/mol
# GULP energy per Si atom -5582.683723 kJ/mol
# Density = 2.001939 g / cm^3
# Si number density = 20.065056 Si / 1000 Ang^3
#
#
#
# Elastic Constant Matrix: (Units=GPa)
#
#
# Indices 1 2 3 4 5 6 
#
# 1 62.1531 12.3984 21.0085 0.0000 -0.9383 0.0000
# 2 12.3984 100.2972 16.2598 0.0000 -7.8100 0.0000
# 3 21.0085 16.2598 67.1884 0.0000 -2.5119 0.0000
# 4 0.0000 0.0000 0.0000 20.7233 0.0000 -3.4165
# 5 -0.9383 -7.8100 -2.5119 0.0000 26.2955 0.0000
# 6 0.0000 0.0000 0.0000 -3.4165 0.0000 24.7630
#
#
#
# Elastic Compliance Matrix: (Units=1/GPa)
#
#
# Indices 1 2 3 4 5 6 
#
# 1 0.018174 -0.001400 -0.005354 0.000000 -0.000279 0.000000
# 2 -0.001400 0.010703 -0.002043 0.000000 0.002934 0.000000
# 3 -0.005354 -0.002043 0.017083 0.000000 0.000834 0.000000
# 4 0.000000 0.000000 0.000000 0.049378 0.000000 0.006813
# 5 -0.000279 0.002934 0.000834 0.000000 0.038970 0.000000
# 6 0.000000 0.000000 0.000000 0.006813 0.000000 0.041323
#
#
# Mechanical properties :
#
#
# Convention : Reuss Voigt Hill
#
# Bulk Modulus (GPa) = 35.25344 36.55245 35.90294
# Shear Modulus (GPa) = 24.66923 26.35448 25.51185
#
# Velocity S-wave (km/s) = 3.51017 3.62809 3.56962
# Velocity P-wave (km/s) = 5.83405 5.98391 5.90946
#
# Compressibility (1/GPa) = 0.02836603
#
# Stress axis : x y z
#
# Youngs Moduli (GPa) = 55.02287 93.43115 58.53698
#
# Poissons Ratio (x) = 0.13083 0.31342
# Poissons Ratio (y) = 0.07705 0.11957
# Poissons Ratio (z) = 0.29461 0.19085
#
# Static dielectric constant tensor:
#      x y z
#    x 1.714290 0.000000 0.016570 
#    y 0.000000 1.728930 0.000000 
#    z 0.016570 0.000000 1.718560 
# 
# From -- ./inp_files/57951.got.cif
#   From: 2010.05.17/outbox.cif.g08.bks.cpg/sg14_29_cif.got.tgz:57951.got - 2010.06.03 17:49:19.
