data_PCOD9244665
_publ_section_title
;
Structure prediction by ZEFSAII (Michael W. Deem and Ramdas Pophale) SiO2 
 PCOD9244665
Probable space group: P 21/C
;
_chemical_formula_sum "Si O2"
_cell_formula_units_Z 20
_cell_length_a 19.079800
_cell_length_b 9.779743
_cell_length_c 14.486063
_cell_angle_alpha 90.000000
_cell_angle_beta 161.340119
_cell_angle_gamma 90.000000
_cell_volume 864.835070
_symmetry_space_group_name_H-M "P 21/C"
_symmetry_group_IT_number 14
_symmetry_cell_setting 'monoclinic'
loop_
_space_group_symop_operation_xyz
x,y,z
-x,1/2+y,1/2-z
-x,-y,-z
x,1/2-y,1/2+z
loop_
_atom_site_type_symbol
_atom_site_label
_atom_site_fract_x
_atom_site_fract_y
_atom_site_fract_z
Si Si1 0.896069 0.867903 0.915622
Si Si2 0.103604 0.625214 0.072165
Si Si3 0.927367 0.869702 0.156469
Si Si4 0.500106 0.261640 0.323848
Si Si5 0.534913 0.450106 0.189970
O O1 0.634312 0.892831 0.596698
O O2 0.002669 0.839566 0.147659
O O3 0.946000 0.747497 0.907758
O O4 0.000000 0.000000 0.000000
O O5 0.344276 0.665537 0.407536
O O6 0.000000 0.500000 0.000000
O O7 0.088302 0.611209 0.942901
O O8 0.754595 0.748958 0.965704
O O9 0.779483 0.009006 0.965078
O O10 0.533053 0.343654 0.270940
O O11 0.551934 0.099040 0.384243
#
# Coordination Sequence:
#
# PCOD9244665 Si02
#       5
#     4   4   4   4   4
#     4  12  23  43  69  95 128 177 227 268 328 406
#     4  12  23  43  64  97 138 170 224 281 326 391
#     4  10  24  41  68  96 133 172 225 271 341 388
#     4  10  21  42  67  95 134 179 212 278 332 389
#     4  10  20  42  68  91 135 174 220 271 333 393
#
# _framework density 23.125796999999999
#
# number of rings (size 3 to 8) (size 9 to 14) (size 15 to 20)
#    1.200    0.000    6.000    0.600    0.000    1.600 
#    3.600    1.000    0.000    0.000    0.000    0.000 
#    0.000    0.000    0.000    0.000    0.000    0.000 
#
# Total GULP energy -111697.513483 kJ/mol
# GULP energy per Si atom -5584.875674 kJ/mol
# Density = 2.307316 g / cm^3
# Si number density = 23.125797 Si / 1000 Ang^3
#
#
#
# Elastic Constant Matrix: (Units=GPa)
#
#
# Indices 1 2 3 4 5 6 
#
# 1 67.9408 2.2421 24.2085 0.0000 -37.0577 0.0000
# 2 2.2421 96.6635 6.3509 0.0000 -10.6243 0.0000
# 3 24.2085 6.3509 111.3386 0.0000 -37.9151 0.0000
# 4 0.0000 0.0000 0.0000 25.8427 0.0000 -5.6888
# 5 -37.0577 -10.6243 -37.9151 0.0000 50.4210 0.0000
# 6 0.0000 0.0000 0.0000 -5.6888 0.0000 24.6017
#
#
#
# Elastic Compliance Matrix: (Units=1/GPa)
#
#
# Indices 1 2 3 4 5 6 
#
# 1 0.024872 0.001486 0.001128 0.000000 0.019441 0.000000
# 2 0.001486 0.010683 0.000277 0.000000 0.003551 0.000000
# 3 0.001128 0.000277 0.012129 0.000000 0.010008 0.000000
# 4 0.000000 0.000000 0.000000 0.040771 0.000000 0.009428
# 5 0.019441 0.003551 0.010008 0.000000 0.042395 0.000000
# 6 0.000000 0.000000 0.000000 0.009428 0.000000 0.042828
#
#
# Mechanical properties :
#
#
# Convention : Reuss Voigt Hill
#
# Bulk Modulus (GPa) = 18.70414 37.94954 28.32684
# Shear Modulus (GPa) = 26.92265 36.38252 31.65258
#
# Velocity S-wave (km/s) = 3.41571 3.97072 3.70363
# Velocity P-wave (km/s) = 4.86433 6.12109 5.52854
#
# Compressibility (1/GPa) = 0.05346411
#
# Stress axis : x y z
#
# Youngs Moduli (GPa) = 40.20620 93.60817 82.45009
#
# Poissons Ratio (x) = -0.13908 -0.09298
# Poissons Ratio (y) = -0.05974 -0.02283
# Poissons Ratio (z) = -0.04534 -0.02592
#
# Static dielectric constant tensor:
#      x y z
#    x 1.826080 0.000000 0.036700 
#    y 0.000000 1.843830 0.000000 
#    z 0.036700 0.000000 1.929340 
# 
# From -- ./inp_files/50174.got.cif
#   From: 2010.05.17/outbox.cif.g08.bks.cpg/sg14_26_cif.got.tgz:50174.got - 2010.06.03 17:49:19.
