data_PCOD9244695
_publ_section_title
;
Structure prediction by ZEFSAII (Michael W. Deem and Ramdas Pophale) SiO2 
 PCOD9244695
Probable space group: P 21/C
;
_chemical_formula_sum "Si O2"
_cell_formula_units_Z 24
_cell_length_a 9.092861
_cell_length_b 7.726740
_cell_length_c 18.370773
_cell_angle_alpha 90.000000
_cell_angle_beta 64.204992
_cell_angle_gamma 90.000000
_cell_volume 1162.087626
_symmetry_space_group_name_H-M "P 21/C"
_symmetry_group_IT_number 14
_symmetry_cell_setting 'monoclinic'
loop_
_space_group_symop_operation_xyz
x,y,z
-x,1/2+y,1/2-z
-x,-y,-z
x,1/2-y,1/2+z
loop_
_atom_site_type_symbol
_atom_site_label
_atom_site_fract_x
_atom_site_fract_y
_atom_site_fract_z
Si Si1 0.933225 0.669876 0.476866
Si Si2 0.675158 0.503736 0.422512
Si Si3 0.392407 0.211107 0.679228
Si Si4 0.254991 0.804735 0.332780
Si Si5 0.350825 0.824317 0.658987
Si Si6 0.295890 0.201108 0.351299
O O1 0.804068 0.598656 0.446322
O O2 0.845268 0.773617 0.560211
O O3 0.000000 0.500000 0.500000
O O4 0.085621 0.767627 0.408792
O O5 0.500000 0.500000 0.500000
O O6 0.667558 0.625414 0.353104
O O7 0.710558 0.305549 0.390332
O O8 0.582950 0.251084 0.656989
O O9 0.305504 0.184528 0.776437
O O10 0.362940 0.030460 0.642729
O O11 0.253615 0.716751 0.254078
O O12 0.285939 0.008926 0.321403
O O13 0.536045 0.772012 0.640931
#
# Coordination Sequence:
#
# PCOD9244695 Si02
#       6
#     4   4   4   4   4   4
#     4  12  25  42  63  98 137 176 219 277 335 387
#     4  12  24  44  67  97 136 171 228 273 322 397
#     4  10  22  42  74  95 127 176 225 270 325 402
#     4  10  21  41  68  97 130 173 220 274 337 388
#     4  10  21  42  69  99 128 174 225 269 328 399
#     4  10  20  42  70  95 131 177 223 268 330 405
#
# _framework density 20.652487000000001
#
# number of rings (size 3 to 8) (size 9 to 14) (size 15 to 20)
#    0.000    1.333    3.333    2.500    2.333    0.667 
#   12.000    0.000    0.000    0.000    0.000    0.000 
#    0.000    0.000    0.000    0.000    0.000    0.000 
#
# Total GULP energy -134011.968013 kJ/mol
# GULP energy per Si atom -5583.832001 kJ/mol
# Density = 2.060548 g / cm^3
# Si number density = 20.652487 Si / 1000 Ang^3
#
#
#
# Elastic Constant Matrix: (Units=GPa)
#
#
# Indices 1 2 3 4 5 6 
#
# 1 66.7248 13.3886 42.7024 0.0000 0.5331 0.0000
# 2 13.3886 52.7552 -2.2975 0.0000 10.1962 0.0000
# 3 42.7024 -2.2975 93.9296 0.0000 -22.5286 0.0000
# 4 0.0000 0.0000 0.0000 34.3943 0.0000 -1.9641
# 5 0.5331 10.1962 -22.5286 0.0000 29.5955 0.0000
# 6 0.0000 0.0000 0.0000 -1.9641 0.0000 15.9319
#
#
#
# Elastic Compliance Matrix: (Units=1/GPa)
#
#
# Indices 1 2 3 4 5 6 
#
# 1 0.024747 -0.005135 -0.013529 0.000000 -0.008975 0.000000
# 2 -0.005135 0.021535 0.001351 0.000000 -0.006299 0.000000
# 3 -0.013529 0.001351 0.020524 0.000000 0.015401 0.000000
# 4 0.000000 0.000000 0.000000 0.029281 0.000000 0.003610
# 5 -0.008975 -0.006299 0.015401 0.000000 0.047844 0.000000
# 6 0.000000 0.000000 0.000000 0.003610 0.000000 0.063212
#
#
# Mechanical properties :
#
#
# Convention : Reuss Voigt Hill
#
# Bulk Modulus (GPa) = 31.07600 35.66627 33.37114
# Shear Modulus (GPa) = 19.80231 26.62544 23.21387
#
# Velocity S-wave (km/s) = 3.09986 3.59446 3.35628
# Velocity P-wave (km/s) = 5.28129 5.87657 5.58686
#
# Compressibility (1/GPa) = 0.03217917
#
# Stress axis : x y z
#
# Youngs Moduli (GPa) = 40.40871 46.43634 48.72403
#
# Poissons Ratio (x) = 0.23845 0.65918
# Poissons Ratio (y) = 0.20750 -0.06580
# Poissons Ratio (z) = 0.54668 -0.06271
#
# Static dielectric constant tensor:
#      x y z
#    x 1.737200 0.000000 0.068000 
#    y 0.000000 1.612330 0.000000 
#    z 0.068000 0.000000 1.772150 
# 
# From -- ./inp_files/54501.got.cif
#   From: 2010.05.17/outbox.cif.g08.bks.cpg/sg14_28_cif.got.tgz:54501.got - 2010.06.03 17:49:19.
