data_PCOD9244343
_publ_section_title
;
Structure prediction by ZEFSAII (Michael W. Deem and Ramdas Pophale) SiO2 
 PCOD9244343
Probable space group: P 21/C
;
_chemical_formula_sum "Si O2"
_cell_formula_units_Z 32
_cell_length_a 27.392880
_cell_length_b 7.404564
_cell_length_c 19.291089
_cell_angle_alpha 90.000000
_cell_angle_beta 21.013895
_cell_angle_gamma 90.000000
_cell_volume 1403.128245
_symmetry_space_group_name_H-M "P 21/C"
_symmetry_group_IT_number 14
_symmetry_cell_setting 'monoclinic'
loop_
_space_group_symop_operation_xyz
x,y,z
-x,1/2+y,1/2-z
-x,-y,-z
x,1/2-y,1/2+z
loop_
_atom_site_type_symbol
_atom_site_label
_atom_site_fract_x
_atom_site_fract_y
_atom_site_fract_z
Si Si1 0.559635 0.188709 0.222540
Si Si2 0.347059 0.355998 0.312814
Si Si3 0.349143 0.745836 0.139024
Si Si4 0.046246 0.635286 0.379085
Si Si5 0.238389 0.126944 0.807462
Si Si6 0.261432 0.333985 0.061999
Si Si7 0.486409 0.649593 0.580758
Si Si8 0.759949 0.442845 0.340064
O O1 0.408667 0.127900 0.400609
O O2 0.546921 0.360711 0.292431
O O3 0.627495 0.041462 0.181693
O O4 0.648260 0.165872 0.035484
O O5 0.253904 0.372071 0.369448
O O6 0.283962 0.226163 0.453460
O O7 0.497652 0.293250 0.090006
O O8 0.258915 0.569695 0.245877
O O9 0.290409 0.911657 0.172323
O O10 0.361225 0.754818 0.206328
O O11 0.163047 0.506684 0.191094
O O12 0.107428 0.822208 0.324867
O O13 0.000000 0.500000 0.500000
O O14 0.912203 0.685179 0.513136
O O15 0.374599 0.235013 0.604583
O O16 0.220658 0.148549 0.158818
O O17 0.500000 0.500000 0.500000
#
# Coordination Sequence:
#
# PCOD9244343 Si02
#       8
#     4   4   4   4   4   4   4   4
#     4  11  20  39  68  99 132 161 218 290 341 385
#     4  10  20  40  67  96 129 168 220 279 332 396
#     4  11  18  40  67  94 128 171 215 276 337 388
#     4  12  26  46  68  91 138 189 221 271 342 417
#     4  11  22  43  66  90 136 180 216 264 342 415
#     4  11  25  41  67 103 131 173 229 281 339 401
#     4  11  22  36  64 103 130 167 222 280 340 400
#     4  11  25  41  68 102 131 177 228 283 337 401
#
# _framework density 22.806184999999999
#
# number of rings (size 3 to 8) (size 9 to 14) (size 15 to 20)
#    0.000    1.000    5.000    3.000    1.750    2.500 
#    6.750    0.000    0.000    0.000    0.000    0.000 
#    0.000    0.000    0.000    0.000    0.000    0.000 
#
# Total GULP energy -178525.075414 kJ/mol
# GULP energy per Si atom -5578.908607 kJ/mol
# Density = 2.275428 g / cm^3
# Si number density = 22.806185 Si / 1000 Ang^3
#
#
#
# Elastic Constant Matrix: (Units=GPa)
#
#
# Indices 1 2 3 4 5 6 
#
# 1 145.1919 10.0182 31.4685 0.0000 -18.2818 0.0000
# 2 10.0182 64.0137 10.1605 0.0000 -8.0951 0.0000
# 3 31.4685 10.1605 61.1868 0.0000 -29.3663 0.0000
# 4 0.0000 0.0000 0.0000 24.0048 0.0000 11.8400
# 5 -18.2818 -8.0951 -29.3663 0.0000 44.7866 0.0000
# 6 0.0000 0.0000 0.0000 11.8400 0.0000 17.7793
#
#
#
# Elastic Compliance Matrix: (Units=1/GPa)
#
#
# Indices 1 2 3 4 5 6 
#
# 1 0.007791 -0.000560 -0.003555 0.000000 0.000748 0.000000
# 2 -0.000560 0.016172 -0.001611 0.000000 0.001638 0.000000
# 3 -0.003555 -0.001611 0.025686 0.000000 0.015100 0.000000
# 4 0.000000 0.000000 0.000000 0.062035 0.000000 -0.041312
# 5 0.000748 0.001638 0.015100 0.000000 0.032831 0.000000
# 6 0.000000 0.000000 0.000000 -0.041312 0.000000 0.083757
#
#
# Mechanical properties :
#
#
# Convention : Reuss Voigt Hill
#
# Bulk Modulus (GPa) = 26.18027 41.52074 33.85051
# Shear Modulus (GPa) = 19.80543 31.89715 25.85129
#
# Velocity S-wave (km/s) = 2.95010 3.74387 3.37043
# Velocity P-wave (km/s) = 4.80713 6.07735 5.47917
#
# Compressibility (1/GPa) = 0.03819670
#
# Stress axis : x y z
#
# Youngs Moduli (GPa) = 128.35767 61.83442 38.93125
#
# Poissons Ratio (x) = 0.03465 0.13839
# Poissons Ratio (y) = 0.07194 0.06272
# Poissons Ratio (z) = 0.45627 0.09963
#
# Static dielectric constant tensor:
#      x y z
#    x 1.918530 0.000000 0.018180 
#    y 0.000000 2.122370 0.000000 
#    z 0.018180 0.000000 1.953450 
# 
# From -- ./inp_files/70505.got.cif
#   From: 2010.05.17/outbox.cif.g08.bks.cpg/sg14_36_cif.got.tgz:70505.got - 2010.06.03 17:49:19.
