data_PCOD9244043
_publ_section_title
;
Structure prediction by ZEFSAII (Michael W. Deem and Ramdas Pophale) SiO2 
 PCOD9244043
Probable space group: P 21/C
;
_chemical_formula_sum "Si O2"
_cell_formula_units_Z 32
_cell_length_a 7.041858
_cell_length_b 11.771846
_cell_length_c 21.994721
_cell_angle_alpha 90.000000
_cell_angle_beta 141.518661
_cell_angle_gamma 90.000000
_cell_volume 1134.545652
_symmetry_space_group_name_H-M "P 21/C"
_symmetry_group_IT_number 14
_symmetry_cell_setting 'monoclinic'
loop_
_space_group_symop_operation_xyz
x,y,z
-x,1/2+y,1/2-z
-x,-y,-z
x,1/2-y,1/2+z
loop_
_atom_site_type_symbol
_atom_site_label
_atom_site_fract_x
_atom_site_fract_y
_atom_site_fract_z
Si Si1 0.387897 0.910727 0.501871
Si Si2 0.013325 0.222220 0.137652
Si Si3 0.525761 0.705595 0.850997
Si Si4 0.387932 0.915550 0.053540
Si Si5 0.027037 0.610013 0.580954
Si Si6 0.891710 0.759948 0.167693
Si Si7 0.400394 0.038046 0.267576
Si Si8 0.055832 0.080297 0.468879
O O1 0.626339 0.832747 0.598192
O O2 0.668303 0.949651 0.517098
O O3 0.153173 0.842925 0.398923
O O4 0.131985 0.938702 0.503247
O O5 0.291635 0.248121 0.160862
O O6 0.181496 0.143232 0.228416
O O7 0.748518 0.148667 0.039282
O O8 0.428654 0.572957 0.817226
O O9 0.208959 0.768883 0.779459
O O10 0.768298 0.694004 0.965033
O O11 0.209347 0.865384 0.065931
O O12 0.733272 0.877915 0.149978
O O13 0.283174 0.044664 0.016833
O O14 0.249164 0.514339 0.668880
O O15 0.985997 0.701729 0.623014
O O16 0.746605 0.081446 0.352013
#
# Coordination Sequence:
#
# PCOD9244043 Si02
#       8
#     4   4   4   4   4   4   4   4
#     4  11  24  42  62  98 137 169 220 282 336 413
#     4  10  20  39  64  96 129 176 223 269 337 407
#     4  10  21  40  63  94 129 179 222 274 338 396
#     4   9  19  37  64  96 136 172 219 277 331 407
#     4   9  18  38  66  98 129 175 218 270 344 398
#     4  10  22  39  62  98 135 171 223 278 331 401
#     4   9  19  37  68  94 126 169 227 274 323 411
#     4  10  20  43  64  86 127 174 218 273 335 393
#
# _framework density 28.205121999999999
#
# number of rings (size 3 to 8) (size 9 to 14) (size 15 to 20)
#    0.000    2.250    2.500    0.375    1.750    2.000 
#    4.500    3.750    0.000    0.000    0.000    0.000 
#    0.000    0.000    0.000    0.000    0.000    0.000 
#
# Total GULP energy -178882.873588 kJ/mol
# GULP energy per Si atom -5590.089800 kJ/mol
# Density = 2.814093 g / cm^3
# Si number density = 28.205122 Si / 1000 Ang^3
#
#
#
# Elastic Constant Matrix: (Units=GPa)
#
#
# Indices 1 2 3 4 5 6 
#
# 1 140.9149 35.8303 42.2645 0.0000 26.7668 0.0000
# 2 35.8303 65.6813 9.9055 0.0000 14.7007 0.0000
# 3 42.2645 9.9055 128.3830 0.0000 33.7113 0.0000
# 4 0.0000 0.0000 0.0000 46.5036 0.0000 25.0776
# 5 26.7668 14.7007 33.7113 0.0000 57.0423 0.0000
# 6 0.0000 0.0000 0.0000 25.0776 0.0000 48.4834
#
#
#
# Elastic Compliance Matrix: (Units=1/GPa)
#
#
# Indices 1 2 3 4 5 6 
#
# 1 0.009203 -0.004259 -0.002196 0.000000 -0.001923 0.000000
# 2 -0.004259 0.018131 0.000835 0.000000 -0.003168 0.000000
# 3 -0.002196 0.000835 0.009746 0.000000 -0.004944 0.000000
# 4 0.000000 0.000000 0.000000 0.029822 0.000000 -0.015425
# 5 -0.001923 -0.003168 -0.004944 0.000000 0.022172 0.000000
# 6 0.000000 0.000000 0.000000 -0.015425 0.000000 0.028604
#
#
# Mechanical properties :
#
#
# Convention : Reuss Voigt Hill
#
# Bulk Modulus (GPa) = 38.69912 56.77554 47.73733
# Shear Modulus (GPa) = 36.35492 46.87110 41.61301
#
# Velocity S-wave (km/s) = 3.59409 4.08093 3.84522
# Velocity P-wave (km/s) = 5.56540 6.50988 6.05608
#
# Compressibility (1/GPa) = 0.02584038
#
# Stress axis : x y z
#
# Youngs Moduli (GPa) = 108.65517 55.15271 102.60495
#
# Poissons Ratio (x) = 0.23490 0.22535
# Poissons Ratio (y) = 0.46276 -0.08567
# Poissons Ratio (z) = 0.23863 -0.04605
#
# Static dielectric constant tensor:
#      x y z
#    x 2.783340 0.000000 -0.040490 
#    y 0.000000 2.189800 0.000000 
#    z -0.040490 0.000000 2.149990 
# 
# From -- ./inp_files/76732.got.cif
#   From: 2010.05.17/outbox.cif.g08.bks.cpg/sg14_39_cif.got.tgz:76732.got - 2010.06.03 17:49:19.
