data_PCOD9244505
_publ_section_title
;
Structure prediction by ZEFSAII (Michael W. Deem and Ramdas Pophale) SiO2 
 PCOD9244505
Probable space group: P 21/C
;
_chemical_formula_sum "Si O2"
_cell_formula_units_Z 20
_cell_length_a 15.571923
_cell_length_b 11.612386
_cell_length_c 13.458452
_cell_angle_alpha 90.000000
_cell_angle_beta 161.657836
_cell_angle_gamma 90.000000
_cell_volume 765.849120
_symmetry_space_group_name_H-M "P 21/C"
_symmetry_group_IT_number 14
_symmetry_cell_setting 'monoclinic'
loop_
_space_group_symop_operation_xyz
x,y,z
-x,1/2+y,1/2-z
-x,-y,-z
x,1/2-y,1/2+z
loop_
_atom_site_type_symbol
_atom_site_label
_atom_site_fract_x
_atom_site_fract_y
_atom_site_fract_z
Si Si1 0.474531 0.676339 0.066836
Si Si2 0.304047 0.112814 0.788950
Si Si3 0.153097 0.549550 0.570278
Si Si4 0.601337 0.114004 0.301485
Si Si5 0.101699 0.528977 0.296116
O O1 0.628128 0.793322 0.218965
O O2 0.656802 0.560512 0.250771
O O3 0.353636 0.675754 0.044327
O O4 0.271917 0.662797 0.751953
O O5 0.999758 0.082737 0.419075
O O6 0.389765 0.166300 0.989151
O O7 0.500000 0.000000 0.000000
O O8 0.000000 0.500000 0.500000
O O9 0.048377 0.585380 0.345900
O O10 0.893856 0.080260 0.578888
O O11 0.417985 0.002399 0.131458
#
# Coordination Sequence:
#
# PCOD9244505 Si02
#       5
#     4   4   4   4   4
#     4  10  22  42  67  96 131 176 220 279 329 401
#     4  10  23  45  65  98 137 175 221 275 338 401
#     4  10  20  41  66  97 132 170 228 272 333 392
#     4  10  21  43  65  94 133 173 224 264 336 392
#     4  10  21  42  67  93 135 175 216 278 323 400
#
# _framework density 26.114806999999999
#
# number of rings (size 3 to 8) (size 9 to 14) (size 15 to 20)
#    0.000    2.000    2.000    0.600    0.000    1.600 
#   36.000    0.000    0.000    0.000    0.000    0.000 
#    0.000    0.000    0.000    0.000    0.000    0.000 
#
# Total GULP energy -111405.270274 kJ/mol
# GULP energy per Si atom -5570.263514 kJ/mol
# Density = 2.605537 g / cm^3
# Si number density = 26.114807 Si / 1000 Ang^3
#
#
#
# Elastic Constant Matrix: (Units=GPa)
#
#
# Indices 1 2 3 4 5 6 
#
# 1 147.2233 17.9962 30.7228 0.0000 -29.8406 0.0000
# 2 17.9962 36.1456 3.6998 0.0000 -3.4913 0.0000
# 3 30.7228 3.6998 80.1543 0.0000 -30.3909 0.0000
# 4 0.0000 0.0000 0.0000 22.3913 0.0000 -1.0455
# 5 -29.8406 -3.4913 -30.3909 0.0000 66.1933 0.0000
# 6 0.0000 0.0000 0.0000 -1.0455 0.0000 16.9987
#
#
#
# Elastic Compliance Matrix: (Units=1/GPa)
#
#
# Indices 1 2 3 4 5 6 
#
# 1 0.008172 -0.003616 -0.001987 0.000000 0.002581 0.000000
# 2 -0.003616 0.029459 -0.000003 0.000000 -0.000078 0.000000
# 3 -0.001987 -0.000003 0.015616 0.000000 0.006274 0.000000
# 4 0.000000 0.000000 0.000000 0.044789 0.000000 0.002755
# 5 0.002581 -0.000078 0.006274 0.000000 0.019147 0.000000
# 6 0.000000 0.000000 0.000000 0.002755 0.000000 0.058997
#
#
# Mechanical properties :
#
#
# Convention : Reuss Voigt Hill
#
# Bulk Modulus (GPa) = 23.78943 40.92896 32.35920
# Shear Modulus (GPa) = 24.82554 35.19029 30.00792
#
# Velocity S-wave (km/s) = 3.08658 3.67484 3.39348
# Velocity P-wave (km/s) = 4.67247 5.80626 5.26994
#
# Compressibility (1/GPa) = 0.04203547
#
# Stress axis : x y z
#
# Youngs Moduli (GPa) = 122.36579 33.94534 64.03503
#
# Poissons Ratio (x) = 0.12275 0.12722
# Poissons Ratio (y) = 0.44249 0.00021
# Poissons Ratio (z) = 0.24311 0.00011
#
# Static dielectric constant tensor:
#      x y z
#    x 2.146070 0.000000 -0.036900 
#    y 0.000000 2.151170 0.000000 
#    z -0.036900 0.000000 2.225720 
# 
# From -- ./inp_files/48826.got.cif
#   From: 2010.05.17/outbox.cif.g08.bks.cpg/sg14_25_cif.got.tgz:48826.got - 2010.06.03 17:49:19.
