data_PCOD9244619
_publ_section_title
;
Structure prediction by ZEFSAII (Michael W. Deem and Ramdas Pophale) SiO2 
 PCOD9244619
Probable space group: P 21/C
;
_chemical_formula_sum "Si O2"
_cell_formula_units_Z 32
_cell_length_a 13.674050
_cell_length_b 12.511979
_cell_length_c 8.439033
_cell_angle_alpha 90.000000
_cell_angle_beta 81.129856
_cell_angle_gamma 90.000000
_cell_volume 1426.561621
_symmetry_space_group_name_H-M "P 21/C"
_symmetry_group_IT_number 14
_symmetry_cell_setting 'monoclinic'
loop_
_space_group_symop_operation_xyz
x,y,z
-x,1/2+y,1/2-z
-x,-y,-z
x,1/2-y,1/2+z
loop_
_atom_site_type_symbol
_atom_site_label
_atom_site_fract_x
_atom_site_fract_y
_atom_site_fract_z
Si Si1 0.113106 0.387587 0.403605
Si Si2 0.339854 0.373097 0.647386
Si Si3 0.063881 0.522650 0.726935
Si Si4 0.339049 0.680587 0.005163
Si Si5 0.566610 0.679718 0.043310
Si Si6 0.279432 0.890061 0.173629
Si Si7 0.723510 0.539278 0.855674
Si Si8 0.148340 0.146716 0.397825
O O1 0.085082 0.459587 0.558804
O O2 0.220071 0.424232 0.314605
O O3 0.112505 0.263854 0.448238
O O4 0.033736 0.409938 0.283344
O O5 0.379609 0.292683 0.505351
O O6 0.329570 0.498017 0.610934
O O7 0.230013 0.340228 0.736026
O O8 0.410021 0.356590 0.783747
O O9 0.163231 0.589482 0.735281
O O10 0.061497 0.430391 0.859508
O O11 0.451980 0.687087 0.033408
O O12 0.329673 0.646033 0.825323
O O13 0.291657 0.795839 0.045682
O O14 0.286316 0.587058 0.119444
O O15 0.617879 0.594519 0.911866
O O16 0.789398 0.587935 0.982272
#
# Coordination Sequence:
#
# PCOD9244619 Si02
#       8
#     4   4   4   4   4   4   4   4
#     4  11  23  40  71  99 124 173 220 275 338 391
#     4  10  22  41  68  97 131 170 225 280 314 395
#     4  10  24  45  63 100 133 160 224 279 324 402
#     4  12  25  46  64  95 142 182 212 274 334 398
#     4  11  22  42  69 100 131 172 228 275 331 385
#     4  11  26  46  63  93 141 177 218 274 333 398
#     4  11  23  40  69  96 129 178 221 271 328 391
#     4  10  20  42  65  94 134 168 216 278 325 388
#
# _framework density 22.431557000000002
#
# number of rings (size 3 to 8) (size 9 to 14) (size 15 to 20)
#    0.000    1.250    5.000    1.875    7.000    2.000 
#    4.500    0.000    0.000    0.000    0.000    0.000 
#    0.000    0.000    0.000    0.000    0.000    0.000 
#
# Total GULP energy -179121.650558 kJ/mol
# GULP energy per Si atom -5597.551580 kJ/mol
# Density = 2.238050 g / cm^3
# Si number density = 22.431557 Si / 1000 Ang^3
#
#
#
# Elastic Constant Matrix: (Units=GPa)
#
#
# Indices 1 2 3 4 5 6 
#
# 1 73.7471 21.3499 15.6076 0.0000 15.7524 0.0000
# 2 21.3499 147.7871 30.2327 0.0000 -7.1674 0.0000
# 3 15.6076 30.2327 38.2461 0.0000 6.3894 0.0000
# 4 0.0000 0.0000 0.0000 29.6286 0.0000 4.7657
# 5 15.7524 -7.1674 6.3894 0.0000 26.7397 0.0000
# 6 0.0000 0.0000 0.0000 4.7657 0.0000 26.7220
#
#
#
# Elastic Compliance Matrix: (Units=1/GPa)
#
#
# Indices 1 2 3 4 5 6 
#
# 1 0.017044 -0.002204 -0.003580 0.000000 -0.009776 0.000000
# 2 -0.002204 0.008754 -0.006905 0.000000 0.005295 0.000000
# 3 -0.003580 -0.006905 0.034396 0.000000 -0.007961 0.000000
# 4 0.000000 0.000000 0.000000 0.034748 0.000000 -0.006197
# 5 -0.009776 0.005295 -0.007961 0.000000 0.046478 0.000000
# 6 0.000000 0.000000 0.000000 -0.006197 0.000000 0.038528
#
#
# Mechanical properties :
#
#
# Convention : Reuss Voigt Hill
#
# Bulk Modulus (GPa) = 28.72287 43.79563 36.25925
# Shear Modulus (GPa) = 23.04886 29.45740 26.25313
#
# Velocity S-wave (km/s) = 3.20897 3.62776 3.42477
# Velocity P-wave (km/s) = 5.15388 6.09213 5.64254
#
# Compressibility (1/GPa) = 0.03481547
#
# Stress axis : x y z
#
# Youngs Moduli (GPa) = 58.67287 114.22996 29.07340
#
# Poissons Ratio (x) = 0.25176 0.10408
# Poissons Ratio (y) = 0.12931 0.20076
# Poissons Ratio (z) = 0.21004 0.78878
#
# Static dielectric constant tensor:
#      x y z
#    x 1.828530 0.000000 0.000300 
#    y 0.000000 1.813940 0.000000 
#    z 0.000300 0.000000 1.879220 
# 
# From -- ./inp_files/15825.got.cif
#   From: 2010.05.17/outbox.cif.g08.bks.cpg/sg14_8_cif.got.tgz:15825.got - 2010.06.03 17:49:19.
