data_PCOD9244206
_publ_section_title
;
Structure prediction by ZEFSAII (Michael W. Deem and Ramdas Pophale) SiO2 
 PCOD9244206
Probable space group: P 21/C
;
_chemical_formula_sum "Si O2"
_cell_formula_units_Z 20
_cell_length_a 6.127746
_cell_length_b 7.747975
_cell_length_c 20.902521
_cell_angle_alpha 90.000000
_cell_angle_beta 116.730827
_cell_angle_gamma 90.000000
_cell_volume 886.343520
_symmetry_space_group_name_H-M "P 21/C"
_symmetry_group_IT_number 14
_symmetry_cell_setting 'monoclinic'
loop_
_space_group_symop_operation_xyz
x,y,z
-x,1/2+y,1/2-z
-x,-y,-z
x,1/2-y,1/2+z
loop_
_atom_site_type_symbol
_atom_site_label
_atom_site_fract_x
_atom_site_fract_y
_atom_site_fract_z
Si Si1 0.680401 0.865260 0.211739
Si Si2 0.416365 0.812235 0.566175
Si Si3 0.198744 0.514823 0.603631
Si Si4 0.071378 0.840029 0.831328
Si Si5 0.557304 0.801002 0.438009
O O1 0.629858 0.740299 0.144229
O O2 0.822161 0.759988 0.283717
O O3 0.405031 0.935670 0.184853
O O4 0.844626 0.027585 0.212325
O O5 0.200162 0.682175 0.558696
O O6 0.515682 0.781391 0.508238
O O7 0.336920 0.010101 0.561475
O O8 0.962325 0.455098 0.609621
O O9 0.304057 0.357950 0.575847
O O10 0.287286 0.706226 0.871551
#
# Coordination Sequence:
#
# PCOD9244206 Si02
#       5
#     4   4   4   4   4
#     4   9  22  37  55  84 120 151 197 246 298 344
#     4   9  20  42  58  87 125 154 187 255 295 351
#     4   9  22  38  59  88 116 155 194 250 292 353
#     4  11  21  39  62  87 115 163 201 246 295 367
#     4  10  20  40  63  85 123 155 196 240 304 354
#
# _framework density 22.564613999999999
#
# number of rings (size 3 to 8) (size 9 to 14) (size 15 to 20)
#    1.200    1.200    0.000    1.800    0.000    5.600 
#    7.200    2.000    0.000    0.000    0.000    0.000 
#    0.000    0.000    0.000    0.000    0.000    0.000 
#
# Total GULP energy -111592.942973 kJ/mol
# GULP energy per Si atom -5579.647149 kJ/mol
# Density = 2.251326 g / cm^3
# Si number density = 22.564614 Si / 1000 Ang^3
#
#
#
# Elastic Constant Matrix: (Units=GPa)
#
#
# Indices 1 2 3 4 5 6 
#
# 1 17.0471 8.2595 -2.5652 0.0000 11.9192 0.0000
# 2 8.2595 108.5174 18.6408 0.0000 0.0620 0.0000
# 3 -2.5652 18.6408 54.6551 0.0000 15.7084 0.0000
# 4 0.0000 0.0000 0.0000 33.4234 0.0000 -5.6438
# 5 11.9192 0.0620 15.7084 0.0000 22.6684 0.0000
# 6 0.0000 0.0000 0.0000 -5.6438 0.0000 -2.3232
#
#
#
# Elastic Compliance Matrix: (Units=1/GPa)
#
#
# Indices 1 2 3 4 5 6 
#
# 1 0.154616 -0.019711 0.046614 0.000000 -0.113546 0.000000
# 2 -0.019711 0.012452 -0.010165 0.000000 0.017374 0.000000
# 3 0.046614 -0.010165 0.038694 0.000000 -0.051296 0.000000
# 4 0.000000 0.000000 0.000000 0.021216 0.000000 -0.051540
# 5 -0.113546 0.017374 -0.051296 0.000000 0.139316 0.000000
# 6 0.000000 0.000000 0.000000 -0.051540 0.000000 -0.305229
#
#
# Mechanical properties :
#
#
# Convention : Reuss Voigt Hill
#
# Bulk Modulus (GPa) = 4.17995 25.43220 14.80607
# Shear Modulus (GPa) = 46.58261 21.14599 33.86430
#
# Velocity S-wave (km/s) = 4.54851 3.06458 3.87818
# Velocity P-wave (km/s) = 5.42602 4.88032 5.16039
#
# Compressibility (1/GPa) = 0.23923728
#
# Stress axis : x y z
#
# Youngs Moduli (GPa) = 6.46763 80.31105 25.84369
#
# Poissons Ratio (x) = 1.58297 -1.20467
# Poissons Ratio (y) = 0.12748 0.26271
# Poissons Ratio (z) = -0.30148 0.81639
#
# Static dielectric constant tensor:
#      x y z
#    x 1.814030 0.000000 0.026980 
#    y 0.000000 1.823230 0.000000 
#    z 0.026980 0.000000 1.860220 
# 
# From -- ./inp_files/62929.got.cif
#   From: 2010.05.17/outbox.cif.g08.bks.cpg/sg14_32_cif.got.tgz:62929.got - 2010.06.03 17:49:19.
