data_PCOD9244648
_publ_section_title
;
Structure prediction by ZEFSAII (Michael W. Deem and Ramdas Pophale) SiO2 
 PCOD9244648
Probable space group: P 21/C
;
_chemical_formula_sum "Si O2"
_cell_formula_units_Z 28
_cell_length_a 10.519747
_cell_length_b 7.716583
_cell_length_c 18.582959
_cell_angle_alpha 90.000000
_cell_angle_beta 66.771927
_cell_angle_gamma 90.000000
_cell_volume 1386.223946
_symmetry_space_group_name_H-M "P 21/C"
_symmetry_group_IT_number 14
_symmetry_cell_setting 'monoclinic'
loop_
_space_group_symop_operation_xyz
x,y,z
-x,1/2+y,1/2-z
-x,-y,-z
x,1/2-y,1/2+z
loop_
_atom_site_type_symbol
_atom_site_label
_atom_site_fract_x
_atom_site_fract_y
_atom_site_fract_z
Si Si1 0.449719 0.310537 0.190147
Si Si2 0.947322 0.260679 0.455617
Si Si3 0.065727 0.463490 0.801873
Si Si4 0.188824 0.367896 0.509926
Si Si5 0.757945 0.165567 0.620952
Si Si6 0.381241 0.018506 0.851738
Si Si7 0.812229 0.701859 0.835542
O O1 0.600445 0.398586 0.147692
O O2 0.399425 0.351758 0.281880
O O3 0.332587 0.369913 0.161668
O O4 0.485972 0.107099 0.171069
O O5 0.079882 0.292728 0.476785
O O6 0.059705 0.426966 0.202608
O O7 0.843450 0.147834 0.528287
O O8 0.996802 0.172525 0.372141
O O9 0.162891 0.581665 0.830596
O O10 0.152209 0.367252 0.721717
O O11 0.128819 0.557815 0.542572
O O12 0.332870 0.392188 0.435615
O O13 0.196898 0.254806 0.579337
O O14 0.737946 0.373505 0.638466
#
# Coordination Sequence:
#
# PCOD9244648 Si02
#       7
#     4   4   4   4   4   4   4
#     4  10  22  42  62  92 122 163 210 252 314 371
#     4  10  20  42  67  90 123 167 217 250 299 388
#     4  12  24  40  65  94 127 165 210 258 313 365
#     4  10  21  40  65  94 124 165 209 261 311 361
#     4   9  21  39  66  88 116 167 211 250 296 382
#     4   9  21  41  68  82 123 168 214 244 305 387
#     4  12  26  38  62  97 132 157 205 271 321 358
#
# _framework density 20.198757000000001
#
# number of rings (size 3 to 8) (size 9 to 14) (size 15 to 20)
#    0.857    0.857    1.429    3.000    2.000    0.571 
#    0.000    0.714    0.000    0.000    0.000    0.000 
#    0.000    0.000    0.000    0.000    0.000    0.000 
#
# Total GULP energy -156326.643895 kJ/mol
# GULP energy per Si atom -5583.094425 kJ/mol
# Density = 2.015278 g / cm^3
# Si number density = 20.198757 Si / 1000 Ang^3
#
#
#
# Elastic Constant Matrix: (Units=GPa)
#
#
# Indices 1 2 3 4 5 6 
#
# 1 105.0154 10.1141 6.5523 0.0000 -2.0412 0.0000
# 2 10.1141 22.6252 9.8551 0.0000 -10.5360 0.0000
# 3 6.5523 9.8551 65.7375 0.0000 -14.3449 0.0000
# 4 0.0000 0.0000 0.0000 31.5388 0.0000 1.8069
# 5 -2.0412 -10.5360 -14.3449 0.0000 20.2033 0.0000
# 6 0.0000 0.0000 0.0000 1.8069 0.0000 6.4490
#
#
#
# Elastic Compliance Matrix: (Units=1/GPa)
#
#
# Indices 1 2 3 4 5 6 
#
# 1 0.010024 -0.005199 -0.000699 0.000000 -0.002194 0.000000
# 2 -0.005199 0.061419 -0.002147 0.000000 0.029980 0.000000
# 3 -0.000699 -0.002147 0.018157 0.000000 0.011701 0.000000
# 4 0.000000 0.000000 0.000000 0.032224 0.000000 -0.009029
# 5 -0.002194 0.029980 0.011701 0.000000 0.073218 0.000000
# 6 0.000000 0.000000 0.000000 -0.009029 0.000000 0.157593
#
#
# Mechanical properties :
#
#
# Convention : Reuss Voigt Hill
#
# Bulk Modulus (GPa) = 13.60350 27.38013 20.49182
# Shear Modulus (GPa) = 12.71527 22.76200 17.73863
#
# Velocity S-wave (km/s) = 2.51172 3.36058 2.96667
# Velocity P-wave (km/s) = 3.89373 5.35189 4.67995
#
# Compressibility (1/GPa) = 0.07351047
#
# Stress axis : x y z
#
# Youngs Moduli (GPa) = 99.76035 16.28167 55.07518
#
# Poissons Ratio (x) = 0.08464 0.03848
# Poissons Ratio (y) = 0.51861 0.11827
# Poissons Ratio (z) = 0.06969 0.03496
#
# Static dielectric constant tensor:
#      x y z
#    x 1.722930 0.000000 -0.035580 
#    y 0.000000 1.759040 0.000000 
#    z -0.035580 0.000000 1.674740 
# 
# From -- ./inp_files/43367.got.cif
#   From: 2010.05.17/outbox.cif.g08.bks.cpg/sg14_22_cif.got.tgz:43367.got - 2010.06.03 17:49:19.
