data_PCOD9244521
_publ_section_title
;
Structure prediction by ZEFSAII (Michael W. Deem and Ramdas Pophale) SiO2 
 PCOD9244521
Probable space group: P 21/C
;
_chemical_formula_sum "Si O2"
_cell_formula_units_Z 24
_cell_length_a 10.120053
_cell_length_b 10.586994
_cell_length_c 13.552899
_cell_angle_alpha 90.000000
_cell_angle_beta 134.561625
_cell_angle_gamma 90.000000
_cell_volume 1034.594555
_symmetry_space_group_name_H-M "P 21/C"
_symmetry_group_IT_number 14
_symmetry_cell_setting 'monoclinic'
loop_
_space_group_symop_operation_xyz
x,y,z
-x,1/2+y,1/2-z
-x,-y,-z
x,1/2-y,1/2+z
loop_
_atom_site_type_symbol
_atom_site_label
_atom_site_fract_x
_atom_site_fract_y
_atom_site_fract_z
Si Si1 0.091859 0.529331 0.765292
Si Si2 0.299603 0.690335 0.017840
Si Si3 0.797687 0.460036 0.859267
Si Si4 0.610736 0.820575 0.515344
Si Si5 0.703152 0.942739 0.115803
Si Si6 0.729164 0.320392 0.303208
O O1 0.244248 0.428512 0.881266
O O2 0.142360 0.577021 0.682541
O O3 0.883745 0.483234 0.672221
O O4 0.128179 0.648131 0.859168
O O5 0.323262 0.575174 0.108813
O O6 0.471660 0.697210 0.035350
O O7 0.273177 0.806901 0.079419
O O8 0.728922 0.563676 0.747355
O O9 0.797283 0.321299 0.807676
O O10 0.000000 0.500000 0.000000
O O11 0.711335 0.687129 0.560722
O O12 0.474089 0.838308 0.351087
O O13 0.500000 0.000000 0.000000
#
# Coordination Sequence:
#
# PCOD9244521 Si02
#       6
#     4   4   4   4   4   4
#     4  11  24  41  69 103 136 187 238 283 361 419
#     4   9  20  40  67 100 133 176 232 287 341 426
#     4  10  20  41  67  98 131 182 228 275 348 415
#     4  11  24  40  69 102 138 183 229 295 351 417
#     4  12  24  42  66  99 141 182 233 291 349 416
#     4   9  20  42  66  99 136 177 233 283 344 422
#
# _framework density 23.197493999999999
#
# number of rings (size 3 to 8) (size 9 to 14) (size 15 to 20)
#    1.000    0.667    3.333    2.000    2.333    2.667 
#    0.000    5.000    0.000    9.000    0.000    0.000 
#    0.000    0.000    0.000    0.000    0.000    0.000 
#
# Total GULP energy -133866.900268 kJ/mol
# GULP energy per Si atom -5577.787511 kJ/mol
# Density = 2.314470 g / cm^3
# Si number density = 23.197494 Si / 1000 Ang^3
#
#
#
# Elastic Constant Matrix: (Units=GPa)
#
#
# Indices 1 2 3 4 5 6 
#
# 1 75.7686 18.6893 63.2678 0.0000 1.8012 0.0000
# 2 18.6893 69.7145 29.6831 0.0000 9.4309 0.0000
# 3 63.2678 29.6831 129.4120 0.0000 11.0838 0.0000
# 4 0.0000 0.0000 0.0000 44.2650 0.0000 -7.6103
# 5 1.8012 9.4309 11.0838 0.0000 37.7722 0.0000
# 6 0.0000 0.0000 0.0000 -7.6103 0.0000 30.2312
#
#
#
# Elastic Compliance Matrix: (Units=1/GPa)
#
#
# Indices 1 2 3 4 5 6 
#
# 1 0.022676 -0.001786 -0.010896 0.000000 0.002562 0.000000
# 2 -0.001786 0.016370 -0.002604 0.000000 -0.003238 0.000000
# 3 -0.010896 -0.002604 0.013900 0.000000 -0.002909 0.000000
# 4 0.000000 0.000000 0.000000 0.023613 0.000000 0.005944
# 5 0.002562 -0.003238 -0.002909 0.000000 0.028014 0.000000
# 6 0.000000 0.000000 0.000000 0.005944 0.000000 0.034575
#
#
# Mechanical properties :
#
#
# Convention : Reuss Voigt Hill
#
# Bulk Modulus (GPa) = 44.69481 55.35284 50.02382
# Shear Modulus (GPa) = 28.22013 33.33737 30.77875
#
# Velocity S-wave (km/s) = 3.49164 3.79504 3.64650
# Velocity P-wave (km/s) = 5.96358 6.56631 6.27219
#
# Compressibility (1/GPa) = 0.02237396
#
# Stress axis : x y z
#
# Youngs Moduli (GPa) = 44.09997 61.08771 71.94035
#
# Poissons Ratio (x) = 0.10913 0.78383
# Poissons Ratio (y) = 0.07878 0.18734
# Poissons Ratio (z) = 0.48049 0.15908
#
# Static dielectric constant tensor:
#      x y z
#    x 1.875650 0.000000 -0.017760 
#    y 0.000000 2.044050 0.000000 
#    z -0.017760 0.000000 1.868430 
# 
# From -- ./inp_files/44173.got.cif
#   From: 2010.05.17/outbox.cif.g08.bks.cpg/sg14_23_cif.got.tgz:44173.got - 2010.06.03 17:49:19.
