data_PCOD9244548
_publ_section_title
;
Structure prediction by ZEFSAII (Michael W. Deem and Ramdas Pophale) SiO2 
 PCOD9244548
Probable space group: P 21/C
;
_chemical_formula_sum "Si O2"
_cell_formula_units_Z 28
_cell_length_a 7.808664
_cell_length_b 21.634369
_cell_length_c 9.515939
_cell_angle_alpha 90.000000
_cell_angle_beta 125.308373
_cell_angle_gamma 90.000000
_cell_volume 1311.870771
_symmetry_space_group_name_H-M "P 21/C"
_symmetry_group_IT_number 14
_symmetry_cell_setting 'monoclinic'
loop_
_space_group_symop_operation_xyz
x,y,z
-x,1/2+y,1/2-z
-x,-y,-z
x,1/2-y,1/2+z
loop_
_atom_site_type_symbol
_atom_site_label
_atom_site_fract_x
_atom_site_fract_y
_atom_site_fract_z
Si Si1 0.842792 0.052940 0.474854
Si Si2 0.549468 0.429971 0.570619
Si Si3 0.151642 0.088861 0.045414
Si Si4 0.277017 0.527033 0.777884
Si Si5 0.913969 0.821450 0.348860
Si Si6 0.447231 0.637121 0.702359
Si Si7 0.046278 0.708593 0.594783
O O1 0.697355 0.068755 0.274580
O O2 0.969877 0.113205 0.581443
O O3 0.718761 0.029902 0.553133
O O4 0.000000 0.000000 0.500000
O O5 0.500000 0.500000 0.500000
O O6 0.325230 0.403503 0.507993
O O7 0.639943 0.389528 0.487157
O O8 0.944198 0.057588 0.880656
O O9 0.083603 0.157126 0.056578
O O10 0.254470 0.041865 0.205429
O O11 0.449157 0.573910 0.795300
O O12 0.011822 0.774004 0.507392
O O13 0.962865 0.796000 0.215153
O O14 0.671347 0.832915 0.275784
O O15 0.286441 0.684904 0.697079
#
# Coordination Sequence:
#
# PCOD9244548 Si02
#       7
#     4   4   4   4   4   4   4
#     4  12  27  43  69 109 147 183 246 307 355 435
#     4  12  23  41  70 104 144 191 232 294 370 416
#     4  10  20  41  70 100 142 182 235 289 368 420
#     4  10  21  42  72 104 140 187 237 303 356 433
#     4  12  27  51  70 107 144 189 246 298 362 436
#     4  11  23  47  76  99 145 193 237 297 368 425
#     4  11  27  46  74 103 147 188 243 298 356 442
#
# _framework density 21.343565999999999
#
# number of rings (size 3 to 8) (size 9 to 14) (size 15 to 20)
#    0.000    0.857    5.714    1.714    6.000    2.857 
#    2.571    0.000    0.000    0.000    0.000    0.000 
#    0.000    0.000    0.000    0.000    0.000    0.000 
#
# Total GULP energy -156558.182818 kJ/mol
# GULP energy per Si atom -5591.363672 kJ/mol
# Density = 2.129499 g / cm^3
# Si number density = 21.343566 Si / 1000 Ang^3
#
#
#
# Elastic Constant Matrix: (Units=GPa)
#
#
# Indices 1 2 3 4 5 6 
#
# 1 146.8874 37.9420 37.0219 0.0000 -10.6375 0.0000
# 2 37.9420 101.4591 23.6186 0.0000 -11.9910 0.0000
# 3 37.0219 23.6186 80.0375 0.0000 -15.7219 0.0000
# 4 0.0000 0.0000 0.0000 27.1345 0.0000 -4.9506
# 5 -10.6375 -11.9910 -15.7219 0.0000 38.4567 0.0000
# 6 0.0000 0.0000 0.0000 -4.9506 0.0000 29.3231
#
#
#
# Elastic Compliance Matrix: (Units=1/GPa)
#
#
# Indices 1 2 3 4 5 6 
#
# 1 0.008197 -0.002321 -0.003048 0.000000 0.000298 0.000000
# 2 -0.002321 0.011414 -0.001872 0.000000 0.002152 0.000000
# 3 -0.003048 -0.001872 0.015414 0.000000 0.004875 0.000000
# 4 0.000000 0.000000 0.000000 0.038025 0.000000 0.006420
# 5 0.000298 0.002152 0.004875 0.000000 0.028749 0.000000
# 6 0.000000 0.000000 0.000000 0.006420 0.000000 0.035187
#
#
# Mechanical properties :
#
#
# Convention : Reuss Voigt Hill
#
# Bulk Modulus (GPa) = 48.67800 58.39432 53.53616
# Shear Modulus (GPa) = 31.58230 34.30295 32.94262
#
# Velocity S-wave (km/s) = 3.85087 4.01331 3.93293
# Velocity P-wave (km/s) = 6.52906 6.99244 6.76472
#
# Compressibility (1/GPa) = 0.02054316
#
# Stress axis : x y z
#
# Youngs Moduli (GPa) = 121.99191 87.61053 64.87512
#
# Poissons Ratio (x) = 0.20331 0.19777
# Poissons Ratio (y) = 0.28310 0.12146
# Poissons Ratio (z) = 0.37188 0.16402
#
# Static dielectric constant tensor:
#      x y z
#    x 1.808270 0.000000 0.031180 
#    y 0.000000 1.764890 0.000000 
#    z 0.031180 0.000000 1.791160 
# 
# From -- ./inp_files/26858.got.cif
#   From: 2010.05.17/outbox.cif.g08.bks.cpg/sg14_14_cif.got.tgz:26858.got - 2010.06.03 17:49:19.
