data_PCOD9244881
_publ_section_title
;
Structure prediction by ZEFSAII (Michael W. Deem and Ramdas Pophale) SiO2 
 PCOD9244881
Probable space group: P 21/C
;
_chemical_formula_sum "Si O2"
_cell_formula_units_Z 32
_cell_length_a 7.618442
_cell_length_b 12.413089
_cell_length_c 19.840874
_cell_angle_alpha 90.000000
_cell_angle_beta 110.484583
_cell_angle_gamma 90.000000
_cell_volume 1757.673211
_symmetry_space_group_name_H-M "P 21/C"
_symmetry_group_IT_number 14
_symmetry_cell_setting 'monoclinic'
loop_
_space_group_symop_operation_xyz
x,y,z
-x,1/2+y,1/2-z
-x,-y,-z
x,1/2-y,1/2+z
loop_
_atom_site_type_symbol
_atom_site_label
_atom_site_fract_x
_atom_site_fract_y
_atom_site_fract_z
Si Si1 0.484344 0.442905 0.145384
Si Si2 0.829565 0.220712 0.859325
Si Si3 0.571259 0.814608 0.698627
Si Si4 0.170331 0.204358 0.670303
Si Si5 0.049214 0.688585 0.989362
Si Si6 0.890635 0.884420 0.663414
Si Si7 0.895486 0.092529 0.740500
Si Si8 0.255291 0.479702 0.991216
O O1 0.501881 0.563855 0.177002
O O2 0.311487 0.386513 0.160230
O O3 0.681329 0.385806 0.187424
O O4 0.437508 0.448415 0.059091
O O5 0.606180 0.236558 0.828772
O O6 0.895988 0.125817 0.818800
O O7 0.925418 0.326178 0.838051
O O8 0.902355 0.226787 0.945771
O O9 0.690078 0.794763 0.782205
O O10 0.729756 0.800039 0.662443
O O11 0.034036 0.235724 0.590580
O O12 0.040841 0.157571 0.713054
O O13 0.895771 0.602594 0.995529
O O14 0.220278 0.606060 0.999939
O O15 0.795118 0.955976 0.592581
O O16 0.930553 0.966565 0.729530
#
# Coordination Sequence:
#
# PCOD9244881 Si02
#       8
#     4   4   4   4   4   4   4   4
#     4  10  21  34  54  82 108 138 177 221 269 326
#     4  11  20  37  52  80 110 145 176 219 268 320
#     4  11  21  32  54  79 109 143 179 213 264 322
#     4  11  20  37  52  80 110 145 176 219 268 320
#     4   9  18  31  56  76 111 143 169 219 278 319
#     4  10  21  34  54  82 108 138 177 221 269 326
#     4  11  21  32  54  79 109 143 179 213 264 322
#     4   9  16  32  53  82 110 134 167 219 292 327
#
# _framework density 18.205886
#
# number of rings (size 3 to 8) (size 9 to 14) (size 15 to 20)
#    0.000    1.750    5.000    0.750    0.000    3.000 
#    0.000    0.000    0.000    3.000    0.000    1.750 
#    0.000    0.000    0.000    0.000    0.000    0.000 
#
# Total GULP energy -178160.565133 kJ/mol
# GULP energy per Si atom -5567.517660 kJ/mol
# Density = 1.816445 g / cm^3
# Si number density = 18.205886 Si / 1000 Ang^3
#
#
#
# Elastic Constant Matrix: (Units=GPa)
#
#
# Indices 1 2 3 4 5 6 
#
# 1 61.6029 -2.2454 0.4069 0.0000 8.1132 0.0000
# 2 -2.2454 18.4412 11.2668 0.0000 1.1735 0.0000
# 3 0.4069 11.2668 77.0102 0.0000 5.0719 0.0000
# 4 0.0000 0.0000 0.0000 31.2131 0.0000 -2.8788
# 5 8.1132 1.1735 5.0719 0.0000 24.4063 0.0000
# 6 0.0000 0.0000 0.0000 -2.8788 0.0000 26.9411
#
#
#
# Elastic Compliance Matrix: (Units=1/GPa)
#
#
# Indices 1 2 3 4 5 6 
#
# 1 0.017086 0.002494 -0.000074 0.000000 -0.005784 0.000000
# 2 0.002494 0.059940 -0.008657 0.000000 -0.001912 0.000000
# 3 -0.000074 -0.008657 0.014421 0.000000 -0.002556 0.000000
# 4 0.000000 0.000000 0.000000 0.032357 0.000000 0.003457
# 5 -0.005784 -0.001912 -0.002556 0.000000 0.043519 0.000000
# 6 0.000000 0.000000 0.000000 0.003457 0.000000 0.037487
#
#
# Mechanical properties :
#
#
# Convention : Reuss Voigt Hill
#
# Bulk Modulus (GPa) = 12.66253 19.54565 16.10409
# Shear Modulus (GPa) = 20.52473 26.35384 23.43929
#
# Velocity S-wave (km/s) = 3.36127 3.80879 3.59201
# Velocity P-wave (km/s) = 4.69409 5.48650 5.10569
#
# Compressibility (1/GPa) = 0.07897313
#
# Stress axis : x y z
#
# Youngs Moduli (GPa) = 58.52680 16.68323 69.34569
#
# Poissons Ratio (x) = -0.04161 0.00514
# Poissons Ratio (y) = -0.14596 0.60030
# Poissons Ratio (z) = 0.00434 0.14442
#
# Static dielectric constant tensor:
#      x y z
#    x 1.719920 0.000000 -0.019350 
#    y 0.000000 1.626970 0.000000 
#    z -0.019350 0.000000 1.661780 
# 
# From -- ./inp_files/55768.got.cif
#   From: 2010.05.17/outbox.cif.g08.bks.cpg/sg14_28_cif.got.tgz:55768.got - 2010.06.03 17:49:19.
