data_PCOD9244524
_publ_section_title
;
Structure prediction by ZEFSAII (Michael W. Deem and Ramdas Pophale) SiO2 
 PCOD9244524
Probable space group: P 21/C
;
_chemical_formula_sum "Si O2"
_cell_formula_units_Z 24
_cell_length_a 14.645320
_cell_length_b 8.055544
_cell_length_c 13.523186
_cell_angle_alpha 90.000000
_cell_angle_beta 142.350555
_cell_angle_gamma 90.000000
_cell_volume 974.523173
_symmetry_space_group_name_H-M "P 21/C"
_symmetry_group_IT_number 14
_symmetry_cell_setting 'monoclinic'
loop_
_space_group_symop_operation_xyz
x,y,z
-x,1/2+y,1/2-z
-x,-y,-z
x,1/2-y,1/2+z
loop_
_atom_site_type_symbol
_atom_site_label
_atom_site_fract_x
_atom_site_fract_y
_atom_site_fract_z
Si Si1 0.616437 0.480976 0.238528
Si Si2 0.165736 0.662641 0.289248
Si Si3 0.682892 0.830506 0.605008
Si Si4 0.758794 0.387687 0.859726
Si Si5 0.072333 0.508423 0.796541
Si Si6 0.566656 0.000872 0.919386
O O1 0.690685 0.604443 0.223603
O O2 0.701167 0.303431 0.312879
O O3 0.606714 0.545210 0.341331
O O4 0.447685 0.440969 0.057925
O O5 0.152119 0.598629 0.166384
O O6 0.087015 0.838930 0.234230
O O7 0.342376 0.663413 0.468169
O O8 0.088879 0.548542 0.306004
O O9 0.627596 0.644521 0.541675
O O10 0.835847 0.861899 0.677457
O O11 0.610735 0.500905 0.728546
O O12 0.846803 0.434334 0.033274
#
# Coordination Sequence:
#
# PCOD9244524 Si02
#       6
#     4   4   4   4   4   4
#     4  10  20  41  68 103 130 174 219 272 338 383
#     4  12  26  44  66 101 134 180 223 278 335 393
#     4  10  22  40  68  99 135 174 216 278 327 395
#     4  11  23  43  72  98 135 175 226 275 331 400
#     4  12  24  45  67  95 140 178 225 273 333 401
#     4  11  23  41  71 104 133 170 226 279 330 398
#
# _framework density 24.627427999999998
#
# number of rings (size 3 to 8) (size 9 to 14) (size 15 to 20)
#    0.000    1.000    5.000    2.000    0.000    1.333 
#    0.000    6.667    0.000    0.000    0.000    0.000 
#    0.000    0.000    0.000    0.000    0.000    0.000 
#
# Total GULP energy -134505.753027 kJ/mol
# GULP energy per Si atom -5604.406376 kJ/mol
# Density = 2.457138 g / cm^3
# Si number density = 24.627428 Si / 1000 Ang^3
#
#
#
# Elastic Constant Matrix: (Units=GPa)
#
#
# Indices 1 2 3 4 5 6 
#
# 1 128.4320 -8.0247 32.3088 0.0000 -11.8685 0.0000
# 2 -8.0247 46.0447 6.9479 0.0000 7.6907 0.0000
# 3 32.3088 6.9479 54.1164 0.0000 -7.9410 0.0000
# 4 0.0000 0.0000 0.0000 17.1901 0.0000 -4.1514
# 5 -11.8685 7.6907 -7.9410 0.0000 44.7880 0.0000
# 6 0.0000 0.0000 0.0000 -4.1514 0.0000 35.7098
#
#
#
# Elastic Compliance Matrix: (Units=1/GPa)
#
#
# Indices 1 2 3 4 5 6 
#
# 1 0.009495 0.002351 -0.005812 0.000000 0.001082 0.000000
# 2 0.002351 0.023616 -0.005071 0.000000 -0.004331 0.000000
# 3 -0.005812 -0.005071 0.023103 0.000000 0.003427 0.000000
# 4 0.000000 0.000000 0.000000 0.059853 0.000000 0.006958
# 5 0.001082 -0.004331 0.003427 0.000000 0.023965 0.000000
# 6 0.000000 0.000000 0.000000 0.006958 0.000000 0.028812
#
#
# Mechanical properties :
#
#
# Convention : Reuss Voigt Hill
#
# Bulk Modulus (GPa) = 25.54292 32.33969 28.94130
# Shear Modulus (GPa) = 25.13072 32.69498 28.91285
#
# Velocity S-wave (km/s) = 3.19789 3.64756 3.43010
# Velocity P-wave (km/s) = 4.90200 5.55874 5.24067
#
# Compressibility (1/GPa) = 0.03914980
#
# Stress axis : x y z
#
# Youngs Moduli (GPa) = 105.31657 42.34335 43.28533
#
# Poissons Ratio (x) = -0.09955 0.25157
# Poissons Ratio (y) = -0.24761 0.21951
# Poissons Ratio (z) = 0.61209 0.21474
#
# Static dielectric constant tensor:
#      x y z
#    x 1.940370 0.000000 0.010040 
#    y 0.000000 1.994680 0.000000 
#    z 0.010040 0.000000 1.891440 
# 
# From -- ./inp_files/46363.got.cif
#   From: 2010.05.17/outbox.cif.g08.bks.cpg/sg14_24_cif.got.tgz:46363.got - 2010.06.03 17:49:19.
