data_PCOD9244431
_publ_section_title
;
Structure prediction by ZEFSAII (Michael W. Deem and Ramdas Pophale) SiO2 
 PCOD9244431
Probable space group: P 21/C
;
_chemical_formula_sum "Si O2"
_cell_formula_units_Z 28
_cell_length_a 9.864394
_cell_length_b 9.499775
_cell_length_c 14.337408
_cell_angle_alpha 90.000000
_cell_angle_beta 108.222862
_cell_angle_gamma 90.000000
_cell_volume 1276.168994
_symmetry_space_group_name_H-M "P 21/C"
_symmetry_group_IT_number 14
_symmetry_cell_setting 'monoclinic'
loop_
_space_group_symop_operation_xyz
x,y,z
-x,1/2+y,1/2-z
-x,-y,-z
x,1/2-y,1/2+z
loop_
_atom_site_type_symbol
_atom_site_label
_atom_site_fract_x
_atom_site_fract_y
_atom_site_fract_z
Si Si1 0.190718 0.347150 0.483192
Si Si2 0.810807 0.335454 0.115095
Si Si3 0.634106 0.432793 0.580152
Si Si4 0.640211 0.565998 0.984789
Si Si5 0.046401 0.702396 0.188143
Si Si6 0.718504 0.522348 0.794779
Si Si7 0.100280 0.202425 0.160621
O O1 0.231316 0.482031 0.432259
O O2 0.161277 0.380176 0.585410
O O3 0.052989 0.277017 0.407117
O O4 0.318099 0.230933 0.502219
O O5 0.677027 0.228734 0.073180
O O6 0.855790 0.314307 0.233067
O O7 0.954105 0.279409 0.095869
O O8 0.767523 0.483700 0.064571
O O9 0.500000 0.500000 0.500000
O O10 0.627084 0.467891 0.688105
O O11 0.639109 0.527854 0.875455
O O12 0.500000 0.500000 0.000000
O O13 0.148420 0.584142 0.169353
O O14 0.951094 0.637463 0.252735
O O15 0.784972 0.676267 0.790329
#
# Coordination Sequence:
#
# PCOD9244431 Si02
#       7
#     4   4   4   4   4   4   4
#     4  11  21  37  65  88 120 155 195 252 297 347
#     4   9  20  38  58  89 120 145 200 240 297 348
#     4  11  22  40  58  84 126 164 191 238 298 363
#     4  11  23  41  62  87 118 161 210 238 280 362
#     4   9  19  35  61  89 117 147 194 247 301 348
#     4  10  20  41  62  84 120 161 195 247 304 341
#     4   9  19  36  61  91 114 147 199 247 298 346
#
# _framework density 21.940670000000001
#
# number of rings (size 3 to 8) (size 9 to 14) (size 15 to 20)
#    0.857    1.143    1.429    2.571    0.000    2.857 
#    2.571    8.571    0.000    0.000    0.000    0.000 
#    0.000    0.000    0.000    0.000    0.000    0.000 
#
# Total GULP energy -156265.273291 kJ/mol
# GULP energy per Si atom -5580.902618 kJ/mol
# Density = 2.189073 g / cm^3
# Si number density = 21.940670 Si / 1000 Ang^3
#
#
#
# Elastic Constant Matrix: (Units=GPa)
#
#
# Indices 1 2 3 4 5 6 
#
# 1 66.9683 -0.4915 17.0926 0.0000 -9.2773 0.0000
# 2 -0.4915 53.4854 12.4311 0.0000 -4.7061 0.0000
# 3 17.0926 12.4311 75.0460 0.0000 1.5944 0.0000
# 4 0.0000 0.0000 0.0000 19.3993 0.0000 3.2051
# 5 -9.2773 -4.7061 1.5944 0.0000 34.6974 0.0000
# 6 0.0000 0.0000 0.0000 3.2051 0.0000 17.6637
#
#
#
# Elastic Compliance Matrix: (Units=1/GPa)
#
#
# Indices 1 2 3 4 5 6 
#
# 1 0.016678 0.001547 -0.004158 0.000000 0.004860 0.000000
# 2 0.001547 0.019862 -0.003712 0.000000 0.003278 0.000000
# 3 -0.004158 -0.003712 0.014936 0.000000 -0.002302 0.000000
# 4 0.000000 0.000000 0.000000 0.053141 0.000000 -0.009642
# 5 0.004860 0.003278 -0.002302 0.000000 0.030671 0.000000
# 6 0.000000 0.000000 0.000000 -0.009642 0.000000 0.058363
#
#
# Mechanical properties :
#
#
# Convention : Reuss Voigt Hill
#
# Bulk Modulus (GPa) = 25.75293 28.17377 26.96335
# Shear Modulus (GPa) = 22.80594 25.44991 24.12793
#
# Velocity S-wave (km/s) = 3.22753 3.40949 3.31975
# Velocity P-wave (km/s) = 5.06481 5.32618 5.19714
#
# Compressibility (1/GPa) = 0.03883054
#
# Stress axis : x y z
#
# Youngs Moduli (GPa) = 59.95761 50.34707 66.95206
#
# Poissons Ratio (x) = -0.07791 0.27841
# Poissons Ratio (y) = -0.09278 0.24854
# Poissons Ratio (z) = 0.24932 0.18690
#
# Static dielectric constant tensor:
#      x y z
#    x 1.828760 0.000000 0.016210 
#    y 0.000000 1.809200 0.000000 
#    z 0.016210 0.000000 1.797480 
# 
# From -- ./inp_files/43531.got.cif
#   From: 2010.05.17/outbox.cif.g08.bks.cpg/sg14_22_cif.got.tgz:43531.got - 2010.06.03 17:49:19.
