data_PCOD9244032
_publ_section_title
;
Structure prediction by ZEFSAII (Michael W. Deem and Ramdas Pophale) SiO2 
 PCOD9244032
Probable space group: P 21/C
;
_chemical_formula_sum "Si O2"
_cell_formula_units_Z 28
_cell_length_a 6.431293
_cell_length_b 16.341326
_cell_length_c 14.886408
_cell_angle_alpha 90.000000
_cell_angle_beta 130.118929
_cell_angle_gamma 90.000000
_cell_volume 1196.386374
_symmetry_space_group_name_H-M "P 21/C"
_symmetry_group_IT_number 14
_symmetry_cell_setting 'monoclinic'
loop_
_space_group_symop_operation_xyz
x,y,z
-x,1/2+y,1/2-z
-x,-y,-z
x,1/2-y,1/2+z
loop_
_atom_site_type_symbol
_atom_site_label
_atom_site_fract_x
_atom_site_fract_y
_atom_site_fract_z
Si Si1 0.836937 0.377950 0.625729
Si Si2 0.322252 0.917097 0.342808
Si Si3 0.559039 0.748458 0.935993
Si Si4 0.885184 0.295045 0.446070
Si Si5 0.007557 0.536996 0.601553
Si Si6 0.211753 0.529010 0.987168
Si Si7 0.424885 0.183378 0.357920
O O1 0.820989 0.340479 0.521258
O O2 0.133197 0.348219 0.742895
O O3 0.596614 0.335201 0.614482
O O4 0.821277 0.475929 0.608459
O O5 0.348997 0.820605 0.343971
O O6 0.107036 0.944741 0.359192
O O7 0.281774 0.963005 0.237859
O O8 0.595905 0.949604 0.464714
O O9 0.847054 0.739803 0.966589
O O10 0.611710 0.726928 0.055557
O O11 0.010006 0.365208 0.415398
O O12 0.610613 0.244728 0.348616
O O13 0.000000 0.500000 0.500000
O O14 0.379194 0.605989 0.071309
O O15 0.000000 0.500000 0.000000
#
# Coordination Sequence:
#
# PCOD9244032 Si02
#       7
#     4   4   4   4   4   4   4
#     4  10  22  42  60  89 130 166 211 273 321 377
#     4  10  21  39  61  96 125 160 214 263 317 389
#     4  10  23  39  63  93 124 162 219 269 318 387
#     4  10  23  40  63  90 123 170 217 255 326 393
#     4  10  22  43  64  90 133 173 214 268 321 394
#     4  10  20  39  64  92 126 161 204 267 327 380
#     4  10  21  40  62  91 125 160 209 276 320 377
#
# _framework density 23.403808999999999
#
# number of rings (size 3 to 8) (size 9 to 14) (size 15 to 20)
#    0.000    2.000    1.429    0.857    4.000    0.571 
#    2.571    1.429    0.000    0.000    0.000    0.000 
#    0.000    0.000    0.000    0.000    0.000    0.000 
#
# Total GULP energy -155952.549712 kJ/mol
# GULP energy per Si atom -5569.733918 kJ/mol
# Density = 2.335054 g / cm^3
# Si number density = 23.403809 Si / 1000 Ang^3
#
#
#
# Elastic Constant Matrix: (Units=GPa)
#
#
# Indices 1 2 3 4 5 6 
#
# 1 67.4459 8.1916 3.0212 0.0000 11.7261 0.0000
# 2 8.1916 71.9512 17.3623 0.0000 -4.7868 0.0000
# 3 3.0212 17.3623 75.5778 0.0000 4.9767 0.0000
# 4 0.0000 0.0000 0.0000 26.1319 0.0000 -0.5511
# 5 11.7261 -4.7868 4.9767 0.0000 22.4211 0.0000
# 6 0.0000 0.0000 0.0000 -0.5511 0.0000 27.8169
#
#
#
# Elastic Compliance Matrix: (Units=1/GPa)
#
#
# Indices 1 2 3 4 5 6 
#
# 1 0.016773 -0.002677 0.000568 0.000000 -0.009469 0.000000
# 2 -0.002677 0.015494 -0.003818 0.000000 0.005555 0.000000
# 3 0.000568 -0.003818 0.014369 0.000000 -0.004302 0.000000
# 4 0.000000 0.000000 0.000000 0.038283 0.000000 0.000758
# 5 -0.009469 0.005555 -0.004302 0.000000 0.051694 0.000000
# 6 0.000000 0.000000 0.000000 0.000758 0.000000 0.035964
#
#
# Mechanical properties :
#
#
# Convention : Reuss Voigt Hill
#
# Bulk Modulus (GPa) = 28.75042 30.23611 29.49326
# Shear Modulus (GPa) = 25.50691 27.70064 26.60378
#
# Velocity S-wave (km/s) = 3.30489 3.44407 3.37520
# Velocity P-wave (km/s) = 5.18403 5.36310 5.27433
#
# Compressibility (1/GPa) = 0.03478210
#
# Stress axis : x y z
#
# Youngs Moduli (GPa) = 59.62074 64.54124 69.59374
#
# Poissons Ratio (x) = 0.17275 -0.03953
# Poissons Ratio (y) = 0.15958 0.26572
# Poissons Ratio (z) = -0.03386 0.24643
#
# Static dielectric constant tensor:
#      x y z
#    x 2.030410 0.000000 -0.073410 
#    y 0.000000 1.958250 0.000000 
#    z -0.073410 0.000000 1.971830 
# 
# From -- ./inp_files/37763.got.cif
#   From: 2010.05.17/outbox.cif.g08.bks.cpg/sg14_19_cif.got.tgz:37763.got - 2010.06.03 17:49:19.
