data_PCOD9244791
_publ_section_title
;
Structure prediction by ZEFSAII (Michael W. Deem and Ramdas Pophale) SiO2 
 PCOD9244791
Probable space group: P 21/C
;
_chemical_formula_sum "Si O2"
_cell_formula_units_Z 28
_cell_length_a 15.396891
_cell_length_b 9.694393
_cell_length_c 17.199726
_cell_angle_alpha 90.000000
_cell_angle_beta 155.945686
_cell_angle_gamma 90.000000
_cell_volume 1046.434344
_symmetry_space_group_name_H-M "P 21/C"
_symmetry_group_IT_number 14
_symmetry_cell_setting 'monoclinic'
loop_
_space_group_symop_operation_xyz
x,y,z
-x,1/2+y,1/2-z
-x,-y,-z
x,1/2-y,1/2+z
loop_
_atom_site_type_symbol
_atom_site_label
_atom_site_fract_x
_atom_site_fract_y
_atom_site_fract_z
Si Si1 0.021267 0.294794 0.002110
Si Si2 0.636959 0.408147 0.984145
Si Si3 0.059469 0.991156 0.412483
Si Si4 0.168700 0.122702 0.245633
Si Si5 0.386884 0.914556 0.023752
Si Si6 0.335195 0.891457 0.155499
Si Si7 0.454678 0.804531 0.875012
O O1 0.996475 0.390846 0.060043
O O2 0.142191 0.162895 0.133887
O O3 0.128427 0.371495 0.017297
O O4 0.776153 0.261299 0.781360
O O5 0.412475 0.563274 0.635571
O O6 0.431565 0.498115 0.793529
O O7 0.740699 0.483233 0.143634
O O8 0.794168 0.429643 0.037131
O O9 0.845136 0.038168 0.194054
O O10 0.334965 0.234933 0.417387
O O11 0.917972 0.124538 0.062483
O O12 0.406028 0.750684 0.031246
O O13 0.539323 0.030623 0.112098
O O14 0.437931 0.750253 0.272675
#
# Coordination Sequence:
#
# PCOD9244791 Si02
#       7
#     4   4   4   4   4   4   4
#     4  10  22  44  66  99 136 182 236 281 338 411
#     4  11  24  41  66 106 138 173 223 296 354 410
#     4  11  23  40  66 101 140 180 231 285 344 414
#     4  10  20  44  68  96 135 180 226 283 345 409
#     4  12  22  38  64 101 134 173 228 291 345 405
#     4  10  21  39  65  93 140 177 221 282 351 404
#     4  10  22  40  70  97 129 181 232 288 334 410
#
# _framework density 26.757531
#
# number of rings (size 3 to 8) (size 9 to 14) (size 15 to 20)
#    0.000    1.429    2.857    3.429    0.000    0.571 
#    7.714    0.714    0.000    7.714    0.000    2.000 
#    0.000    0.000    0.000    0.000    0.000    0.000 
#
# Total GULP energy -156596.675927 kJ/mol
# GULP energy per Si atom -5592.738426 kJ/mol
# Density = 2.669663 g / cm^3
# Si number density = 26.757531 Si / 1000 Ang^3
#
#
#
# Elastic Constant Matrix: (Units=GPa)
#
#
# Indices 1 2 3 4 5 6 
#
# 1 111.1267 49.4440 57.5618 0.0000 -2.4979 0.0000
# 2 49.4440 204.4107 89.4104 0.0000 -7.4764 0.0000
# 3 57.5618 89.4104 223.8974 0.0000 7.3064 0.0000
# 4 0.0000 0.0000 0.0000 38.0103 0.0000 1.9662
# 5 -2.4979 -7.4764 7.3064 0.0000 40.0096 0.0000
# 6 0.0000 0.0000 0.0000 1.9662 0.0000 23.5624
#
#
#
# Elastic Compliance Matrix: (Units=1/GPa)
#
#
# Indices 1 2 3 4 5 6 
#
# 1 0.010871 -0.001658 -0.002158 0.000000 0.000763 0.000000
# 2 -0.001658 0.006277 -0.002128 0.000000 0.001458 0.000000
# 3 -0.002158 -0.002128 0.005924 0.000000 -0.001614 0.000000
# 4 0.000000 0.000000 0.000000 0.026423 0.000000 -0.002205
# 5 0.000763 0.001458 -0.001614 0.000000 0.025609 0.000000
# 6 0.000000 0.000000 0.000000 -0.002205 0.000000 0.042625
#
#
# Mechanical properties :
#
#
# Convention : Reuss Voigt Hill
#
# Bulk Modulus (GPa) = 89.40838 103.58525 96.49682
# Shear Modulus (GPa) = 37.49704 43.18436 40.34070
#
# Velocity S-wave (km/s) = 3.74754 4.02171 3.88705
# Velocity P-wave (km/s) = 7.22580 7.76931 7.50248
#
# Compressibility (1/GPa) = 0.01118463
#
# Stress axis : x y z
#
# Youngs Moduli (GPa) = 91.98619 159.30385 168.81719
#
# Poissons Ratio (x) = 0.26411 0.36426
# Poissons Ratio (y) = 0.15250 0.35926
# Poissons Ratio (z) = 0.19848 0.33902
#
# Static dielectric constant tensor:
#      x y z
#    x 2.107580 0.000000 0.022120 
#    y 0.000000 2.152110 0.000000 
#    z 0.022120 0.000000 2.076590 
# 
# From -- ./inp_files/37571.got.cif
#   From: 2010.05.17/outbox.cif.g08.bks.cpg/sg14_19_cif.got.tgz:37571.got - 2010.06.03 17:49:19.
