data_PCOD9244247
_publ_section_title
;
Structure prediction by ZEFSAII (Michael W. Deem and Ramdas Pophale) SiO2 
 PCOD9244247
Probable space group: P 21/C
;
_chemical_formula_sum "Si O2"
_cell_formula_units_Z 24
_cell_length_a 9.671886
_cell_length_b 14.519578
_cell_length_c 12.888382
_cell_angle_alpha 90.000000
_cell_angle_beta 30.015941
_cell_angle_gamma 90.000000
_cell_volume 905.404784
_symmetry_space_group_name_H-M "P 21/C"
_symmetry_group_IT_number 14
_symmetry_cell_setting 'monoclinic'
loop_
_space_group_symop_operation_xyz
x,y,z
-x,1/2+y,1/2-z
-x,-y,-z
x,1/2-y,1/2+z
loop_
_atom_site_type_symbol
_atom_site_label
_atom_site_fract_x
_atom_site_fract_y
_atom_site_fract_z
Si Si1 0.764550 0.549734 0.150171
Si Si2 0.309006 0.254640 0.263745
Si Si3 0.624122 0.954910 0.264768
Si Si4 0.137313 0.899768 0.741612
Si Si5 0.071091 0.719678 0.683318
Si Si6 0.769050 0.021681 0.844143
O O1 0.811228 0.659461 0.114773
O O2 0.542137 0.501980 0.219706
O O3 0.549722 0.547656 0.402951
O O4 0.945051 0.481018 0.115164
O O5 0.245283 0.356088 0.350527
O O6 0.184712 0.260130 0.226989
O O7 0.638581 0.239509 0.063863
O O8 0.404041 0.921618 0.494895
O O9 0.805354 0.034954 0.198311
O O10 0.098689 0.790031 0.761742
O O11 0.884425 0.940633 0.841437
O O12 0.075063 0.614488 0.713989
#
# Coordination Sequence:
#
# PCOD9244247 Si02
#       6
#     4   4   4   4   4   4
#     4  12  23  41  64  98 136 170 222 280 334 397
#     4  11  22  41  67  94 133 181 216 276 344 389
#     4  10  22  39  66  92 130 170 221 270 330 394
#     4  10  20  40  64  93 125 176 218 263 325 402
#     4  11  21  39  68  96 129 180 227 264 332 404
#     4  12  22  40  65  97 129 172 222 272 326 399
#
# _framework density 26.507477999999999
#
# number of rings (size 3 to 8) (size 9 to 14) (size 15 to 20)
#    0.000    1.000    6.667    1.000    0.000    1.333 
#    0.000    5.000    0.000    0.000    0.000    0.000 
#    0.000    0.000    0.000    0.000    0.000    0.000 
#
# Total GULP energy -134206.295602 kJ/mol
# GULP energy per Si atom -5591.928983 kJ/mol
# Density = 2.644715 g / cm^3
# Si number density = 26.507478 Si / 1000 Ang^3
#
#
#
# Elastic Constant Matrix: (Units=GPa)
#
#
# Indices 1 2 3 4 5 6 
#
# 1 144.4815 70.8810 18.5497 0.0000 -16.4364 0.0000
# 2 70.8810 224.8331 5.6511 0.0000 -1.9713 0.0000
# 3 18.5497 5.6511 96.1332 0.0000 -3.7247 0.0000
# 4 0.0000 0.0000 0.0000 56.3475 0.0000 8.1934
# 5 -16.4364 -1.9713 -3.7247 0.0000 35.1202 0.0000
# 6 0.0000 0.0000 0.0000 8.1934 0.0000 55.8271
#
#
#
# Elastic Compliance Matrix: (Units=1/GPa)
#
#
# Indices 1 2 3 4 5 6 
#
# 1 0.008879 -0.002730 -0.001404 0.000000 0.003853 0.000000
# 2 -0.002730 0.005296 0.000178 0.000000 -0.000962 0.000000
# 3 -0.001404 0.000178 0.010681 0.000000 0.000486 0.000000
# 4 0.000000 0.000000 0.000000 0.018134 0.000000 -0.002661
# 5 0.003853 -0.000962 0.000486 0.000000 0.030275 0.000000
# 6 0.000000 0.000000 0.000000 -0.002661 0.000000 0.018303
#
#
# Mechanical properties :
#
#
# Convention : Reuss Voigt Hill
#
# Bulk Modulus (GPa) = 59.01351 72.84572 65.92961
# Shear Modulus (GPa) = 47.56135 54.15002 50.85569
#
# Velocity S-wave (km/s) = 4.24047 4.52466 4.38487
# Velocity P-wave (km/s) = 6.80343 7.40524 7.11071
#
# Compressibility (1/GPa) = 0.01694527
#
# Stress axis : x y z
#
# Youngs Moduli (GPa) = 112.62156 188.83727 93.62061
#
# Poissons Ratio (x) = 0.51557 0.13140
# Poissons Ratio (y) = 0.30748 -0.01669
# Poissons Ratio (z) = 0.15807 -0.03366
#
# Static dielectric constant tensor:
#      x y z
#    x 2.014570 0.000000 0.150420 
#    y 0.000000 1.968920 0.000000 
#    z 0.150420 0.000000 2.328510 
# 
# From -- ./inp_files/32525.got.cif
#   From: 2010.05.17/outbox.cif.g08.bks.cpg/sg14_17_cif.got.tgz:32525.got - 2010.06.03 17:49:19.
