data_PCOD9244440
_publ_section_title
;
Structure prediction by ZEFSAII (Michael W. Deem and Ramdas Pophale) SiO2 
 PCOD9244440
Probable space group: P 21/C
;
_chemical_formula_sum "Si O2"
_cell_formula_units_Z 32
_cell_length_a 9.007802
_cell_length_b 23.299501
_cell_length_c 8.527485
_cell_angle_alpha 90.000000
_cell_angle_beta 115.613412
_cell_angle_gamma 90.000000
_cell_volume 1613.851566
_symmetry_space_group_name_H-M "P 21/C"
_symmetry_group_IT_number 14
_symmetry_cell_setting 'monoclinic'
loop_
_space_group_symop_operation_xyz
x,y,z
-x,1/2+y,1/2-z
-x,-y,-z
x,1/2-y,1/2+z
loop_
_atom_site_type_symbol
_atom_site_label
_atom_site_fract_x
_atom_site_fract_y
_atom_site_fract_z
Si Si1 0.511031 0.044275 0.858185
Si Si2 0.189080 0.018037 0.106297
Si Si3 0.773879 0.530736 0.015194
Si Si4 0.063867 0.590626 0.985691
Si Si5 0.656443 0.872958 0.996555
Si Si6 0.323026 0.828157 0.756446
Si Si7 0.016202 0.184717 0.804690
Si Si8 0.826985 0.226001 0.013786
O O1 0.394617 0.028167 0.659169
O O2 0.697836 0.036493 0.888624
O O3 0.438678 0.103025 0.893841
O O4 0.500000 0.000000 0.000000
O O5 0.235135 0.036976 0.303171
O O6 0.241904 0.072460 0.024151
O O7 0.000000 0.000000 0.000000
O O8 0.891411 0.579211 0.993551
O O9 0.865134 0.470400 0.030703
O O10 0.194331 0.621790 0.156791
O O11 0.040072 0.630539 0.824260
O O12 0.507507 0.851110 0.820480
O O13 0.789407 0.823514 0.085018
O O14 0.278580 0.774606 0.624463
O O15 0.285756 0.808048 0.916201
O O16 0.962587 0.240405 0.680637
O O17 0.920419 0.189015 0.925269
#
# Coordination Sequence:
#
# PCOD9244440 Si02
#       8
#     4   4   4   4   4   4   4   4
#     4  10  22  40  57  86 130 168 210 256 308 362
#     4  11  25  38  61  92 131 177 218 258 309 377
#     4  11  22  38  60  92 132 169 211 256 311 370
#     4  10  21  36  63  89 125 167 206 253 309 389
#     4  11  23  38  62  92 128 163 212 260 315 383
#     4  10  22  41  64  92 122 162 210 262 331 378
#     4  10  20  41  62  94 119 159 212 258 322 380
#     4   9  22  42  68  87 119 160 207 273 324 384
#
# _framework density 19.828343
#
# number of rings (size 3 to 8) (size 9 to 14) (size 15 to 20)
#    0.000    1.750    1.250    2.625    8.750    2.000 
#    0.000    2.500    0.000    0.000    0.000    0.000 
#    0.000    0.000    0.000    0.000    0.000    0.000 
#
# Total GULP energy -178654.894774 kJ/mol
# GULP energy per Si atom -5582.965462 kJ/mol
# Density = 1.978321 g / cm^3
# Si number density = 19.828343 Si / 1000 Ang^3
#
#
#
# Elastic Constant Matrix: (Units=GPa)
#
#
# Indices 1 2 3 4 5 6 
#
# 1 115.3508 34.2297 50.2566 0.0000 21.9682 0.0000
# 2 34.2297 53.0812 15.4488 0.0000 2.4561 0.0000
# 3 50.2566 15.4488 97.8275 0.0000 9.1387 0.0000
# 4 0.0000 0.0000 0.0000 12.8301 0.0000 -25.5350
# 5 21.9682 2.4561 9.1387 0.0000 44.7866 0.0000
# 6 0.0000 0.0000 0.0000 -25.5350 0.0000 -207.8084
#
#
#
# Elastic Compliance Matrix: (Units=1/GPa)
#
#
# Indices 1 2 3 4 5 6 
#
# 1 0.014390 -0.007361 -0.005717 0.000000 -0.005488 0.000000
# 2 -0.007361 0.023522 -0.000152 0.000000 0.002352 0.000000
# 3 -0.005717 -0.000152 0.013172 0.000000 0.000125 0.000000
# 4 0.000000 0.000000 0.000000 0.062626 0.000000 -0.007695
# 5 -0.005488 0.002352 0.000125 0.000000 0.024866 0.000000
# 6 0.000000 0.000000 0.000000 -0.007695 0.000000 -0.003867
#
#
# Mechanical properties :
#
#
# Convention : Reuss Voigt Hill
#
# Bulk Modulus (GPa) = 40.61618 51.79219 46.20419
# Shear Modulus (GPa) = 29.51994 -18.95006 5.28494
#
# Velocity S-wave (km/s) = 3.86265 -3.09480 1.63436
# Velocity P-wave (km/s) = 6.35781 3.66150 5.18789
#
# Compressibility (1/GPa) = 0.02462073
#
# Stress axis : x y z
#
# Youngs Moduli (GPa) = 69.49398 42.51404 75.92111
#
# Poissons Ratio (x) = 0.31296 0.43406
# Poissons Ratio (y) = 0.51157 0.01158
# Poissons Ratio (z) = 0.39731 0.00648
#
# Static dielectric constant tensor:
#      x y z
#    x 1.695380 0.000000 -0.002250 
#    y 0.000000 1.717070 0.000000 
#    z -0.002250 0.000000 1.730380 
# 
# From -- ./inp_files/10831.got.cif
#   From: 2010.05.17/outbox.cif.g08.bks.cpg/sg14_6_cif.got.tgz:10831.got - 2010.06.03 17:49:19.
