data_PCOD9244541
_publ_section_title
;
Structure prediction by ZEFSAII (Michael W. Deem and Ramdas Pophale) SiO2 
 PCOD9244541
Probable space group: P 21/C
;
_chemical_formula_sum "Si O2"
_cell_formula_units_Z 20
_cell_length_a 7.685187
_cell_length_b 9.255622
_cell_length_c 11.775330
_cell_angle_alpha 90.000000
_cell_angle_beta 67.036242
_cell_angle_gamma 90.000000
_cell_volume 771.215454
_symmetry_space_group_name_H-M "P 21/C"
_symmetry_group_IT_number 14
_symmetry_cell_setting 'monoclinic'
loop_
_space_group_symop_operation_xyz
x,y,z
-x,1/2+y,1/2-z
-x,-y,-z
x,1/2-y,1/2+z
loop_
_atom_site_type_symbol
_atom_site_label
_atom_site_fract_x
_atom_site_fract_y
_atom_site_fract_z
Si Si1 0.800773 0.018728 0.265449
Si Si2 0.865527 0.278053 0.082820
Si Si3 0.596835 0.646041 0.615442
Si Si4 0.211696 0.554036 0.601973
Si Si5 0.730739 0.939621 0.535288
O O1 0.687609 0.920064 0.205018
O O2 0.712647 0.994863 0.411033
O O3 0.017799 0.962979 0.218560
O O4 0.830214 0.176642 0.200895
O O5 0.069167 0.352765 0.011376
O O6 0.821677 0.174784 0.986311
O O7 0.730665 0.416463 0.109334
O O8 0.396938 0.585044 0.626790
O O9 0.740543 0.592023 0.479431
O O10 0.588870 0.818784 0.616675
#
# Coordination Sequence:
#
# PCOD9244541 Si02
#       5
#     4   4   4   4   4
#     4  11  22  43  68  95 137 185 225 280 346 412
#     4  10  22  41  63  98 136 179 227 284 338 400
#     4  10  21  43  65  99 134 175 228 285 344 408
#     4  10  20  41  69  90 140 176 216 292 344 399
#     4  11  23  39  70 100 133 186 231 279 342 412
#
# _framework density 25.933091000000001
#
# number of rings (size 3 to 8) (size 9 to 14) (size 15 to 20)
#    0.000    1.600    4.000    1.200    2.800    0.800 
#    3.600    2.000    0.000    0.000    0.000    0.000 
#    0.000    0.000    0.000    0.000    0.000    0.000 
#
# Total GULP energy -112178.437736 kJ/mol
# GULP energy per Si atom -5608.921887 kJ/mol
# Density = 2.587407 g / cm^3
# Si number density = 25.933091 Si / 1000 Ang^3
#
#
#
# Elastic Constant Matrix: (Units=GPa)
#
#
# Indices 1 2 3 4 5 6 
#
# 1 125.9889 27.3948 30.3672 0.0000 0.6027 0.0000
# 2 27.3948 197.8496 30.8334 0.0000 15.3493 0.0000
# 3 30.3672 30.8334 96.9714 0.0000 3.6412 0.0000
# 4 0.0000 0.0000 0.0000 28.3017 0.0000 3.7438
# 5 0.6027 15.3493 3.6412 0.0000 39.6949 0.0000
# 6 0.0000 0.0000 0.0000 3.7438 0.0000 40.6405
#
#
#
# Elastic Compliance Matrix: (Units=1/GPa)
#
#
# Indices 1 2 3 4 5 6 
#
# 1 0.008717 -0.000854 -0.002474 0.000000 0.000425 0.000000
# 2 -0.000854 0.005550 -0.001422 0.000000 -0.002003 0.000000
# 3 -0.002474 -0.001422 0.011557 0.000000 -0.000473 0.000000
# 4 0.000000 0.000000 0.000000 0.035769 0.000000 -0.003295
# 5 0.000425 -0.002003 -0.000473 0.000000 0.026003 0.000000
# 6 0.000000 0.000000 0.000000 -0.003295 0.000000 0.024910
#
#
# Mechanical properties :
#
#
# Convention : Reuss Voigt Hill
#
# Bulk Modulus (GPa) = 61.26296 66.44451 63.85373
# Shear Modulus (GPa) = 39.23168 43.87506 41.55337
#
# Velocity S-wave (km/s) = 3.89370 4.11768 4.00725
# Velocity P-wave (km/s) = 6.62490 6.94868 6.78872
#
# Compressibility (1/GPa) = 0.01632308
#
# Stress axis : x y z
#
# Youngs Moduli (GPa) = 114.71433 180.19365 86.52802
#
# Poissons Ratio (x) = 0.15396 0.21408
# Poissons Ratio (y) = 0.09801 0.12303
# Poissons Ratio (z) = 0.28382 0.25620
#
# Static dielectric constant tensor:
#      x y z
#    x 2.066830 0.000000 -0.025140 
#    y 0.000000 2.002870 0.000000 
#    z -0.025140 0.000000 1.979420 
# 
# From -- ./inp_files/38798.got.cif
#   From: 2010.05.17/outbox.cif.g08.bks.cpg/sg14_20_cif.got.tgz:38798.got - 2010.06.03 17:49:19.
