data_PCOD9244846
_publ_section_title
;
Structure prediction by ZEFSAII (Michael W. Deem and Ramdas Pophale) SiO2 
 PCOD9244846
Probable space group: P 21/C
;
_chemical_formula_sum "Si O2"
_cell_formula_units_Z 20
_cell_length_a 7.600389
_cell_length_b 9.536200
_cell_length_c 10.227797
_cell_angle_alpha 90.000000
_cell_angle_beta 70.282297
_cell_angle_gamma 90.000000
_cell_volume 697.833701
_symmetry_space_group_name_H-M "P 21/C"
_symmetry_group_IT_number 14
_symmetry_cell_setting 'monoclinic'
loop_
_space_group_symop_operation_xyz
x,y,z
-x,1/2+y,1/2-z
-x,-y,-z
x,1/2-y,1/2+z
loop_
_atom_site_type_symbol
_atom_site_label
_atom_site_fract_x
_atom_site_fract_y
_atom_site_fract_z
Si Si1 0.025979 0.307510 0.747557
Si Si2 0.342769 0.135149 0.574479
Si Si3 0.000000 0.500000 0.500000
Si Si4 0.000000 0.000000 0.500000
Si Si5 0.412913 0.554933 0.297355
Si Si6 0.368440 0.682315 0.653991
O O1 0.849385 0.205320 0.822191
O O2 0.208457 0.216214 0.709871
O O3 0.016338 0.373345 0.606445
O O4 0.010857 0.427047 0.856620
O O5 0.413619 0.007941 0.648259
O O6 0.493381 0.246656 0.483990
O O7 0.199531 0.080975 0.498647
O O8 0.228954 0.505688 0.420524
O O9 0.581074 0.476333 0.326963
O O10 0.401193 0.720605 0.274249
#
# Coordination Sequence:
#
# PCOD9244846 Si02
#       6
#     4   4   2   2   4   4
#     4  11  26  45  79 114 158 213 275 337 418 485
#     4  12  25  47  74 110 159 210 266 340 405 496
#     4  10  20  50  72 106 156 214 260 328 402 490
#     4  12  26  46  78 114 156 220 266 330 420 500
#     4  11  24  48  77 115 158 209 276 337 403 485
#     4  11  25  47  78 115 158 210 275 336 405 489
#
# _framework density 28.660122000000001
#
# number of rings (size 3 to 8) (size 9 to 14) (size 15 to 20)
#    0.000    0.800    6.000    1.800    2.800    0.000 
#    3.600    1.000    0.000    0.000    0.000    0.000 
#    0.000    0.000    0.000    0.000    0.000    0.000 
#
# Total GULP energy -111380.648493 kJ/mol
# GULP energy per Si atom -5569.032425 kJ/mol
# Density = 2.859489 g / cm^3
# Si number density = 28.660122 Si / 1000 Ang^3
#
#
#
# Elastic Constant Matrix: (Units=GPa)
#
#
# Indices 1 2 3 4 5 6 
#
# 1 74.1921 -6.0896 42.6544 0.0000 -34.6129 0.0000
# 2 -6.0896 82.7726 24.5906 0.0000 -12.3704 0.0000
# 3 42.6544 24.5906 95.5998 0.0000 -10.7271 0.0000
# 4 0.0000 0.0000 0.0000 49.8810 0.0000 -7.3071
# 5 -34.6129 -12.3704 -10.7271 0.0000 52.8487 0.0000
# 6 0.0000 0.0000 0.0000 -7.3071 0.0000 38.0152
#
#
#
# Elastic Compliance Matrix: (Units=1/GPa)
#
#
# Indices 1 2 3 4 5 6 
#
# 1 0.032169 0.009743 -0.014571 0.000000 0.020392 0.000000
# 2 0.009743 0.016345 -0.007579 0.000000 0.008669 0.000000
# 3 -0.014571 -0.007579 0.018052 0.000000 -0.007653 0.000000
# 4 0.000000 0.000000 0.000000 0.020629 0.000000 0.003965
# 5 0.020392 0.008669 -0.007653 0.000000 0.032753 0.000000
# 6 0.000000 0.000000 0.000000 0.003965 0.000000 0.027067
#
#
# Mechanical properties :
#
#
# Convention : Reuss Voigt Hill
#
# Bulk Modulus (GPa) = 23.95062 41.65282 32.80172
# Shear Modulus (GPa) = 26.91853 40.90961 33.91407
#
# Velocity S-wave (km/s) = 3.06802 3.78220 3.44367
# Velocity P-wave (km/s) = 4.57441 5.79985 5.22319
#
# Compressibility (1/GPa) = 0.04175258
#
# Stress axis : x y z
#
# Youngs Moduli (GPa) = 31.08625 61.18017 55.39498
#
# Poissons Ratio (x) = -0.59608 0.80715
# Poissons Ratio (y) = -0.30287 0.41983
# Poissons Ratio (z) = 0.45295 0.46367
#
# Static dielectric constant tensor:
#      x y z
#    x 2.165770 0.000000 -0.068730 
#    y 0.000000 2.492400 0.000000 
#    z -0.068730 0.000000 2.186860 
# 
# From -- ./inp_files/23774.got.cif
#   From: 2010.05.17/outbox.cif.g08.bks.cpg/sg14_12_cif.got.tgz:23774.got - 2010.06.03 17:49:19.
