data_PCOD9244488
_publ_section_title
;
Structure prediction by ZEFSAII (Michael W. Deem and Ramdas Pophale) SiO2 
 PCOD9244488
Probable space group: P 21/C
;
_chemical_formula_sum "Si O2"
_cell_formula_units_Z 30
_cell_length_a 5.333533
_cell_length_b 22.680481
_cell_length_c 10.143926
_cell_angle_alpha 90.000000
_cell_angle_beta 91.062951
_cell_angle_gamma 90.000000
_cell_volume 1226.870088
_symmetry_space_group_name_H-M "P 21/C"
_symmetry_group_IT_number 14
_symmetry_cell_setting 'monoclinic'
loop_
_space_group_symop_operation_xyz
x,y,z
-x,1/2+y,1/2-z
-x,-y,-z
x,1/2-y,1/2+z
loop_
_atom_site_type_symbol
_atom_site_label
_atom_site_fract_x
_atom_site_fract_y
_atom_site_fract_z
Si Si1 0.527421 0.316796 0.452218
Si Si2 0.000000 0.500000 0.000000
Si Si3 0.580824 0.820147 0.574644
Si Si4 0.915533 0.120132 0.338059
Si Si5 0.700670 0.618342 0.805592
Si Si6 0.755414 0.907690 0.892662
Si Si7 0.086124 0.601078 0.623188
Si Si8 0.584869 0.009255 0.730868
O O1 0.483891 0.248016 0.446268
O O2 0.429543 0.346314 0.315119
O O3 0.376109 0.346644 0.569735
O O4 0.808002 0.343049 0.455331
O O5 0.924419 0.433239 0.942944
O O6 0.233760 0.501692 0.891619
O O7 0.857034 0.833191 0.634694
O O8 0.601497 0.853001 0.435333
O O9 0.351121 0.848570 0.652091
O O10 0.002719 0.094872 0.198535
O O11 0.657023 0.547058 0.816271
O O12 0.987217 0.623359 0.763801
O O13 0.563358 0.949200 0.811658
O O14 0.863732 0.928069 0.035606
O O15 0.285781 0.551834 0.659943
#
# Coordination Sequence:
#
# PCOD9244488 Si02
#       8
#     4   2   4   4   4   4   4   4
#     4  10  26  42  66  97 136 183 236 287 343 424
#     4  10  20  46  66 106 140 180 230 294 346 430
#     4  12  27  46  72 101 142 187 235 288 357 415
#     4  11  27  45  71 105 136 185 228 292 354 418
#     4  10  23  43  67  98 133 184 232 290 350 423
#     4  10  24  42  66 103 137 179 233 294 352 415
#     4  10  22  41  68  98 134 190 230 290 354 421
#     4  10  20  41  66 100 140 176 238 288 363 419
#
# _framework density 24.452468
#
# number of rings (size 3 to 8) (size 9 to 14) (size 15 to 20)
#    0.000    1.600    1.333    1.200    9.333    6.400 
#    7.200    0.000    0.000    0.000    0.000    0.000 
#    0.000    0.000    0.000    0.000    0.000    0.000 
#
# Total GULP energy -167262.885187 kJ/mol
# GULP energy per Si atom -5575.429506 kJ/mol
# Density = 2.439681 g / cm^3
# Si number density = 24.452468 Si / 1000 Ang^3
#
#
#
# Elastic Constant Matrix: (Units=GPa)
#
#
# Indices 1 2 3 4 5 6 
#
# 1 77.9949 33.8492 23.2425 0.0000 -23.9205 0.0000
# 2 33.8492 151.1221 19.3171 0.0000 -11.9307 0.0000
# 3 23.2425 19.3171 101.3224 0.0000 -17.0515 0.0000
# 4 0.0000 0.0000 0.0000 29.6401 0.0000 -1.3128
# 5 -23.9205 -11.9307 -17.0515 0.0000 29.5715 0.0000
# 6 0.0000 0.0000 0.0000 -1.3128 0.0000 28.8122
#
#
#
# Elastic Compliance Matrix: (Units=1/GPa)
#
#
# Indices 1 2 3 4 5 6 
#
# 1 0.018505 -0.002932 -0.001513 0.000000 0.012914 0.000000
# 2 -0.002932 0.007379 -0.000700 0.000000 0.000202 0.000000
# 3 -0.001513 -0.000700 0.011182 0.000000 0.004941 0.000000
# 4 0.000000 0.000000 0.000000 0.033806 0.000000 0.001540
# 5 0.012914 0.000202 0.004941 0.000000 0.047193 0.000000
# 6 0.000000 0.000000 0.000000 0.001540 0.000000 0.034778
#
#
# Mechanical properties :
#
#
# Convention : Reuss Voigt Hill
#
# Bulk Modulus (GPa) = 37.34696 53.69521 45.52109
# Shear Modulus (GPa) = 29.05987 34.54012 31.79999
#
# Velocity S-wave (km/s) = 3.45109 3.76246 3.61013
# Velocity P-wave (km/s) = 5.58449 6.39386 6.00283
#
# Compressibility (1/GPa) = 0.02677594
#
# Stress axis : x y z
#
# Youngs Moduli (GPa) = 54.03899 135.51346 89.43273
#
# Poissons Ratio (x) = 0.39733 0.13528
# Poissons Ratio (y) = 0.15844 0.06263
# Poissons Ratio (z) = 0.08174 0.09491
#
# Static dielectric constant tensor:
#      x y z
#    x 2.197820 0.000000 0.160440 
#    y 0.000000 1.947270 0.000000 
#    z 0.160440 0.000000 2.023920 
# 
# From -- ./inp_files/21770.got.cif
#   From: 2010.05.17/outbox.cif.g08.bks.cpg/sg14_11_cif.got.tgz:21770.got - 2010.06.03 17:49:19.
