data_PCOD9244486
_publ_section_title
;
Structure prediction by ZEFSAII (Michael W. Deem and Ramdas Pophale) SiO2 
 PCOD9244486
Probable space group: P 21/C
;
_chemical_formula_sum "Si O2"
_cell_formula_units_Z 32
_cell_length_a 11.042980
_cell_length_b 16.138931
_cell_length_c 14.067980
_cell_angle_alpha 90.000000
_cell_angle_beta 35.054215
_cell_angle_gamma 90.000000
_cell_volume 1440.026189
_symmetry_space_group_name_H-M "P 21/C"
_symmetry_group_IT_number 14
_symmetry_cell_setting 'monoclinic'
loop_
_space_group_symop_operation_xyz
x,y,z
-x,1/2+y,1/2-z
-x,-y,-z
x,1/2-y,1/2+z
loop_
_atom_site_type_symbol
_atom_site_label
_atom_site_fract_x
_atom_site_fract_y
_atom_site_fract_z
Si Si1 0.812823 0.765780 0.268431
Si Si2 0.622878 0.946011 0.589260
Si Si3 0.076713 0.302552 0.607403
Si Si4 0.397868 0.695103 0.112804
Si Si5 0.101026 0.351917 0.960061
Si Si6 0.959591 0.426926 0.301857
Si Si7 0.316922 0.886239 0.203808
Si Si8 0.674471 0.548532 0.601310
O O1 0.830369 0.705148 0.347890
O O2 0.572881 0.797482 0.418514
O O3 0.869181 0.709299 0.144852
O O4 0.965541 0.842626 0.193953
O O5 0.493248 0.871089 0.624360
O O6 0.712519 0.912948 0.632523
O O7 0.829796 0.961027 0.389325
O O8 0.458518 0.017246 0.722922
O O9 0.086863 0.210053 0.559513
O O10 0.209763 0.364194 0.457157
O O11 0.835009 0.330081 0.768195
O O12 0.371413 0.788081 0.171159
O O13 0.879444 0.398324 0.098164
O O14 0.780315 0.409242 0.336624
O O15 0.854194 0.486419 0.447447
O O16 0.513142 0.936302 0.117463
#
# Coordination Sequence:
#
# PCOD9244486 Si02
#       8
#     4   4   4   4   4   4   4   4
#     4  11  21  42  70  98 126 178 226 274 336 395
#     4  10  23  43  63  96 140 174 217 282 334 397
#     4  11  23  45  64  99 133 170 227 279 324 413
#     4  10  20  44  67  86 136 174 218 279 317 394
#     4  10  22  41  71  95 128 174 230 272 328 404
#     4  10  23  43  62  98 138 173 220 278 335 401
#     4  10  20  41  65  94 132 171 219 284 321 387
#     4  12  25  38  69 100 136 181 217 275 360 384
#
# _framework density 22.221816
#
# number of rings (size 3 to 8) (size 9 to 14) (size 15 to 20)
#    0.000    1.500    6.250    0.375    5.250    4.500 
#    4.500    1.250    0.000    0.000    0.000    0.000 
#    0.000    0.000    0.000    0.000    0.000    0.000 
#
# Total GULP energy -178708.221702 kJ/mol
# GULP energy per Si atom -5584.631928 kJ/mol
# Density = 2.217124 g / cm^3
# Si number density = 22.221816 Si / 1000 Ang^3
#
#
#
# Elastic Constant Matrix: (Units=GPa)
#
#
# Indices 1 2 3 4 5 6 
#
# 1 27.0110 -8.6728 30.2064 0.0000 -10.5784 0.0000
# 2 -8.6728 56.5749 21.5146 0.0000 -9.3669 0.0000
# 3 30.2064 21.5146 72.3254 0.0000 -20.1027 0.0000
# 4 0.0000 0.0000 0.0000 36.9697 0.0000 1.8703
# 5 -10.5784 -9.3669 -20.1027 0.0000 38.8475 0.0000
# 6 0.0000 0.0000 0.0000 1.8703 0.0000 14.3917
#
#
#
# Elastic Compliance Matrix: (Units=1/GPa)
#
#
# Indices 1 2 3 4 5 6 
#
# 1 0.127614 0.045792 -0.063296 0.000000 0.013037 0.000000
# 2 0.045792 0.036500 -0.028114 0.000000 0.006722 0.000000
# 3 -0.063296 -0.028114 0.048997 0.000000 0.001340 0.000000
# 4 0.000000 0.000000 0.000000 0.027228 0.000000 -0.003538
# 5 0.013037 0.006722 0.001340 0.000000 0.031606 0.000000
# 6 0.000000 0.000000 0.000000 -0.003538 0.000000 0.069944
#
#
# Mechanical properties :
#
#
# Convention : Reuss Voigt Hill
#
# Bulk Modulus (GPa) = 8.20508 26.88975 17.54742
# Shear Modulus (GPa) = 10.55408 25.56599 18.06004
#
# Velocity S-wave (km/s) = 2.18168 3.39557 2.85391
# Velocity P-wave (km/s) = 3.16965 5.24405 4.33282
#
# Compressibility (1/GPa) = 0.12187574
#
# Stress axis : x y z
#
# Youngs Moduli (GPa) = 7.83610 27.39749 20.40934
#
# Poissons Ratio (x) = -1.25458 1.29182
# Poissons Ratio (y) = -0.35883 0.57379
# Poissons Ratio (z) = 0.49599 0.77025
#
# Static dielectric constant tensor:
#      x y z
#    x 1.834970 0.000000 0.008390 
#    y 0.000000 1.813040 0.000000 
#    z 0.008390 0.000000 1.885900 
# 
# From -- ./inp_files/45377.got.cif
#   From: 2010.05.17/outbox.cif.g08.bks.cpg/sg14_23_cif.got.tgz:45377.got - 2010.06.03 17:49:19.
