data_PCOD9244723
_publ_section_title
;
Structure prediction by ZEFSAII (Michael W. Deem and Ramdas Pophale) SiO2 
 PCOD9244723
Probable space group: P 21/C
;
_chemical_formula_sum "Si O2"
_cell_formula_units_Z 32
_cell_length_a 15.982845
_cell_length_b 11.665186
_cell_length_c 21.593442
_cell_angle_alpha 90.000000
_cell_angle_beta 159.675397
_cell_angle_gamma 90.000000
_cell_volume 1398.364435
_symmetry_space_group_name_H-M "P 21/C"
_symmetry_group_IT_number 14
_symmetry_cell_setting 'monoclinic'
loop_
_space_group_symop_operation_xyz
x,y,z
-x,1/2+y,1/2-z
-x,-y,-z
x,1/2-y,1/2+z
loop_
_atom_site_type_symbol
_atom_site_label
_atom_site_fract_x
_atom_site_fract_y
_atom_site_fract_z
Si Si1 0.614034 0.068745 0.736284
Si Si2 0.101962 0.149703 0.020573
Si Si3 0.417170 0.513251 0.540206
Si Si4 0.910668 0.299764 0.265630
Si Si5 0.464363 0.152341 0.766989
Si Si6 0.900985 0.943378 0.635763
Si Si7 0.096944 0.688075 0.886849
Si Si8 0.430702 0.192799 0.960439
O O1 0.518010 0.118045 0.734340
O O2 0.369776 0.065036 0.526080
O O3 0.727067 0.943735 0.828299
O O4 0.837485 0.141762 0.866587
O O5 0.226354 0.272683 0.112391
O O6 0.060317 0.125188 0.918197
O O7 0.526514 0.542587 0.682003
O O8 0.526952 0.604290 0.567117
O O9 0.454688 0.386876 0.538393
O O10 0.129711 0.538858 0.339681
O O11 0.027621 0.173013 0.348955
O O12 0.901441 0.324682 0.186602
O O13 0.637414 0.286022 0.098758
O O14 0.682729 0.236260 0.939000
O O15 0.897926 0.054951 0.589153
O O16 0.840317 0.738448 0.728716
#
# Coordination Sequence:
#
# PCOD9244723 Si02
#       8
#     4   4   4   4   4   4   4   4
#     4  11  26  45  65  92 142 174 215 275 325 399
#     4  11  27  45  63  96 135 179 218 263 337 398
#     4   9  20  39  66  91 127 163 215 274 320 370
#     4  11  23  42  67  96 130 171 220 263 327 399
#     4  12  23  42  67  96 131 173 221 266 330 399
#     4  10  20  43  63  95 128 168 211 271 317 383
#     4  11  23  38  71  94 129 170 218 273 328 377
#     4   9  20  38  62  94 129 155 212 278 308 378
#
# _framework density 22.883879
#
# number of rings (size 3 to 8) (size 9 to 14) (size 15 to 20)
#    0.000    1.500    5.000    0.750    7.000    0.000 
#    0.000    1.250    0.000    0.000    0.000    0.000 
#    0.000    0.000    0.000    0.000    0.000    0.000 
#
# Total GULP energy -178802.679753 kJ/mol
# GULP energy per Si atom -5587.583742 kJ/mol
# Density = 2.283179 g / cm^3
# Si number density = 22.883879 Si / 1000 Ang^3
#
#
#
# Elastic Constant Matrix: (Units=GPa)
#
#
# Indices 1 2 3 4 5 6 
#
# 1 69.7049 12.4481 38.7931 0.0000 8.4330 0.0000
# 2 12.4481 25.7577 5.4040 0.0000 9.4321 0.0000
# 3 38.7931 5.4040 122.1612 0.0000 34.5018 0.0000
# 4 0.0000 0.0000 0.0000 29.7463 0.0000 7.8195
# 5 8.4330 9.4321 34.5018 0.0000 37.6041 0.0000
# 6 0.0000 0.0000 0.0000 7.8195 0.0000 21.8555
#
#
#
# Elastic Compliance Matrix: (Units=1/GPa)
#
#
# Indices 1 2 3 4 5 6 
#
# 1 0.019407 -0.009546 -0.007002 0.000000 0.004467 0.000000
# 2 -0.009546 0.047659 0.004987 0.000000 -0.014389 0.000000
# 3 -0.007002 0.004987 0.013631 0.000000 -0.012187 0.000000
# 4 0.000000 0.000000 0.000000 0.037108 0.000000 -0.013276
# 5 0.004467 -0.014389 -0.012187 0.000000 0.040382 0.000000
# 6 0.000000 0.000000 0.000000 -0.013276 0.000000 0.050505
#
#
# Mechanical properties :
#
#
# Convention : Reuss Voigt Hill
#
# Bulk Modulus (GPa) = 17.36848 36.76826 27.06837
# Shear Modulus (GPa) = 19.91985 28.57310 24.24648
#
# Velocity S-wave (km/s) = 2.95358 3.53740 3.25860
# Velocity P-wave (km/s) = 4.38610 5.72595 5.10021
#
# Compressibility (1/GPa) = 0.05757556
#
# Stress axis : x y z
#
# Youngs Moduli (GPa) = 51.52659 20.98225 73.36338
#
# Poissons Ratio (x) = 0.20029 0.51370
# Poissons Ratio (y) = 0.49186 -0.36585
# Poissons Ratio (z) = 0.36080 -0.10464
#
# Static dielectric constant tensor:
#      x y z
#    x 1.860910 0.000000 -0.020120 
#    y 0.000000 1.917500 0.000000 
#    z -0.020120 0.000000 1.884440 
# 
# From -- ./inp_files/68669.got.cif
#   From: 2010.05.17/outbox.cif.g08.bks.cpg/sg14_35_cif.got.tgz:68669.got - 2010.06.03 17:49:19.
