data_PCOD9244574
_publ_section_title
;
Structure prediction by ZEFSAII (Michael W. Deem and Ramdas Pophale) SiO2 
 PCOD9244574
Probable space group: P 21/C
;
_chemical_formula_sum "Si O2"
_cell_formula_units_Z 28
_cell_length_a 8.314705
_cell_length_b 5.136381
_cell_length_c 30.612907
_cell_angle_alpha 90.000000
_cell_angle_beta 120.233232
_cell_angle_gamma 90.000000
_cell_volume 1129.571681
_symmetry_space_group_name_H-M "P 21/C"
_symmetry_group_IT_number 14
_symmetry_cell_setting 'monoclinic'
loop_
_space_group_symop_operation_xyz
x,y,z
-x,1/2+y,1/2-z
-x,-y,-z
x,1/2-y,1/2+z
loop_
_atom_site_type_symbol
_atom_site_label
_atom_site_fract_x
_atom_site_fract_y
_atom_site_fract_z
Si Si1 0.862641 0.280691 0.397575
Si Si2 0.451735 0.243053 0.556031
Si Si3 0.208854 0.763059 0.011900
Si Si4 0.863075 0.386661 0.087315
Si Si5 0.043853 0.162292 0.198543
Si Si6 0.610201 0.730937 0.851590
Si Si7 0.769175 0.163333 0.244423
O O1 0.882060 0.299271 0.453073
O O2 0.753584 0.532258 0.366178
O O3 0.721748 0.039675 0.367250
O O4 0.058121 0.179989 0.404882
O O5 0.365820 0.515369 0.528872
O O6 0.643004 0.149916 0.561109
O O7 0.475830 0.261846 0.611580
O O8 0.302398 0.019413 0.527072
O O9 0.084010 0.747942 0.951579
O O10 0.946981 0.252027 0.141183
O O11 0.200122 0.376753 0.232073
O O12 0.888763 0.171277 0.215744
O O13 0.133434 0.877696 0.211762
O O14 0.441304 0.758332 0.794866
#
# Coordination Sequence:
#
# PCOD9244574 Si02
#       7
#     4   4   4   4   4   4   4
#     4  10  24  38  64  92 129 172 213 251 332 390
#     4  10  22  39  64  93 121 171 217 264 324 388
#     4  10  23  41  62  90 131 174 211 257 333 394
#     4  12  23  42  61  99 130 164 216 283 309 387
#     4  10  23  35  65  95 119 157 212 273 327 374
#     4  10  20  43  63  88 125 175 208 257 325 402
#     4  10  20  42  61  91 123 160 208 266 334 385
#
# _framework density 24.788153000000001
#
# number of rings (size 3 to 8) (size 9 to 14) (size 15 to 20)
#    0.000    1.714    1.429    2.143    0.000    5.714 
#    0.000    7.143    0.000    0.000    0.000    0.000 
#    0.000    0.000    0.000    0.000    0.000    0.000 
#
# Total GULP energy -157026.156721 kJ/mol
# GULP energy per Si atom -5608.077026 kJ/mol
# Density = 2.473173 g / cm^3
# Si number density = 24.788153 Si / 1000 Ang^3
#
#
#
# Elastic Constant Matrix: (Units=GPa)
#
#
# Indices 1 2 3 4 5 6 
#
# 1 96.1140 21.9779 16.0631 0.0000 3.2936 0.0000
# 2 21.9779 102.4227 3.3218 0.0000 10.2470 0.0000
# 3 16.0631 3.3218 105.8404 0.0000 11.5533 0.0000
# 4 0.0000 0.0000 0.0000 22.8874 0.0000 -1.5350
# 5 3.2936 10.2470 11.5533 0.0000 32.1732 0.0000
# 6 0.0000 0.0000 0.0000 -1.5350 0.0000 38.3681
#
#
#
# Elastic Compliance Matrix: (Units=1/GPa)
#
#
# Indices 1 2 3 4 5 6 
#
# 1 0.011216 -0.002373 -0.001650 0.000000 0.000200 0.000000
# 2 -0.002373 0.010587 0.000385 0.000000 -0.003267 0.000000
# 3 -0.001650 0.000385 0.010076 0.000000 -0.003572 0.000000
# 4 0.000000 0.000000 0.000000 0.043810 0.000000 0.001753
# 5 0.000200 -0.003267 -0.003572 0.000000 0.033385 0.000000
# 6 0.000000 0.000000 0.000000 0.001753 0.000000 0.026133
#
#
# Mechanical properties :
#
#
# Convention : Reuss Voigt Hill
#
# Bulk Modulus (GPa) = 40.64573 43.01142 41.82857
# Shear Modulus (GPa) = 33.18193 36.22002 34.70098
#
# Velocity S-wave (km/s) = 3.66269 3.82669 3.74558
# Velocity P-wave (km/s) = 5.85832 6.07569 5.96799
#
# Compressibility (1/GPa) = 0.02460283
#
# Stress axis : x y z
#
# Youngs Moduli (GPa) = 89.15983 94.45465 99.24201
#
# Poissons Ratio (x) = 0.22416 0.16370
# Poissons Ratio (y) = 0.21160 -0.03816
# Poissons Ratio (z) = 0.14707 -0.03632
#
# Static dielectric constant tensor:
#      x y z
#    x 1.978700 0.000000 -0.056120 
#    y 0.000000 1.927930 0.000000 
#    z -0.056120 0.000000 1.946470 
# 
# From -- ./inp_files/79175.got.cif
#   From: 2010.05.17/outbox.cif.g08.bks.cpg/sg14_40_cif.got.tgz:79175.got - 2010.06.03 17:49:19.
