data_PCOD9244710
_publ_section_title
;
Structure prediction by ZEFSAII (Michael W. Deem and Ramdas Pophale) SiO2 
 PCOD9244710
Probable space group: P 21/C
;
_chemical_formula_sum "Si O2"
_cell_formula_units_Z 20
_cell_length_a 7.460155
_cell_length_b 15.475092
_cell_length_c 7.382243
_cell_angle_alpha 90.000000
_cell_angle_beta 112.358046
_cell_angle_gamma 90.000000
_cell_volume 788.186339
_symmetry_space_group_name_H-M "P 21/C"
_symmetry_group_IT_number 14
_symmetry_cell_setting 'monoclinic'
loop_
_space_group_symop_operation_xyz
x,y,z
-x,1/2+y,1/2-z
-x,-y,-z
x,1/2-y,1/2+z
loop_
_atom_site_type_symbol
_atom_site_label
_atom_site_fract_x
_atom_site_fract_y
_atom_site_fract_z
Si Si1 0.275694 0.025863 0.435679
Si Si2 0.209930 0.845885 0.242029
Si Si3 0.807760 0.867237 0.934529
Si Si4 0.718359 0.005855 0.162692
Si Si5 0.603157 0.320809 0.551285
O O1 0.182659 0.935784 0.334817
O O2 0.239952 0.041050 0.633453
O O3 0.224014 0.106205 0.286233
O O4 0.500000 0.000000 0.500000
O O5 0.298516 0.771867 0.400957
O O6 0.006685 0.821266 0.066455
O O7 0.372538 0.851832 0.146275
O O8 0.825121 0.960601 0.039906
O O9 0.613017 0.824325 0.946195
O O10 0.735789 0.107705 0.203978
O O11 0.500000 0.000000 0.000000
#
# Coordination Sequence:
#
# PCOD9244710 Si02
#       5
#     4   4   4   4   4
#     4  12  21  43  78 105 140 194 238 297 362 424
#     4  12  27  46  71 109 147 190 244 296 364 435
#     4  11  25  49  73 105 147 187 247 302 350 433
#     4  10  20  42  74 106 137 183 242 290 354 427
#     4  11  24  46  70 101 149 184 235 302 360 421
#
# _framework density 25.37471
#
# number of rings (size 3 to 8) (size 9 to 14) (size 15 to 20)
#    0.000    0.800    6.000    3.000    0.000    2.400 
#    3.600    0.000    0.000    0.000    0.000    0.000 
#    0.000    0.000    0.000    0.000    0.000    0.000 
#
# Total GULP energy -111765.779912 kJ/mol
# GULP energy per Si atom -5588.288996 kJ/mol
# Density = 2.531696 g / cm^3
# Si number density = 25.374710 Si / 1000 Ang^3
#
#
#
# Elastic Constant Matrix: (Units=GPa)
#
#
# Indices 1 2 3 4 5 6 
#
# 1 92.0910 9.4150 28.3150 0.0000 7.7844 0.0000
# 2 9.4150 37.4560 -2.7244 0.0000 13.2511 0.0000
# 3 28.3150 -2.7244 112.1679 0.0000 -14.1736 0.0000
# 4 0.0000 0.0000 0.0000 28.5667 0.0000 -2.3333
# 5 7.7844 13.2511 -14.1736 0.0000 56.4161 0.0000
# 6 0.0000 0.0000 0.0000 -2.3333 0.0000 22.6360
#
#
#
# Elastic Compliance Matrix: (Units=1/GPa)
#
#
# Indices 1 2 3 4 5 6 
#
# 1 0.012349 -0.002668 -0.003427 0.000000 -0.001938 0.000000
# 2 -0.002668 0.029697 0.000578 0.000000 -0.006462 0.000000
# 3 -0.003427 0.000578 0.010159 0.000000 0.002889 0.000000
# 4 0.000000 0.000000 0.000000 0.035303 0.000000 0.003639
# 5 -0.001938 -0.006462 0.002889 0.000000 0.020237 0.000000
# 6 0.000000 0.000000 0.000000 0.003639 0.000000 0.044553
#
#
# Mechanical properties :
#
#
# Convention : Reuss Voigt Hill
#
# Bulk Modulus (GPa) = 24.28823 34.63623 29.46223
# Shear Modulus (GPa) = 28.23989 35.30438 31.77213
#
# Velocity S-wave (km/s) = 3.33966 3.73409 3.54237
# Velocity P-wave (km/s) = 4.94608 5.68074 5.32609
#
# Compressibility (1/GPa) = 0.04117221
#
# Stress axis : x y z
#
# Youngs Moduli (GPa) = 80.97747 33.67383 98.43036
#
# Poissons Ratio (x) = 0.08983 0.33733
# Poissons Ratio (y) = 0.21602 -0.05691
# Poissons Ratio (z) = 0.27751 -0.01947
#
# Static dielectric constant tensor:
#      x y z
#    x 2.092060 0.000000 0.052870 
#    y 0.000000 2.148570 0.000000 
#    z 0.052870 0.000000 2.052650 
# 
# From -- ./inp_files/8911.got.cif
#   From: 2010.05.17/outbox.cif.g08.bks.cpg/sg14_5_cif.got.tgz:8911.got - 2010.06.03 17:49:19.
