data_PCOD9244658
_publ_section_title
;
Structure prediction by ZEFSAII (Michael W. Deem and Ramdas Pophale) SiO2 
 PCOD9244658
Probable space group: P 21/C
;
_chemical_formula_sum "Si O2"
_cell_formula_units_Z 26
_cell_length_a 21.593547
_cell_length_b 5.170343
_cell_length_c 29.644505
_cell_angle_alpha 90.000000
_cell_angle_beta 162.906041
_cell_angle_gamma 90.000000
_cell_volume 972.849294
_symmetry_space_group_name_H-M "P 21/C"
_symmetry_group_IT_number 14
_symmetry_cell_setting 'monoclinic'
loop_
_space_group_symop_operation_xyz
x,y,z
-x,1/2+y,1/2-z
-x,-y,-z
x,1/2-y,1/2+z
loop_
_atom_site_type_symbol
_atom_site_label
_atom_site_fract_x
_atom_site_fract_y
_atom_site_fract_z
Si Si1 0.000000 0.500000 0.500000
Si Si2 0.200763 0.711904 0.063260
Si Si3 0.214025 0.585314 0.253148
Si Si4 0.218697 0.396689 0.812799
Si Si5 0.855353 0.851957 0.643734
Si Si6 0.356429 0.444772 0.259101
Si Si7 0.743043 0.307876 0.992266
O O1 0.079796 0.544022 0.501175
O O2 0.179738 0.277946 0.633295
O O3 0.320353 0.619361 0.190677
O O4 0.345871 0.723951 0.120087
O O5 0.025261 0.503724 0.924861
O O6 0.234042 0.830370 0.299156
O O7 0.313060 0.614752 0.272821
O O8 0.307701 0.333275 0.343932
O O9 0.295669 0.388754 0.918087
O O10 0.970719 0.324533 0.645363
O O11 0.769376 0.911091 0.533811
O O12 0.026929 0.082010 0.769012
O O13 0.586589 0.328770 0.417865
#
# Coordination Sequence:
#
# PCOD9244658 Si02
#       7
#     2   4   4   4   4   4   4
#     4  10  22  42  62  80 134 174 224 252 342 390
#     4  10  23  37  63  87 129 179 221 267 326 394
#     4  10  22  40  67  93 128 178 220 260 339 411
#     4  10  21  42  69  94 125 174 223 273 339 397
#     4  10  20  42  67  98 131 172 220 289 345 400
#     4  11  25  40  61  99 134 181 225 277 334 405
#     4  10  24  41  64 102 131 170 233 288 333 396
#
# _framework density 26.725617
#
# number of rings (size 3 to 8) (size 9 to 14) (size 15 to 20)
#    0.000    1.846    0.000    4.615   15.077    0.000 
#    8.308    1.538    0.000    0.000    0.000    0.000 
#    0.000    0.000    0.000    0.000    0.000    0.000 
#
# Total GULP energy -145057.510322 kJ/mol
# GULP energy per Si atom -5579.135012 kJ/mol
# Density = 2.666479 g / cm^3
# Si number density = 26.725617 Si / 1000 Ang^3
#
#
#
# Elastic Constant Matrix: (Units=GPa)
#
#
# Indices 1 2 3 4 5 6 
#
# 1 -87.8849 -51.7481 -2.3883 0.0000 -135.6427 0.0000
# 2 -51.7481 91.8507 24.9704 0.0000 -51.9070 0.0000
# 3 -2.3883 24.9704 72.2526 0.0000 -4.3512 0.0000
# 4 0.0000 0.0000 0.0000 30.0473 0.0000 -17.1663
# 5 -135.6427 -51.9070 -4.3512 0.0000 -8.0143 0.0000
# 6 0.0000 0.0000 0.0000 -17.1663 0.0000 48.2840
#
#
#
# Elastic Compliance Matrix: (Units=1/GPa)
#
#
# Indices 1 2 3 4 5 6 
#
# 1 0.001677 -0.003335 0.000774 0.000000 -0.007200 0.000000
# 2 -0.003335 0.009195 -0.003366 0.000000 -0.001288 0.000000
# 3 0.000774 -0.003366 0.015060 0.000000 0.000517 0.000000
# 4 0.000000 0.000000 0.000000 0.041764 0.000000 0.014848
# 5 -0.007200 -0.001288 0.000517 0.000000 0.005147 0.000000
# 6 0.000000 0.000000 0.000000 0.014848 0.000000 0.025990
#
#
# Mechanical properties :
#
#
# Convention : Reuss Voigt Hill
#
# Bulk Modulus (GPa) = 71.02273 1.98738 36.50506
# Shear Modulus (GPa) = 43.33542 21.08902 32.21222
#
# Velocity S-wave (km/s) = 4.03115 2.81213 3.47550
# Velocity P-wave (km/s) = 6.94977 3.35996 5.45842
#
# Compressibility (1/GPa) = 0.01408000
#
# Stress axis : x y z
#
# Youngs Moduli (GPa) = 596.40538 108.74925 66.39989
#
# Poissons Ratio (x) = 0.36266 -0.05141
# Poissons Ratio (y) = 1.98889 0.22349
# Poissons Ratio (z) = -0.46181 0.36602
#
# Static dielectric constant tensor:
#      x y z
#    x 2.208390 0.000000 -0.018990 
#    y 0.000000 2.122090 0.000000 
#    z -0.018990 0.000000 2.098860 
# 
# From -- ./inp_files/80479.got.cif
#   From: 2010.05.17/outbox.cif.g08.bks.cpg/sg14_41_cif.got.tgz:80479.got - 2010.06.03 17:49:19.
