data_PCOD9244030
_publ_section_title
;
Structure prediction by ZEFSAII (Michael W. Deem and Ramdas Pophale) SiO2 
 PCOD9244030
Probable space group: P 21/C
;
_chemical_formula_sum "Si O2"
_cell_formula_units_Z 20
_cell_length_a 9.193154
_cell_length_b 8.031754
_cell_length_c 24.418315
_cell_angle_alpha 90.000000
_cell_angle_beta 148.141058
_cell_angle_gamma 90.000000
_cell_volume 951.666002
_symmetry_space_group_name_H-M "P 21/C"
_symmetry_group_IT_number 14
_symmetry_cell_setting 'monoclinic'
loop_
_space_group_symop_operation_xyz
x,y,z
-x,1/2+y,1/2-z
-x,-y,-z
x,1/2-y,1/2+z
loop_
_atom_site_type_symbol
_atom_site_label
_atom_site_fract_x
_atom_site_fract_y
_atom_site_fract_z
Si Si1 0.175761 0.816533 0.138870
Si Si2 0.151172 0.658735 0.021227
Si Si3 0.810665 0.956354 0.114581
Si Si4 0.781180 0.775663 0.705756
Si Si5 0.780783 0.935390 0.310933
O O1 0.104712 0.800764 0.051772
O O2 0.482712 0.888652 0.239817
O O3 0.174313 0.629785 0.163441
O O4 0.970213 0.921339 0.109446
O O5 0.479542 0.641283 0.118463
O O6 0.000000 0.500000 0.000000
O O7 0.005839 0.671951 0.916358
O O8 0.808984 0.796001 0.153907
O O9 0.977615 0.099254 0.200096
O O10 0.500000 0.000000 0.000000
O O11 0.788685 0.621434 0.750815
#
# Coordination Sequence:
#
# PCOD9244030 Si02
#       5
#     4   4   4   4   4
#     4  10  21  38  63  92 123 161 208 261 314 380
#     4   9  19  37  62  87 116 157 207 258 310 366
#     4  12  26  43  62  94 133 171 211 263 322 382
#     4  11  24  41  62  91 127 168 214 260 316 384
#     4  10  20  39  64  92 122 163 212 264 315 372
#
# _framework density 21.015777
#
# number of rings (size 3 to 8) (size 9 to 14) (size 15 to 20)
#    0.000    1.600    0.000    6.000    0.000    6.400 
#    0.000   12.000    0.000    0.000    0.000    0.000 
#    0.000    0.000    0.000    0.000    0.000    0.000 
#
# Total GULP energy -111783.124715 kJ/mol
# GULP energy per Si atom -5589.156236 kJ/mol
# Density = 2.096794 g / cm^3
# Si number density = 21.015777 Si / 1000 Ang^3
#
#
#
# Elastic Constant Matrix: (Units=GPa)
#
#
# Indices 1 2 3 4 5 6 
#
# 1 74.4028 13.0166 43.1309 0.0000 11.9982 0.0000
# 2 13.0166 68.4188 19.4738 0.0000 15.7344 0.0000
# 3 43.1309 19.4738 111.4067 0.0000 17.9163 0.0000
# 4 0.0000 0.0000 0.0000 27.4398 0.0000 1.9287
# 5 11.9982 15.7344 17.9163 0.0000 25.3566 0.0000
# 6 0.0000 0.0000 0.0000 1.9287 0.0000 33.5844
#
#
#
# Elastic Compliance Matrix: (Units=1/GPa)
#
#
# Indices 1 2 3 4 5 6 
#
# 1 0.017717 -0.000807 -0.006149 0.000000 -0.003538 0.000000
# 2 -0.000807 0.017294 -0.001180 0.000000 -0.009515 0.000000
# 3 -0.006149 -0.001180 0.012385 0.000000 -0.005109 0.000000
# 4 0.000000 0.000000 0.000000 0.036591 0.000000 -0.002101
# 5 -0.003538 -0.009515 -0.005109 0.000000 0.050626 0.000000
# 6 0.000000 0.000000 0.000000 -0.002101 0.000000 0.029896
#
#
# Mechanical properties :
#
#
# Convention : Reuss Voigt Hill
#
# Bulk Modulus (GPa) = 32.13107 45.05234 38.59170
# Shear Modulus (GPa) = 26.15693 29.18331 27.67012
#
# Velocity S-wave (km/s) = 3.53176 3.73049 3.63248
# Velocity P-wave (km/s) = 5.65273 6.32766 5.99969
#
# Compressibility (1/GPa) = 0.03112252
#
# Stress axis : x y z
#
# Youngs Moduli (GPa) = 56.44454 57.82496 80.74577
#
# Poissons Ratio (x) = 0.04665 0.49650
# Poissons Ratio (y) = 0.04554 0.09530
# Poissons Ratio (z) = 0.34707 0.06825
#
# Static dielectric constant tensor:
#      x y z
#    x 1.745950 0.000000 -0.032020 
#    y 0.000000 1.772930 0.000000 
#    z -0.032020 0.000000 1.743590 
# 
# From -- ./inp_files/22994.got.cif
#   From: 2010.05.17/outbox.cif.g08.bks.cpg/sg14_12_cif.got.tgz:22994.got - 2010.06.03 17:49:19.
