data_PCOD9244368
_publ_section_title
;
Structure prediction by ZEFSAII (Michael W. Deem and Ramdas Pophale) SiO2 
 PCOD9244368
Probable space group: P 21/C
;
_chemical_formula_sum "Si O2"
_cell_formula_units_Z 30
_cell_length_a 16.375537
_cell_length_b 8.961232
_cell_length_c 14.470592
_cell_angle_alpha 90.000000
_cell_angle_beta 143.623078
_cell_angle_gamma 90.000000
_cell_volume 1259.428648
_symmetry_space_group_name_H-M "P 21/C"
_symmetry_group_IT_number 14
_symmetry_cell_setting 'monoclinic'
loop_
_space_group_symop_operation_xyz
x,y,z
-x,1/2+y,1/2-z
-x,-y,-z
x,1/2-y,1/2+z
loop_
_atom_site_type_symbol
_atom_site_label
_atom_site_fract_x
_atom_site_fract_y
_atom_site_fract_z
Si Si1 0.194926 0.965951 0.770261
Si Si2 0.720872 0.882537 0.513422
Si Si3 0.261546 0.592551 0.142797
Si Si4 0.551031 0.688725 0.470675
Si Si5 0.086305 0.118132 0.839914
Si Si6 0.500000 0.500000 0.000000
Si Si7 0.759736 0.430757 0.368032
Si Si8 0.180796 0.874457 0.277221
O O1 0.158255 0.960476 0.628790
O O2 0.232769 0.794222 0.825847
O O3 0.085425 0.020015 0.746268
O O4 0.321130 0.079879 0.895764
O O5 0.595688 0.771265 0.415811
O O6 0.857394 0.780070 0.639551
O O7 0.725378 0.977289 0.426504
O O8 0.708978 0.003103 0.587024
O O9 0.410297 0.603973 0.326863
O O10 0.232123 0.762050 0.084721
O O11 0.535196 0.817061 0.532609
O O12 0.944127 0.118663 0.765315
O O13 0.191423 0.044915 0.009854
O O14 0.388086 0.532942 0.811249
O O15 0.851932 0.419419 0.357950
#
# Coordination Sequence:
#
# PCOD9244368 Si02
#       8
#     4   4   4   4   4   2   4   4
#     4  10  23  43  63  94 135 172 226 269 330 394
#     4  11  24  39  63  98 129 169 227 266 335 390
#     4  10  23  41  63  96 134 173 217 270 336 404
#     4  10  22  41  63  98 130 174 212 269 338 396
#     4  11  24  41  67  95 128 178 224 275 330 392
#     4  10  20  40  68  96 128 162 208 270 330 398
#     4  10  22  42  67  95 132 169 222 269 343 394
#     4  11  22  44  65  93 134 174 224 278 325 397
#
# _framework density 23.820323999999999
#
# number of rings (size 3 to 8) (size 9 to 14) (size 15 to 20)
#    0.000    1.600    1.333    2.400    1.867    5.333 
#    0.000    7.333    0.000    0.000    0.000    0.000 
#    0.000    0.000    0.000    0.000    0.000    0.000 
#
# Total GULP energy -167282.374358 kJ/mol
# GULP energy per Si atom -5576.079145 kJ/mol
# Density = 2.376611 g / cm^3
# Si number density = 23.820324 Si / 1000 Ang^3
#
#
#
# Elastic Constant Matrix: (Units=GPa)
#
#
# Indices 1 2 3 4 5 6 
#
# 1 94.4201 44.4417 23.2600 0.0000 -16.7125 0.0000
# 2 44.4417 125.0551 40.4977 0.0000 -23.4059 0.0000
# 3 23.2600 40.4977 60.8021 0.0000 -7.1647 0.0000
# 4 0.0000 0.0000 0.0000 26.6761 0.0000 -8.3465
# 5 -16.7125 -23.4059 -7.1647 0.0000 37.2144 0.0000
# 6 0.0000 0.0000 0.0000 -8.3465 0.0000 51.5079
#
#
#
# Elastic Compliance Matrix: (Units=1/GPa)
#
#
# Indices 1 2 3 4 5 6 
#
# 1 0.013371 -0.003291 -0.002516 0.000000 0.003450 0.000000
# 2 -0.003291 0.012105 -0.006222 0.000000 0.004938 0.000000
# 3 -0.002516 -0.006222 0.021446 0.000000 -0.000914 0.000000
# 4 0.000000 0.000000 0.000000 0.039489 0.000000 0.006399
# 5 0.003450 0.004938 -0.000914 0.000000 0.031350 0.000000
# 6 0.000000 0.000000 0.000000 0.006399 0.000000 0.020451
#
#
# Mechanical properties :
#
#
# Convention : Reuss Voigt Hill
#
# Bulk Modulus (GPa) = 43.73877 55.18623 49.46250
# Shear Modulus (GPa) = 29.43060 34.55155 31.99107
#
# Velocity S-wave (km/s) = 3.51882 3.81268 3.66869
# Velocity P-wave (km/s) = 5.90857 6.52687 6.22540
#
# Compressibility (1/GPa) = 0.02286301
#
# Stress axis : x y z
#
# Youngs Moduli (GPa) = 74.79127 82.61046 46.62908
#
# Poissons Ratio (x) = 0.27186 0.11734
# Poissons Ratio (y) = 0.24613 0.29012
# Poissons Ratio (z) = 0.18821 0.51399
#
# Static dielectric constant tensor:
#      x y z
#    x 1.698520 0.000000 -0.073200 
#    y 0.000000 1.889080 0.000000 
#    z -0.073200 0.000000 1.839000 
# 
# From -- ./inp_files/48624.got.cif
#   From: 2010.05.17/outbox.cif.g08.bks.cpg/sg14_25_cif.got.tgz:48624.got - 2010.06.03 17:49:19.
