data_PCOD9244656
_publ_section_title
;
Structure prediction by ZEFSAII (Michael W. Deem and Ramdas Pophale) SiO2 
 PCOD9244656
Probable space group: P 21/C
;
_chemical_formula_sum "Si O2"
_cell_formula_units_Z 20
_cell_length_a 7.906537
_cell_length_b 18.763740
_cell_length_c 7.681317
_cell_angle_alpha 90.000000
_cell_angle_beta 60.200224
_cell_angle_gamma 90.000000
_cell_volume 988.882591
_symmetry_space_group_name_H-M "P 21/C"
_symmetry_group_IT_number 14
_symmetry_cell_setting 'monoclinic'
loop_
_space_group_symop_operation_xyz
x,y,z
-x,1/2+y,1/2-z
-x,-y,-z
x,1/2-y,1/2+z
loop_
_atom_site_type_symbol
_atom_site_label
_atom_site_fract_x
_atom_site_fract_y
_atom_site_fract_z
Si Si1 0.215286 0.670278 0.878780
Si Si2 0.000246 0.892596 0.187834
Si Si3 0.386535 0.067392 0.482558
Si Si4 0.739482 0.173446 0.246830
Si Si5 0.308394 0.979152 0.202505
O O1 0.036320 0.658454 0.837509
O O2 0.308376 0.745418 0.780310
O O3 0.338854 0.599137 0.773463
O O4 0.173003 0.670970 0.104041
O O5 0.122444 0.964251 0.174289
O O6 0.772944 0.906942 0.297548
O O7 0.107163 0.857633 0.969970
O O8 0.544183 0.126240 0.349037
O O9 0.500000 0.000000 0.500000
O O10 0.274865 0.037181 0.369127
O O11 0.500000 0.000000 0.000000
#
# Coordination Sequence:
#
# PCOD9244656 Si02
#       5
#     4   4   4   4   4
#     4  10  22  43  67  92 137 176 222 281 325 398
#     4  10  24  42  66  94 134 173 219 272 335 389
#     4  12  23  43  67 102 133 172 228 269 337 398
#     4  12  22  45  66  94 136 178 223 277 333 397
#     4  10  20  42  67  96 133 174 217 283 328 388
#
# _framework density 20.224845999999999
#
# number of rings (size 3 to 8) (size 9 to 14) (size 15 to 20)
#    1.200    0.000    6.000    0.600    0.000    0.800 
#    7.200    0.000    0.000    0.000    0.000    0.000 
#    0.000    0.000    0.000    0.000    0.000    0.000 
#
# Total GULP energy -111548.146513 kJ/mol
# GULP energy per Si atom -5577.407326 kJ/mol
# Density = 2.017881 g / cm^3
# Si number density = 20.224846 Si / 1000 Ang^3
#
#
#
# Elastic Constant Matrix: (Units=GPa)
#
#
# Indices 1 2 3 4 5 6 
#
# 1 56.7533 31.4297 47.3242 0.0000 8.3252 0.0000
# 2 31.4297 108.5681 55.6245 0.0000 -19.0563 0.0000
# 3 47.3242 55.6245 146.7318 0.0000 -4.1105 0.0000
# 4 0.0000 0.0000 0.0000 35.7982 0.0000 10.2556
# 5 8.3252 -19.0563 -4.1105 0.0000 37.9684 0.0000
# 6 0.0000 0.0000 0.0000 10.2556 0.0000 21.8610
#
#
#
# Elastic Compliance Matrix: (Units=1/GPa)
#
#
# Indices 1 2 3 4 5 6 
#
# 1 0.028595 -0.006465 -0.007060 0.000000 -0.010279 0.000000
# 2 -0.006465 0.014057 -0.003016 0.000000 0.008147 0.000000
# 3 -0.007060 -0.003016 0.010267 0.000000 0.001146 0.000000
# 4 0.000000 0.000000 0.000000 0.032272 0.000000 -0.015140
# 5 -0.010279 0.008147 0.001146 0.000000 0.032804 0.000000
# 6 0.000000 0.000000 0.000000 -0.015140 0.000000 0.052846
#
#
# Mechanical properties :
#
#
# Convention : Reuss Voigt Hill
#
# Bulk Modulus (GPa) = 50.40625 64.53445 57.47035
# Shear Modulus (GPa) = 23.74890 30.97049 27.35970
#
# Velocity S-wave (km/s) = 3.43044 3.91744 3.68200
# Velocity P-wave (km/s) = 6.37712 7.24152 6.82302
#
# Compressibility (1/GPa) = 0.01983881
#
# Stress axis : x y z
#
# Youngs Moduli (GPa) = 34.97094 71.13664 97.39664
#
# Poissons Ratio (x) = 0.45993 0.68758
# Poissons Ratio (y) = 0.22610 0.29371
# Poissons Ratio (z) = 0.24688 0.21452
#
# Static dielectric constant tensor:
#      x y z
#    x 1.786300 0.000000 0.038480 
#    y 0.000000 1.724450 0.000000 
#    z 0.038480 0.000000 1.693770 
# 
# From -- ./inp_files/9805.got.cif
#   From: 2010.05.17/outbox.cif.g08.bks.cpg/sg14_5_cif.got.tgz:9805.got - 2010.06.03 17:49:19.
