data_PCOD9244776
_publ_section_title
;
Structure prediction by ZEFSAII (Michael W. Deem and Ramdas Pophale) SiO2 
 PCOD9244776
Probable space group: P 21/C
;
_chemical_formula_sum "Si O2"
_cell_formula_units_Z 22
_cell_length_a 11.875026
_cell_length_b 12.190188
_cell_length_c 11.696711
_cell_angle_alpha 90.000000
_cell_angle_beta 143.954303
_cell_angle_gamma 90.000000
_cell_volume 996.331280
_symmetry_space_group_name_H-M "P 21/C"
_symmetry_group_IT_number 14
_symmetry_cell_setting 'monoclinic'
loop_
_space_group_symop_operation_xyz
x,y,z
-x,1/2+y,1/2-z
-x,-y,-z
x,1/2-y,1/2+z
loop_
_atom_site_type_symbol
_atom_site_label
_atom_site_fract_x
_atom_site_fract_y
_atom_site_fract_z
Si Si1 0.844498 0.623021 0.066743
Si Si2 0.932489 0.574891 0.820820
Si Si3 0.098434 0.806027 0.990817
Si Si4 0.557603 0.451788 0.274722
Si Si5 0.500000 0.000000 0.000000
Si Si6 0.152605 0.136443 0.007875
O O1 0.962042 0.541523 0.081908
O O2 0.978126 0.654490 0.282471
O O3 0.652700 0.562612 0.947568
O O4 0.787081 0.737235 0.960209
O O5 0.711251 0.565061 0.675314
O O6 0.928035 0.595784 0.679452
O O7 0.059752 0.676529 0.969636
O O8 0.008539 0.862821 0.027995
O O9 0.313660 0.845404 0.147773
O O10 0.537101 0.468298 0.394524
O O11 0.671964 0.556531 0.320749
#
# Coordination Sequence:
#
# PCOD9244776 Si02
#       6
#     4   4   4   4   2   4
#     4  11  24  44  67 100 126 181 224 263 344 394
#     4  10  23  44  69  97 134 175 227 274 338 395
#     4  11  23  46  64  97 141 169 219 285 325 399
#     4  11  24  41  69  96 133 174 224 271 332 396
#     4  10  20  44  66  94 130 174 218 282 310 402
#     4  10  23  44  65  96 134 172 218 280 328 394
#
# _framework density 22.081011
#
# number of rings (size 3 to 8) (size 9 to 14) (size 15 to 20)
#    0.000    1.455    3.636    1.636    2.545    3.636 
#    6.545    0.000    0.000    0.000    0.000    0.000 
#    0.000    0.000    0.000    0.000    0.000    0.000 
#
# Total GULP energy -122491.922816 kJ/mol
# GULP energy per Si atom -5567.814673 kJ/mol
# Density = 2.203075 g / cm^3
# Si number density = 22.081011 Si / 1000 Ang^3
#
#
#
# Elastic Constant Matrix: (Units=GPa)
#
#
# Indices 1 2 3 4 5 6 
#
# 1 133.6521 33.2908 9.5698 0.0000 13.7092 0.0000
# 2 33.2908 141.2360 11.8604 0.0000 13.4351 0.0000
# 3 9.5698 11.8604 31.1054 0.0000 16.7771 0.0000
# 4 0.0000 0.0000 0.0000 20.6490 0.0000 -5.7184
# 5 13.7092 13.4351 16.7771 0.0000 25.6360 0.0000
# 6 0.0000 0.0000 0.0000 -5.7184 0.0000 30.3507
#
#
#
# Elastic Compliance Matrix: (Units=1/GPa)
#
#
# Indices 1 2 3 4 5 6 
#
# 1 0.008248 -0.001605 -0.000001 0.000000 -0.003569 0.000000
# 2 -0.001605 0.007790 -0.001140 0.000000 -0.002479 0.000000
# 3 -0.000001 -0.001140 0.049861 0.000000 -0.032033 0.000000
# 4 0.000000 0.000000 0.000000 0.051094 0.000000 0.009627
# 5 -0.003569 -0.002479 -0.032033 0.000000 0.063179 0.000000
# 6 0.000000 0.000000 0.000000 0.009627 0.000000 0.034762
#
#
# Mechanical properties :
#
#
# Convention : Reuss Voigt Hill
#
# Bulk Modulus (GPa) = 16.55381 46.15949 31.35665
# Shear Modulus (GPa) = 20.78484 32.07865 26.43174
#
# Velocity S-wave (km/s) = 3.07139 3.81566 3.46357
# Velocity P-wave (km/s) = 4.48230 6.35313 5.49788
#
# Compressibility (1/GPa) = 0.06040905
#
# Stress axis : x y z
#
# Youngs Moduli (GPa) = 121.24226 128.36900 20.05582
#
# Poissons Ratio (x) = 0.20597 0.00001
# Poissons Ratio (y) = 0.19454 0.02286
# Poissons Ratio (z) = 0.00006 0.14632
#
# Static dielectric constant tensor:
#      x y z
#    x 1.805560 0.000000 -0.056100 
#    y 0.000000 1.869260 0.000000 
#    z -0.056100 0.000000 1.829720 
# 
# From -- ./inp_files/29287.got.cif
#   From: 2010.05.17/outbox.cif.g08.bks.cpg/sg14_15_cif.got.tgz:29287.got - 2010.06.03 17:49:19.
