data_PCOD9244192
_publ_section_title
;
Structure prediction by ZEFSAII (Michael W. Deem and Ramdas Pophale) SiO2 
 PCOD9244192
Probable space group: P 21/C
;
_chemical_formula_sum "Si O2"
_cell_formula_units_Z 24
_cell_length_a 10.110178
_cell_length_b 10.894973
_cell_length_c 11.773521
_cell_angle_alpha 90.000000
_cell_angle_beta 130.877869
_cell_angle_gamma 90.000000
_cell_volume 980.560031
_symmetry_space_group_name_H-M "P 21/C"
_symmetry_group_IT_number 14
_symmetry_cell_setting 'monoclinic'
loop_
_space_group_symop_operation_xyz
x,y,z
-x,1/2+y,1/2-z
-x,-y,-z
x,1/2-y,1/2+z
loop_
_atom_site_type_symbol
_atom_site_label
_atom_site_fract_x
_atom_site_fract_y
_atom_site_fract_z
Si Si1 0.122508 0.346334 0.689161
Si Si2 0.416845 0.978359 0.746162
Si Si3 0.493870 0.633110 0.052602
Si Si4 0.094880 0.373804 0.024024
Si Si5 0.213544 0.947994 0.053429
Si Si6 0.784978 0.234786 0.252404
O O1 0.305953 0.325302 0.855513
O O2 0.069897 0.212810 0.618039
O O3 0.170838 0.431014 0.604923
O O4 0.944156 0.417816 0.621444
O O5 0.461912 0.888963 0.666948
O O6 0.311208 0.891934 0.770941
O O7 0.296903 0.088485 0.629122
O O8 0.597501 0.031471 0.894448
O O9 0.500000 0.500000 0.000000
O O10 0.328706 0.706379 0.911390
O O11 0.991439 0.301230 0.866625
O O12 0.000000 0.500000 0.000000
O O13 0.228445 0.837097 0.153867
#
# Coordination Sequence:
#
# PCOD9244192 Si02
#       6
#     4   4   4   4   4   4
#     4   9  18  34  61  85 121 160 198 256 305 359
#     4  10  21  36  66  89 123 168 208 249 316 369
#     4  11  21  37  63  94 124 158 210 257 302 371
#     4   9  20  39  62  85 123 162 199 251 313 364
#     4   9  18  33  61  89 112 162 207 240 309 366
#     4  10  20  40  62  90 125 160 201 260 307 366
#
# _framework density 24.475809000000002
#
# number of rings (size 3 to 8) (size 9 to 14) (size 15 to 20)
#    0.000    2.333    3.333    0.000    4.667    0.000 
#    0.000    8.333   11.000    0.000    0.000    0.000 
#    0.000    0.000    0.000    0.000    0.000    0.000 
#
# Total GULP energy -133898.884070 kJ/mol
# GULP energy per Si atom -5579.120170 kJ/mol
# Density = 2.442010 g / cm^3
# Si number density = 24.475809 Si / 1000 Ang^3
#
#
#
# Elastic Constant Matrix: (Units=GPa)
#
#
# Indices 1 2 3 4 5 6 
#
# 1 42.1848 -0.0117 19.4601 0.0000 28.6531 0.0000
# 2 -0.0117 101.5527 21.9795 0.0000 14.3465 0.0000
# 3 19.4601 21.9795 108.3053 0.0000 35.1360 0.0000
# 4 0.0000 0.0000 0.0000 33.9408 0.0000 3.1576
# 5 28.6531 14.3465 35.1360 0.0000 48.6026 0.0000
# 6 0.0000 0.0000 0.0000 3.1576 0.0000 23.2933
#
#
#
# Elastic Compliance Matrix: (Units=1/GPa)
#
#
# Indices 1 2 3 4 5 6 
#
# 1 0.040725 0.003530 0.000122 0.000000 -0.025139 0.000000
# 2 0.003530 0.010756 -0.001453 0.000000 -0.004206 0.000000
# 3 0.000122 -0.001453 0.012267 0.000000 -0.008511 0.000000
# 4 0.000000 0.000000 0.000000 0.029839 0.000000 -0.004045
# 5 -0.025139 -0.004206 -0.008511 0.000000 0.042790 0.000000
# 6 0.000000 0.000000 0.000000 -0.004045 0.000000 0.043479
#
#
# Mechanical properties :
#
#
# Convention : Reuss Voigt Hill
#
# Bulk Modulus (GPa) = 14.67436 37.21095 25.94265
# Shear Modulus (GPa) = 25.23029 35.20833 30.21931
#
# Velocity S-wave (km/s) = 3.21413 3.79686 3.51759
# Velocity P-wave (km/s) = 4.44777 5.87007 5.20770
#
# Compressibility (1/GPa) = 0.06814607
#
# Stress axis : x y z
#
# Youngs Moduli (GPa) = 24.55490 92.97082 81.51762
#
# Poissons Ratio (x) = -0.32816 -0.00992
# Poissons Ratio (y) = -0.08667 0.11842
# Poissons Ratio (z) = -0.00299 0.13505
#
# Static dielectric constant tensor:
#      x y z
#    x 2.026140 0.000000 0.040230 
#    y 0.000000 1.930250 0.000000 
#    z 0.040230 0.000000 2.026380 
# 
# From -- ./inp_files/44481.got.cif
#   From: 2010.05.17/outbox.cif.g08.bks.cpg/sg14_23_cif.got.tgz:44481.got - 2010.06.03 17:49:19.
