data_PCOD9244103
_publ_section_title
;
Structure prediction by ZEFSAII (Michael W. Deem and Ramdas Pophale) SiO2 
 PCOD9244103
Probable space group: P 21/C
;
_chemical_formula_sum "Si O2"
_cell_formula_units_Z 28
_cell_length_a 17.429237
_cell_length_b 13.191411
_cell_length_c 10.111787
_cell_angle_alpha 90.000000
_cell_angle_beta 150.362550
_cell_angle_gamma 90.000000
_cell_volume 1149.668662
_symmetry_space_group_name_H-M "P 21/C"
_symmetry_group_IT_number 14
_symmetry_cell_setting 'monoclinic'
loop_
_space_group_symop_operation_xyz
x,y,z
-x,1/2+y,1/2-z
-x,-y,-z
x,1/2-y,1/2+z
loop_
_atom_site_type_symbol
_atom_site_label
_atom_site_fract_x
_atom_site_fract_y
_atom_site_fract_z
Si Si1 0.860193 0.857335 0.662078
Si Si2 0.236609 0.976425 0.878573
Si Si3 0.847716 0.057803 0.944956
Si Si4 0.403869 0.481257 0.139031
Si Si5 0.258016 0.775398 0.801316
Si Si6 0.444852 0.802273 0.825019
Si Si7 0.201946 0.201562 0.711674
O O1 0.683454 0.897635 0.405686
O O2 0.875211 0.781994 0.807180
O O3 0.876614 0.800236 0.548203
O O4 0.972521 0.955128 0.824782
O O5 0.176558 0.884464 0.695652
O O6 0.199865 0.087741 0.767665
O O7 0.178410 0.964861 0.940830
O O8 0.424085 0.962155 0.156853
O O9 0.831629 0.176956 0.883818
O O10 0.716340 0.002956 0.661229
O O11 0.423603 0.579826 0.259544
O O12 0.396092 0.781886 0.901254
O O13 0.324281 0.751320 0.045468
O O14 0.617654 0.770178 0.043176
#
# Coordination Sequence:
#
# PCOD9244103 Si02
#       7
#     4   4   4   4   4   4   4
#     4  12  27  45  66 100 143 185 226 280 348 411
#     4  11  23  45  73 102 133 177 239 288 338 399
#     4  11  26  43  69 102 138 183 222 284 350 415
#     4  10  23  44  71  99 131 177 232 289 341 400
#     4  11  21  39  68 100 135 172 230 284 347 401
#     4  10  20  39  68 100 130 173 230 291 337 395
#     4  11  26  43  68 101 139 183 231 285 339 407
#
# _framework density 24.354842999999999
#
# number of rings (size 3 to 8) (size 9 to 14) (size 15 to 20)
#    0.000    1.143    1.429    4.286    4.000    2.857 
#    2.571    0.000    0.000    0.000    0.000    0.000 
#    0.000    0.000    0.000    0.000    0.000    0.000 
#
# Total GULP energy -156797.493628 kJ/mol
# GULP energy per Si atom -5599.910487 kJ/mol
# Density = 2.429941 g / cm^3
# Si number density = 24.354843 Si / 1000 Ang^3
#
#
#
# Elastic Constant Matrix: (Units=GPa)
#
#
# Indices 1 2 3 4 5 6 
#
# 1 134.8854 23.6994 37.7195 0.0000 -10.8899 0.0000
# 2 23.6994 49.5315 -9.8209 0.0000 2.1520 0.0000
# 3 37.7195 -9.8209 65.4845 0.0000 -4.4731 0.0000
# 4 0.0000 0.0000 0.0000 15.4325 0.0000 6.4232
# 5 -10.8899 2.1520 -4.4731 0.0000 31.1765 0.0000
# 6 0.0000 0.0000 0.0000 6.4232 0.0000 33.8854
#
#
#
# Elastic Compliance Matrix: (Units=1/GPa)
#
#
# Indices 1 2 3 4 5 6 
#
# 1 0.010814 -0.006706 -0.007014 0.000000 0.003234 0.000000
# 2 -0.006706 0.024997 0.007406 0.000000 -0.003005 0.000000
# 3 -0.007014 0.007406 0.020419 0.000000 -0.000031 0.000000
# 4 0.000000 0.000000 0.000000 0.070349 0.000000 -0.013335
# 5 0.003234 -0.003005 -0.000031 0.000000 0.033408 0.000000
# 6 0.000000 0.000000 0.000000 -0.013335 0.000000 0.032039
#
#
# Mechanical properties :
#
#
# Convention : Reuss Voigt Hill
#
# Bulk Modulus (GPa) = 22.93401 39.23304 31.08352
# Shear Modulus (GPa) = 22.81155 29.31910 26.06533
#
# Velocity S-wave (km/s) = 3.06377 3.47339 3.27499
# Velocity P-wave (km/s) = 4.68536 5.67713 5.20492
#
# Compressibility (1/GPa) = 0.04360337
#
# Stress axis : x y z
#
# Youngs Moduli (GPa) = 92.47002 40.00556 48.97314
#
# Poissons Ratio (x) = 0.26826 0.34349
# Poissons Ratio (y) = 0.62006 -0.36269
# Poissons Ratio (z) = 0.64857 -0.29628
#
# Static dielectric constant tensor:
#      x y z
#    x 1.889200 0.000000 0.070370 
#    y 0.000000 1.968980 0.000000 
#    z 0.070370 0.000000 2.013920 
# 
# From -- ./inp_files/16457.got.cif
#   From: 2010.05.17/outbox.cif.g08.bks.cpg/sg14_9_cif.got.tgz:16457.got - 2010.06.03 17:49:19.
