data_PCOD9244196
_publ_section_title
;
Structure prediction by ZEFSAII (Michael W. Deem and Ramdas Pophale) SiO2 
 PCOD9244196
Probable space group: P 21/C
;
_chemical_formula_sum "Si O2"
_cell_formula_units_Z 32
_cell_length_a 8.002675
_cell_length_b 8.728306
_cell_length_c 25.136007
_cell_angle_alpha 90.000000
_cell_angle_beta 52.449773
_cell_angle_gamma 90.000000
_cell_volume 1391.988634
_symmetry_space_group_name_H-M "P 21/C"
_symmetry_group_IT_number 14
_symmetry_cell_setting 'monoclinic'
loop_
_space_group_symop_operation_xyz
x,y,z
-x,1/2+y,1/2-z
-x,-y,-z
x,1/2-y,1/2+z
loop_
_atom_site_type_symbol
_atom_site_label
_atom_site_fract_x
_atom_site_fract_y
_atom_site_fract_z
Si Si1 0.497541 0.529959 0.796637
Si Si2 0.851764 0.171796 0.964013
Si Si3 0.661568 0.821726 0.163656
Si Si4 0.066844 0.856155 0.330626
Si Si5 0.308526 0.906832 0.590921
Si Si6 0.264645 0.855216 0.179539
Si Si7 0.457969 0.828716 0.418545
Si Si8 0.792609 0.589780 0.402631
O O1 0.449846 0.346726 0.808016
O O2 0.660149 0.588565 0.720123
O O3 0.276453 0.591737 0.817932
O O4 0.532536 0.618211 0.845577
O O5 0.725830 0.282056 0.947623
O O6 0.101632 0.186722 0.905151
O O7 0.774173 0.002413 0.961660
O O8 0.768089 0.244278 0.035235
O O9 0.496315 0.903469 0.155946
O O10 0.109877 0.853342 0.259381
O O11 0.999014 0.692099 0.364556
O O12 0.881886 0.975141 0.377710
O O13 0.281312 0.811353 0.650240
O O14 0.519852 0.007710 0.554888
O O15 0.190281 0.967034 0.147736
O O16 0.612697 0.706360 0.416958
#
# Coordination Sequence:
#
# PCOD9244196 Si02
#       8
#     4   4   4   4   4   4   4   4
#     4  11  25  43  67  95 134 169 212 266 322 380
#     4  11  24  43  66  94 129 173 217 265 320 382
#     4  11  25  43  67  95 134 169 212 266 322 380
#     4  10  21  38  63  94 128 166 214 262 322 379
#     4  10  20  40  62  92 125 170 215 272 311 374
#     4  10  21  38  63  94 128 166 214 262 322 379
#     4  11  24  43  66  94 129 173 217 265 320 382
#     4  10  24  40  64  94 129 168 215 266 321 378
#
# _framework density 22.988692
#
# number of rings (size 3 to 8) (size 9 to 14) (size 15 to 20)
#    0.000    1.500    2.500    1.500    7.000    4.500 
#    0.000    3.750    0.000    0.000    0.000    0.000 
#    0.000    0.000    0.000    0.000    0.000    0.000 
#
# Total GULP energy -178706.489977 kJ/mol
# GULP energy per Si atom -5584.577812 kJ/mol
# Density = 2.293637 g / cm^3
# Si number density = 22.988692 Si / 1000 Ang^3
#
#
#
# Elastic Constant Matrix: (Units=GPa)
#
#
# Indices 1 2 3 4 5 6 
#
# 1 34.2317 4.3694 2.2491 0.0000 -3.9217 0.0000
# 2 4.3694 90.9738 8.5552 0.0000 1.6519 0.0000
# 3 2.2491 8.5552 26.0693 0.0000 -11.6636 0.0000
# 4 0.0000 0.0000 0.0000 24.8665 0.0000 -6.4497
# 5 -3.9217 1.6519 -11.6636 0.0000 28.9125 0.0000
# 6 0.0000 0.0000 0.0000 -6.4497 0.0000 32.7713
#
#
#
# Elastic Compliance Matrix: (Units=1/GPa)
#
#
# Indices 1 2 3 4 5 6 
#
# 1 0.029881 -0.001481 -0.000294 0.000000 0.004019 0.000000
# 2 -0.001481 0.011581 -0.004953 0.000000 -0.002860 0.000000
# 3 -0.000294 -0.004953 0.048954 0.000000 0.019992 0.000000
# 4 0.000000 0.000000 0.000000 0.042378 0.000000 0.008340
# 5 0.004019 -0.002860 0.019992 0.000000 0.043361 0.000000
# 6 0.000000 0.000000 0.000000 0.008340 0.000000 0.032156
#
#
# Mechanical properties :
#
#
# Convention : Reuss Voigt Hill
#
# Bulk Modulus (GPa) = 12.99332 20.18025 16.58678
# Shear Modulus (GPa) = 20.20856 26.38345 23.29600
#
# Velocity S-wave (km/s) = 2.96812 3.39140 3.18680
# Velocity P-wave (km/s) = 4.17260 4.91252 4.55760
#
# Compressibility (1/GPa) = 0.07696265
#
# Stress axis : x y z
#
# Youngs Moduli (GPa) = 33.46558 86.34857 20.42716
#
# Poissons Ratio (x) = 0.12784 0.00601
# Poissons Ratio (y) = 0.04955 0.10117
# Poissons Ratio (z) = 0.00984 0.42765
#
# Static dielectric constant tensor:
#      x y z
#    x 1.860390 0.000000 0.004910 
#    y 0.000000 1.886870 0.000000 
#    z 0.004910 0.000000 1.992920 
# 
# From -- ./inp_files/76368.got.cif
#   From: 2010.05.17/outbox.cif.g08.bks.cpg/sg14_39_cif.got.tgz:76368.got - 2010.06.03 17:49:19.
