data_PCOD9244363
_publ_section_title
;
Structure prediction by ZEFSAII (Michael W. Deem and Ramdas Pophale) SiO2 
 PCOD9244363
Probable space group: P 21/C
;
_chemical_formula_sum "Si O2"
_cell_formula_units_Z 24
_cell_length_a 9.038545
_cell_length_b 16.454130
_cell_length_c 9.714017
_cell_angle_alpha 90.000000
_cell_angle_beta 138.479444
_cell_angle_gamma 90.000000
_cell_volume 957.663487
_symmetry_space_group_name_H-M "P 21/C"
_symmetry_group_IT_number 14
_symmetry_cell_setting 'monoclinic'
loop_
_space_group_symop_operation_xyz
x,y,z
-x,1/2+y,1/2-z
-x,-y,-z
x,1/2-y,1/2+z
loop_
_atom_site_type_symbol
_atom_site_label
_atom_site_fract_x
_atom_site_fract_y
_atom_site_fract_z
Si Si1 0.590200 0.846315 0.377088
Si Si2 0.874739 0.939015 0.015899
Si Si3 0.993787 0.950362 0.657816
Si Si4 0.553341 0.069887 0.148068
Si Si5 0.079868 0.823125 0.962291
Si Si6 0.283212 0.220227 0.821611
O O1 0.328168 0.842623 0.181056
O O2 0.642364 0.804918 0.558766
O O3 0.667940 0.791913 0.303362
O O4 0.735918 0.927582 0.454641
O O5 0.607203 0.946994 0.834302
O O6 0.939435 0.853330 0.996891
O O7 0.961540 0.966522 0.227233
O O8 0.000000 0.000000 0.000000
O O9 0.175598 0.934292 0.663263
O O10 0.057995 0.879815 0.812617
O O11 0.432929 0.151829 0.003341
O O12 0.500000 0.000000 0.000000
O O13 0.986910 0.733672 0.858569
#
# Coordination Sequence:
#
# PCOD9244363 Si02
#       6
#     4   4   4   4   4   4
#     4  11  24  40  67  98 136 179 230 291 348 422
#     4   9  19  38  67  94 131 182 224 277 345 403
#     4   9  20  40  64  94 132 177 226 285 352 412
#     4  10  20  40  68  94 137 182 228 288 343 415
#     4  10  21  40  65  92 136 170 233 290 343 421
#     4  11  24  40  66 100 134 182 229 283 360 409
#
# _framework density 25.060997
#
# number of rings (size 3 to 8) (size 9 to 14) (size 15 to 20)
#    0.000    2.000    1.667    1.000    2.333    2.000 
#    0.000    3.333   11.000    0.000    0.000    0.000 
#    0.000    0.000    0.000    0.000    0.000    0.000 
#
# Total GULP energy -133777.118715 kJ/mol
# GULP energy per Si atom -5574.046613 kJ/mol
# Density = 2.500396 g / cm^3
# Si number density = 25.060997 Si / 1000 Ang^3
#
#
#
# Elastic Constant Matrix: (Units=GPa)
#
#
# Indices 1 2 3 4 5 6 
#
# 1 109.6893 22.2135 21.4990 0.0000 19.1523 0.0000
# 2 22.2135 80.4734 16.4582 0.0000 12.7639 0.0000
# 3 21.4990 16.4582 99.7897 0.0000 27.8940 0.0000
# 4 0.0000 0.0000 0.0000 36.9676 0.0000 3.6023
# 5 19.1523 12.7639 27.8940 0.0000 51.0745 0.0000
# 6 0.0000 0.0000 0.0000 3.6023 0.0000 43.4540
#
#
#
# Elastic Compliance Matrix: (Units=1/GPa)
#
#
# Indices 1 2 3 4 5 6 
#
# 1 0.010243 -0.002176 -0.001093 0.000000 -0.002700 0.000000
# 2 -0.002176 0.013582 -0.001240 0.000000 -0.001901 0.000000
# 3 -0.001093 -0.001240 0.012108 0.000000 -0.005893 0.000000
# 4 0.000000 0.000000 0.000000 0.027271 0.000000 -0.002261
# 5 -0.002700 -0.001901 -0.005893 0.000000 0.024285 0.000000
# 6 0.000000 0.000000 0.000000 -0.002261 0.000000 0.023200
#
#
# Mechanical properties :
#
#
# Convention : Reuss Voigt Hill
#
# Bulk Modulus (GPa) = 37.15227 45.58819 41.37023
# Shear Modulus (GPa) = 38.85618 41.61798 40.23708
#
# Velocity S-wave (km/s) = 3.94187 4.07955 4.01130
# Velocity P-wave (km/s) = 5.96445 6.35773 6.16422
#
# Compressibility (1/GPa) = 0.02691626
#
# Stress axis : x y z
#
# Youngs Moduli (GPa) = 97.62780 73.62605 82.58742
#
# Poissons Ratio (x) = 0.16018 0.09028
# Poissons Ratio (y) = 0.21240 0.10240
# Poissons Ratio (z) = 0.10672 0.09129
#
# Static dielectric constant tensor:
#      x y z
#    x 2.009910 0.000000 0.053540 
#    y 0.000000 2.094350 0.000000 
#    z 0.053540 0.000000 2.168960 
# 
# From -- ./inp_files/26700.got.cif
#   From: 2010.05.17/outbox.cif.g08.bks.cpg/sg14_14_cif.got.tgz:26700.got - 2010.06.03 17:49:19.
