data_PCOD9244939
_publ_section_title
;
Structure prediction by ZEFSAII (Michael W. Deem and Ramdas Pophale) SiO2 
 PCOD9244939
Probable space group: P 21/C
;
_chemical_formula_sum "Si O2"
_cell_formula_units_Z 24
_cell_length_a 13.894712
_cell_length_b 8.623855
_cell_length_c 14.532332
_cell_angle_alpha 90.000000
_cell_angle_beta 37.230105
_cell_angle_gamma 90.000000
_cell_volume 1053.547889
_symmetry_space_group_name_H-M "P 21/C"
_symmetry_group_IT_number 14
_symmetry_cell_setting 'monoclinic'
loop_
_space_group_symop_operation_xyz
x,y,z
-x,1/2+y,1/2-z
-x,-y,-z
x,1/2-y,1/2+z
loop_
_atom_site_type_symbol
_atom_site_label
_atom_site_fract_x
_atom_site_fract_y
_atom_site_fract_z
Si Si1 0.699209 0.574884 0.834787
Si Si2 0.120249 0.703079 0.255206
Si Si3 0.039309 0.790827 0.026299
Si Si4 0.970781 0.002075 0.345670
Si Si5 0.651579 0.698953 0.061184
Si Si6 0.350987 0.990218 0.830414
O O1 0.718955 0.396163 0.853879
O O2 0.633256 0.572267 0.782281
O O3 0.880263 0.635120 0.687719
O O4 0.623581 0.675358 0.973201
O O5 0.036207 0.694588 0.418641
O O6 0.031888 0.616407 0.239420
O O7 0.119189 0.885032 0.233789
O O8 0.195043 0.881833 0.942442
O O9 0.042446 0.614170 0.057065
O O10 0.814245 0.893880 0.458736
O O11 0.661762 0.874999 0.085545
O O12 0.505572 0.616167 0.223978
#
# Coordination Sequence:
#
# PCOD9244939 Si02
#       6
#     4   4   4   4   4   4
#     4  10  22  40  64  89 120 160 202 254 306 356
#     4  10  21  35  57  89 122 155 195 245 300 353
#     4  11  22  39  63  91 121 158 200 252 306 359
#     4  11  21  37  61  92 124 159 202 249 301 362
#     4  11  23  40  62  88 120 164 205 249 302 364
#     4  11  23  43  62  87 124 164 204 249 306 364
#
# _framework density 22.780169999999998
#
# number of rings (size 3 to 8) (size 9 to 14) (size 15 to 20)
#    0.000    1.333    0.000    8.000    0.000    2.667 
#    0.000    0.833    0.000    0.000    0.000    0.000 
#    0.000    0.000    0.000    0.000    0.000    0.000 
#
# Total GULP energy -134290.253317 kJ/mol
# GULP energy per Si atom -5595.427222 kJ/mol
# Density = 2.272832 g / cm^3
# Si number density = 22.780170 Si / 1000 Ang^3
#
#
#
# Elastic Constant Matrix: (Units=GPa)
#
#
# Indices 1 2 3 4 5 6 
#
# 1 56.2220 37.2726 30.3273 0.0000 4.7820 0.0000
# 2 37.2726 134.6986 46.0142 0.0000 16.2759 0.0000
# 3 30.3273 46.0142 87.4362 0.0000 5.8487 0.0000
# 4 0.0000 0.0000 0.0000 38.1395 0.0000 6.9570
# 5 4.7820 16.2759 5.8487 0.0000 35.1757 0.0000
# 6 0.0000 0.0000 0.0000 6.9570 0.0000 33.9189
#
#
#
# Elastic Compliance Matrix: (Units=1/GPa)
#
#
# Indices 1 2 3 4 5 6 
#
# 1 0.024044 -0.004620 -0.005898 0.000000 -0.000150 0.000000
# 2 -0.004620 0.010369 -0.003615 0.000000 -0.003568 0.000000
# 3 -0.005898 -0.003615 0.015391 0.000000 -0.000084 0.000000
# 4 0.000000 0.000000 0.000000 0.027239 0.000000 -0.005587
# 5 -0.000150 -0.003568 -0.000084 0.000000 0.030114 0.000000
# 6 0.000000 0.000000 0.000000 -0.005587 0.000000 0.030628
#
#
# Mechanical properties :
#
#
# Convention : Reuss Voigt Hill
#
# Bulk Modulus (GPa) = 46.43381 56.17611 51.30496
# Shear Modulus (GPa) = 28.86322 32.42967 30.64645
#
# Velocity S-wave (km/s) = 3.56340 3.77715 3.67183
# Velocity P-wave (km/s) = 6.11213 6.61332 6.36766
#
# Compressibility (1/GPa) = 0.02153603
#
# Stress axis : x y z
#
# Youngs Moduli (GPa) = 41.59043 96.44430 64.97306
#
# Poissons Ratio (x) = 0.44559 0.38322
# Poissons Ratio (y) = 0.19216 0.23490
# Poissons Ratio (z) = 0.24531 0.34868
#
# Static dielectric constant tensor:
#      x y z
#    x 1.848950 0.000000 0.012300 
#    y 0.000000 1.858320 0.000000 
#    z 0.012300 0.000000 1.863030 
# 
# From -- ./inp_files/46374.got.cif
#   From: 2010.05.17/outbox.cif.g08.bks.cpg/sg14_24_cif.got.tgz:46374.got - 2010.06.03 17:49:19.
