data_PCOD9244482
_publ_section_title
;
Structure prediction by ZEFSAII (Michael W. Deem and Ramdas Pophale) SiO2 
 PCOD9244482
Probable space group: P 21/C
;
_chemical_formula_sum "Si O2"
_cell_formula_units_Z 32
_cell_length_a 8.797112
_cell_length_b 8.802966
_cell_length_c 22.031144
_cell_angle_alpha 90.000000
_cell_angle_beta 86.294498
_cell_angle_gamma 90.000000
_cell_volume 1702.539967
_symmetry_space_group_name_H-M "P 21/C"
_symmetry_group_IT_number 14
_symmetry_cell_setting 'monoclinic'
loop_
_space_group_symop_operation_xyz
x,y,z
-x,1/2+y,1/2-z
-x,-y,-z
x,1/2-y,1/2+z
loop_
_atom_site_type_symbol
_atom_site_label
_atom_site_fract_x
_atom_site_fract_y
_atom_site_fract_z
Si Si1 0.930067 0.393730 0.053878
Si Si2 0.163359 0.315672 0.150958
Si Si3 0.054955 0.740688 0.730666
Si Si4 0.741206 0.474559 0.357832
Si Si5 0.148374 0.177505 0.377259
Si Si6 0.330957 0.541474 0.221010
Si Si7 0.446803 0.190619 0.818490
Si Si8 0.916442 0.137399 0.968784
O O1 0.833474 0.506211 0.098860
O O2 0.067429 0.333852 0.092228
O O3 0.853259 0.253222 0.021285
O O4 0.000000 0.500000 0.000000
O O5 0.274335 0.457153 0.161298
O O6 0.043979 0.311251 0.209920
O O7 0.248655 0.155043 0.148534
O O8 0.142070 0.604112 0.693401
O O9 0.186361 0.859023 0.746481
O O10 0.942962 0.817289 0.684055
O O11 0.575994 0.408321 0.347786
O O12 0.796381 0.422848 0.422912
O O13 0.308288 0.258902 0.364195
O O14 0.042362 0.270287 0.426597
O O15 0.468447 0.658078 0.207395
O O16 0.377825 0.410365 0.266170
O O17 0.000000 0.000000 0.000000
#
# Coordination Sequence:
#
# PCOD9244482 Si02
#       8
#     4   4   4   4   4   4   4   4
#     4  10  22  37  63  88 118 158 214 262 299 347
#     4  12  20  36  65  94 118 160 208 261 305 367
#     4  10  21  36  62  94 121 152 208 255 313 361
#     4  10  23  38  61  91 128 162 197 260 316 380
#     4  10  21  39  62  88 125 158 201 259 301 377
#     4  11  23  38  59  89 133 161 195 245 313 391
#     4  11  24  40  57  91 134 168 191 243 328 381
#     4  10  20  41  65  91 114 158 218 267 299 347
#
# _framework density 18.795449000000001
#
# number of rings (size 3 to 8) (size 9 to 14) (size 15 to 20)
#    0.000    1.500    3.750    1.500    3.500    1.000 
#    0.000    2.500    0.000    0.000    0.000    0.000 
#    0.000    0.000    0.000    0.000    0.000    0.000 
#
# Total GULP energy -178720.790170 kJ/mol
# GULP energy per Si atom -5585.024693 kJ/mol
# Density = 1.875267 g / cm^3
# Si number density = 18.795449 Si / 1000 Ang^3
#
#
#
# Elastic Constant Matrix: (Units=GPa)
#
#
# Indices 1 2 3 4 5 6 
#
# 1 65.6847 13.2848 23.2166 0.0000 2.3443 0.0000
# 2 13.2848 85.9186 16.6615 0.0000 3.2820 0.0000
# 3 23.2166 16.6615 68.4880 0.0000 13.1631 0.0000
# 4 0.0000 0.0000 0.0000 22.0470 0.0000 15.8415
# 5 2.3443 3.2820 13.1631 0.0000 17.6477 0.0000
# 6 0.0000 0.0000 0.0000 15.8415 0.0000 33.5137
#
#
#
# Elastic Compliance Matrix: (Units=1/GPa)
#
#
# Indices 1 2 3 4 5 6 
#
# 1 0.017605 -0.001645 -0.006043 0.000000 0.002475 0.000000
# 2 -0.001645 0.012369 -0.002395 0.000000 -0.000296 0.000000
# 3 -0.006043 -0.002395 0.019836 0.000000 -0.013547 0.000000
# 4 0.000000 0.000000 0.000000 0.068686 0.000000 -0.032467
# 5 0.002475 -0.000296 -0.013547 0.000000 0.066495 0.000000
# 6 0.000000 0.000000 0.000000 -0.032467 0.000000 0.045185
#
#
# Mechanical properties :
#
#
# Convention : Reuss Voigt Hill
#
# Bulk Modulus (GPa) = 33.73345 36.26855 35.00100
# Shear Modulus (GPa) = 19.21428 25.77024 22.49226
#
# Velocity S-wave (km/s) = 3.20079 3.70684 3.46307
# Velocity P-wave (km/s) = 5.62554 6.13671 5.88668
#
# Compressibility (1/GPa) = 0.02964416
#
# Stress axis : x y z
#
# Youngs Moduli (GPa) = 56.80340 80.84796 50.41342
#
# Poissons Ratio (x) = 0.13297 0.30466
# Poissons Ratio (y) = 0.09342 0.12073
# Poissons Ratio (z) = 0.34328 0.19361
#
# Static dielectric constant tensor:
#      x y z
#    x 1.624610 0.000000 0.010430 
#    y 0.000000 1.643690 0.000000 
#    z 0.010430 0.000000 1.647130 
# 
# From -- ./inp_files/64804.got.cif
#   From: 2010.05.17/outbox.cif.g08.bks.cpg/sg14_33_cif.got.tgz:64804.got - 2010.06.03 17:49:19.
