data_PCOD9244961
_publ_section_title
;
Structure prediction by ZEFSAII (Michael W. Deem and Ramdas Pophale) SiO2 
 PCOD9244961
Probable space group: P 21/C
;
_chemical_formula_sum "Si O2"
_cell_formula_units_Z 32
_cell_length_a 7.039327
_cell_length_b 10.695799
_cell_length_c 22.593619
_cell_angle_alpha 90.000000
_cell_angle_beta 127.806569
_cell_angle_gamma 90.000000
_cell_volume 1344.014165
_symmetry_space_group_name_H-M "P 21/C"
_symmetry_group_IT_number 14
_symmetry_cell_setting 'monoclinic'
loop_
_space_group_symop_operation_xyz
x,y,z
-x,1/2+y,1/2-z
-x,-y,-z
x,1/2-y,1/2+z
loop_
_atom_site_type_symbol
_atom_site_label
_atom_site_fract_x
_atom_site_fract_y
_atom_site_fract_z
Si Si1 0.543332 0.110679 0.098888
Si Si2 0.785753 0.779997 0.376510
Si Si3 0.474429 0.167316 0.954023
Si Si4 0.797793 0.375941 0.963393
Si Si5 0.994088 0.667277 0.125961
Si Si6 0.085879 0.399475 0.704098
Si Si7 0.318671 0.005320 0.357933
Si Si8 0.292989 0.849467 0.250419
O O1 0.356493 0.183932 0.105542
O O2 0.813505 0.097971 0.174969
O O3 0.484182 0.969231 0.066007
O O4 0.557227 0.177797 0.037857
O O5 0.889209 0.699089 0.342737
O O6 0.578847 0.863077 0.306523
O O7 0.985229 0.859548 0.448883
O O8 0.630753 0.258328 0.944707
O O9 0.205305 0.222443 0.905861
O O10 0.598074 0.486995 0.929293
O O11 0.911774 0.359292 0.920996
O O12 0.857044 0.546010 0.124177
O O13 0.210934 0.720116 0.207342
O O14 0.264280 0.393155 0.794659
O O15 0.165111 0.535039 0.693559
O O16 0.237719 0.878472 0.309445
#
# Coordination Sequence:
#
# PCOD9244961 Si02
#       8
#     4   4   4   4   4   4   4   4
#     4  11  21  37  62  95 126 163 213 266 326 378
#     4  12  24  40  67  95 129 169 217 263 328 392
#     4  10  21  35  60  95 131 160 201 271 324 370
#     4  11  23  38  66  96 128 169 209 267 324 386
#     4  11  20  42  65  91 126 164 215 264 322 380
#     4  10  22  44  60  94 130 163 220 268 311 398
#     4   9  23  43  61  89 130 164 213 263 314 388
#     4  10  24  43  65  93 128 172 218 263 321 393
#
# _framework density 23.809273000000001
#
# number of rings (size 3 to 8) (size 9 to 14) (size 15 to 20)
#    0.750    0.750    3.750    1.500    1.750    1.000 
#    0.000    5.625    0.000    0.000    0.000    0.000 
#    0.000    0.000    0.000    0.000    0.000    0.000 
#
# Total GULP energy -178659.812078 kJ/mol
# GULP energy per Si atom -5583.119127 kJ/mol
# Density = 2.375508 g / cm^3
# Si number density = 23.809273 Si / 1000 Ang^3
#
#
#
# Elastic Constant Matrix: (Units=GPa)
#
#
# Indices 1 2 3 4 5 6 
#
# 1 107.5202 23.2631 47.8219 0.0000 -8.0215 0.0000
# 2 23.2631 45.8234 25.3434 0.0000 -7.5212 0.0000
# 3 47.8219 25.3434 112.0166 0.0000 23.1962 0.0000
# 4 0.0000 0.0000 0.0000 17.9975 0.0000 -0.7621
# 5 -8.0215 -7.5212 23.1962 0.0000 42.7928 0.0000
# 6 0.0000 0.0000 0.0000 -0.7621 0.0000 34.9333
#
#
#
# Elastic Compliance Matrix: (Units=1/GPa)
#
#
# Indices 1 2 3 4 5 6 
#
# 1 0.012904 -0.002314 -0.006085 0.000000 0.005311 0.000000
# 2 -0.002314 0.028350 -0.007174 0.000000 0.008437 0.000000
# 3 -0.006085 -0.007174 0.015371 0.000000 -0.010733 0.000000
# 4 0.000000 0.000000 0.000000 0.055615 0.000000 0.001213
# 5 0.005311 0.008437 -0.010733 0.000000 0.031665 0.000000
# 6 0.000000 0.000000 0.000000 0.001213 0.000000 0.028652
#
#
# Mechanical properties :
#
#
# Convention : Reuss Voigt Hill
#
# Bulk Modulus (GPa) = 39.24698 50.91299 45.07998
# Shear Modulus (GPa) = 23.56331 30.40685 26.98508
#
# Velocity S-wave (km/s) = 3.14931 3.57753 3.37023
# Velocity P-wave (km/s) = 5.45380 6.20444 5.84119
#
# Compressibility (1/GPa) = 0.02547967
#
# Stress axis : x y z
#
# Youngs Moduli (GPa) = 77.49605 35.27359 65.05872
#
# Poissons Ratio (x) = 0.08161 0.39589
# Poissons Ratio (y) = 0.17930 0.46670
# Poissons Ratio (z) = 0.47158 0.25304
#
# Static dielectric constant tensor:
#      x y z
#    x 1.900780 0.000000 0.037650 
#    y 0.000000 1.956680 0.000000 
#    z 0.037650 0.000000 1.953890 
# 
# From -- ./inp_files/63785.got.cif
#   From: 2010.05.17/outbox.cif.g08.bks.cpg/sg14_32_cif.got.tgz:63785.got - 2010.06.03 17:49:19.
