data_PCOD9244460
_publ_section_title
;
Structure prediction by ZEFSAII (Michael W. Deem and Ramdas Pophale) SiO2 
 PCOD9244460
Probable space group: P 21/C
;
_chemical_formula_sum "Si O2"
_cell_formula_units_Z 32
_cell_length_a 5.007053
_cell_length_b 11.690821
_cell_length_c 21.965183
_cell_angle_alpha 90.000000
_cell_angle_beta 95.131618
_cell_angle_gamma 90.000000
_cell_volume 1280.612727
_symmetry_space_group_name_H-M "P 21/C"
_symmetry_group_IT_number 14
_symmetry_cell_setting 'monoclinic'
loop_
_space_group_symop_operation_xyz
x,y,z
-x,1/2+y,1/2-z
-x,-y,-z
x,1/2-y,1/2+z
loop_
_atom_site_type_symbol
_atom_site_label
_atom_site_fract_x
_atom_site_fract_y
_atom_site_fract_z
Si Si1 0.487449 0.435037 0.856197
Si Si2 0.541948 0.417630 0.680189
Si Si3 0.213930 0.474982 0.426202
Si Si4 0.785442 0.373435 0.324311
Si Si5 0.515406 0.701514 0.883476
Si Si6 0.538128 0.237880 0.934475
Si Si7 0.963329 0.282456 0.542588
Si Si8 0.961634 0.144612 0.282457
O O1 0.489443 0.570339 0.865077
O O2 0.432966 0.364671 0.917938
O O3 0.775967 0.404175 0.833380
O O4 0.260286 0.388648 0.805736
O O5 0.567140 0.459599 0.610817
O O6 0.375199 0.520472 0.706085
O O7 0.425705 0.289904 0.671069
O O8 0.826378 0.405808 0.719212
O O9 0.362707 0.366222 0.459808
O O10 0.058898 0.579073 0.455191
O O11 0.012709 0.419765 0.373819
O O12 0.588191 0.307988 0.366949
O O13 0.912264 0.281162 0.281874
O O14 0.234265 0.737218 0.908123
O O15 0.752655 0.725938 0.936654
O O16 0.812942 0.249036 0.977139
#
# Coordination Sequence:
#
# PCOD9244460 Si02
#       8
#     4   4   4   4   4   4   4   4
#     4  11  25  45  62  94 132 169 218 268 317 390
#     4  10  24  40  63  95 128 166 214 268 321 390
#     4  10  20  41  63  93 133 160 215 278 321 378
#     4  10  21  42  64  92 130 163 213 271 316 379
#     4  11  25  43  61  95 134 165 214 270 317 390
#     4  10  23  40  65  94 129 169 218 270 320 391
#     4  11  24  40  67  96 124 175 215 261 339 379
#     4  11  25  41  68  93 121 175 214 258 330 382
#
# _framework density 24.988040000000002
#
# number of rings (size 3 to 8) (size 9 to 14) (size 15 to 20)
#    0.000    1.500    2.500    1.125    5.250    1.500 
#    0.000    0.000    0.000    0.000    0.000    0.000 
#    0.000    0.000    0.000    0.000    0.000    0.000 
#
# Total GULP energy -178944.275483 kJ/mol
# GULP energy per Si atom -5592.008609 kJ/mol
# Density = 2.493117 g / cm^3
# Si number density = 24.988040 Si / 1000 Ang^3
#
#
#
# Elastic Constant Matrix: (Units=GPa)
#
#
# Indices 1 2 3 4 5 6 
#
# 1 59.0019 21.0564 4.1511 0.0000 19.2676 0.0000
# 2 21.0564 197.0608 40.1772 0.0000 11.3458 0.0000
# 3 4.1511 40.1772 78.6469 0.0000 29.0618 0.0000
# 4 0.0000 0.0000 0.0000 39.8407 0.0000 5.0583
# 5 19.2676 11.3458 29.0618 0.0000 52.0392 0.0000
# 6 0.0000 0.0000 0.0000 5.0583 0.0000 36.1305
#
#
#
# Elastic Compliance Matrix: (Units=1/GPa)
#
#
# Indices 1 2 3 4 5 6 
#
# 1 0.020493 -0.002377 0.003458 0.000000 -0.009001 0.000000
# 2 -0.002377 0.005950 -0.003477 0.000000 0.001525 0.000000
# 3 0.003458 -0.003477 0.018273 0.000000 -0.010727 0.000000
# 4 0.000000 0.000000 0.000000 0.025554 0.000000 -0.003578
# 5 -0.009001 0.001525 -0.010727 0.000000 0.028207 0.000000
# 6 0.000000 0.000000 0.000000 -0.003578 0.000000 0.028178
#
#
# Mechanical properties :
#
#
# Convention : Reuss Voigt Hill
#
# Bulk Modulus (GPa) = 25.04757 51.71988 38.38372
# Shear Modulus (GPa) = 34.54137 43.55707 39.04922
#
# Velocity S-wave (km/s) = 3.72198 4.17959 3.95741
# Velocity P-wave (km/s) = 5.34008 6.63587 6.02293
#
# Compressibility (1/GPa) = 0.03992404
#
# Stress axis : x y z
#
# Youngs Moduli (GPa) = 48.79790 168.07509 54.72596
#
# Poissons Ratio (x) = 0.39944 -0.18927
# Poissons Ratio (y) = 0.11597 0.19031
# Poissons Ratio (z) = -0.16876 0.58447
#
# Static dielectric constant tensor:
#      x y z
#    x 2.032910 0.000000 -0.100880 
#    y 0.000000 2.029390 0.000000 
#    z -0.100880 0.000000 1.979050 
# 
# From -- ./inp_files/71278.got.cif
#   From: 2010.05.17/outbox.cif.g08.bks.cpg/sg14_36_cif.got.tgz:71278.got - 2010.06.03 17:49:19.
