data_PCOD9244567
_publ_section_title
;
Structure prediction by ZEFSAII (Michael W. Deem and Ramdas Pophale) SiO2 
 PCOD9244567
Probable space group: P 21/C
;
_chemical_formula_sum "Si O2"
_cell_formula_units_Z 24
_cell_length_a 17.285612
_cell_length_b 6.450073
_cell_length_c 24.700229
_cell_angle_alpha 90.000000
_cell_angle_beta 19.483662
_cell_angle_gamma 90.000000
_cell_volume 918.535096
_symmetry_space_group_name_H-M "P 21/C"
_symmetry_group_IT_number 14
_symmetry_cell_setting 'monoclinic'
loop_
_space_group_symop_operation_xyz
x,y,z
-x,1/2+y,1/2-z
-x,-y,-z
x,1/2-y,1/2+z
loop_
_atom_site_type_symbol
_atom_site_label
_atom_site_fract_x
_atom_site_fract_y
_atom_site_fract_z
Si Si1 0.374782 0.231263 0.039391
Si Si2 0.000712 0.859184 0.560669
Si Si3 0.756941 0.212383 0.372413
Si Si4 0.186313 0.212925 0.510589
Si Si5 0.112890 0.693731 0.101105
Si Si6 0.608038 0.408982 0.275503
O O1 0.292944 0.467893 0.088088
O O2 0.132450 0.116196 0.211554
O O3 0.538082 0.209041 0.983475
O O4 0.517206 0.180199 0.891891
O O5 0.072673 0.097257 0.533475
O O6 0.746984 0.882688 0.702192
O O7 0.028785 0.728801 0.597491
O O8 0.190180 0.794690 0.391875
O O9 0.776561 0.302406 0.420338
O O10 0.982801 0.217596 0.185141
O O11 0.386917 0.385138 0.380760
O O12 0.279835 0.997963 0.475761
#
# Coordination Sequence:
#
# PCOD9244567 Si02
#       6
#     4   4   4   4   4   4
#     4  11  21  35  65  94 126 167 211 272 326 372
#     4   9  23  39  63  91 127 169 218 255 327 393
#     4  11  20  36  63  95 130 161 214 274 321 379
#     4  10  21  39  63  93 126 166 215 264 322 385
#     4  10  20  42  58  98 123 170 223 256 326 390
#     4  11  19  41  63  90 128 170 212 266 313 390
#
# _framework density 26.128558999999999
#
# number of rings (size 3 to 8) (size 9 to 14) (size 15 to 20)
#    1.000    0.667    5.000    0.000    0.000    2.667 
#    6.000    1.667    0.000    3.000    0.000    0.000 
#    0.000    0.000    0.000    0.000    0.000    0.000 
#
# Total GULP energy -133771.531968 kJ/mol
# GULP energy per Si atom -5573.813832 kJ/mol
# Density = 2.606909 g / cm^3
# Si number density = 26.128559 Si / 1000 Ang^3
#
#
#
# Elastic Constant Matrix: (Units=GPa)
#
#
# Indices 1 2 3 4 5 6 
#
# 1 130.7046 8.4107 31.9130 0.0000 8.0208 0.0000
# 2 8.4107 49.5536 24.3375 0.0000 -6.7325 0.0000
# 3 31.9130 24.3375 145.7050 0.0000 5.0673 0.0000
# 4 0.0000 0.0000 0.0000 16.5932 0.0000 -6.1000
# 5 8.0208 -6.7325 5.0673 0.0000 60.7277 0.0000
# 6 0.0000 0.0000 0.0000 -6.1000 0.0000 38.5792
#
#
#
# Elastic Compliance Matrix: (Units=1/GPa)
#
#
# Indices 1 2 3 4 5 6 
#
# 1 0.008158 -0.000723 -0.001631 0.000000 -0.001022 0.000000
# 2 -0.000723 0.022516 -0.003703 0.000000 0.002901 0.000000
# 3 -0.001631 -0.003703 0.007869 0.000000 -0.000852 0.000000
# 4 0.000000 0.000000 0.000000 0.063985 0.000000 0.010117
# 5 -0.001022 0.002901 -0.000852 0.000000 0.016995 0.000000
# 6 0.000000 0.000000 0.000000 0.010117 0.000000 0.027520
#
#
# Mechanical properties :
#
#
# Convention : Reuss Voigt Hill
#
# Bulk Modulus (GPa) = 37.83710 50.58730 44.21220
# Shear Modulus (GPa) = 29.76803 40.60017 35.18410
#
# Velocity S-wave (km/s) = 3.37900 3.94618 3.67355
# Velocity P-wave (km/s) = 5.45308 6.33767 5.91194
#
# Compressibility (1/GPa) = 0.02642909
#
# Stress axis : x y z
#
# Youngs Moduli (GPa) = 122.57666 44.41322 127.08817
#
# Poissons Ratio (x) = 0.03209 0.20723
# Poissons Ratio (y) = 0.08858 0.47067
# Poissons Ratio (z) = 0.19987 0.16448
#
# Static dielectric constant tensor:
#      x y z
#    x 2.084210 0.000000 -0.012660 
#    y 0.000000 2.232980 0.000000 
#    z -0.012660 0.000000 1.996170 
# 
# From -- ./inp_files/74145.got.cif
#   From: 2010.05.17/outbox.cif.g08.bks.cpg/sg14_38_cif.got.tgz:74145.got - 2010.06.03 17:49:19.
