data_PCOD9244917
_publ_section_title
;
Structure prediction by ZEFSAII (Michael W. Deem and Ramdas Pophale) SiO2 
 PCOD9244917
Probable space group: P 21/C
;
_chemical_formula_sum "Si O2"
_cell_formula_units_Z 32
_cell_length_a 11.391268
_cell_length_b 28.451922
_cell_length_c 14.011029
_cell_angle_alpha 90.000000
_cell_angle_beta 159.536684
_cell_angle_gamma 90.000000
_cell_volume 1587.576182
_symmetry_space_group_name_H-M "P 21/C"
_symmetry_group_IT_number 14
_symmetry_cell_setting 'monoclinic'
loop_
_space_group_symop_operation_xyz
x,y,z
-x,1/2+y,1/2-z
-x,-y,-z
x,1/2-y,1/2+z
loop_
_atom_site_type_symbol
_atom_site_label
_atom_site_fract_x
_atom_site_fract_y
_atom_site_fract_z
Si Si1 0.397089 0.447003 0.305079
Si Si2 0.421843 0.204544 0.328719
Si Si3 0.400791 0.944739 0.825691
Si Si4 0.133236 0.278053 0.333110
Si Si5 0.385490 0.181576 0.522418
Si Si6 0.668218 0.142249 0.920172
Si Si7 0.118274 0.203436 0.610714
Si Si8 0.464988 0.354022 0.684086
O O1 0.454426 0.432291 0.459490
O O2 0.500380 0.501661 0.378242
O O3 0.599506 0.411959 0.391954
O O4 0.004061 0.443551 0.980145
O O5 0.459810 0.190043 0.467370
O O6 0.435858 0.158918 0.272393
O O7 0.742639 0.234750 0.537069
O O8 0.114423 0.241477 0.076344
O O9 0.513508 0.906994 0.833386
O O10 0.330844 0.233833 0.523571
O O11 0.152188 0.326606 0.402315
O O12 0.266993 0.289360 0.329983
O O13 0.638208 0.154268 0.784561
O O14 0.017702 0.157212 0.235173
O O15 0.357740 0.171021 0.730396
O O16 0.775937 0.175069 0.372101
#
# Coordination Sequence:
#
# PCOD9244917 Si02
#       8
#     4   4   4   4   4   4   4   4
#     4  10  21  39  62  93 126 145 194 256 311 368
#     4  10  23  40  52  84 120 165 208 244 279 363
#     4  10  21  38  64  95 120 153 190 253 318 358
#     4  10  22  36  57  82 116 162 201 252 291 348
#     4  11  26  37  58  83 121 166 205 236 294 355
#     4  12  22  39  59  87 119 161 192 248 301 361
#     4  10  21  35  55  86 119 150 200 241 304 349
#     4  11  22  36  64  84 120 162 196 253 300 359
#
# _framework density 20.156511999999999
#
# number of rings (size 3 to 8) (size 9 to 14) (size 15 to 20)
#    0.000    1.500    2.500    2.250    8.750    1.000 
#    0.000    0.000    0.000    1.500    0.000    0.000 
#    0.000    0.000    0.000    0.000    0.000    0.000 
#
# Total GULP energy -178556.551946 kJ/mol
# GULP energy per Si atom -5579.892248 kJ/mol
# Density = 2.011063 g / cm^3
# Si number density = 20.156512 Si / 1000 Ang^3
#
#
#
# Elastic Constant Matrix: (Units=GPa)
#
#
# Indices 1 2 3 4 5 6 
#
# 1 81.3522 32.8672 -0.5736 0.0000 -8.9242 0.0000
# 2 32.8672 104.7363 0.3564 0.0000 -7.5933 0.0000
# 3 -0.5736 0.3564 47.2343 0.0000 -7.7979 0.0000
# 4 0.0000 0.0000 0.0000 17.0789 0.0000 -0.2901
# 5 -8.9242 -7.5933 -7.7979 0.0000 26.8127 0.0000
# 6 0.0000 0.0000 0.0000 -0.2901 0.0000 32.9550
#
#
#
# Elastic Compliance Matrix: (Units=1/GPa)
#
#
# Indices 1 2 3 4 5 6 
#
# 1 0.014439 -0.004255 0.000842 0.000000 0.003846 0.000000
# 2 -0.004255 0.011009 0.000154 0.000000 0.001746 0.000000
# 3 0.000842 0.000154 0.022304 0.000000 0.006811 0.000000
# 4 0.000000 0.000000 0.000000 0.058560 0.000000 0.000515
# 5 0.003846 0.001746 0.006811 0.000000 0.041051 0.000000
# 6 0.000000 0.000000 0.000000 0.000515 0.000000 0.030349
#
#
# Mechanical properties :
#
#
# Convention : Reuss Voigt Hill
#
# Bulk Modulus (GPa) = 24.25170 33.18031 28.71601
# Shear Modulus (GPa) = 25.25551 28.74752 27.00151
#
# Velocity S-wave (km/s) = 3.54357 3.78062 3.66402
# Velocity P-wave (km/s) = 5.36660 5.96276 5.67252
#
# Compressibility (1/GPa) = 0.04123422
#
# Stress axis : x y z
#
# Youngs Moduli (GPa) = 69.25595 90.83325 44.83401
#
# Poissons Ratio (x) = 0.38651 -0.03777
# Poissons Ratio (y) = 0.29470 -0.00688
# Poissons Ratio (z) = -0.05834 -0.01395
#
# Static dielectric constant tensor:
#      x y z
#    x 1.773380 0.000000 -0.006670 
#    y 0.000000 1.708420 0.000000 
#    z -0.006670 0.000000 1.782660 
# 
# From -- ./inp_files/45588.got.cif
#   From: 2010.05.17/outbox.cif.g08.bks.cpg/sg14_23_cif.got.tgz:45588.got - 2010.06.03 17:49:19.
