data_PCOD9244830
_publ_section_title
;
Structure prediction by ZEFSAII (Michael W. Deem and Ramdas Pophale) SiO2 
 PCOD9244830
Probable space group: P 21/C
;
_chemical_formula_sum "Si O2"
_cell_formula_units_Z 26
_cell_length_a 5.130681
_cell_length_b 12.068901
_cell_length_c 17.398373
_cell_angle_alpha 90.000000
_cell_angle_beta 70.592352
_cell_angle_gamma 90.000000
_cell_volume 1016.120425
_symmetry_space_group_name_H-M "P 21/C"
_symmetry_group_IT_number 14
_symmetry_cell_setting 'monoclinic'
loop_
_space_group_symop_operation_xyz
x,y,z
-x,1/2+y,1/2-z
-x,-y,-z
x,1/2-y,1/2+z
loop_
_atom_site_type_symbol
_atom_site_label
_atom_site_fract_x
_atom_site_fract_y
_atom_site_fract_z
Si Si1 0.369252 0.485058 0.679408
Si Si2 0.481535 0.087850 0.338940
Si Si3 0.132885 0.393378 0.203152
Si Si4 0.697792 0.821353 0.153278
Si Si5 0.828912 0.803273 0.917946
Si Si6 0.785776 0.248062 0.487635
Si Si7 0.000000 0.500000 0.000000
O O1 0.451475 0.422699 0.749630
O O2 0.618716 0.560505 0.624505
O O3 0.223030 0.405333 0.633523
O O4 0.152718 0.575776 0.730329
O O5 0.493660 0.218266 0.351117
O O6 0.228398 0.040092 0.412943
O O7 0.736967 0.009964 0.336103
O O8 0.314582 0.341740 0.253790
O O9 0.113075 0.307442 0.136917
O O10 0.005021 0.784401 0.099634
O O11 0.080770 0.812044 0.951840
O O12 0.534256 0.779506 0.987057
O O13 0.823817 0.117694 0.501899
#
# Coordination Sequence:
#
# PCOD9244830 Si02
#       7
#     4   4   4   4   4   4   2
#     4  11  26  41  70 101 141 192 234 296 351 438
#     4  10  21  43  66  99 135 181 236 297 353 421
#     4  11  24  42  70 100 137 189 236 297 350 432
#     4  10  25  45  69  99 139 184 242 288 360 426
#     4  12  27  48  73 105 148 186 239 294 362 423
#     4  11  27  47  72 107 144 190 236 299 358 425
#     4  10  20  46  70 104 144 180 240 296 362 404
#
# _framework density 25.587522
#
# number of rings (size 3 to 8) (size 9 to 14) (size 15 to 20)
#    0.000    1.231    3.077    0.923   10.769    1.846 
#    8.308    0.000    0.000    0.000    0.000    0.000 
#    0.000    0.000    0.000    0.000    0.000    0.000 
#
# Total GULP energy -145228.842935 kJ/mol
# GULP energy per Si atom -5585.724728 kJ/mol
# Density = 2.552928 g / cm^3
# Si number density = 25.587522 Si / 1000 Ang^3
#
#
#
# Elastic Constant Matrix: (Units=GPa)
#
#
# Indices 1 2 3 4 5 6 
#
# 1 43.3773 41.2825 9.9244 0.0000 11.1451 0.0000
# 2 41.2825 107.2611 46.2688 0.0000 4.2192 0.0000
# 3 9.9244 46.2688 73.2115 0.0000 6.5514 0.0000
# 4 0.0000 0.0000 0.0000 39.6600 0.0000 -8.7092
# 5 11.1451 4.2192 6.5514 0.0000 36.3378 0.0000
# 6 0.0000 0.0000 0.0000 -8.7092 0.0000 15.0339
#
#
#
# Elastic Compliance Matrix: (Units=1/GPa)
#
#
# Indices 1 2 3 4 5 6 
#
# 1 0.042737 -0.019165 0.007412 0.000000 -0.012219 0.000000
# 2 -0.019165 0.021412 -0.011422 0.000000 0.005451 0.000000
# 3 0.007412 -0.011422 0.020285 0.000000 -0.004604 0.000000
# 4 0.000000 0.000000 0.000000 0.028889 0.000000 0.016736
# 5 -0.012219 0.005451 -0.004604 0.000000 0.031464 0.000000
# 6 0.000000 0.000000 0.000000 0.016736 0.000000 0.076211
#
#
# Mechanical properties :
#
#
# Convention : Reuss Voigt Hill
#
# Bulk Modulus (GPa) = 26.25777 46.53346 36.39562
# Shear Modulus (GPa) = 17.85437 26.63128 22.24282
#
# Velocity S-wave (km/s) = 2.64441 3.22963 2.95156
# Velocity P-wave (km/s) = 4.42810 5.66858 5.08630
#
# Compressibility (1/GPa) = 0.03808396
#
# Stress axis : x y z
#
# Youngs Moduli (GPa) = 23.39895 46.70284 49.29796
#
# Poissons Ratio (x) = 0.89508 -0.36542
# Poissons Ratio (y) = 0.44845 0.56308
# Poissons Ratio (z) = -0.17344 0.53344
#
# Static dielectric constant tensor:
#      x y z
#    x 2.125260 0.000000 0.043640 
#    y 0.000000 1.979500 0.000000 
#    z 0.043640 0.000000 2.025280 
# 
# From -- ./inp_files/53007.got.cif
#   From: 2010.05.17/outbox.cif.g08.bks.cpg/sg14_27_cif.got.tgz:53007.got - 2010.06.03 17:49:19.
