data_PCOD9244188
_publ_section_title
;
Structure prediction by ZEFSAII (Michael W. Deem and Ramdas Pophale) SiO2 
 PCOD9244188
Probable space group: P 21/C
;
_chemical_formula_sum "Si O2"
_cell_formula_units_Z 32
_cell_length_a 14.496001
_cell_length_b 7.895551
_cell_length_c 19.191344
_cell_angle_alpha 90.000000
_cell_angle_beta 39.534533
_cell_angle_gamma 90.000000
_cell_volume 1398.182651
_symmetry_space_group_name_H-M "P 21/C"
_symmetry_group_IT_number 14
_symmetry_cell_setting 'monoclinic'
loop_
_space_group_symop_operation_xyz
x,y,z
-x,1/2+y,1/2-z
-x,-y,-z
x,1/2-y,1/2+z
loop_
_atom_site_type_symbol
_atom_site_label
_atom_site_fract_x
_atom_site_fract_y
_atom_site_fract_z
Si Si1 0.582979 0.664804 0.618991
Si Si2 0.694721 0.657687 0.924924
Si Si3 0.721324 0.413327 0.249300
Si Si4 0.698759 0.165935 0.520802
Si Si5 0.411817 0.827911 0.038045
Si Si6 0.077233 0.830168 0.485998
Si Si7 0.582025 0.522757 0.759773
Si Si8 0.819925 0.697481 0.709842
O O1 0.687090 0.709793 0.493947
O O2 0.441500 0.557909 0.682299
O O3 0.651205 0.572274 0.645344
O O4 0.502098 0.844787 0.684196
O O5 0.818080 0.671400 0.794322
O O6 0.703652 0.481097 0.959642
O O7 0.540757 0.691301 0.975026
O O8 0.703739 0.317648 0.332459
O O9 0.809403 0.301228 0.142489
O O10 0.780518 0.602431 0.225350
O O11 0.671436 0.324364 0.486382
O O12 0.829586 0.143012 0.497936
O O13 0.553139 0.149094 0.650276
O O14 0.500000 0.000000 0.000000
O O15 0.961654 0.690957 0.578229
O O16 0.000000 0.000000 0.500000
O O17 0.698890 0.572499 0.749519
#
# Coordination Sequence:
#
# PCOD9244188 Si02
#       8
#     4   4   4   4   4   4   4   4
#     4  10  22  34  63  95 122 156 207 266 329 374
#     4  10  22  37  62  97 125 161 212 271 326 385
#     4  10  20  40  62  88 131 166 210 260 331 384
#     4  11  22  41  67  92 129 175 217 261 332 400
#     4  11  20  37  66 103 130 160 211 285 329 372
#     4  10  24  44  66  86 128 185 219 253 324 402
#     4  11  21  37  65  94 123 161 216 271 320 388
#     4  11  22  41  63  88 127 168 214 267 316 392
#
# _framework density 22.886852000000001
#
# number of rings (size 3 to 8) (size 9 to 14) (size 15 to 20)
#    0.000    1.500    3.750    1.125    8.750    1.000 
#    4.500    0.625    0.000    1.500    0.000    0.000 
#    0.000    0.000    0.000    0.000    0.000    0.000 
#
# Total GULP energy -178477.962203 kJ/mol
# GULP energy per Si atom -5577.436319 kJ/mol
# Density = 2.283476 g / cm^3
# Si number density = 22.886852 Si / 1000 Ang^3
#
#
#
# Elastic Constant Matrix: (Units=GPa)
#
#
# Indices 1 2 3 4 5 6 
#
# 1 115.1657 22.3168 26.8867 0.0000 21.5265 0.0000
# 2 22.3168 61.7683 15.7952 0.0000 2.1183 0.0000
# 3 26.8867 15.7952 112.4342 0.0000 34.7625 0.0000
# 4 0.0000 0.0000 0.0000 19.9241 0.0000 11.3698
# 5 21.5265 2.1183 34.7625 0.0000 37.6720 0.0000
# 6 0.0000 0.0000 0.0000 11.3698 0.0000 28.1173
#
#
#
# Elastic Compliance Matrix: (Units=1/GPa)
#
#
# Indices 1 2 3 4 5 6 
#
# 1 0.010463 -0.003513 -0.000309 0.000000 -0.005496 0.000000
# 2 -0.003513 0.018053 -0.002802 0.000000 0.003578 0.000000
# 3 -0.000309 -0.002802 0.012954 0.000000 -0.011619 0.000000
# 4 0.000000 0.000000 0.000000 0.065246 0.000000 -0.026384
# 5 -0.005496 0.003578 -0.011619 0.000000 0.040206 0.000000
# 6 0.000000 0.000000 0.000000 -0.026384 0.000000 0.046234
#
#
# Mechanical properties :
#
#
# Convention : Reuss Voigt Hill
#
# Bulk Modulus (GPa) = 35.43445 46.59616 41.01530
# Shear Modulus (GPa) = 23.16822 32.10066 27.63444
#
# Velocity S-wave (km/s) = 3.18511 3.74917 3.47859
# Velocity P-wave (km/s) = 5.38912 6.25661 5.83900
#
# Compressibility (1/GPa) = 0.02822113
#
# Stress axis : x y z
#
# Youngs Moduli (GPa) = 95.57151 55.39368 77.19477
#
# Poissons Ratio (x) = 0.19459 0.02388
# Poissons Ratio (y) = 0.33572 0.21633
# Poissons Ratio (z) = 0.02957 0.15523
#
# Static dielectric constant tensor:
#      x y z
#    x 1.907600 0.000000 0.052860 
#    y 0.000000 1.989630 0.000000 
#    z 0.052860 0.000000 1.927610 
# 
# From -- ./inp_files/68209.got.cif
#   From: 2010.05.17/outbox.cif.g08.bks.cpg/sg14_35_cif.got.tgz:68209.got - 2010.06.03 17:49:19.
