data_PCOD9244843
_publ_section_title
;
Structure prediction by ZEFSAII (Michael W. Deem and Ramdas Pophale) SiO2 
 PCOD9244843
Probable space group: P 21/C
;
_chemical_formula_sum "Si O2"
_cell_formula_units_Z 22
_cell_length_a 5.374887
_cell_length_b 18.962411
_cell_length_c 8.339360
_cell_angle_alpha 90.000000
_cell_angle_beta 93.696955
_cell_angle_gamma 90.000000
_cell_volume 848.185664
_symmetry_space_group_name_H-M "P 21/C"
_symmetry_group_IT_number 14
_symmetry_cell_setting 'monoclinic'
loop_
_space_group_symop_operation_xyz
x,y,z
-x,1/2+y,1/2-z
-x,-y,-z
x,1/2-y,1/2+z
loop_
_atom_site_type_symbol
_atom_site_label
_atom_site_fract_x
_atom_site_fract_y
_atom_site_fract_z
Si Si1 0.273556 0.520981 0.669632
Si Si2 0.927850 0.662999 0.103210
Si Si3 0.000000 0.500000 0.000000
Si Si4 0.435984 0.151070 0.847056
Si Si5 0.412062 0.728404 0.963927
Si Si6 0.935239 0.884624 0.948281
O O1 0.514198 0.570327 0.704161
O O2 0.285614 0.439749 0.617086
O O3 0.146337 0.562153 0.516180
O O4 0.120556 0.523208 0.827902
O O5 0.977507 0.662277 0.295706
O O6 0.941272 0.582597 0.042672
O O7 0.653518 0.693915 0.062145
O O8 0.150780 0.702228 0.021701
O O9 0.538728 0.200175 0.711535
O O10 0.564714 0.188051 0.006534
O O11 0.151359 0.154117 0.893419
#
# Coordination Sequence:
#
# PCOD9244843 Si02
#       6
#     4   4   2   4   4   4
#     4  10  22  44  73 106 142 190 246 306 364 426
#     4  11  26  48  73 112 139 198 236 310 355 442
#     4  10  20  48  74 108 144 188 250 306 364 420
#     4  12  26  45  70 104 144 196 236 304 357 446
#     4  12  29  46  75 104 152 189 247 289 371 436
#     4  10  24  44  73 104 147 183 250 297 372 420
#
# _framework density 25.937718
#
# number of rings (size 3 to 8) (size 9 to 14) (size 15 to 20)
#    0.000    1.091    1.818    2.727    7.636    0.727 
#    9.818    0.000    0.000    0.000    0.000    0.000 
#    0.000    0.000    0.000    0.000    0.000    0.000 
#
# Total GULP energy -122518.164964 kJ/mol
# GULP energy per Si atom -5569.007498 kJ/mol
# Density = 2.587868 g / cm^3
# Si number density = 25.937718 Si / 1000 Ang^3
#
#
#
# Elastic Constant Matrix: (Units=GPa)
#
#
# Indices 1 2 3 4 5 6 
#
# 1 74.0489 23.6529 42.4408 0.0000 -5.7489 0.0000
# 2 23.6529 110.1330 18.0131 0.0000 -26.6643 0.0000
# 3 42.4408 18.0131 175.2355 0.0000 -39.4038 0.0000
# 4 0.0000 0.0000 0.0000 45.4416 0.0000 -7.0059
# 5 -5.7489 -26.6643 -39.4038 0.0000 29.1064 0.0000
# 6 0.0000 0.0000 0.0000 -7.0059 0.0000 21.8756
#
#
#
# Elastic Compliance Matrix: (Units=1/GPa)
#
#
# Indices 1 2 3 4 5 6 
#
# 1 0.017733 -0.005026 -0.005788 0.000000 -0.008937 0.000000
# 2 -0.005026 0.013469 0.003427 0.000000 0.015986 0.000000
# 3 -0.005788 0.003427 0.010358 0.000000 0.016019 0.000000
# 4 0.000000 0.000000 0.000000 0.023149 0.000000 0.007414
# 5 -0.008937 0.015986 0.016019 0.000000 0.068923 0.000000
# 6 0.000000 0.000000 0.000000 0.007414 0.000000 0.048087
#
#
# Mechanical properties :
#
#
# Convention : Reuss Voigt Hill
#
# Bulk Modulus (GPa) = 37.32947 58.62567 47.97757
# Shear Modulus (GPa) = 24.34008 37.63875 30.98942
#
# Velocity S-wave (km/s) = 3.06666 3.81349 3.46028
# Velocity P-wave (km/s) = 5.19254 6.48397 5.87385
#
# Compressibility (1/GPa) = 0.02678849
#
# Stress axis : x y z
#
# Youngs Moduli (GPa) = 56.39104 74.24387 96.54158
#
# Poissons Ratio (x) = 0.37312 0.55877
# Poissons Ratio (y) = 0.28340 -0.33088
# Poissons Ratio (z) = 0.32638 -0.25446
#
# Static dielectric constant tensor:
#      x y z
#    x 2.213000 0.000000 0.080630 
#    y 0.000000 2.063740 0.000000 
#    z 0.080630 0.000000 2.051790 
# 
# From -- ./inp_files/5913.got.cif
#   From: 2010.05.17/outbox.cif.g08.bks.cpg/sg14_3_cif.got.tgz:5913.got - 2010.06.03 17:49:19.
