data_PCOD9244267
_publ_section_title
;
Structure prediction by ZEFSAII (Michael W. Deem and Ramdas Pophale) SiO2 
 PCOD9244267
Probable space group: P 21/C
;
_chemical_formula_sum "Si O2"
_cell_formula_units_Z 32
_cell_length_a 8.519620
_cell_length_b 21.133788
_cell_length_c 17.640441
_cell_angle_alpha 90.000000
_cell_angle_beta 147.549526
_cell_angle_gamma 90.000000
_cell_volume 1704.251597
_symmetry_space_group_name_H-M "P 21/C"
_symmetry_group_IT_number 14
_symmetry_cell_setting 'monoclinic'
loop_
_space_group_symop_operation_xyz
x,y,z
-x,1/2+y,1/2-z
-x,-y,-z
x,1/2-y,1/2+z
loop_
_atom_site_type_symbol
_atom_site_label
_atom_site_fract_x
_atom_site_fract_y
_atom_site_fract_z
Si Si1 0.803189 0.932000 0.234218
Si Si2 0.749202 0.128504 0.943829
Si Si3 0.984371 0.425408 0.007302
Si Si4 0.507797 0.254774 0.927671
Si Si5 0.358802 0.377580 0.771481
Si Si6 0.251364 0.004972 0.334093
Si Si7 0.063987 0.693646 0.769974
Si Si8 0.590870 0.383745 0.203824
O O1 0.455936 0.926333 0.102982
O O2 0.944604 0.919955 0.374396
O O3 0.918350 0.873045 0.232881
O O4 0.944187 0.992561 0.251450
O O5 0.618799 0.193978 0.925115
O O6 0.706553 0.122497 0.836603
O O7 0.084643 0.124066 0.104033
O O8 0.239770 0.389231 0.066794
O O9 0.662204 0.400672 0.858716
O O10 0.000000 0.500000 0.000000
O O11 0.420698 0.310208 0.834713
O O12 0.216527 0.237815 0.856921
O O13 0.757372 0.278579 0.086290
O O14 0.280206 0.428274 0.804790
O O15 0.500000 0.000000 0.500000
O O16 0.309132 0.949227 0.296141
O O17 0.285402 0.675164 0.793490
#
# Coordination Sequence:
#
# PCOD9244267 Si02
#       8
#     4   4   4   4   4   4   4   4
#     4   9  19  37  61  86 125 163 198 252 323 356
#     4  10  24  40  61  92 128 174 204 255 332 377
#     4  11  19  36  61  92 119 161 203 250 305 379
#     4  11  21  42  64  88 118 163 223 259 306 378
#     4  12  22  37  68  92 122 166 219 254 311 391
#     4  11  19  37  68  97 124 163 215 260 306 379
#     4  10  20  40  65  84 117 161 207 264 305 363
#     4  10  22  41  61  90 132 161 201 263 328 361
#
# _framework density 18.776571000000001
#
# number of rings (size 3 to 8) (size 9 to 14) (size 15 to 20)
#    0.000    1.500    5.000    0.750    0.000    1.000 
#    4.500    0.000    5.500    0.000    0.000    0.000 
#    0.000    0.000    0.000    0.000    0.000    0.000 
#
# Total GULP energy -178529.549840 kJ/mol
# GULP energy per Si atom -5579.048433 kJ/mol
# Density = 1.873383 g / cm^3
# Si number density = 18.776571 Si / 1000 Ang^3
#
#
#
# Elastic Constant Matrix: (Units=GPa)
#
#
# Indices 1 2 3 4 5 6 
#
# 1 102.2598 27.2863 39.0626 0.0000 16.2026 0.0000
# 2 27.2863 58.1468 27.0147 0.0000 10.0667 0.0000
# 3 39.0626 27.0147 113.2862 0.0000 21.3025 0.0000
# 4 0.0000 0.0000 0.0000 16.7758 0.0000 -1.4685
# 5 16.2026 10.0667 21.3025 0.0000 34.4160 0.0000
# 6 0.0000 0.0000 0.0000 -1.4685 0.0000 32.9607
#
#
#
# Elastic Compliance Matrix: (Units=1/GPa)
#
#
# Indices 1 2 3 4 5 6 
#
# 1 0.012369 -0.004015 -0.002754 0.000000 -0.002944 0.000000
# 2 -0.004015 0.020955 -0.003186 0.000000 -0.002267 0.000000
# 3 -0.002754 -0.003186 0.011450 0.000000 -0.004859 0.000000
# 4 0.000000 0.000000 0.000000 0.059843 0.000000 0.002666
# 5 -0.002944 -0.002267 -0.004859 0.000000 0.034113 0.000000
# 6 0.000000 0.000000 0.000000 0.002666 0.000000 0.030458
#
#
# Mechanical properties :
#
#
# Convention : Reuss Voigt Hill
#
# Bulk Modulus (GPa) = 40.21979 51.15777 45.68878
# Shear Modulus (GPa) = 25.33108 28.85243 27.09175
#
# Velocity S-wave (km/s) = 3.67697 3.92423 3.80261
# Velocity P-wave (km/s) = 6.28438 6.91646 6.60798
#
# Compressibility (1/GPa) = 0.02486338
#
# Stress axis : x y z
#
# Youngs Moduli (GPa) = 80.84842 47.72177 87.33432
#
# Poissons Ratio (x) = 0.19161 0.24051
# Poissons Ratio (y) = 0.32462 0.27827
# Poissons Ratio (z) = 0.22264 0.15205
#
# Static dielectric constant tensor:
#      x y z
#    x 1.669850 0.000000 0.032740 
#    y 0.000000 1.646160 0.000000 
#    z 0.032740 0.000000 1.637820 
# 
# From -- ./inp_files/56243.got.cif
#   From: 2010.05.17/outbox.cif.g08.bks.cpg/sg14_29_cif.got.tgz:56243.got - 2010.06.03 17:49:19.
