data_PCOD9244900
_publ_section_title
;
Structure prediction by ZEFSAII (Michael W. Deem and Ramdas Pophale) SiO2 
 PCOD9244900
Probable space group: P 21/C
;
_chemical_formula_sum "Si O2"
_cell_formula_units_Z 28
_cell_length_a 8.202128
_cell_length_b 10.402041
_cell_length_c 15.054972
_cell_angle_alpha 90.000000
_cell_angle_beta 125.973084
_cell_angle_gamma 90.000000
_cell_volume 1039.515229
_symmetry_space_group_name_H-M "P 21/C"
_symmetry_group_IT_number 14
_symmetry_cell_setting 'monoclinic'
loop_
_space_group_symop_operation_xyz
x,y,z
-x,1/2+y,1/2-z
-x,-y,-z
x,1/2-y,1/2+z
loop_
_atom_site_type_symbol
_atom_site_label
_atom_site_fract_x
_atom_site_fract_y
_atom_site_fract_z
Si Si1 0.391643 0.632280 0.052665
Si Si2 0.442898 0.430793 0.604861
Si Si3 0.883033 0.996238 0.869868
Si Si4 0.980455 0.254783 0.144598
Si Si5 0.694464 0.669575 0.617655
Si Si6 0.796005 0.595948 0.926058
Si Si7 0.627090 0.272709 0.263601
O O1 0.611095 0.685943 0.100511
O O2 0.332967 0.483815 0.041378
O O3 0.352508 0.696757 0.137093
O O4 0.245008 0.698008 0.935055
O O5 0.329861 0.441991 0.662123
O O6 0.528696 0.566653 0.600091
O O7 0.299158 0.368198 0.483853
O O8 0.621525 0.333922 0.684949
O O9 0.992910 0.898248 0.839852
O O10 0.816668 0.134018 0.813951
O O11 0.000000 0.000000 0.000000
O O12 0.112082 0.332058 0.257965
O O13 0.074267 0.288752 0.076988
O O14 0.583725 0.647799 0.809074
O O15 0.000000 0.500000 0.000000
#
# Coordination Sequence:
#
# PCOD9244900 Si02
#       7
#     4   4   4   4   4   4   4
#     4  11  21  37  64  94 118 172 214 259 328 373
#     4  11  24  40  66  97 123 180 207 257 336 377
#     4  12  22  40  66  95 125 160 225 269 311 372
#     4  11  20  39  65  92 127 167 213 272 318 378
#     4  11  22  43  63  88 143 167 207 257 325 413
#     4  10  21  34  62  93 122 157 220 269 308 366
#     4  12  20  38  65  92 125 159 219 268 305 376
#
# _framework density 26.935632999999999
#
# number of rings (size 3 to 8) (size 9 to 14) (size 15 to 20)
#    0.000    0.857    5.714    2.571    0.000    0.000 
#    2.571    2.857    9.429    0.000    0.000    0.000 
#    0.000    0.000    0.000    0.000    0.000    0.000 
#
# Total GULP energy -155979.097386 kJ/mol
# GULP energy per Si atom -5570.682049 kJ/mol
# Density = 2.687433 g / cm^3
# Si number density = 26.935633 Si / 1000 Ang^3
#
#
#
# Elastic Constant Matrix: (Units=GPa)
#
#
# Indices 1 2 3 4 5 6 
#
# 1 49.3542 14.5588 12.1551 0.0000 -8.7936 0.0000
# 2 14.5588 88.4155 40.5315 0.0000 -14.4489 0.0000
# 3 12.1551 40.5315 147.4139 0.0000 23.8566 0.0000
# 4 0.0000 0.0000 0.0000 61.8325 0.0000 5.0351
# 5 -8.7936 -14.4489 23.8566 0.0000 42.4486 0.0000
# 6 0.0000 0.0000 0.0000 5.0351 0.0000 28.2523
#
#
#
# Elastic Compliance Matrix: (Units=1/GPa)
#
#
# Indices 1 2 3 4 5 6 
#
# 1 0.022264 -0.001812 -0.002183 0.000000 0.005222 0.000000
# 2 -0.001812 0.015337 -0.005337 0.000000 0.007845 0.000000
# 3 -0.002183 -0.005337 0.009679 0.000000 -0.007708 0.000000
# 4 0.000000 0.000000 0.000000 0.016411 0.000000 -0.002925
# 5 0.005222 0.007845 -0.007708 0.000000 0.031642 0.000000
# 6 0.000000 0.000000 0.000000 -0.002925 0.000000 0.035917
#
#
# Mechanical properties :
#
#
# Convention : Reuss Voigt Hill
#
# Bulk Modulus (GPa) = 34.94526 46.63049 40.78788
# Shear Modulus (GPa) = 31.35735 41.03589 36.19662
#
# Velocity S-wave (km/s) = 3.41568 3.90741 3.66979
# Velocity P-wave (km/s) = 5.34393 6.14057 5.75605
#
# Compressibility (1/GPa) = 0.02861618
#
# Stress axis : x y z
#
# Youngs Moduli (GPa) = 44.91505 65.20070 103.32170
#
# Poissons Ratio (x) = 0.11815 0.22552
# Poissons Ratio (y) = 0.08139 0.55144
# Poissons Ratio (z) = 0.09804 0.34798
#
# Static dielectric constant tensor:
#      x y z
#    x 2.247680 0.000000 0.013220 
#    y 0.000000 2.177940 0.000000 
#    z 0.013220 0.000000 2.148660 
# 
# From -- ./inp_files/57618.got.cif
#   From: 2010.05.17/outbox.cif.g08.bks.cpg/sg14_29_cif.got.tgz:57618.got - 2010.06.03 17:49:19.
