data_PCOD9244508
_publ_section_title
;
Structure prediction by ZEFSAII (Michael W. Deem and Ramdas Pophale) SiO2 
 PCOD9244508
Probable space group: P 21/C
;
_chemical_formula_sum "Si O2"
_cell_formula_units_Z 24
_cell_length_a 7.791833
_cell_length_b 14.358991
_cell_length_c 14.782812
_cell_angle_alpha 90.000000
_cell_angle_beta 137.226645
_cell_angle_gamma 90.000000
_cell_volume 1123.192909
_symmetry_space_group_name_H-M "P 21/C"
_symmetry_group_IT_number 14
_symmetry_cell_setting 'monoclinic'
loop_
_space_group_symop_operation_xyz
x,y,z
-x,1/2+y,1/2-z
-x,-y,-z
x,1/2-y,1/2+z
loop_
_atom_site_type_symbol
_atom_site_label
_atom_site_fract_x
_atom_site_fract_y
_atom_site_fract_z
Si Si1 0.294118 0.514216 0.733175
Si Si2 0.467306 0.869649 0.928667
Si Si3 0.796533 0.101707 0.474391
Si Si4 0.555399 0.341968 0.058393
Si Si5 0.244189 0.953924 0.011906
Si Si6 0.990452 0.915215 0.624457
O O1 0.546458 0.452510 0.841686
O O2 0.299306 0.589708 0.815925
O O3 0.289467 0.565663 0.634420
O O4 0.046430 0.449232 0.631844
O O5 0.495944 0.760706 0.924732
O O6 0.423714 0.894472 0.016777
O O7 0.212777 0.899991 0.779712
O O8 0.683712 0.937186 0.975494
O O9 0.703696 0.164881 0.520979
O O10 0.941984 0.139225 0.442794
O O11 0.971555 0.022539 0.587230
O O12 0.280204 0.388330 0.940021
#
# Coordination Sequence:
#
# PCOD9244508 Si02
#       6
#     4   4   4   4   4   4
#     4  10  20  42  65  88 119 164 207 248 306 367
#     4  11  23  40  58  92 125 161 203 250 308 368
#     4  10  20  41  67  89 116 163 208 251 304 363
#     4  11  24  38  63  95 122 157 206 263 299 356
#     4  10  22  40  64  85 127 169 198 245 313 374
#     4  10  21  41  64  87 121 161 203 253 304 362
#
# _framework density 21.367656
#
# number of rings (size 3 to 8) (size 9 to 14) (size 15 to 20)
#    0.000    1.667    1.667    4.000    2.333    1.333 
#    3.000    0.000    0.000    0.000    0.000    0.000 
#    0.000    0.000    0.000    0.000    0.000    0.000 
#
# Total GULP energy -134055.119006 kJ/mol
# GULP energy per Si atom -5585.629959 kJ/mol
# Density = 2.131902 g / cm^3
# Si number density = 21.367656 Si / 1000 Ang^3
#
#
#
# Elastic Constant Matrix: (Units=GPa)
#
#
# Indices 1 2 3 4 5 6 
#
# 1 86.4524 -13.6624 1.3434 0.0000 -20.2003 0.0000
# 2 -13.6624 34.9075 4.8130 0.0000 0.5335 0.0000
# 3 1.3434 4.8130 69.6371 0.0000 -4.0479 0.0000
# 4 0.0000 0.0000 0.0000 3.1969 0.0000 3.3462
# 5 -20.2003 0.5335 -4.0479 0.0000 28.5522 0.0000
# 6 0.0000 0.0000 0.0000 3.3462 0.0000 10.8408
#
#
#
# Elastic Compliance Matrix: (Units=1/GPa)
#
#
# Indices 1 2 3 4 5 6 
#
# 1 0.014903 0.005684 -0.000074 0.000000 0.010427 0.000000
# 2 0.005684 0.031110 -0.002077 0.000000 0.003145 0.000000
# 3 -0.000074 -0.002077 0.014625 0.000000 0.002060 0.000000
# 4 0.000000 0.000000 0.000000 0.462093 0.000000 -0.142634
# 5 0.010427 0.003145 0.002060 0.000000 0.042633 0.000000
# 6 0.000000 0.000000 0.000000 -0.142634 0.000000 0.136271
#
#
# Mechanical properties :
#
#
# Convention : Reuss Voigt Hill
#
# Bulk Modulus (GPa) = 14.77056 19.55390 17.16223
# Shear Modulus (GPa) = 6.97216 21.75152 14.36184
#
# Velocity S-wave (km/s) = 1.80832 3.19402 2.59536
# Velocity P-wave (km/s) = 3.35971 4.77214 4.12680
#
# Compressibility (1/GPa) = 0.06770223
#
# Stress axis : x y z
#
# Youngs Moduli (GPa) = 67.10198 32.14407 68.37664
#
# Poissons Ratio (x) = -0.18269 0.00508
# Poissons Ratio (y) = -0.38138 0.14202
# Poissons Ratio (z) = 0.00498 0.06676
#
# Static dielectric constant tensor:
#      x y z
#    x 1.844620 0.000000 -0.025730 
#    y 0.000000 1.773560 0.000000 
#    z -0.025730 0.000000 1.745180 
# 
# From -- ./inp_files/41325.got.cif
#   From: 2010.05.17/outbox.cif.g08.bks.cpg/sg14_21_cif.got.tgz:41325.got - 2010.06.03 17:49:19.
