data_PCOD9244235
_publ_section_title
;
Structure prediction by ZEFSAII (Michael W. Deem and Ramdas Pophale) SiO2 
 PCOD9244235
Probable space group: P 21/C
;
_chemical_formula_sum "Si O2"
_cell_formula_units_Z 18
_cell_length_a 9.889919
_cell_length_b 12.078349
_cell_length_c 9.625153
_cell_angle_alpha 90.000000
_cell_angle_beta 31.214909
_cell_angle_gamma 90.000000
_cell_volume 595.863658
_symmetry_space_group_name_H-M "P 21/C"
_symmetry_group_IT_number 14
_symmetry_cell_setting 'monoclinic'
loop_
_space_group_symop_operation_xyz
x,y,z
-x,1/2+y,1/2-z
-x,-y,-z
x,1/2-y,1/2+z
loop_
_atom_site_type_symbol
_atom_site_label
_atom_site_fract_x
_atom_site_fract_y
_atom_site_fract_z
Si Si1 0.000000 0.500000 0.000000
Si Si2 0.281286 0.084105 0.516252
Si Si3 0.312540 0.748848 0.359098
Si Si4 0.087412 0.636298 0.316521
Si Si5 0.384346 0.434603 0.441328
O O1 0.055450 0.428314 0.101795
O O2 0.233335 0.434082 0.715099
O O3 0.221597 0.984957 0.677889
O O4 0.409734 0.201130 0.440580
O O5 0.539523 0.046712 0.201100
O O6 0.099489 0.681445 0.461188
O O7 0.327518 0.877925 0.289756
O O8 0.243574 0.779335 0.577447
O O9 0.797569 0.624687 0.512988
#
# Coordination Sequence:
#
# PCOD9244235 Si02
#       5
#     2   4   4   4   4
#     4  10  20  40  64  90 124 164 202 250 310 366
#     4  10  22  39  63  89 125 163 204 255 306 364
#     4  11  23  41  63  91 125 163 206 256 305 365
#     4  10  24  40  61  92 123 162 207 252 310 365
#     4  10  23  39  60  92 123 160 207 251 305 368
#
# _framework density 30.208252999999999
#
# number of rings (size 3 to 8) (size 9 to 14) (size 15 to 20)
#    0.000    1.778    0.000    2.667    0.000   16.889 
#    0.000    0.000    0.000    0.000    0.000    0.000 
#    0.000    0.000    0.000    0.000    0.000    0.000 
#
# Total GULP energy -100417.912327 kJ/mol
# GULP energy per Si atom -5578.772907 kJ/mol
# Density = 3.013950 g / cm^3
# Si number density = 30.208253 Si / 1000 Ang^3
#
#
#
# Elastic Constant Matrix: (Units=GPa)
#
#
# Indices 1 2 3 4 5 6 
#
# 1 121.1104 16.4355 -31.5469 0.0000 -0.4544 0.0000
# 2 16.4355 95.7606 9.8164 0.0000 5.2356 0.0000
# 3 -31.5469 9.8164 109.1293 0.0000 -5.7184 0.0000
# 4 0.0000 0.0000 0.0000 76.2400 0.0000 -0.8138
# 5 -0.4544 5.2356 -5.7184 0.0000 36.4783 0.0000
# 6 0.0000 0.0000 0.0000 -0.8138 0.0000 43.2570
#
#
#
# Elastic Compliance Matrix: (Units=1/GPa)
#
#
# Indices 1 2 3 4 5 6 
#
# 1 0.009278 -0.001936 0.002901 0.000000 0.000848 0.000000
# 2 -0.001936 0.011046 -0.001651 0.000000 -0.001868 0.000000
# 3 0.002901 -0.001651 0.010249 0.000000 0.001880 0.000000
# 4 0.000000 0.000000 0.000000 0.013119 0.000000 0.000247
# 5 0.000848 -0.001868 0.001880 0.000000 0.027987 0.000000
# 6 0.000000 0.000000 0.000000 0.000247 0.000000 0.023122
#
#
# Mechanical properties :
#
#
# Convention : Reuss Voigt Hill
#
# Bulk Modulus (GPa) = 34.24583 35.04558 34.64570
# Shear Modulus (GPa) = 47.21021 53.28138 50.24580
#
# Velocity S-wave (km/s) = 3.95755 4.20432 4.08280
# Velocity P-wave (km/s) = 5.67839 5.93253 5.80685
#
# Compressibility (1/GPa) = 0.02920064
#
# Stress axis : x y z
#
# Youngs Moduli (GPa) = 107.77629 90.52679 97.57009
#
# Poissons Ratio (x) = 0.17528 -0.28303
# Poissons Ratio (y) = 0.20868 0.16111
# Poissons Ratio (z) = -0.31264 0.14948
#
# Static dielectric constant tensor:
#      x y z
#    x 2.172110 0.000000 0.063000 
#    y 0.000000 2.379690 0.000000 
#    z 0.063000 0.000000 2.069710 
# 
# From -- ./inp_files/30113.got.cif
#   From: 2010.05.17/outbox.cif.g08.bks.cpg/sg14_16_cif.got.tgz:30113.got - 2010.06.03 17:49:19.
