data_PCOD9244198
_publ_section_title
;
Structure prediction by ZEFSAII (Michael W. Deem and Ramdas Pophale) SiO2 
 PCOD9244198
Probable space group: P 21/C
;
_chemical_formula_sum "Si O2"
_cell_formula_units_Z 32
_cell_length_a 14.870787
_cell_length_b 9.482977
_cell_length_c 22.215257
_cell_angle_alpha 90.000000
_cell_angle_beta 25.654147
_cell_angle_gamma 90.000000
_cell_volume 1356.299260
_symmetry_space_group_name_H-M "P 21/C"
_symmetry_group_IT_number 14
_symmetry_cell_setting 'monoclinic'
loop_
_space_group_symop_operation_xyz
x,y,z
-x,1/2+y,1/2-z
-x,-y,-z
x,1/2-y,1/2+z
loop_
_atom_site_type_symbol
_atom_site_label
_atom_site_fract_x
_atom_site_fract_y
_atom_site_fract_z
Si Si1 0.206525 0.266008 0.523435
Si Si2 0.577069 0.633695 0.898462
Si Si3 0.600849 0.426354 0.231737
Si Si4 0.237052 0.063787 0.595808
Si Si5 0.662213 0.928962 0.815231
Si Si6 0.735051 0.363107 0.612908
Si Si7 0.796954 0.977413 0.867407
Si Si8 0.898013 0.441775 0.646103
O O1 0.408496 0.332137 0.371776
O O2 0.252007 0.110454 0.517811
O O3 0.168608 0.344678 0.609851
O O4 0.008637 0.300611 0.602777
O O5 0.630213 0.655107 0.936413
O O6 0.654545 0.761092 0.810966
O O7 0.713322 0.498750 0.798078
O O8 0.338230 0.591562 0.037125
O O9 0.714760 0.486497 0.222852
O O10 0.482351 0.559834 0.273170
O O11 0.723345 0.307952 0.119032
O O12 0.998672 0.070062 0.758358
O O13 0.788189 0.957587 0.800545
O O14 0.423453 0.962908 0.977954
O O15 0.801675 0.410517 0.639553
O O16 0.919074 0.439150 0.463754
#
# Coordination Sequence:
#
# PCOD9244198 Si02
#       8
#     4   4   4   4   4   4   4   4
#     4  10  20  40  62  92 130 169 212 258 324 390
#     4  11  23  38  60 100 129 178 215 264 322 397
#     4  10  23  43  67  93 122 171 219 279 335 382
#     4  11  23  35  63  96 136 173 217 259 312 410
#     4  10  23  39  63  89 136 167 214 266 331 392
#     4  10  23  44  69  91 122 173 224 284 331 386
#     4  10  21  39  58  93 129 175 201 258 318 394
#     4  10  22  42  68  90 130 171 220 272 336 381
#
# _framework density 23.593613999999999
#
# number of rings (size 3 to 8) (size 9 to 14) (size 15 to 20)
#    0.000    1.750    2.500    0.750    5.250    0.000 
#    0.000    0.625    0.000    0.000    0.000    0.000 
#    0.000    0.000    0.000    0.000    0.000    0.000 
#
# Total GULP energy -178599.570349 kJ/mol
# GULP energy per Si atom -5581.236573 kJ/mol
# Density = 2.353991 g / cm^3
# Si number density = 23.593614 Si / 1000 Ang^3
#
#
#
# Elastic Constant Matrix: (Units=GPa)
#
#
# Indices 1 2 3 4 5 6 
#
# 1 100.9121 19.9876 14.2010 0.0000 -7.0587 0.0000
# 2 19.9876 65.7091 3.3910 0.0000 -1.4359 0.0000
# 3 14.2010 3.3910 35.9604 0.0000 -4.6702 0.0000
# 4 0.0000 0.0000 0.0000 19.6516 0.0000 5.5376
# 5 -7.0587 -1.4359 -4.6702 0.0000 18.9498 0.0000
# 6 0.0000 0.0000 0.0000 5.5376 0.0000 39.3192
#
#
#
# Elastic Compliance Matrix: (Units=1/GPa)
#
#
# Indices 1 2 3 4 5 6 
#
# 1 0.011279 -0.003171 -0.003761 0.000000 0.003034 0.000000
# 2 -0.003171 0.016197 -0.000278 0.000000 -0.000022 0.000000
# 3 -0.003761 -0.000278 0.030099 0.000000 0.005996 0.000000
# 4 0.000000 0.000000 0.000000 0.052989 0.000000 -0.007463
# 5 0.003034 -0.000022 0.005996 0.000000 0.055377 0.000000
# 6 0.000000 0.000000 0.000000 -0.007463 0.000000 0.026484
#
#
# Mechanical properties :
#
#
# Convention : Reuss Voigt Hill
#
# Bulk Modulus (GPa) = 23.17237 30.86011 27.01624
# Shear Modulus (GPa) = 22.60094 26.58426 24.59260
#
# Velocity S-wave (km/s) = 3.09840 3.36036 3.23203
# Velocity P-wave (km/s) = 4.75845 5.30700 5.04020
#
# Compressibility (1/GPa) = 0.04315484
#
# Stress axis : x y z
#
# Youngs Moduli (GPa) = 88.65927 61.74028 33.22418
#
# Poissons Ratio (x) = 0.19575 0.12496
# Poissons Ratio (y) = 0.28110 0.00924
# Poissons Ratio (z) = 0.33346 0.01717
#
# Static dielectric constant tensor:
#      x y z
#    x 1.896260 0.000000 0.008040 
#    y 0.000000 1.996940 0.000000 
#    z 0.008040 0.000000 1.889160 
# 
# From -- ./inp_files/73833.got.cif
#   From: 2010.05.17/outbox.cif.g08.bks.cpg/sg14_37_cif.got.tgz:73833.got - 2010.06.03 17:49:19.
