data_PCOD9244126
_publ_section_title
;
Structure prediction by ZEFSAII (Michael W. Deem and Ramdas Pophale) SiO2 
 PCOD9244126
Probable space group: P 21/C
;
_chemical_formula_sum "Si O2"
_cell_formula_units_Z 32
_cell_length_a 8.071282
_cell_length_b 10.099388
_cell_length_c 18.862124
_cell_angle_alpha 90.000000
_cell_angle_beta 130.430311
_cell_angle_gamma 90.000000
_cell_volume 1170.372984
_symmetry_space_group_name_H-M "P 21/C"
_symmetry_group_IT_number 14
_symmetry_cell_setting 'monoclinic'
loop_
_space_group_symop_operation_xyz
x,y,z
-x,1/2+y,1/2-z
-x,-y,-z
x,1/2-y,1/2+z
loop_
_atom_site_type_symbol
_atom_site_label
_atom_site_fract_x
_atom_site_fract_y
_atom_site_fract_z
Si Si1 0.666430 0.557067 0.238224
Si Si2 0.268487 0.343307 0.289928
Si Si3 0.129687 0.850736 0.406274
Si Si4 0.350546 0.035855 0.111728
Si Si5 0.227377 0.141613 0.454906
Si Si6 0.614403 0.289669 0.153554
Si Si7 0.833293 0.381476 0.928804
Si Si8 0.725624 0.577235 0.563974
O O1 0.747420 0.682537 0.215070
O O2 0.759451 0.564803 0.343688
O O3 0.711146 0.406878 0.227133
O O4 0.404512 0.581130 0.163803
O O5 0.513372 0.398736 0.347579
O O6 0.173797 0.432398 0.329354
O O7 0.122837 0.373283 0.180310
O O8 0.231068 0.766012 0.371319
O O9 0.178225 0.804876 0.499156
O O10 0.237013 0.996256 0.426212
O O11 0.537564 0.150040 0.161247
O O12 0.209462 0.054002 0.000509
O O13 0.386366 0.144189 0.565921
O O14 0.322614 0.266038 0.440745
O O15 0.981123 0.179386 0.407824
O O16 0.000000 0.500000 0.000000
O O17 0.500000 0.500000 0.500000
#
# Coordination Sequence:
#
# PCOD9244126 Si02
#       8
#     4   4   4   4   4   4   4   4
#     4  12  23  40  72 105 133 177 240 295 355 414
#     4  11  25  41  65  97 144 181 227 287 359 416
#     4  11  23  38  66 104 135 170 236 297 342 415
#     4  10  23  40  65  92 137 182 221 275 355 427
#     4  10  20  39  71  98 138 177 231 293 356 407
#     4  11  23  39  70  99 132 176 236 286 352 411
#     4  10  21  37  66 105 138 167 226 299 354 405
#     4   9  21  41  65  93 135 190 225 273 352 426
#
# _framework density 27.341711
#
# number of rings (size 3 to 8) (size 9 to 14) (size 15 to 20)
#    0.000    1.500    2.500    3.375    7.000    3.000 
#    0.000    0.000    0.000    7.500    0.000    0.000 
#    0.000    0.000    0.000    0.000    0.000    0.000 
#
# Total GULP energy -178605.570073 kJ/mol
# GULP energy per Si atom -5581.424065 kJ/mol
# Density = 2.727948 g / cm^3
# Si number density = 27.341711 Si / 1000 Ang^3
#
#
#
# Elastic Constant Matrix: (Units=GPa)
#
#
# Indices 1 2 3 4 5 6 
#
# 1 74.9402 4.2486 41.6324 0.0000 -5.8886 0.0000
# 2 4.2486 128.1514 11.9688 0.0000 3.9327 0.0000
# 3 41.6324 11.9688 133.2389 0.0000 -11.9636 0.0000
# 4 0.0000 0.0000 0.0000 26.2847 0.0000 -4.5054
# 5 -5.8886 3.9327 -11.9636 0.0000 56.9472 0.0000
# 6 0.0000 0.0000 0.0000 -4.5054 0.0000 13.7093
#
#
#
# Elastic Compliance Matrix: (Units=1/GPa)
#
#
# Indices 1 2 3 4 5 6 
#
# 1 0.016169 -0.000090 -0.004988 0.000000 0.000630 0.000000
# 2 -0.000090 0.007898 -0.000745 0.000000 -0.000711 0.000000
# 3 -0.004988 -0.000745 0.009264 0.000000 0.001482 0.000000
# 4 0.000000 0.000000 0.000000 0.040316 0.000000 0.013249
# 5 0.000630 -0.000711 0.001482 0.000000 0.017986 0.000000
# 6 0.000000 0.000000 0.000000 0.013249 0.000000 0.077298
#
#
# Mechanical properties :
#
#
# Convention : Reuss Voigt Hill
#
# Bulk Modulus (GPa) = 46.11334 50.22557 48.16946
# Shear Modulus (GPa) = 26.62347 37.95361 32.28854
#
# Velocity S-wave (km/s) = 3.12385 3.72979 3.44019
# Velocity P-wave (km/s) = 5.46932 6.07930 5.78236
#
# Compressibility (1/GPa) = 0.02168570
#
# Stress axis : x y z
#
# Youngs Moduli (GPa) = 61.84492 126.61955 107.94694
#
# Poissons Ratio (x) = 0.01134 0.53841
# Poissons Ratio (y) = 0.00554 0.08045
# Poissons Ratio (z) = 0.30847 0.09437
#
# Static dielectric constant tensor:
#      x y z
#    x 2.237150 0.000000 -0.122100 
#    y 0.000000 2.244270 0.000000 
#    z -0.122100 0.000000 2.220580 
# 
# From -- ./inp_files/65607.got.cif
#   From: 2010.05.17/outbox.cif.g08.bks.cpg/sg14_33_cif.got.tgz:65607.got - 2010.06.03 17:49:19.
