data_PCOD9244349
_publ_section_title
;
Structure prediction by ZEFSAII (Michael W. Deem and Ramdas Pophale) SiO2 
 PCOD9244349
Probable space group: P 21/C
;
_chemical_formula_sum "Si O2"
_cell_formula_units_Z 28
_cell_length_a 10.913398
_cell_length_b 6.385289
_cell_length_c 18.875225
_cell_angle_alpha 90.000000
_cell_angle_beta 74.169133
_cell_angle_gamma 90.000000
_cell_volume 1265.435136
_symmetry_space_group_name_H-M "P 21/C"
_symmetry_group_IT_number 14
_symmetry_cell_setting 'monoclinic'
loop_
_space_group_symop_operation_xyz
x,y,z
-x,1/2+y,1/2-z
-x,-y,-z
x,1/2-y,1/2+z
loop_
_atom_site_type_symbol
_atom_site_label
_atom_site_fract_x
_atom_site_fract_y
_atom_site_fract_z
Si Si1 0.686779 0.003131 0.020141
Si Si2 0.945704 0.474246 0.431306
Si Si3 0.459433 0.315677 0.058916
Si Si4 0.077685 0.316671 0.169065
Si Si5 0.212636 0.326725 0.347172
Si Si6 0.709604 0.063512 0.305624
Si Si7 0.198926 0.969516 0.251743
O O1 0.579371 0.169593 0.057788
O O2 0.734794 0.887585 0.084152
O O3 0.805732 0.119387 0.963324
O O4 0.632874 0.837399 0.971636
O O5 0.925062 0.709266 0.406161
O O6 0.000000 0.500000 0.500000
O O7 0.058099 0.360631 0.370341
O O8 0.395686 0.430377 0.136164
O O9 0.500000 0.500000 0.000000
O O10 0.161234 0.520785 0.169413
O O11 0.931445 0.345576 0.212519
O O12 0.152450 0.146730 0.204882
O O13 0.270238 0.475518 0.277019
O O14 0.240278 0.091709 0.316011
O O15 0.698367 0.312946 0.297911
#
# Coordination Sequence:
#
# PCOD9244349 Si02
#       7
#     4   4   4   4   4   4   4
#     4  10  24  48  68  97 147 177 240 293 348 437
#     4  10  20  40  67  98 140 177 215 288 357 422
#     4  11  26  45  70  96 130 198 242 284 347 416
#     4  11  19  35  59  98 134 172 215 278 350 417
#     4  10  23  42  68 107 135 177 222 297 370 411
#     4  11  23  40  65  98 137 180 239 288 346 421
#     4  11  21  34  63  99 142 170 223 284 353 426
#
# _framework density 22.126776
#
# number of rings (size 3 to 8) (size 9 to 14) (size 15 to 20)
#    0.000    1.429    4.286    0.857    2.000    2.286 
#    2.571    1.429    0.000    0.000    0.000    0.000 
#    0.000    0.000    0.000    0.000    0.000    0.000 
#
# Total GULP energy -156354.806092 kJ/mol
# GULP energy per Si atom -5584.100218 kJ/mol
# Density = 2.207641 g / cm^3
# Si number density = 22.126776 Si / 1000 Ang^3
#
#
#
# Elastic Constant Matrix: (Units=GPa)
#
#
# Indices 1 2 3 4 5 6 
#
# 1 90.3187 43.1533 42.8467 0.0000 -11.0867 0.0000
# 2 43.1533 109.1555 48.1898 0.0000 -5.2245 0.0000
# 3 42.8467 48.1898 124.1012 0.0000 -6.6000 0.0000
# 4 0.0000 0.0000 0.0000 47.1355 0.0000 -1.4204
# 5 -11.0867 -5.2245 -6.6000 0.0000 34.3905 0.0000
# 6 0.0000 0.0000 0.0000 -1.4204 0.0000 26.1772
#
#
#
# Elastic Compliance Matrix: (Units=1/GPa)
#
#
# Indices 1 2 3 4 5 6 
#
# 1 0.015185 -0.004346 -0.003364 0.000000 0.003589 0.000000
# 2 -0.004346 0.012326 -0.003294 0.000000 -0.000161 0.000000
# 3 -0.003364 -0.003294 0.010522 0.000000 0.000434 0.000000
# 4 0.000000 0.000000 0.000000 0.021250 0.000000 0.001153
# 5 0.003589 -0.000161 0.000434 0.000000 0.030294 0.000000
# 6 0.000000 0.000000 0.000000 0.001153 0.000000 0.038264
#
#
# Mechanical properties :
#
#
# Convention : Reuss Voigt Hill
#
# Bulk Modulus (GPa) = 62.40841 65.77277 64.09059
# Shear Modulus (GPa) = 32.21830 34.16636 33.19233
#
# Velocity S-wave (km/s) = 3.82000 3.93379 3.87731
# Velocity P-wave (km/s) = 6.90816 7.10091 7.00520
#
# Compressibility (1/GPa) = 0.01602348
#
# Stress axis : x y z
#
# Youngs Moduli (GPa) = 65.85437 81.12828 95.04113
#
# Poissons Ratio (x) = 0.35260 0.31973
# Poissons Ratio (y) = 0.28622 0.31310
# Poissons Ratio (z) = 0.22154 0.26727
#
# Static dielectric constant tensor:
#      x y z
#    x 1.851220 0.000000 -0.039630 
#    y 0.000000 1.871690 0.000000 
#    z -0.039630 0.000000 1.842930 
# 
# From -- ./inp_files/66442.got.cif
#   From: 2010.05.17/outbox.cif.g08.bks.cpg/sg14_34_cif.got.tgz:66442.got - 2010.06.03 17:49:19.
