data_PCOD9244262
_publ_section_title
;
Structure prediction by ZEFSAII (Michael W. Deem and Ramdas Pophale) SiO2 
 PCOD9244262
Probable space group: P 21/C
;
_chemical_formula_sum "Si O2"
_cell_formula_units_Z 30
_cell_length_a 7.064471
_cell_length_b 13.117677
_cell_length_c 16.805515
_cell_angle_alpha 90.000000
_cell_angle_beta 53.180935
_cell_angle_gamma 90.000000
_cell_volume 1246.714768
_symmetry_space_group_name_H-M "P 21/C"
_symmetry_group_IT_number 14
_symmetry_cell_setting 'monoclinic'
loop_
_space_group_symop_operation_xyz
x,y,z
-x,1/2+y,1/2-z
-x,-y,-z
x,1/2-y,1/2+z
loop_
_atom_site_type_symbol
_atom_site_label
_atom_site_fract_x
_atom_site_fract_y
_atom_site_fract_z
Si Si1 0.025931 0.263202 0.272306
Si Si2 0.659064 0.405785 0.300954
Si Si3 0.780345 0.315627 0.103357
Si Si4 0.645727 0.409126 0.856994
Si Si5 0.408195 0.906080 0.808111
Si Si6 0.000000 0.500000 0.500000
Si Si7 0.391665 0.370501 0.079125
Si Si8 0.837730 0.788295 0.084921
O O1 0.845611 0.359874 0.315583
O O2 0.867678 0.165613 0.293520
O O3 0.218052 0.284384 0.155780
O O4 0.144680 0.253358 0.328449
O O5 0.764768 0.380785 0.187360
O O6 0.580616 0.524291 0.319920
O O7 0.417744 0.337748 0.370469
O O8 0.643508 0.210306 0.158241
O O9 0.631310 0.365986 0.070565
O O10 0.040479 0.291862 0.004957
O O11 0.524717 0.414266 0.801311
O O12 0.718317 0.520269 0.870252
O O13 0.474298 0.366269 0.968223
O O14 0.160318 0.964895 0.882015
O O15 0.987188 0.384508 0.468918
#
# Coordination Sequence:
#
# PCOD9244262 Si02
#       8
#     4   4   4   4   4   2   4   4
#     4  12  24  42  69  99 133 179 235 279 343 415
#     4  11  23  42  65  96 137 173 229 286 338 411
#     4  11  20  40  66  93 132 177 224 272 347 410
#     4  11  23  43  71  97 141 183 226 288 353 403
#     4  10  20  40  64  96 133 176 221 279 344 405
#     4   8  18  38  68  92 124 178 214 272 346 388
#     4  11  24  43  68 100 136 183 229 286 350 414
#     4  10  21  41  65  92 135 175 219 288 342 399
#
# _framework density 24.063244999999998
#
# number of rings (size 3 to 8) (size 9 to 14) (size 15 to 20)
#    0.000    1.333    5.333    0.800    0.000    2.133 
#    2.400    6.667    0.000    0.000    0.000    0.000 
#    0.000    0.000    0.000    0.000    0.000    0.000 
#
# Total GULP energy -167268.297211 kJ/mol
# GULP energy per Si atom -5575.609907 kJ/mol
# Density = 2.400848 g / cm^3
# Si number density = 24.063245 Si / 1000 Ang^3
#
#
#
# Elastic Constant Matrix: (Units=GPa)
#
#
# Indices 1 2 3 4 5 6 
#
# 1 72.6673 6.3776 26.0945 0.0000 -6.9385 0.0000
# 2 6.3776 58.9599 27.9851 0.0000 -5.8972 0.0000
# 3 26.0945 27.9851 149.4215 0.0000 -0.9476 0.0000
# 4 0.0000 0.0000 0.0000 33.1597 0.0000 -4.2196
# 5 -6.9385 -5.8972 -0.9476 0.0000 14.3986 0.0000
# 6 0.0000 0.0000 0.0000 -4.2196 0.0000 18.1644
#
#
#
# Elastic Compliance Matrix: (Units=1/GPa)
#
#
# Indices 1 2 3 4 5 6 
#
# 1 0.015410 0.000360 -0.002712 0.000000 0.007395 0.000000
# 2 0.000360 0.019446 -0.003655 0.000000 0.007897 0.000000
# 3 -0.002712 -0.003655 0.007836 0.000000 -0.002288 0.000000
# 4 0.000000 0.000000 0.000000 0.031076 0.000000 0.007219
# 5 0.007395 0.007897 -0.002288 0.000000 0.076098 0.000000
# 6 0.000000 0.000000 0.000000 0.007219 0.000000 0.056730
#
#
# Mechanical properties :
#
#
# Convention : Reuss Voigt Hill
#
# Bulk Modulus (GPa) = 32.59583 44.66257 38.62920
# Shear Modulus (GPa) = 21.84976 27.85064 24.85020
#
# Velocity S-wave (km/s) = 3.01660 3.40574 3.21706
# Velocity P-wave (km/s) = 5.07035 5.83663 5.46693
#
# Compressibility (1/GPa) = 0.03067877
#
# Stress axis : x y z
#
# Youngs Moduli (GPa) = 64.89491 51.42328 127.61563
#
# Poissons Ratio (x) = -0.01850 0.34604
# Poissons Ratio (y) = -0.02335 0.46642
# Poissons Ratio (z) = 0.17597 0.18795
#
# Static dielectric constant tensor:
#      x y z
#    x 1.966290 0.000000 -0.055640 
#    y 0.000000 1.934440 0.000000 
#    z -0.055640 0.000000 1.923390 
# 
# From -- ./inp_files/55859.got.cif
#   From: 2010.05.17/outbox.cif.g08.bks.cpg/sg14_28_cif.got.tgz:55859.got - 2010.06.03 17:49:19.
