data_PCOD9244076
_publ_section_title
;
Structure prediction by ZEFSAII (Michael W. Deem and Ramdas Pophale) SiO2 
 PCOD9244076
Probable space group: P 21/C
;
_chemical_formula_sum "Si O2"
_cell_formula_units_Z 24
_cell_length_a 14.145230
_cell_length_b 4.994627
_cell_length_c 15.835303
_cell_angle_alpha 90.000000
_cell_angle_beta 49.542351
_cell_angle_gamma 90.000000
_cell_volume 851.253547
_symmetry_space_group_name_H-M "P 21/C"
_symmetry_group_IT_number 14
_symmetry_cell_setting 'monoclinic'
loop_
_space_group_symop_operation_xyz
x,y,z
-x,1/2+y,1/2-z
-x,-y,-z
x,1/2-y,1/2+z
loop_
_atom_site_type_symbol
_atom_site_label
_atom_site_fract_x
_atom_site_fract_y
_atom_site_fract_z
Si Si1 0.293419 0.459494 0.831468
Si Si2 0.148670 0.317113 0.610350
Si Si3 0.392265 0.532975 0.949625
Si Si4 0.836257 0.458861 0.637384
Si Si5 0.638251 0.235678 0.864881
Si Si6 0.020097 0.814773 0.625661
O O1 0.351669 0.483561 0.703849
O O2 0.175135 0.663591 0.896436
O O3 0.252506 0.155348 0.865311
O O4 0.378983 0.569369 0.856850
O O5 0.281582 0.177211 0.534410
O O6 0.065064 0.120336 0.599180
O O7 0.081572 0.313666 0.739771
O O8 0.377098 0.773918 0.026059
O O9 0.522629 0.400037 0.896148
O O10 0.764989 0.390127 0.766687
O O11 0.951278 0.647033 0.592983
O O12 0.867803 0.379383 0.410592
#
# Coordination Sequence:
#
# PCOD9244076 Si02
#       6
#     4   4   4   4   4   4
#     4  10  24  42  70  98 139 174 217 283 337 396
#     4  10  21  37  64  99 126 178 224 275 325 405
#     4  11  22  47  68 107 131 180 235 268 340 409
#     4  10  21  45  65  98 131 181 214 272 346 387
#     4   9  24  44  71  99 139 177 219 288 332 403
#     4  10  20  39  66  90 138 173 219 279 335 384
#
# _framework density 28.193718000000001
#
# number of rings (size 3 to 8) (size 9 to 14) (size 15 to 20)
#    1.000    1.000    1.667    1.000    2.333    2.667 
#    6.000    6.667    0.000    0.000    0.000    0.000 
#    0.000    0.000    0.000    0.000    0.000    0.000 
#
# Total GULP energy -134336.287524 kJ/mol
# GULP energy per Si atom -5597.345313 kJ/mol
# Density = 2.812955 g / cm^3
# Si number density = 28.193718 Si / 1000 Ang^3
#
#
#
# Elastic Constant Matrix: (Units=GPa)
#
#
# Indices 1 2 3 4 5 6 
#
# 1 108.4207 14.7877 -10.5062 0.0000 8.5392 0.0000
# 2 14.7877 131.6433 24.4070 0.0000 13.8441 0.0000
# 3 -10.5062 24.4070 73.6415 0.0000 7.9382 0.0000
# 4 0.0000 0.0000 0.0000 29.3964 0.0000 5.4988
# 5 8.5392 13.8441 7.9382 0.0000 51.1735 0.0000
# 6 0.0000 0.0000 0.0000 5.4988 0.0000 34.4481
#
#
#
# Elastic Compliance Matrix: (Units=1/GPa)
#
#
# Indices 1 2 3 4 5 6 
#
# 1 0.009717 -0.001293 0.001985 0.000000 -0.001579 0.000000
# 2 -0.001293 0.008433 -0.002804 0.000000 -0.001631 0.000000
# 3 0.001985 -0.002804 0.014996 0.000000 -0.001899 0.000000
# 4 0.000000 0.000000 0.000000 0.035065 0.000000 -0.005597
# 5 -0.001579 -0.001631 -0.001899 0.000000 0.020541 0.000000
# 6 0.000000 0.000000 0.000000 -0.005597 0.000000 0.029923
#
#
# Mechanical properties :
#
#
# Convention : Reuss Voigt Hill
#
# Bulk Modulus (GPa) = 34.57582 41.23140 37.90361
# Shear Modulus (GPa) = 37.72491 42.00473 39.86482
#
# Velocity S-wave (km/s) = 3.66192 3.86406 3.76435
# Velocity P-wave (km/s) = 5.49271 5.87912 5.68919
#
# Compressibility (1/GPa) = 0.02892194
#
# Stress axis : x y z
#
# Youngs Moduli (GPa) = 102.91772 118.58362 66.68249
#
# Poissons Ratio (x) = 0.15338 -0.13238
# Poissons Ratio (y) = 0.13312 0.18696
# Poissons Ratio (z) = -0.20431 0.33247
#
# Static dielectric constant tensor:
#      x y z
#    x 2.201900 0.000000 0.035100 
#    y 0.000000 2.090610 0.000000 
#    z 0.035100 0.000000 2.341500 
# 
# From -- ./inp_files/46124.got.cif
#   From: 2010.05.17/outbox.cif.g08.bks.cpg/sg14_24_cif.got.tgz:46124.got - 2010.06.03 17:49:19.
