data_PCOD9244201
_publ_section_title
;
Structure prediction by ZEFSAII (Michael W. Deem and Ramdas Pophale) SiO2 
 PCOD9244201
Probable space group: P 21/C
;
_chemical_formula_sum "Si O2"
_cell_formula_units_Z 22
_cell_length_a 13.128076
_cell_length_b 7.622015
_cell_length_c 21.017150
_cell_angle_alpha 90.000000
_cell_angle_beta 22.002780
_cell_angle_gamma 90.000000
_cell_volume 787.902129
_symmetry_space_group_name_H-M "P 21/C"
_symmetry_group_IT_number 14
_symmetry_cell_setting 'monoclinic'
loop_
_space_group_symop_operation_xyz
x,y,z
-x,1/2+y,1/2-z
-x,-y,-z
x,1/2-y,1/2+z
loop_
_atom_site_type_symbol
_atom_site_label
_atom_site_fract_x
_atom_site_fract_y
_atom_site_fract_z
Si Si1 0.778205 0.561585 0.757685
Si Si2 0.759732 0.865731 0.450098
Si Si3 0.620637 0.643991 0.278470
Si Si4 0.180463 0.501380 0.629027
Si Si5 0.000000 0.000000 0.000000
Si Si6 0.469385 0.783538 0.238843
O O1 0.462286 0.514467 0.934693
O O2 0.821672 0.764520 0.712264
O O3 0.898093 0.502183 0.754109
O O4 0.930165 0.454310 0.615160
O O5 0.710637 0.695616 0.433182
O O6 0.677872 0.799723 0.567632
O O7 0.073571 0.920791 0.257082
O O8 0.368464 0.608185 0.471636
O O9 0.615307 0.793837 0.224440
O O10 0.648532 0.463355 0.223131
O O11 0.772706 0.149423 0.109112
#
# Coordination Sequence:
#
# PCOD9244201 Si02
#       6
#     4   4   4   4   2   4
#     4  11  23  42  66  96 135 173 226 281 336 409
#     4  10  23  40  67  92 133 175 223 274 344 395
#     4  11  23  41  68  98 135 174 226 275 339 398
#     4  11  23  45  65  96 132 179 218 286 340 407
#     4  10  20  40  62  96 130 172 216 270 338 382
#     4  10  21  41  65  98 136 175 220 281 326 410
#
# _framework density 27.922249999999998
#
# number of rings (size 3 to 8) (size 9 to 14) (size 15 to 20)
#    0.000    1.455    1.818    3.818    2.545    0.727 
#    0.000   13.636    0.000    0.000    0.000    0.000 
#    0.000    0.000    0.000    0.000    0.000    0.000 
#
# Total GULP energy -122659.241367 kJ/mol
# GULP energy per Si atom -5575.420062 kJ/mol
# Density = 2.785870 g / cm^3
# Si number density = 27.922250 Si / 1000 Ang^3
#
#
#
# Elastic Constant Matrix: (Units=GPa)
#
#
# Indices 1 2 3 4 5 6 
#
# 1 63.0242 6.6177 15.1739 0.0000 5.2362 0.0000
# 2 6.6177 122.6809 26.1201 0.0000 9.3438 0.0000
# 3 15.1739 26.1201 142.7263 0.0000 62.1542 0.0000
# 4 0.0000 0.0000 0.0000 26.7161 0.0000 5.9574
# 5 5.2362 9.3438 62.1542 0.0000 47.9331 0.0000
# 6 0.0000 0.0000 0.0000 5.9574 0.0000 40.9571
#
#
#
# Elastic Compliance Matrix: (Units=1/GPa)
#
#
# Indices 1 2 3 4 5 6 
#
# 1 0.016339 -0.000515 -0.002089 0.000000 0.001024 0.000000
# 2 -0.000515 0.008512 -0.001849 0.000000 0.000795 0.000000
# 3 -0.002089 -0.001849 0.016793 0.000000 -0.021187 0.000000
# 4 0.000000 0.000000 0.000000 0.038685 0.000000 -0.005627
# 5 0.001024 0.000795 -0.021187 0.000000 0.048069 0.000000
# 6 0.000000 0.000000 0.000000 -0.005627 0.000000 0.025234
#
#
# Mechanical properties :
#
#
# Convention : Reuss Voigt Hill
#
# Bulk Modulus (GPa) = 30.54436 47.13942 38.84189
# Shear Modulus (GPa) = 28.82659 41.82258 35.32458
#
# Velocity S-wave (km/s) = 3.21656 3.87437 3.56069
# Velocity P-wave (km/s) = 4.97573 6.07728 5.55388
#
# Compressibility (1/GPa) = 0.03273927
#
# Stress axis : x y z
#
# Youngs Moduli (GPa) = 61.20406 117.47887 59.54702
#
# Poissons Ratio (x) = 0.06046 0.12438
# Poissons Ratio (y) = 0.03150 0.11011
# Poissons Ratio (z) = 0.12784 0.21724
#
# Static dielectric constant tensor:
#      x y z
#    x 2.205990 0.000000 0.089960 
#    y 0.000000 2.052280 0.000000 
#    z 0.089960 0.000000 1.846850 
# 
# From -- ./inp_files/31298.got.cif
#   From: 2010.05.17/outbox.cif.g08.bks.cpg/sg14_16_cif.got.tgz:31298.got - 2010.06.03 17:49:19.
