data_PCOD9244600
_publ_section_title
;
Structure prediction by ZEFSAII (Michael W. Deem and Ramdas Pophale) SiO2 
 PCOD9244600
Probable space group: P 21/C
;
_chemical_formula_sum "Si O2"
_cell_formula_units_Z 30
_cell_length_a 7.003545
_cell_length_b 25.145449
_cell_length_c 8.921126
_cell_angle_alpha 90.000000
_cell_angle_beta 129.537442
_cell_angle_gamma 90.000000
_cell_volume 1211.626993
_symmetry_space_group_name_H-M "P 21/C"
_symmetry_group_IT_number 14
_symmetry_cell_setting 'monoclinic'
loop_
_space_group_symop_operation_xyz
x,y,z
-x,1/2+y,1/2-z
-x,-y,-z
x,1/2-y,1/2+z
loop_
_atom_site_type_symbol
_atom_site_label
_atom_site_fract_x
_atom_site_fract_y
_atom_site_fract_z
Si Si1 0.385510 0.767980 0.368442
Si Si2 0.593295 0.806234 0.184798
Si Si3 0.029392 0.559200 0.665232
Si Si4 0.958272 0.320274 0.864234
Si Si5 0.500000 0.000000 0.000000
Si Si6 0.207498 0.603070 0.438466
Si Si7 0.675618 0.126344 0.475011
Si Si8 0.600407 0.975511 0.769714
O O1 0.410264 0.774735 0.204426
O O2 0.602668 0.731210 0.544858
O O3 0.137427 0.733403 0.261536
O O4 0.393379 0.825812 0.447700
O O5 0.831950 0.813020 0.407154
O O6 0.449438 0.859827 0.075141
O O7 0.095801 0.589994 0.545401
O O8 0.088725 0.596463 0.832627
O O9 0.211096 0.508090 0.740523
O O10 0.744573 0.540821 0.502005
O O11 0.998323 0.363671 0.755736
O O12 0.733723 0.346166 0.847181
O O13 0.296575 0.949476 0.900742
O O14 0.419977 0.013395 0.771259
O O15 0.493263 0.076925 0.355761
#
# Coordination Sequence:
#
# PCOD9244600 Si02
#       8
#     4   4   4   4   2   4   4   4
#     4  11  25  44  62  93 128 163 211 265 308 371
#     4  11  25  43  65  91 126 167 209 260 314 369
#     4  10  23  40  68  93 127 166 209 251 318 370
#     4  11  26  42  63  93 126 168 209 253 321 368
#     4  10  20  42  64  88 134 162 200 266 304 362
#     4  10  22  43  62  93 128 164 207 256 308 377
#     4  12  23  42  65  94 123 164 216 258 305 382
#     4  10  23  42  64  94 130 168 202 261 314 370
#
# _framework density 24.760096999999998
#
# number of rings (size 3 to 8) (size 9 to 14) (size 15 to 20)
#    0.000    1.333    4.000    0.400    5.600    1.067 
#    0.000    1.333    0.000    0.000    0.000    0.000 
#    0.000    0.000    0.000    0.000    0.000    0.000 
#
# Total GULP energy -167314.670799 kJ/mol
# GULP energy per Si atom -5577.155693 kJ/mol
# Density = 2.470374 g / cm^3
# Si number density = 24.760097 Si / 1000 Ang^3
#
#
#
# Elastic Constant Matrix: (Units=GPa)
#
#
# Indices 1 2 3 4 5 6 
#
# 1 52.9749 11.8097 8.4585 0.0000 -6.4715 0.0000
# 2 11.8097 107.4285 55.2787 0.0000 7.0412 0.0000
# 3 8.4585 55.2787 123.8430 0.0000 15.6956 0.0000
# 4 0.0000 0.0000 0.0000 54.7261 0.0000 -15.4976
# 5 -6.4715 7.0412 15.6956 0.0000 32.9932 0.0000
# 6 0.0000 0.0000 0.0000 -15.4976 0.0000 11.4961
#
#
#
# Elastic Compliance Matrix: (Units=1/GPa)
#
#
# Indices 1 2 3 4 5 6 
#
# 1 0.020088 -0.001952 -0.001120 0.000000 0.004890 0.000000
# 2 -0.001952 0.012274 -0.005283 0.000000 -0.000489 0.000000
# 3 -0.001120 -0.005283 0.011061 0.000000 -0.004354 0.000000
# 4 0.000000 0.000000 0.000000 0.029556 0.000000 0.039844
# 5 0.004890 -0.000489 -0.004354 0.000000 0.033444 0.000000
# 6 0.000000 0.000000 0.000000 0.039844 0.000000 0.140698
#
#
# Mechanical properties :
#
#
# Convention : Reuss Voigt Hill
#
# Bulk Modulus (GPa) = 37.43680 48.37113 42.90396
# Shear Modulus (GPa) = 18.33265 33.75637 26.04451
#
# Velocity S-wave (km/s) = 2.72400 3.69635 3.24678
# Velocity P-wave (km/s) = 5.00462 6.14781 5.60544
#
# Compressibility (1/GPa) = 0.02671169
#
# Stress axis : x y z
#
# Youngs Moduli (GPa) = 49.78008 81.47488 90.40510
#
# Poissons Ratio (x) = 0.15907 0.10128
# Poissons Ratio (y) = 0.09719 0.47763
# Poissons Ratio (z) = 0.05577 0.43045
#
# Static dielectric constant tensor:
#      x y z
#    x 2.279560 0.000000 0.013560 
#    y 0.000000 2.062830 0.000000 
#    z 0.013560 0.000000 2.012150 
# 
# From -- ./inp_files/11076.got.cif
#   From: 2010.05.17/outbox.cif.g08.bks.cpg/sg14_6_cif.got.tgz:11076.got - 2010.06.03 17:49:19.
