data_PCOD9244392
_publ_section_title
;
Structure prediction by ZEFSAII (Michael W. Deem and Ramdas Pophale) SiO2 
 PCOD9244392
Probable space group: P 21/C
;
_chemical_formula_sum "Si O2"
_cell_formula_units_Z 26
_cell_length_a 20.266133
_cell_length_b 5.376624
_cell_length_c 23.749331
_cell_angle_alpha 90.000000
_cell_angle_beta 157.533283
_cell_angle_gamma 90.000000
_cell_volume 988.921993
_symmetry_space_group_name_H-M "P 21/C"
_symmetry_group_IT_number 14
_symmetry_cell_setting 'monoclinic'
loop_
_space_group_symop_operation_xyz
x,y,z
-x,1/2+y,1/2-z
-x,-y,-z
x,1/2-y,1/2+z
loop_
_atom_site_type_symbol
_atom_site_label
_atom_site_fract_x
_atom_site_fract_y
_atom_site_fract_z
Si Si1 0.402636 0.884758 0.619032
Si Si2 0.410656 0.046444 0.509236
Si Si3 0.759206 0.865472 0.403023
Si Si4 0.249675 0.302689 0.230093
Si Si5 0.076343 0.640511 0.337502
Si Si6 0.500000 0.000000 0.000000
Si Si7 0.077923 0.534651 0.677242
O O1 0.375254 0.082054 0.547184
O O2 0.323498 0.950986 0.616710
O O3 0.284068 0.660990 0.501566
O O4 0.605905 0.841107 0.782744
O O5 0.454714 0.299582 0.513666
O O6 0.255983 0.925924 0.351482
O O7 0.565300 0.845706 0.625418
O O8 0.780338 0.928192 0.353640
O O9 0.941344 0.755053 0.565027
O O10 0.295176 0.491587 0.315080
O O11 0.115071 0.101450 0.147309
O O12 0.984490 0.155644 0.146115
O O13 0.995738 0.881848 0.243477
#
# Coordination Sequence:
#
# PCOD9244392 Si02
#       7
#     4   4   4   4   4   2   4
#     4  11  25  45  72 108 150 198 251 313 390 460
#     4  10  23  43  72 104 144 194 252 324 372 463
#     4  11  25  45  71 104 156 199 249 316 393 465
#     4  10  24  46  70 105 144 200 251 321 381 461
#     4  12  26  48  78 118 151 196 260 323 375 456
#     4  10  20  40  70 102 134 186 254 302 382 434
#     4  11  22  44  71 105 145 197 257 313 384 457
#
# _framework density 26.291257000000002
#
# number of rings (size 3 to 8) (size 9 to 14) (size 15 to 20)
#    0.000    1.231    1.538    4.154    2.154    4.923 
#   11.077    0.769    0.000    0.000    0.000    0.000 
#    0.000    0.000    0.000    0.000    0.000    0.000 
#
# Total GULP energy -145047.989772 kJ/mol
# GULP energy per Si atom -5578.768837 kJ/mol
# Density = 2.623142 g / cm^3
# Si number density = 26.291257 Si / 1000 Ang^3
#
#
#
# Elastic Constant Matrix: (Units=GPa)
#
#
# Indices 1 2 3 4 5 6 
#
# 1 65.5151 3.0725 20.3090 0.0000 3.7745 0.0000
# 2 3.0725 70.2435 34.3647 0.0000 -1.6616 0.0000
# 3 20.3090 34.3647 85.8897 0.0000 0.2485 0.0000
# 4 0.0000 0.0000 0.0000 -3.2525 0.0000 27.1549
# 5 3.7745 -1.6616 0.2485 0.0000 41.3348 0.0000
# 6 0.0000 0.0000 0.0000 27.1549 0.0000 22.3622
#
#
#
# Elastic Compliance Matrix: (Units=1/GPa)
#
#
# Indices 1 2 3 4 5 6 
#
# 1 0.016679 0.001447 -0.004519 0.000000 -0.001438 0.000000
# 2 0.001447 0.017850 -0.007486 0.000000 0.000630 0.000000
# 3 -0.004519 -0.007486 0.015706 0.000000 0.000017 0.000000
# 4 0.000000 0.000000 0.000000 -0.027603 0.000000 0.033520
# 5 -0.001438 0.000630 0.000017 0.000000 0.024349 0.000000
# 6 0.000000 0.000000 0.000000 0.033520 0.000000 0.004015
#
#
# Mechanical properties :
#
#
# Convention : Reuss Voigt Hill
#
# Bulk Modulus (GPa) = 34.33969 37.46008 35.89989
# Shear Modulus (GPa) = 61.11094 23.01570 42.06332
#
# Velocity S-wave (km/s) = 4.82642 2.96195 4.00421
# Velocity P-wave (km/s) = 6.64445 5.09672 5.92137
#
# Compressibility (1/GPa) = 0.02912082
#
# Stress axis : x y z
#
# Youngs Moduli (GPa) = 59.95420 56.02217 63.66837
#
# Poissons Ratio (x) = -0.08107 0.28770
# Poissons Ratio (y) = -0.08676 0.47661
# Poissons Ratio (z) = 0.27092 0.41937
#
# Static dielectric constant tensor:
#      x y z
#    x 2.134170 0.000000 -0.068200 
#    y 0.000000 2.728500 0.000000 
#    z -0.068200 0.000000 2.138470 
# 
# From -- ./inp_files/78114.got.cif
#   From: 2010.05.17/outbox.cif.g08.bks.cpg/sg14_40_cif.got.tgz:78114.got - 2010.06.03 17:49:19.
