data_PCOD9244098
_publ_section_title
;
Structure prediction by ZEFSAII (Michael W. Deem and Ramdas Pophale) SiO2 
 PCOD9244098
Probable space group: P 21/C
;
_chemical_formula_sum "Si O2"
_cell_formula_units_Z 28
_cell_length_a 24.853452
_cell_length_b 7.788255
_cell_length_c 21.648127
_cell_angle_alpha 90.000000
_cell_angle_beta 16.639516
_cell_angle_gamma 90.000000
_cell_volume 1199.894995
_symmetry_space_group_name_H-M "P 21/C"
_symmetry_group_IT_number 14
_symmetry_cell_setting 'monoclinic'
loop_
_space_group_symop_operation_xyz
x,y,z
-x,1/2+y,1/2-z
-x,-y,-z
x,1/2-y,1/2+z
loop_
_atom_site_type_symbol
_atom_site_label
_atom_site_fract_x
_atom_site_fract_y
_atom_site_fract_z
Si Si1 0.583535 0.321148 0.432336
Si Si2 0.842052 0.354327 0.842695
Si Si3 0.595769 0.965578 0.174206
Si Si4 0.482262 0.151596 0.418576
Si Si5 0.883909 0.844231 0.375284
Si Si6 0.481001 0.468850 0.668791
Si Si7 0.145266 0.880234 0.806954
O O1 0.500000 0.500000 0.500000
O O2 0.545149 0.184818 0.420194
O O3 0.505441 0.324182 0.589033
O O4 0.798928 0.280804 0.211563
O O5 0.927823 0.540027 0.768074
O O6 0.909698 0.312754 0.699643
O O7 0.935952 0.219781 0.786093
O O8 0.618966 0.392140 0.090366
O O9 0.593361 0.054686 0.109364
O O10 0.606551 0.075561 0.225324
O O11 0.751234 0.817126 0.004546
O O12 0.447265 0.346930 0.434123
O O13 0.315906 0.014463 0.607432
O O14 0.742173 0.963971 0.571666
O O15 0.000000 0.000000 0.000000
#
# Coordination Sequence:
#
# PCOD9244098 Si02
#       7
#     4   4   4   4   4   4   4
#     4  10  23  43  68  99 132 178 238 277 338 427
#     4  10  25  43  62 105 133 172 228 280 337 421
#     4  10  21  42  70  95 129 181 226 281 352 412
#     4  10  22  40  69  95 131 178 235 273 338 432
#     4  11  24  41  70  97 140 173 222 286 354 406
#     4  10  20  39  67  96 128 174 229 281 343 409
#     4  11  24  42  66  96 140 180 224 287 347 406
#
# _framework density 23.335373000000001
#
# number of rings (size 3 to 8) (size 9 to 14) (size 15 to 20)
#    0.000    1.714    0.000    4.714    4.000    6.857 
#    5.143    2.857    0.000    0.000    0.000    0.000 
#    0.000    0.000    0.000    0.000    0.000    0.000 
#
# Total GULP energy -156049.973315 kJ/mol
# GULP energy per Si atom -5573.213333 kJ/mol
# Density = 2.328226 g / cm^3
# Si number density = 23.335373 Si / 1000 Ang^3
#
#
#
# Elastic Constant Matrix: (Units=GPa)
#
#
# Indices 1 2 3 4 5 6 
#
# 1 158.0239 59.1936 37.5895 0.0000 0.2327 0.0000
# 2 59.1936 105.7258 13.2469 0.0000 -0.8180 0.0000
# 3 37.5895 13.2469 56.7441 0.0000 -6.4344 0.0000
# 4 0.0000 0.0000 0.0000 30.2526 0.0000 -11.6061
# 5 0.2327 -0.8180 -6.4344 0.0000 31.1376 0.0000
# 6 0.0000 0.0000 0.0000 -11.6061 0.0000 44.8127
#
#
#
# Elastic Compliance Matrix: (Units=1/GPa)
#
#
# Indices 1 2 3 4 5 6 
#
# 1 0.009278 -0.004549 -0.005228 0.000000 -0.001269 0.000000
# 2 -0.004549 0.011975 0.000264 0.000000 0.000403 0.000000
# 3 -0.005228 0.000264 0.021534 0.000000 0.004496 0.000000
# 4 0.000000 0.000000 0.000000 0.036702 0.000000 0.009505
# 5 -0.001269 0.000403 0.004496 0.000000 0.033065 0.000000
# 6 0.000000 0.000000 0.000000 0.009505 0.000000 0.024777
#
#
# Mechanical properties :
#
#
# Convention : Reuss Voigt Hill
#
# Bulk Modulus (GPa) = 42.08624 60.06152 51.07388
# Shear Modulus (GPa) = 30.43630 35.27151 32.85391
#
# Velocity S-wave (km/s) = 3.61543 3.89202 3.75627
# Velocity P-wave (km/s) = 5.95843 6.78170 6.38335
#
# Compressibility (1/GPa) = 0.02376074
#
# Stress axis : x y z
#
# Youngs Moduli (GPa) = 107.78646 83.50392 46.43748
#
# Poissons Ratio (x) = 0.37987 0.24276
# Poissons Ratio (y) = 0.49034 -0.01224
# Poissons Ratio (z) = 0.56348 -0.02201
#
# Static dielectric constant tensor:
#      x y z
#    x 1.984650 0.000000 0.017170 
#    y 0.000000 2.017780 0.000000 
#    z 0.017170 0.000000 1.946500 
# 
# From -- ./inp_files/70171.got.cif
#   From: 2010.05.17/outbox.cif.g08.bks.cpg/sg14_36_cif.got.tgz:70171.got - 2010.06.03 17:49:19.
