data_PCOD9244999
_publ_section_title
;
Structure prediction by ZEFSAII (Michael W. Deem and Ramdas Pophale) SiO2 
 PCOD9244999
Probable space group: P 21/C
;
_chemical_formula_sum "Si O2"
_cell_formula_units_Z 32
_cell_length_a 15.506096
_cell_length_b 22.065793
_cell_length_c 4.964370
_cell_angle_alpha 90.000000
_cell_angle_beta 106.437799
_cell_angle_gamma 90.000000
_cell_volume 1629.155331
_symmetry_space_group_name_H-M "P 21/C"
_symmetry_group_IT_number 14
_symmetry_cell_setting 'monoclinic'
loop_
_space_group_symop_operation_xyz
x,y,z
-x,1/2+y,1/2-z
-x,-y,-z
x,1/2-y,1/2+z
loop_
_atom_site_type_symbol
_atom_site_label
_atom_site_fract_x
_atom_site_fract_y
_atom_site_fract_z
Si Si1 0.141926 0.786279 0.934289
Si Si2 0.351810 0.791979 0.126118
Si Si3 0.763625 0.974062 0.948869
Si Si4 0.046562 0.433835 0.571452
Si Si5 0.956282 0.115823 0.493079
Si Si6 0.565772 0.533341 0.266769
Si Si7 0.231013 0.947287 0.537458
Si Si8 0.585907 0.092444 0.097687
O O1 0.133333 0.725174 0.744882
O O2 0.245547 0.807027 0.996342
O O3 0.071360 0.827791 0.717797
O O4 0.369160 0.737351 0.930717
O O5 0.406801 0.852174 0.101433
O O6 0.850264 0.937426 0.929436
O O7 0.666485 0.947554 0.778067
O O8 0.772165 0.035215 0.777787
O O9 0.764553 0.993463 0.263000
O O10 0.000000 0.500000 0.500000
O O11 0.027116 0.418775 0.863941
O O12 0.999430 0.386346 0.326877
O O13 0.860652 0.083372 0.452924
O O14 0.507838 0.589304 0.326558
O O15 0.585459 0.475787 0.477548
O O16 0.500000 0.500000 0.000000
O O17 0.320966 0.907574 0.654194
#
# Coordination Sequence:
#
# PCOD9244999 Si02
#       8
#     4   4   4   4   4   4   4   4
#     4  10  21  37  54  80 111 143 188 228 270 329
#     4  10  22  35  55  83 113 147 179 230 285 332
#     4  11  22  34  50  77 115 144 183 226 263 323
#     4  12  22  33  51  80 114 146 184 215 266 330
#     4  12  21  35  54  79 108 155 179 214 276 324
#     4  10  21  36  57  81 111 156 188 229 283 339
#     4  11  19  32  53  76 111 150 175 216 267 326
#     4  10  21  36  54  84 114 148 193 222 278 353
#
# _framework density 19.642081000000001
#
# number of rings (size 3 to 8) (size 9 to 14) (size 15 to 20)
#    0.000    1.250    5.000    1.875    1.750    0.000 
#    0.000    0.000    0.000    0.000    0.000    5.250 
#    0.000    0.000    0.000    0.000    0.000    0.000 
#
# Total GULP energy -178388.941926 kJ/mol
# GULP energy per Si atom -5574.654435 kJ/mol
# Density = 1.959737 g / cm^3
# Si number density = 19.642081 Si / 1000 Ang^3
#
#
#
# Elastic Constant Matrix: (Units=GPa)
#
#
# Indices 1 2 3 4 5 6 
#
# 1 140.8553 22.5932 14.4761 0.0000 16.8048 0.0000
# 2 22.5932 27.3006 -8.6954 0.0000 -1.6238 0.0000
# 3 14.4761 -8.6954 64.2659 0.0000 -5.5015 0.0000
# 4 0.0000 0.0000 0.0000 16.7963 0.0000 4.1838
# 5 16.8048 -1.6238 -5.5015 0.0000 32.3823 0.0000
# 6 0.0000 0.0000 0.0000 4.1838 0.0000 23.8670
#
#
#
# Elastic Compliance Matrix: (Units=1/GPa)
#
#
# Indices 1 2 3 4 5 6 
#
# 1 0.009847 -0.009825 -0.004086 0.000000 -0.006297 0.000000
# 2 -0.009825 0.048341 0.009536 0.000000 0.009143 0.000000
# 3 -0.004086 0.009536 0.018259 0.000000 0.005701 0.000000
# 4 0.000000 0.000000 0.000000 0.062255 0.000000 -0.010913
# 5 -0.006297 0.009143 0.005701 0.000000 0.035576 0.000000
# 6 0.000000 0.000000 0.000000 -0.010913 0.000000 0.043812
#
#
# Mechanical properties :
#
#
# Convention : Reuss Voigt Hill
#
# Bulk Modulus (GPa) = 14.77159 32.12996 23.45078
# Shear Modulus (GPa) = 20.04772 28.21231 24.13002
#
# Velocity S-wave (km/s) = 3.19823 3.79399 3.50878
# Velocity P-wave (km/s) = 4.60162 5.96538 5.32732
#
# Compressibility (1/GPa) = 0.06769751
#
# Stress axis : x y z
#
# Youngs Moduli (GPa) = 101.55812 20.68630 54.76714
#
# Poissons Ratio (x) = 0.20324 0.22380
# Poissons Ratio (y) = 0.99779 -0.52228
# Poissons Ratio (z) = 0.41500 -0.19727
#
# Static dielectric constant tensor:
#      x y z
#    x 1.758470 0.000000 -0.002570 
#    y 0.000000 1.750870 0.000000 
#    z -0.002570 0.000000 1.754920 
# 
# From -- ./inp_files/3912.got.cif
#   From: 2010.05.17/outbox.cif.g08.bks.cpg/sg14_2_cif.got.tgz:3912.got - 2010.06.03 17:49:19.
