data_PCOD9244244
_publ_section_title
;
Structure prediction by ZEFSAII (Michael W. Deem and Ramdas Pophale) SiO2 
 PCOD9244244
Probable space group: P 21/C
;
_chemical_formula_sum "Si O2"
_cell_formula_units_Z 28
_cell_length_a 11.626777
_cell_length_b 9.215457
_cell_length_c 10.867605
_cell_angle_alpha 90.000000
_cell_angle_beta 62.199620
_cell_angle_gamma 90.000000
_cell_volume 1030.021146
_symmetry_space_group_name_H-M "P 21/C"
_symmetry_group_IT_number 14
_symmetry_cell_setting 'monoclinic'
loop_
_space_group_symop_operation_xyz
x,y,z
-x,1/2+y,1/2-z
-x,-y,-z
x,1/2-y,1/2+z
loop_
_atom_site_type_symbol
_atom_site_label
_atom_site_fract_x
_atom_site_fract_y
_atom_site_fract_z
Si Si1 0.359230 0.685046 0.347429
Si Si2 0.848939 0.871273 0.034145
Si Si3 0.193865 0.093943 0.332515
Si Si4 0.906152 0.026361 0.235229
Si Si5 0.429203 0.509602 0.881828
Si Si6 0.214548 0.819754 0.175791
Si Si7 0.719092 0.801934 0.411444
O O1 0.459139 0.565076 0.251554
O O2 0.300998 0.755894 0.247779
O O3 0.277538 0.638679 0.512087
O O4 0.435736 0.820003 0.370638
O O5 0.903164 0.719613 0.069037
O O6 0.821250 0.986256 0.154523
O O7 0.727441 0.807443 0.022023
O O8 0.955023 0.944539 0.894528
O O9 0.288705 0.026375 0.385938
O O10 0.283273 0.193994 0.200911
O O11 0.145375 0.958503 0.275384
O O12 0.869516 0.177721 0.314178
O O13 0.858240 0.888331 0.336305
O O14 0.394033 0.420043 0.023526
#
# Coordination Sequence:
#
# PCOD9244244 Si02
#       7
#     4   4   4   4   4   4   4
#     4  11  26  42  65  95 127 177 218 272 330 389
#     4   9  21  40  63  93 124 171 212 264 331 388
#     4   9  22  39  61  93 126 166 213 266 324 392
#     4  10  21  42  64  91 132 163 221 269 321 399
#     4  10  23  41  61  90 131 165 217 272 322 388
#     4  11  25  43  64  98 133 169 219 274 327 386
#     4  10  20  40  64  92 127 170 210 268 328 385
#
# _framework density 27.183907999999999
#
# number of rings (size 3 to 8) (size 9 to 14) (size 15 to 20)
#    0.000    2.000    1.429    0.000    6.000    5.714 
#    5.143    0.000    0.000    0.000    0.000    0.000 
#    0.000    0.000    0.000    0.000    0.000    0.000 
#
# Total GULP energy -156241.558850 kJ/mol
# GULP energy per Si atom -5580.055673 kJ/mol
# Density = 2.712204 g / cm^3
# Si number density = 27.183908 Si / 1000 Ang^3
#
#
#
# Elastic Constant Matrix: (Units=GPa)
#
#
# Indices 1 2 3 4 5 6 
#
# 1 47.4554 0.2534 13.4885 0.0000 7.5287 0.0000
# 2 0.2534 124.0855 28.6730 0.0000 -21.2526 0.0000
# 3 13.4885 28.6730 136.8984 0.0000 0.2186 0.0000
# 4 0.0000 0.0000 0.0000 56.1632 0.0000 -12.2290
# 5 7.5287 -21.2526 0.2186 0.0000 34.6803 0.0000
# 6 0.0000 0.0000 0.0000 -12.2290 0.0000 30.0140
#
#
#
# Elastic Compliance Matrix: (Units=1/GPa)
#
#
# Indices 1 2 3 4 5 6 
#
# 1 0.022491 -0.000437 -0.002116 0.000000 -0.005137 0.000000
# 2 -0.000437 0.009532 -0.001963 0.000000 0.005949 0.000000
# 3 -0.002116 -0.001963 0.007926 0.000000 -0.000793 0.000000
# 4 0.000000 0.000000 0.000000 0.019539 0.000000 0.007961
# 5 -0.005137 0.005949 -0.000793 0.000000 0.033600 0.000000
# 6 0.000000 0.000000 0.000000 0.007961 0.000000 0.036561
#
#
# Mechanical properties :
#
#
# Convention : Reuss Voigt Hill
#
# Bulk Modulus (GPa) = 32.34464 43.69658 38.02061
# Shear Modulus (GPa) = 33.55987 41.90647 37.73317
#
# Velocity S-wave (km/s) = 3.51743 3.93057 3.72972
# Velocity P-wave (km/s) = 5.33110 6.05875 5.70654
#
# Compressibility (1/GPa) = 0.03091702
#
# Stress axis : x y z
#
# Youngs Moduli (GPa) = 44.46178 104.90642 126.17311
#
# Poissons Ratio (x) = 0.04581 0.26703
# Poissons Ratio (y) = 0.01942 0.24768
# Poissons Ratio (z) = 0.09410 0.20593
#
# Static dielectric constant tensor:
#      x y z
#    x 2.237410 0.000000 0.147570 
#    y 0.000000 2.096340 0.000000 
#    z 0.147570 0.000000 2.223440 
# 
# From -- ./inp_files/31666.got.cif
#   From: 2010.05.17/outbox.cif.g08.bks.cpg/sg14_16_cif.got.tgz:31666.got - 2010.06.03 17:49:19.
