data_PCOD9244775
_publ_section_title
;
Structure prediction by ZEFSAII (Michael W. Deem and Ramdas Pophale) SiO2 
 PCOD9244775
Probable space group: P 21/C
;
_chemical_formula_sum "Si O2"
_cell_formula_units_Z 28
_cell_length_a 9.981199
_cell_length_b 9.644291
_cell_length_c 21.432432
_cell_angle_alpha 90.000000
_cell_angle_beta 36.311111
_cell_angle_gamma 90.000000
_cell_volume 1221.716608
_symmetry_space_group_name_H-M "P 21/C"
_symmetry_group_IT_number 14
_symmetry_cell_setting 'monoclinic'
loop_
_space_group_symop_operation_xyz
x,y,z
-x,1/2+y,1/2-z
-x,-y,-z
x,1/2-y,1/2+z
loop_
_atom_site_type_symbol
_atom_site_label
_atom_site_fract_x
_atom_site_fract_y
_atom_site_fract_z
Si Si1 0.128151 0.886026 0.095371
Si Si2 0.176917 0.130840 0.253061
Si Si3 0.213450 0.615004 0.292352
Si Si4 0.655332 0.350667 0.620342
Si Si5 0.061271 0.113735 0.610835
Si Si6 0.447844 0.240480 0.540233
Si Si7 0.633642 0.047086 0.580290
O O1 0.955094 0.759244 0.167458
O O2 0.221637 0.893837 0.989668
O O3 0.345482 0.841713 0.054600
O O4 0.987119 0.022596 0.160889
O O5 0.395991 0.099268 0.213089
O O6 0.279166 0.179608 0.149698
O O7 0.012584 0.001024 0.311438
O O8 0.233515 0.592784 0.359165
O O9 0.445650 0.560309 0.175102
O O10 0.135623 0.773401 0.315807
O O11 0.650801 0.181685 0.618606
O O12 0.297246 0.184528 0.541368
O O13 0.129560 0.028716 0.523185
O O14 0.550462 0.118251 0.545834
#
# Coordination Sequence:
#
# PCOD9244775 Si02
#       7
#     4   4   4   4   4   4   4
#     4  10  20  44  66  91 131 180 213 264 341 388
#     4  10  21  41  69  93 130 179 217 260 342 387
#     4  12  26  40  67 103 131 168 228 280 324 393
#     4  10  23  42  69  92 133 178 218 275 329 402
#     4  12  26  40  70 102 129 175 224 276 330 397
#     4  10  23  41  71  93 134 175 219 270 330 406
#     4  10  23  46  62  98 134 172 222 269 337 396
#
# _framework density 22.918572999999999
#
# number of rings (size 3 to 8) (size 9 to 14) (size 15 to 20)
#    0.000    1.714    5.714    0.857    4.000    4.571 
#    0.000    0.000    0.000    0.000    0.000    0.000 
#    0.000    0.000    0.000    0.000    0.000    0.000 
#
# Total GULP energy -156494.717636 kJ/mol
# GULP energy per Si atom -5589.097058 kJ/mol
# Density = 2.286641 g / cm^3
# Si number density = 22.918573 Si / 1000 Ang^3
#
#
#
# Elastic Constant Matrix: (Units=GPa)
#
#
# Indices 1 2 3 4 5 6 
#
# 1 46.9300 -8.6895 -19.0001 0.0000 -6.7004 0.0000
# 2 -8.6895 72.9221 27.3834 0.0000 -6.8859 0.0000
# 3 -19.0001 27.3834 102.8079 0.0000 -11.6626 0.0000
# 4 0.0000 0.0000 0.0000 26.6674 0.0000 1.5477
# 5 -6.7004 -6.8859 -11.6626 0.0000 12.3625 0.0000
# 6 0.0000 0.0000 0.0000 1.5477 0.0000 13.0969
#
#
#
# Elastic Compliance Matrix: (Units=1/GPa)
#
#
# Indices 1 2 3 4 5 6 
#
# 1 0.028070 0.002906 0.007081 0.000000 0.023513 0.000000
# 2 0.002906 0.015845 -0.002803 0.000000 0.007756 0.000000
# 3 0.007081 -0.002803 0.013483 0.000000 0.014996 0.000000
# 4 0.000000 0.000000 0.000000 0.037758 0.000000 -0.004462
# 5 0.023513 0.007756 0.014996 0.000000 0.112101 0.000000
# 6 0.000000 0.000000 0.000000 -0.004462 0.000000 0.076881
#
#
# Mechanical properties :
#
#
# Convention : Reuss Voigt Hill
#
# Bulk Modulus (GPa) = 13.93422 24.67195 19.30309
# Shear Modulus (GPa) = 17.02455 25.28975 21.15715
#
# Velocity S-wave (km/s) = 2.72844 3.32544 3.04163
# Velocity P-wave (km/s) = 4.00237 5.05304 4.55808
#
# Compressibility (1/GPa) = 0.07176574
#
# Stress axis : x y z
#
# Youngs Moduli (GPa) = 35.62491 63.11272 74.16524
#
# Poissons Ratio (x) = -0.18342 -0.52516
# Poissons Ratio (y) = -0.10353 0.20791
# Poissons Ratio (z) = -0.25226 0.17693
#
# Static dielectric constant tensor:
#      x y z
#    x 1.875440 0.000000 -0.033550 
#    y 0.000000 1.879670 0.000000 
#    z -0.033550 0.000000 1.819920 
# 
# From -- ./inp_files/77099.got.cif
#   From: 2010.05.17/outbox.cif.g08.bks.cpg/sg14_39_cif.got.tgz:77099.got - 2010.06.03 17:49:19.
