data_PCOD9244083
_publ_section_title
;
Structure prediction by ZEFSAII (Michael W. Deem and Ramdas Pophale) SiO2 
 PCOD9244083
Probable space group: P 21/C
;
_chemical_formula_sum "Si O2"
_cell_formula_units_Z 32
_cell_length_a 20.836127
_cell_length_b 8.266187
_cell_length_c 26.292124
_cell_angle_alpha 90.000000
_cell_angle_beta 160.702474
_cell_angle_gamma 90.000000
_cell_volume 1496.527552
_symmetry_space_group_name_H-M "P 21/C"
_symmetry_group_IT_number 14
_symmetry_cell_setting 'monoclinic'
loop_
_space_group_symop_operation_xyz
x,y,z
-x,1/2+y,1/2-z
-x,-y,-z
x,1/2-y,1/2+z
loop_
_atom_site_type_symbol
_atom_site_label
_atom_site_fract_x
_atom_site_fract_y
_atom_site_fract_z
Si Si1 0.454604 0.900772 0.379747
Si Si2 0.841386 0.060314 0.680874
Si Si3 0.134584 0.444791 0.148279
Si Si4 0.534266 0.062895 0.170302
Si Si5 0.814061 0.551093 0.395155
Si Si6 0.813220 0.182275 0.070510
Si Si7 0.182789 0.737070 0.041681
Si Si8 0.916907 0.261850 0.338653
O O1 0.509724 0.737471 0.389156
O O2 0.271459 0.845303 0.276396
O O3 0.640315 0.973653 0.546064
O O4 0.368691 0.040577 0.278459
O O5 0.802288 0.183601 0.605885
O O6 0.932619 0.162121 0.795342
O O7 0.988338 0.918646 0.775765
O O8 0.345143 0.457900 0.281108
O O9 0.121366 0.573153 0.184198
O O10 0.000000 0.500000 0.000000
O O11 0.033223 0.289454 0.096256
O O12 0.673823 0.113147 0.322006
O O13 0.355184 0.953066 0.052315
O O14 0.767784 0.416218 0.402614
O O15 0.000000 0.500000 0.500000
O O16 0.891918 0.703676 0.484226
O O17 0.809490 0.268124 0.012706
#
# Coordination Sequence:
#
# PCOD9244083 Si02
#       8
#     4   4   4   4   4   4   4   4
#     4   9  20  40  67  94 127 163 218 274 321 386
#     4  12  26  43  61  89 135 179 215 255 326 399
#     4   9  19  39  67  98 125 159 211 278 326 373
#     4   9  21  44  64  94 131 163 219 272 329 380
#     4   9  17  35  66  97 122 156 206 277 322 365
#     4  12  27  44  61  93 135 185 214 263 329 401
#     4  10  21  40  66  97 126 163 219 271 321 379
#     4  10  20  39  66  97 127 164 219 270 325 380
#
# _framework density 21.382835
#
# number of rings (size 3 to 8) (size 9 to 14) (size 15 to 20)
#    0.000    2.000    1.250    3.375    1.750    6.000 
#    6.750    1.250    0.000    0.000    0.000    0.000 
#    0.000    0.000    0.000    0.000    0.000    0.000 
#
# Total GULP energy -178563.296693 kJ/mol
# GULP energy per Si atom -5580.103022 kJ/mol
# Density = 2.133417 g / cm^3
# Si number density = 21.382835 Si / 1000 Ang^3
#
#
#
# Elastic Constant Matrix: (Units=GPa)
#
#
# Indices 1 2 3 4 5 6 
#
# 1 43.5533 9.1152 -12.7562 0.0000 -9.5811 0.0000
# 2 9.1152 47.0877 12.8533 0.0000 -4.4691 0.0000
# 3 -12.7562 12.8533 58.0732 0.0000 9.9650 0.0000
# 4 0.0000 0.0000 0.0000 33.5808 0.0000 3.1342
# 5 -9.5811 -4.4691 9.9650 0.0000 23.1175 0.0000
# 6 0.0000 0.0000 0.0000 3.1342 0.0000 30.6690
#
#
#
# Elastic Compliance Matrix: (Units=1/GPa)
#
#
# Indices 1 2 3 4 5 6 
#
# 1 0.027780 -0.006347 0.006200 0.000000 0.007614 0.000000
# 2 -0.006347 0.025168 -0.007935 0.000000 0.005655 0.000000
# 3 0.006200 -0.007935 0.021770 0.000000 -0.008349 0.000000
# 4 0.000000 0.000000 0.000000 0.030066 0.000000 -0.003073
# 5 0.007614 0.005655 -0.008349 0.000000 0.051105 0.000000
# 6 0.000000 0.000000 0.000000 -0.003073 0.000000 0.032920
#
#
# Mechanical properties :
#
#
# Convention : Reuss Voigt Hill
#
# Bulk Modulus (GPa) = 17.07819 18.57098 17.82458
# Shear Modulus (GPa) = 22.27250 26.77357 24.52303
#
# Velocity S-wave (km/s) = 3.23089 3.54235 3.39020
# Velocity P-wave (km/s) = 4.68214 5.04330 4.86607
#
# Compressibility (1/GPa) = 0.05855423
#
# Stress axis : x y z
#
# Youngs Moduli (GPa) = 35.99747 39.73221 45.93376
#
# Poissons Ratio (x) = 0.25220 -0.28481
# Poissons Ratio (y) = 0.22849 0.36449
# Poissons Ratio (z) = -0.22320 0.31528
#
# Static dielectric constant tensor:
#      x y z
#    x 1.766050 0.000000 0.008880 
#    y 0.000000 1.795920 0.000000 
#    z 0.008880 0.000000 1.781120 
# 
# From -- ./inp_files/77995.got.cif
#   From: 2010.05.17/outbox.cif.g08.bks.cpg/sg14_39_cif.got.tgz:77995.got - 2010.06.03 17:49:19.
