data_PCOD9244637
_publ_section_title
;
Structure prediction by ZEFSAII (Michael W. Deem and Ramdas Pophale) SiO2 
 PCOD9244637
Probable space group: P 21/C
;
_chemical_formula_sum "Si O2"
_cell_formula_units_Z 32
_cell_length_a 15.923381
_cell_length_b 11.527756
_cell_length_c 9.103541
_cell_angle_alpha 90.000000
_cell_angle_beta 66.771928
_cell_angle_gamma 90.000000
_cell_volume 1535.601822
_symmetry_space_group_name_H-M "P 21/C"
_symmetry_group_IT_number 14
_symmetry_cell_setting 'monoclinic'
loop_
_space_group_symop_operation_xyz
x,y,z
-x,1/2+y,1/2-z
-x,-y,-z
x,1/2-y,1/2+z
loop_
_atom_site_type_symbol
_atom_site_label
_atom_site_fract_x
_atom_site_fract_y
_atom_site_fract_z
Si Si1 0.333115 0.722854 0.452559
Si Si2 0.215381 0.645587 0.794121
Si Si3 0.995726 0.134404 0.537782
Si Si4 0.396556 0.472982 0.406955
Si Si5 0.443453 0.944965 0.406827
Si Si6 0.320460 0.420695 0.776127
Si Si7 0.764290 0.830675 0.114674
Si Si8 0.888395 0.776391 0.278984
O O1 0.251025 0.673297 0.607757
O O2 0.284215 0.779999 0.346978
O O3 0.398215 0.611946 0.385806
O O4 0.389588 0.828488 0.485199
O O5 0.109753 0.673114 0.887661
O O6 0.236339 0.510602 0.814693
O O7 0.052725 0.201801 0.375185
O O8 0.044335 0.155966 0.659785
O O9 0.000000 0.000000 0.500000
O O10 0.485505 0.416879 0.273363
O O11 0.381246 0.439731 0.587601
O O12 0.308923 0.426434 0.378152
O O13 0.500000 0.000000 0.500000
O O14 0.374131 0.037322 0.383141
O O15 0.286990 0.290271 0.814825
O O16 0.823887 0.854754 0.219068
O O17 0.827196 0.803473 0.929286
#
# Coordination Sequence:
#
# PCOD9244637 Si02
#       8
#     4   4   4   4   4   4   4   4
#     4  10  23  42  65  94 132 170 213 268 322 404
#     4  10  20  42  66  91 128 169 213 256 341 395
#     4  11  23  42  70  98 134 175 215 286 340 407
#     4  11  24  42  67  92 132 177 218 273 334 390
#     4  11  25  42  66 103 131 167 226 273 323 398
#     4  10  23  43  68  89 128 180 210 274 332 397
#     4  11  22  43  66  94 130 174 223 274 336 398
#     4  10  23  42  64 102 129 164 230 276 332 406
#
# _framework density 20.838735
#
# number of rings (size 3 to 8) (size 9 to 14) (size 15 to 20)
#    0.000    1.500    1.250    3.375    5.250    0.000 
#    4.500    1.250    0.000    0.000    0.000    0.000 
#    0.000    0.000    0.000    0.000    0.000    0.000 
#
# Total GULP energy -178943.107886 kJ/mol
# GULP energy per Si atom -5591.972121 kJ/mol
# Density = 2.079130 g / cm^3
# Si number density = 20.838735 Si / 1000 Ang^3
#
#
#
# Elastic Constant Matrix: (Units=GPa)
#
#
# Indices 1 2 3 4 5 6 
#
# 1 95.0504 30.1269 26.5171 0.0000 13.4006 0.0000
# 2 30.1269 93.5081 15.7418 0.0000 17.5028 0.0000
# 3 26.5171 15.7418 67.6797 0.0000 11.7092 0.0000
# 4 0.0000 0.0000 0.0000 16.9117 0.0000 -0.1910
# 5 13.4006 17.5028 11.7092 0.0000 42.4095 0.0000
# 6 0.0000 0.0000 0.0000 -0.1910 0.0000 27.0769
#
#
#
# Elastic Compliance Matrix: (Units=1/GPa)
#
#
# Indices 1 2 3 4 5 6 
#
# 1 0.012879 -0.003162 -0.004024 0.000000 -0.001653 0.000000
# 2 -0.003162 0.012620 -0.001017 0.000000 -0.003928 0.000000
# 3 -0.004024 -0.001017 0.017114 0.000000 -0.003034 0.000000
# 4 0.000000 0.000000 0.000000 0.059135 0.000000 0.000417
# 5 -0.001653 -0.003928 -0.003034 0.000000 0.026561 0.000000
# 6 0.000000 0.000000 0.000000 0.000417 0.000000 0.036935
#
#
# Mechanical properties :
#
#
# Convention : Reuss Voigt Hill
#
# Bulk Modulus (GPa) = 38.16028 44.55665 41.35846
# Shear Modulus (GPa) = 26.26258 29.53644 27.89951
#
# Velocity S-wave (km/s) = 3.55389 3.76890 3.66297
# Velocity P-wave (km/s) = 5.93229 6.35354 6.14653
#
# Compressibility (1/GPa) = 0.02620526
#
# Stress axis : x y z
#
# Youngs Moduli (GPa) = 77.64642 79.24195 58.43307
#
# Poissons Ratio (x) = 0.25060 0.23516
# Poissons Ratio (y) = 0.24555 0.05940
# Poissons Ratio (z) = 0.31248 0.08055
#
# Static dielectric constant tensor:
#      x y z
#    x 1.751350 0.000000 0.000630 
#    y 0.000000 1.715760 0.000000 
#    z 0.000630 0.000000 1.740640 
# 
# From -- ./inp_files/15773.got.cif
#   From: 2010.05.17/outbox.cif.g08.bks.cpg/sg14_8_cif.got.tgz:15773.got - 2010.06.03 17:49:19.
