data_PCOD9244299
_publ_section_title
;
Structure prediction by ZEFSAII (Michael W. Deem and Ramdas Pophale) SiO2 
 PCOD9244299
Probable space group: P 21/C
;
_chemical_formula_sum "Si O2"
_cell_formula_units_Z 32
_cell_length_a 25.285633
_cell_length_b 8.816438
_cell_length_c 5.332560
_cell_angle_alpha 90.000000
_cell_angle_beta 117.065656
_cell_angle_gamma 90.000000
_cell_volume 1058.594641
_symmetry_space_group_name_H-M "P 21/C"
_symmetry_group_IT_number 14
_symmetry_cell_setting 'monoclinic'
loop_
_space_group_symop_operation_xyz
x,y,z
-x,1/2+y,1/2-z
-x,-y,-z
x,1/2-y,1/2+z
loop_
_atom_site_type_symbol
_atom_site_label
_atom_site_fract_x
_atom_site_fract_y
_atom_site_fract_z
Si Si1 0.567739 0.904565 0.370297
Si Si2 0.694772 0.877049 0.805184
Si Si3 0.440038 0.894481 0.145764
Si Si4 0.845320 0.352483 0.922043
Si Si5 0.227689 0.075703 0.442001
Si Si6 0.024220 0.852228 0.286733
Si Si7 0.686251 0.177059 0.066647
Si Si8 0.103353 0.149368 0.975350
O O1 0.630505 0.823189 0.563409
O O2 0.504415 0.819500 0.237379
O O3 0.560842 0.014403 0.595125
O O4 0.569993 0.993443 0.112601
O O5 0.743133 0.741828 0.936987
O O6 0.721618 0.977737 0.638698
O O7 0.685428 0.995156 0.011772
O O8 0.383522 0.786401 0.046893
O O9 0.842416 0.262106 0.654227
O O10 0.911138 0.428418 0.069983
O O11 0.796077 0.480008 0.870609
O O12 0.166477 0.070486 0.147853
O O13 0.023170 0.750276 0.034466
O O14 0.960417 0.936487 0.152540
O O15 0.712347 0.257207 0.878466
O O16 0.104063 0.238581 0.716020
#
# Coordination Sequence:
#
# PCOD9244299 Si02
#       8
#     4   4   4   4   4   4   4   4
#     4   9  19  40  69 103 150 191 253 313 371 454
#     4  11  27  47  71 114 153 214 263 318 385 481
#     4   9  18  39  72 106 141 198 248 314 384 443
#     4  10  24  47  74 111 149 201 263 331 396 468
#     4  12  26  46  76 106 158 211 264 320 390 480
#     4   8  16  35  67 101 144 187 252 318 392 453
#     4  11  24  46  75 110 150 198 259 324 391 459
#     4  10  20  40  66 104 146 198 253 316 381 468
#
# _framework density 30.228756000000001
#
# number of rings (size 3 to 8) (size 9 to 14) (size 15 to 20)
#    0.000    2.000    1.250    1.500    0.000    6.500 
#    2.250    0.000    0.000    9.000    0.000    0.000 
#    0.000    0.000    0.000    0.000    0.000    0.000 
#
# Total GULP energy -179298.772463 kJ/mol
# GULP energy per Si atom -5603.086639 kJ/mol
# Density = 3.015995 g / cm^3
# Si number density = 30.228756 Si / 1000 Ang^3
#
#
#
# Elastic Constant Matrix: (Units=GPa)
#
#
# Indices 1 2 3 4 5 6 
#
# 1 193.6103 43.4475 80.4833 0.0000 18.5881 0.0000
# 2 43.4475 146.6566 73.1845 0.0000 -26.0318 0.0000
# 3 80.4833 73.1845 158.2837 0.0000 -27.9853 0.0000
# 4 0.0000 0.0000 0.0000 63.7008 0.0000 -15.3365
# 5 18.5881 -26.0318 -27.9853 0.0000 118.0344 0.0000
# 6 0.0000 0.0000 0.0000 -15.3365 0.0000 46.4496
#
#
#
# Elastic Compliance Matrix: (Units=1/GPa)
#
#
# Indices 1 2 3 4 5 6 
#
# 1 0.007029 -0.000634 -0.003655 0.000000 -0.002113 0.000000
# 2 -0.000634 0.009042 -0.003641 0.000000 0.001231 0.000000
# 3 -0.003655 -0.003641 0.010249 0.000000 0.002203 0.000000
# 4 0.000000 0.000000 0.000000 0.017054 0.000000 0.005631
# 5 -0.002113 0.001231 0.002203 0.000000 0.009599 0.000000
# 6 0.000000 0.000000 0.000000 0.005631 0.000000 0.023388
#
#
# Mechanical properties :
#
#
# Convention : Reuss Voigt Hill
#
# Bulk Modulus (GPa) = 95.59004 99.19792 97.39398
# Shear Modulus (GPa) = 52.24315 65.73266 58.98790
#
# Velocity S-wave (km/s) = 4.16174 4.66822 4.42224
# Velocity P-wave (km/s) = 7.40165 7.87041 7.63962
#
# Compressibility (1/GPa) = 0.01046134
#
# Stress axis : x y z
#
# Youngs Moduli (GPa) = 142.25809 110.59978 97.57090
#
# Poissons Ratio (x) = 0.07009 0.35662
# Poissons Ratio (y) = 0.09015 0.35522
# Poissons Ratio (z) = 0.51994 0.40266
#
# Static dielectric constant tensor:
#      x y z
#    x 2.319300 0.000000 0.033740 
#    y 0.000000 2.431630 0.000000 
#    z 0.033740 0.000000 2.543640 
# 
# From -- ./inp_files/4421.got.cif
#   From: 2010.05.17/outbox.cif.g08.bks.cpg/sg14_3_cif.got.tgz:4421.got - 2010.06.03 17:49:19.
