data_PCOD9244858
_publ_section_title
;
Structure prediction by ZEFSAII (Michael W. Deem and Ramdas Pophale) SiO2 
 PCOD9244858
Probable space group: P 21/C
;
_chemical_formula_sum "Si O2"
_cell_formula_units_Z 26
_cell_length_a 17.860600
_cell_length_b 4.846592
_cell_length_c 22.073965
_cell_angle_alpha 90.000000
_cell_angle_beta 34.726929
_cell_angle_gamma 90.000000
_cell_volume 1088.511581
_symmetry_space_group_name_H-M "P 21/C"
_symmetry_group_IT_number 14
_symmetry_cell_setting 'monoclinic'
loop_
_space_group_symop_operation_xyz
x,y,z
-x,1/2+y,1/2-z
-x,-y,-z
x,1/2-y,1/2+z
loop_
_atom_site_type_symbol
_atom_site_label
_atom_site_fract_x
_atom_site_fract_y
_atom_site_fract_z
Si Si1 0.000000 0.000000 0.000000
Si Si2 0.087219 0.283366 0.255899
Si Si3 0.838278 0.976189 0.668241
Si Si4 0.594565 0.210221 0.369432
Si Si5 0.058240 0.343804 0.567507
Si Si6 0.808511 0.513987 0.929680
Si Si7 0.418043 0.786300 0.981452
O O1 0.131239 0.214738 0.893044
O O2 0.081545 0.894193 0.009946
O O3 0.152920 0.135956 0.268917
O O4 0.178359 0.288506 0.137359
O O5 0.040966 0.580021 0.312316
O O6 0.946717 0.148328 0.335691
O O7 0.707231 0.156350 0.753661
O O8 0.957230 0.207660 0.583977
O O9 0.629898 0.224302 0.417733
O O10 0.466137 0.401536 0.446831
O O11 0.548698 0.901711 0.386425
O O12 0.177499 0.184323 0.517477
O O13 0.688941 0.311886 0.995891
#
# Coordination Sequence:
#
# PCOD9244858 Si02
#       7
#     2   4   4   4   4   4   4
#     4  10  22  40  64  92 118 164 218 286 340 402
#     4  10  21  32  56  91 122 163 200 269 342 398
#     4  10  22  38  63  87 125 160 223 271 343 401
#     4  10  23  39  59  91 124 180 212 270 316 406
#     4  10  21  37  59  91 122 163 205 278 342 399
#     4  11  21  34  56  89 129 164 209 265 333 419
#     4  10  24  37  59  88 134 173 218 255 330 401
#
# _framework density 23.885828
#
# number of rings (size 3 to 8) (size 9 to 14) (size 15 to 20)
#    0.000    1.846    1.538    1.385   15.077    0.000 
#    0.000    0.000    0.000    1.846    0.000    0.000 
#    0.000    0.000    0.000    0.000    0.000    0.000 
#
# Total GULP energy -144928.950988 kJ/mol
# GULP energy per Si atom -5574.190423 kJ/mol
# Density = 2.383146 g / cm^3
# Si number density = 23.885828 Si / 1000 Ang^3
#
#
#
# Elastic Constant Matrix: (Units=GPa)
#
#
# Indices 1 2 3 4 5 6 
#
# 1 114.8277 14.4077 35.7917 0.0000 2.4393 0.0000
# 2 14.4077 83.7536 21.3283 0.0000 -0.8557 0.0000
# 3 35.7917 21.3283 80.7380 0.0000 -5.6804 0.0000
# 4 0.0000 0.0000 0.0000 45.1683 0.0000 -2.1720
# 5 2.4393 -0.8557 -5.6804 0.0000 32.6016 0.0000
# 6 0.0000 0.0000 0.0000 -2.1720 0.0000 48.6193
#
#
#
# Elastic Compliance Matrix: (Units=1/GPa)
#
#
# Indices 1 2 3 4 5 6 
#
# 1 0.010215 -0.000635 -0.004470 0.000000 -0.001560 0.000000
# 2 -0.000635 0.012842 -0.003122 0.000000 -0.000159 0.000000
# 3 -0.004470 -0.003122 0.015399 0.000000 0.002936 0.000000
# 4 0.000000 0.000000 0.000000 0.022187 0.000000 0.000991
# 5 -0.001560 -0.000159 0.002936 0.000000 0.031297 0.000000
# 6 0.000000 0.000000 0.000000 0.000991 0.000000 0.020612
#
#
# Mechanical properties :
#
#
# Convention : Reuss Voigt Hill
#
# Bulk Modulus (GPa) = 45.45210 46.93052 46.19131
# Shear Modulus (GPa) = 36.67257 39.13062 37.90160
#
# Velocity S-wave (km/s) = 3.92258 4.05190 3.98776
# Velocity P-wave (km/s) = 6.29172 6.44834 6.37051
#
# Compressibility (1/GPa) = 0.02200118
#
# Stress axis : x y z
#
# Youngs Moduli (GPa) = 97.89626 77.86661 64.93982
#
# Poissons Ratio (x) = 0.04943 0.29031
# Poissons Ratio (y) = 0.06214 0.20277
# Poissons Ratio (z) = 0.43764 0.24313
#
# Static dielectric constant tensor:
#      x y z
#    x 2.005380 0.000000 0.060490 
#    y 0.000000 2.147770 0.000000 
#    z 0.060490 0.000000 1.969550 
# 
# From -- ./inp_files/74062.got.cif
#   From: 2010.05.17/outbox.cif.g08.bks.cpg/sg14_38_cif.got.tgz:74062.got - 2010.06.03 17:49:19.
