data_PCOD9244890
_publ_section_title
;
Structure prediction by ZEFSAII (Michael W. Deem and Ramdas Pophale) SiO2 
 PCOD9244890
Probable space group: P 21/C
;
_chemical_formula_sum "Si O2"
_cell_formula_units_Z 24
_cell_length_a 14.103469
_cell_length_b 5.122287
_cell_length_c 12.692945
_cell_angle_alpha 90.000000
_cell_angle_beta 70.788540
_cell_angle_gamma 90.000000
_cell_volume 865.898739
_symmetry_space_group_name_H-M "P 21/C"
_symmetry_group_IT_number 14
_symmetry_cell_setting 'monoclinic'
loop_
_space_group_symop_operation_xyz
x,y,z
-x,1/2+y,1/2-z
-x,-y,-z
x,1/2-y,1/2+z
loop_
_atom_site_type_symbol
_atom_site_label
_atom_site_fract_x
_atom_site_fract_y
_atom_site_fract_z
Si Si1 0.898526 0.068817 0.168789
Si Si2 0.881244 0.064992 0.923028
Si Si3 0.613168 0.190663 0.358057
Si Si4 0.544948 0.561673 0.699539
Si Si5 0.753016 0.564676 0.973579
Si Si6 0.232813 0.072892 0.280696
O O1 0.823787 0.837529 0.227650
O O2 0.852464 0.351284 0.207022
O O3 0.898040 0.052189 0.042275
O O4 0.011910 0.016686 0.163624
O O5 0.842620 0.358013 0.918534
O O6 0.792994 0.855139 0.937398
O O7 0.495487 0.280750 0.388527
O O8 0.659370 0.046165 0.440994
O O9 0.672755 0.458155 0.316287
O O10 0.506055 0.267102 0.700182
O O11 0.637213 0.480782 0.741903
O O12 0.735232 0.563261 0.106699
#
# Coordination Sequence:
#
# PCOD9244890 Si02
#       6
#     4   4   4   4   4   4
#     4   9  18  34  54  80 114 147 180 223 274 325
#     4   9  18  34  54  80 114 147 180 223 274 325
#     4  10  22  38  60  78 114 142 186 236 284 336
#     4   8  20  36  58  76 106 148 176 224 302 340
#     4  10  21  34  57  84 108 146 189 226 271 329
#     4  10  21  34  57  84 108 146 189 226 271 329
#
# _framework density 27.716864999999999
#
# number of rings (size 3 to 8) (size 9 to 14) (size 15 to 20)
#    1.000    1.667    0.000    1.000    4.667    4.000 
#    0.000    5.000    0.000    0.000    0.000    0.000 
#    0.000    0.000    0.000    0.000    0.000    0.000 
#
# Total GULP energy -133886.373334 kJ/mol
# GULP energy per Si atom -5578.598889 kJ/mol
# Density = 2.765378 g / cm^3
# Si number density = 27.716865 Si / 1000 Ang^3
#
#
#
# Elastic Constant Matrix: (Units=GPa)
#
#
# Indices 1 2 3 4 5 6 
#
# 1 142.8644 53.5008 44.4802 0.0000 48.7890 0.0000
# 2 53.5008 184.6356 29.2445 0.0000 -0.5398 0.0000
# 3 44.4802 29.2445 60.2886 0.0000 11.3009 0.0000
# 4 0.0000 0.0000 0.0000 8538.3282 0.000025057.4410
# 5 48.7890 -0.5398 11.3009 0.0000 38.6070 0.0000
# 6 0.0000 0.0000 0.000025057.4410 0.000073889.8395
#
#
#
# Elastic Compliance Matrix: (Units=1/GPa)
#
#
# Indices 1 2 3 4 5 6 
#
# 1 0.017727 -0.004038 -0.007311 0.000000 -0.020319 0.000000
# 2 -0.004038 0.006821 -0.001380 0.000000 0.005602 0.000000
# 3 -0.007311 -0.001380 0.022137 0.000000 0.002741 0.000000
# 4 0.000000 0.000000 0.000000 0.024464 0.000000 -0.008296
# 5 -0.020319 0.005602 0.002741 0.000000 0.050856 0.000000
# 6 0.000000 0.000000 0.000000 -0.008296 0.000000 0.002827
#
#
# Mechanical properties :
#
#
# Convention : Reuss Voigt Hill
#
# Bulk Modulus (GPa) = 47.11059 71.35998 59.23528
# Shear Modulus (GPa) = 31.77321 16510.72582 8271.24951
#
# Velocity S-wave (km/s) = 3.38945 77.26484 54.68704
# Velocity P-wave (km/s) = 5.68787 89.36224 63.31651
#
# Compressibility (1/GPa) = 0.02122665
#
# Stress axis : x y z
#
# Youngs Moduli (GPa) = 56.41052 146.60494 45.17389
#
# Poissons Ratio (x) = 0.59200 0.33029
# Poissons Ratio (y) = 0.22779 0.06232
# Poissons Ratio (z) = 0.41244 0.20226
#
# Static dielectric constant tensor:
#      x y z
#    x 2.199300 0.000000 0.024900 
#    y 0.000000 2.136590 0.000000 
#    z 0.024900 0.000000 2.318910 
# 
# From -- ./inp_files/56543.got.cif
#   From: 2010.05.17/outbox.cif.g08.bks.cpg/sg14_29_cif.got.tgz:56543.got - 2010.06.03 17:49:19.
