data_PCOD9244750
_publ_section_title
;
Structure prediction by ZEFSAII (Michael W. Deem and Ramdas Pophale) SiO2 
 PCOD9244750
Probable space group: P 21/C
;
_chemical_formula_sum "Si O2"
_cell_formula_units_Z 28
_cell_length_a 15.317388
_cell_length_b 10.459822
_cell_length_c 9.447738
_cell_angle_alpha 90.000000
_cell_angle_beta 121.885294
_cell_angle_gamma 90.000000
_cell_volume 1285.284942
_symmetry_space_group_name_H-M "P 21/C"
_symmetry_group_IT_number 14
_symmetry_cell_setting 'monoclinic'
loop_
_space_group_symop_operation_xyz
x,y,z
-x,1/2+y,1/2-z
-x,-y,-z
x,1/2-y,1/2+z
loop_
_atom_site_type_symbol
_atom_site_label
_atom_site_fract_x
_atom_site_fract_y
_atom_site_fract_z
Si Si1 0.809513 0.911675 0.664084
Si Si2 0.517727 0.845189 0.518113
Si Si3 0.295907 0.816455 0.435010
Si Si4 0.821360 0.233914 0.919768
Si Si5 0.172714 0.060169 0.001699
Si Si6 0.346701 0.283584 0.598686
Si Si7 0.981602 0.443470 0.140113
O O1 0.748679 0.811737 0.514323
O O2 0.732798 0.034103 0.604811
O O3 0.912549 0.960540 0.676122
O O4 0.829662 0.871028 0.844870
O O5 0.407729 0.791888 0.471300
O O6 0.602832 0.805198 0.706206
O O7 0.562127 0.775887 0.417351
O O8 0.500000 0.000000 0.500000
O O9 0.279974 0.774650 0.580848
O O10 0.207257 0.746834 0.267849
O O11 0.912926 0.319314 0.053408
O O12 0.841818 0.086809 0.967695
O O13 0.082829 0.091877 0.815111
O O14 0.284064 0.083397 0.024279
O O15 0.000000 0.500000 0.000000
#
# Coordination Sequence:
#
# PCOD9244750 Si02
#       7
#     4   4   4   4   4   4   4
#     4  10  23  46  69  95 143 191 238 297 367 440
#     4  12  24  46  73 106 145 193 240 307 378 446
#     4  10  20  43  69  92 135 178 231 292 362 433
#     4  10  22  43  66 100 134 184 235 294 361 438
#     4  11  24  45  67  99 143 194 235 299 375 437
#     4  12  25  45  74 105 142 188 248 304 371 453
#     4  11  25  41  73 106 143 187 246 304 368 448
#
# _framework density 21.785052
#
# number of rings (size 3 to 8) (size 9 to 14) (size 15 to 20)
#    0.000    1.143    2.857    3.000    4.000    0.000 
#    0.000    1.429    0.000    0.000    0.000    0.000 
#    0.000    0.000    0.000    0.000    0.000    0.000 
#
# Total GULP energy -156267.224366 kJ/mol
# GULP energy per Si atom -5580.972299 kJ/mol
# Density = 2.173547 g / cm^3
# Si number density = 21.785052 Si / 1000 Ang^3
#
#
#
# Elastic Constant Matrix: (Units=GPa)
#
#
# Indices 1 2 3 4 5 6 
#
# 1 89.4506 15.4751 20.3288 0.0000 -7.5590 0.0000
# 2 15.4751 41.4123 39.6860 0.0000 -8.5341 0.0000
# 3 20.3288 39.6860 132.2406 0.0000 -0.2217 0.0000
# 4 0.0000 0.0000 0.0000 25.1645 0.0000 -6.5919
# 5 -7.5590 -8.5341 -0.2217 0.0000 33.9447 0.0000
# 6 0.0000 0.0000 0.0000 -6.5919 0.0000 24.3053
#
#
#
# Elastic Compliance Matrix: (Units=1/GPa)
#
#
# Indices 1 2 3 4 5 6 
#
# 1 0.012106 -0.003314 -0.000863 0.000000 0.001857 0.000000
# 2 -0.003314 0.037417 -0.010705 0.000000 0.008599 0.000000
# 3 -0.000863 -0.010705 0.010903 0.000000 -0.002812 0.000000
# 4 0.000000 0.000000 0.000000 0.042778 0.000000 0.011602
# 5 0.001857 0.008599 -0.002812 0.000000 0.032017 0.000000
# 6 0.000000 0.000000 0.000000 0.011602 0.000000 0.044290
#
#
# Mechanical properties :
#
#
# Convention : Reuss Voigt Hill
#
# Bulk Modulus (GPa) = 32.61496 46.00923 39.31209
# Shear Modulus (GPa) = 22.77968 29.19046 25.98507
#
# Velocity S-wave (km/s) = 3.23717 3.66448 3.45743
# Velocity P-wave (km/s) = 5.38295 6.25060 5.83293
#
# Compressibility (1/GPa) = 0.03066078
#
# Stress axis : x y z
#
# Youngs Moduli (GPa) = 82.60529 26.72613 91.72094
#
# Poissons Ratio (x) = 0.08856 0.07919
# Poissons Ratio (y) = 0.27372 0.98188
# Poissons Ratio (z) = 0.07132 0.28611
#
# Static dielectric constant tensor:
#      x y z
#    x 1.820360 0.000000 -0.011300 
#    y 0.000000 1.860430 0.000000 
#    z -0.011300 0.000000 1.807020 
# 
# From -- ./inp_files/15901.got.cif
#   From: 2010.05.17/outbox.cif.g08.bks.cpg/sg14_8_cif.got.tgz:15901.got - 2010.06.03 17:49:19.
