data_PCOD9244452
_publ_section_title
;
Structure prediction by ZEFSAII (Michael W. Deem and Ramdas Pophale) SiO2 
 PCOD9244452
Probable space group: P 21/C
;
_chemical_formula_sum "Si O2"
_cell_formula_units_Z 32
_cell_length_a 14.490507
_cell_length_b 8.339705
_cell_length_c 27.890628
_cell_angle_alpha 90.000000
_cell_angle_beta 152.064477
_cell_angle_gamma 90.000000
_cell_volume 1578.997499
_symmetry_space_group_name_H-M "P 21/C"
_symmetry_group_IT_number 14
_symmetry_cell_setting 'monoclinic'
loop_
_space_group_symop_operation_xyz
x,y,z
-x,1/2+y,1/2-z
-x,-y,-z
x,1/2-y,1/2+z
loop_
_atom_site_type_symbol
_atom_site_label
_atom_site_fract_x
_atom_site_fract_y
_atom_site_fract_z
Si Si1 0.161327 0.283366 0.294222
Si Si2 0.785358 0.938315 0.359219
Si Si3 0.063521 0.770020 0.037692
Si Si4 0.955353 0.483448 0.117061
Si Si5 0.623640 0.051648 0.881355
Si Si6 0.425185 0.734450 0.049259
Si Si7 0.157257 0.966909 0.873599
Si Si8 0.098010 0.156258 0.937118
O O1 0.356252 0.191663 0.366270
O O2 0.196057 0.380842 0.358621
O O3 0.091657 0.412695 0.222003
O O4 0.988193 0.154931 0.219503
O O5 0.563936 0.954821 0.238997
O O6 0.849250 0.780992 0.418492
O O7 0.932967 0.939033 0.381201
O O8 0.827737 0.097876 0.409498
O O9 0.186071 0.887290 0.060489
O O10 0.047466 0.833780 0.084404
O O11 0.917011 0.672777 0.095695
O O12 0.744008 0.398631 0.026075
O O13 0.571015 0.182473 0.897325
O O14 0.692679 0.893625 0.942457
O O15 0.349527 0.869038 0.977139
O O16 0.061029 0.021803 0.880070
#
# Coordination Sequence:
#
# PCOD9244452 Si02
#       8
#     4   4   4   4   4   4   4   4
#     4  11  21  42  68  93 121 169 203 259 323 375
#     4  10  21  38  60  90 122 169 207 258 314 369
#     4  10  22  40  59  86 131 165 211 263 306 359
#     4  10  20  41  63  88 133 159 205 262 311 371
#     4  11  21  38  63  92 121 167 213 250 314 372
#     4  10  21  39  65  93 123 160 205 257 310 379
#     4  10  23  41  63  92 126 159 212 259 315 372
#     4  10  23  41  58  91 131 167 205 264 308 364
#
# _framework density 20.266023000000001
#
# number of rings (size 3 to 8) (size 9 to 14) (size 15 to 20)
#    0.000    1.750    2.500    1.500    1.750    0.000 
#    6.750    6.875    0.000    0.000    0.000    0.000 
#    0.000    0.000    0.000    0.000    0.000    0.000 
#
# Total GULP energy -178569.231903 kJ/mol
# GULP energy per Si atom -5580.288497 kJ/mol
# Density = 2.021990 g / cm^3
# Si number density = 20.266023 Si / 1000 Ang^3
#
#
#
# Elastic Constant Matrix: (Units=GPa)
#
#
# Indices 1 2 3 4 5 6 
#
# 1 47.6893 7.2710 -7.0612 0.0000 -0.6021 0.0000
# 2 7.2710 46.3051 13.2065 0.0000 2.2541 0.0000
# 3 -7.0612 13.2065 60.2652 0.0000 11.7896 0.0000
# 4 0.0000 0.0000 0.0000 21.1684 0.0000 -10.9724
# 5 -0.6021 2.2541 11.7896 0.0000 19.7477 0.0000
# 6 0.0000 0.0000 0.0000 -10.9724 0.0000 31.1026
#
#
#
# Elastic Compliance Matrix: (Units=1/GPa)
#
#
# Indices 1 2 3 4 5 6 
#
# 1 0.022208 -0.004519 0.003803 0.000000 -0.001078 0.000000
# 2 -0.004519 0.023959 -0.005908 0.000000 0.000654 0.000000
# 3 0.003803 -0.005908 0.020583 0.000000 -0.011498 0.000000
# 4 0.000000 0.000000 0.000000 0.057812 0.000000 0.020395
# 5 -0.001078 0.000654 -0.011498 0.000000 0.057396 0.000000
# 6 0.000000 0.000000 0.000000 0.020395 0.000000 0.039347
#
#
# Mechanical properties :
#
#
# Convention : Reuss Voigt Hill
#
# Bulk Modulus (GPa) = 18.69120 20.12137 19.40628
# Shear Modulus (GPa) = 19.81102 23.79329 21.80215
#
# Velocity S-wave (km/s) = 3.12997 3.43016 3.28349
# Velocity P-wave (km/s) = 4.72284 5.06341 4.89609
#
# Compressibility (1/GPa) = 0.05350112
#
# Stress axis : x y z
#
# Youngs Moduli (GPa) = 45.02961 41.73863 48.58401
#
# Poissons Ratio (x) = 0.18863 -0.18477
# Poissons Ratio (y) = 0.20350 0.28703
# Poissons Ratio (z) = -0.17126 0.24659
#
# Static dielectric constant tensor:
#      x y z
#    x 1.703910 0.000000 -0.014880 
#    y 0.000000 1.722890 0.000000 
#    z -0.014880 0.000000 1.725910 
# 
# From -- ./inp_files/77520.got.cif
#   From: 2010.05.17/outbox.cif.g08.bks.cpg/sg14_39_cif.got.tgz:77520.got - 2010.06.03 17:49:19.
