data_PCOD9244185
_publ_section_title
;
Structure prediction by ZEFSAII (Michael W. Deem and Ramdas Pophale) SiO2 
 PCOD9244185
Probable space group: P 21/C
;
_chemical_formula_sum "Si O2"
_cell_formula_units_Z 28
_cell_length_a 16.441438
_cell_length_b 8.792259
_cell_length_c 15.363714
_cell_angle_alpha 90.000000
_cell_angle_beta 151.250898
_cell_angle_gamma 90.000000
_cell_volume 1068.215842
_symmetry_space_group_name_H-M "P 21/C"
_symmetry_group_IT_number 14
_symmetry_cell_setting 'monoclinic'
loop_
_space_group_symop_operation_xyz
x,y,z
-x,1/2+y,1/2-z
-x,-y,-z
x,1/2-y,1/2+z
loop_
_atom_site_type_symbol
_atom_site_label
_atom_site_fract_x
_atom_site_fract_y
_atom_site_fract_z
Si Si1 0.704830 0.872869 0.890128
Si Si2 0.040561 0.868209 0.471051
Si Si3 0.501009 0.175001 0.683255
Si Si4 0.832006 0.603009 0.326056
Si Si5 0.355153 0.701780 0.856798
Si Si6 0.236925 0.700393 0.932059
Si Si7 0.982512 0.541197 0.228678
O O1 0.655679 0.736706 0.908040
O O2 0.768701 0.818506 0.856417
O O3 0.552598 0.997143 0.737071
O O4 0.853739 0.971951 0.070395
O O5 0.896241 0.739224 0.326072
O O6 0.061049 0.952654 0.400157
O O7 0.199868 0.782513 0.661574
O O8 0.000000 0.000000 0.500000
O O9 0.499918 0.223468 0.580388
O O10 0.652841 0.258691 0.879910
O O11 0.689157 0.476340 0.179307
O O12 0.000000 0.500000 0.500000
O O13 0.343935 0.753798 0.946869
O O14 0.173337 0.525793 0.860278
O O15 0.060740 0.796642 0.774220
#
# Coordination Sequence:
#
# PCOD9244185 Si02
#       7
#     4   4   4   4   4   4   4
#     4  10  23  43  62  88 127 171 212 262 315 378
#     4  11  20  35  59  96 126 154 209 270 317 372
#     4  10  23  44  61  88 127 169 210 258 317 386
#     4   9  20  38  62  88 123 165 204 260 322 368
#     4  10  20  40  62  85 129 165 202 259 316 378
#     4  11  23  40  65  95 126 167 212 265 324 377
#     4  11  23  37  62  96 125 161 217 264 321 374
#
# _framework density 26.211933999999999
#
# number of rings (size 3 to 8) (size 9 to 14) (size 15 to 20)
#    0.000    1.714    2.857    1.714    4.000    2.286 
#    2.571    2.857    0.000    0.000    0.000    0.000 
#    0.000    0.000    0.000    0.000    0.000    0.000 
#
# Total GULP energy -156490.831813 kJ/mol
# GULP energy per Si atom -5588.958279 kJ/mol
# Density = 2.615227 g / cm^3
# Si number density = 26.211934 Si / 1000 Ang^3
#
#
#
# Elastic Constant Matrix: (Units=GPa)
#
#
# Indices 1 2 3 4 5 6 
#
# 1 164.1849 5.4046 -5.9597 0.0000 -17.3158 0.0000
# 2 5.4046 91.6634 -3.3995 0.0000 2.8233 0.0000
# 3 -5.9597 -3.3995 62.5464 0.0000 0.6882 0.0000
# 4 0.0000 0.0000 0.0000 41.8760 0.0000 -4.4549
# 5 -17.3158 2.8233 0.6882 0.0000 38.5159 0.0000
# 6 0.0000 0.0000 0.0000 -4.4549 0.0000 35.2797
#
#
#
# Elastic Compliance Matrix: (Units=1/GPa)
#
#
# Indices 1 2 3 4 5 6 
#
# 1 0.006433 -0.000448 0.000557 0.000000 0.002915 0.000000
# 2 -0.000448 0.010988 0.000566 0.000000 -0.001017 0.000000
# 3 0.000557 0.000566 0.016073 0.000000 -0.000078 0.000000
# 4 0.000000 0.000000 0.000000 0.024205 0.000000 0.003056
# 5 0.002915 -0.001017 -0.000078 0.000000 0.027350 0.000000
# 6 0.000000 0.000000 0.000000 0.003056 0.000000 0.028731
#
#
# Mechanical properties :
#
#
# Convention : Reuss Voigt Hill
#
# Bulk Modulus (GPa) = 28.70131 34.49840 31.59986
# Shear Modulus (GPa) = 40.30751 44.62426 42.46589
#
# Velocity S-wave (km/s) = 3.92568 4.13054 4.02941
# Velocity P-wave (km/s) = 5.61439 5.99486 5.80774
#
# Compressibility (1/GPa) = 0.03484161
#
# Stress axis : x y z
#
# Youngs Moduli (GPa) = 155.44606 91.00650 62.21703
#
# Poissons Ratio (x) = 0.04081 -0.03463
# Poissons Ratio (y) = 0.06971 -0.03519
# Poissons Ratio (z) = -0.08651 -0.05148
#
# Static dielectric constant tensor:
#      x y z
#    x 2.188200 0.000000 0.041740 
#    y 0.000000 2.063360 0.000000 
#    z 0.041740 0.000000 2.144920 
# 
# From -- ./inp_files/46747.got.cif
#   From: 2010.05.17/outbox.cif.g08.bks.cpg/sg14_24_cif.got.tgz:46747.got - 2010.06.03 17:49:19.
