data_PCOD9244779
_publ_section_title
;
Structure prediction by ZEFSAII (Michael W. Deem and Ramdas Pophale) SiO2 
 PCOD9244779
Probable space group: P 21/C
;
_chemical_formula_sum "Si O2"
_cell_formula_units_Z 32
_cell_length_a 11.438961
_cell_length_b 12.684077
_cell_length_c 14.094814
_cell_angle_alpha 90.000000
_cell_angle_beta 51.968998
_cell_angle_gamma 90.000000
_cell_volume 1610.843114
_symmetry_space_group_name_H-M "P 21/C"
_symmetry_group_IT_number 14
_symmetry_cell_setting 'monoclinic'
loop_
_space_group_symop_operation_xyz
x,y,z
-x,1/2+y,1/2-z
-x,-y,-z
x,1/2-y,1/2+z
loop_
_atom_site_type_symbol
_atom_site_label
_atom_site_fract_x
_atom_site_fract_y
_atom_site_fract_z
Si Si1 0.697658 0.375366 0.666392
Si Si2 0.256769 0.192653 0.679993
Si Si3 0.500000 0.250000 0.906114
Si Si4 1.000000 0.919703 0.277971
Si Si5 0.000000 0.348897 0.855108
Si Si6 0.697658 0.875366 0.135950
Si Si7 0.000000 0.244029 0.058974
Si Si8 0.743232 0.307347 0.436762
O O1 0.572653 0.337987 0.802256
O O2 0.703089 0.500000 0.648455
O O3 0.672897 0.323951 0.575002
O O4 0.854131 0.328511 0.625768
O O5 0.374171 0.203762 0.537915
O O6 0.147005 0.293283 0.739720
O O7 0.327103 0.176049 0.747899
O O8 0.145035 0.096060 0.714070
O O9 0.427347 0.162013 0.874909
O O10 0.625830 0.203762 0.912086
O O11 0.145035 0.903940 0.140895
O O12 1.000000 0.822766 0.352433
O O13 0.000000 0.029033 0.332168
O O14 0.000000 0.317558 0.965429
O O15 0.852996 0.293283 0.886724
O O16 0.854131 0.828511 0.020101
#
# Coordination Sequence:
#
# PCOD9244779 Si02
#       8
#     4   4   4   4   4   4   4   4
#     4  11  25  44  68  96 129 177 219 277 332 386
#     4  10  24  42  64  98 129 168 226 270 321 405
#     4  12  24  46  62  92 144 168 212 272 334 412
#     4  11  20  40  71  93 126 176 217 280 332 376
#     4   9  22  40  66  95 128 166 222 277 324 388
#     4  11  25  44  68  96 129 177 219 277 332 386
#     4  10  20  44  66  97 127 164 231 277 315 397
#     4  10  24  42  64  98 129 168 226 270 321 405
#
# _framework density 19.865372000000001
#
# number of rings (size 3 to 8) (size 9 to 14) (size 15 to 20)
#    0.000    1.500    2.500    2.250    3.500    1.000 
#    9.000    0.000    0.000    0.000    0.000    0.000 
#    0.000    0.000    0.000    0.000    0.000    0.000 
#
# Total GULP energy -178886.590010 kJ/mol
# GULP energy per Si atom -5590.205938 kJ/mol
# Density = 1.982016 g / cm^3
# Si number density = 19.865372 Si / 1000 Ang^3
#
#
#
# Elastic Constant Matrix: (Units=GPa)
#
#
# Indices 1 2 3 4 5 6 
#
# 1 128.6427 28.7207 47.8851 0.0000 15.2992 0.0000
# 2 28.7207 100.0621 31.6324 0.0000 7.2836 0.0000
# 3 47.8851 31.6324 137.5650 0.0000 7.0206 0.0000
# 4 0.0000 0.0000 0.0000 4.6263 0.0000 -0.1722
# 5 15.2992 7.2836 7.0206 0.0000 22.7257 0.0000
# 6 0.0000 0.0000 0.0000 -0.1722 0.0000 4.6951
#
#
#
# Elastic Compliance Matrix: (Units=1/GPa)
#
#
# Indices 1 2 3 4 5 6 
#
# 1 0.009775 -0.001546 -0.002780 0.000000 -0.005226 0.000000
# 2 -0.001546 0.011191 -0.001936 0.000000 -0.001948 0.000000
# 3 -0.002780 -0.001936 0.008692 0.000000 -0.000193 0.000000
# 4 0.000000 0.000000 0.000000 0.216449 0.000000 0.007938
# 5 -0.005226 -0.001948 -0.000193 0.000000 0.048205 0.000000
# 6 0.000000 0.000000 0.000000 0.007938 0.000000 0.213277
#
#
# Mechanical properties :
#
#
# Convention : Reuss Voigt Hill
#
# Bulk Modulus (GPa) = 58.36443 64.74957 61.55700
# Shear Modulus (GPa) = 9.50885 23.61155 16.56020
#
# Velocity S-wave (km/s) = 2.19021 3.45132 2.89038
# Velocity P-wave (km/s) = 5.98664 6.96757 6.49565
#
# Compressibility (1/GPa) = 0.01713372
#
# Stress axis : x y z
#
# Youngs Moduli (GPa) = 102.29972 89.35458 115.04751
#
# Poissons Ratio (x) = 0.13818 0.31987
# Poissons Ratio (y) = 0.15820 0.22270
# Poissons Ratio (z) = 0.28443 0.17296
#
# Static dielectric constant tensor:
#      x y z
#    x 1.701560 0.000000 0.006220 
#    y 0.000000 1.658060 0.000000 
#    z 0.006220 0.000000 1.704040 
# 
# From -- ./inp_files/44635.got.cif
#   From: 2010.05.17/outbox.cif.g08.bks.cpg/sg14_23_cif.got.tgz:44635.got - 2010.06.03 17:49:19.
