data_PCOD9244096
_publ_section_title
;
Structure prediction by ZEFSAII (Michael W. Deem and Ramdas Pophale) SiO2 
 PCOD9244096
Probable space group: P 21/C
;
_chemical_formula_sum "Si O2"
_cell_formula_units_Z 24
_cell_length_a 11.094934
_cell_length_b 17.216659
_cell_length_c 7.865154
_cell_angle_alpha 90.000000
_cell_angle_beta 44.854831
_cell_angle_gamma 90.000000
_cell_volume 1059.650577
_symmetry_space_group_name_H-M "P 21/C"
_symmetry_group_IT_number 14
_symmetry_cell_setting 'monoclinic'
loop_
_space_group_symop_operation_xyz
x,y,z
-x,1/2+y,1/2-z
-x,-y,-z
x,1/2-y,1/2+z
loop_
_atom_site_type_symbol
_atom_site_label
_atom_site_fract_x
_atom_site_fract_y
_atom_site_fract_z
Si Si1 0.553084 0.463592 0.674514
Si Si2 0.250000 0.124776 0.324542
Si Si3 0.944421 0.121602 0.145979
Si Si4 0.053085 0.963593 0.219316
Si Si5 0.750000 0.782222 0.027257
Si Si6 0.555580 0.378398 0.034820
O O1 0.418482 0.427059 0.679628
O O2 0.494145 0.548117 0.797693
O O3 0.750000 0.465234 0.421010
O O4 0.546658 0.410641 0.851814
O O5 0.081519 0.072941 0.516591
O O6 0.250000 0.189781 0.472845
O O7 0.250000 0.174378 0.152991
O O8 0.750000 0.145933 0.375556
O O9 0.080958 0.187978 0.045410
O O10 0.994146 0.048117 0.214016
O O11 0.953342 0.089359 0.945129
O O12 0.580958 0.812022 0.292674
#
# Coordination Sequence:
#
# PCOD9244096 Si02
#       6
#     4   4   4   4   4   4
#     4  10  20  39  67  94 123 162 206 251 306 370
#     4  12  26  42  62  90 129 166 207 258 310 366
#     4  10  20  39  67  94 123 162 206 251 306 370
#     4  10  20  39  67  94 123 162 206 251 306 370
#     4  12  26  42  62  90 129 166 207 258 310 366
#     4  10  20  39  67  94 123 162 206 251 306 370
#
# _framework density 22.648976000000001
#
# number of rings (size 3 to 8) (size 9 to 14) (size 15 to 20)
#    0.000    1.333    3.333    3.000    0.000    4.000 
#    0.000    0.000    0.000    0.000    0.000    0.000 
#    0.000    0.000    0.000    0.000    0.000    0.000 
#
# Total GULP energy -134479.807125 kJ/mol
# GULP energy per Si atom -5603.325297 kJ/mol
# Density = 2.259743 g / cm^3
# Si number density = 22.648976 Si / 1000 Ang^3
#
#
#
# Elastic Constant Matrix: (Units=GPa)
#
#
# Indices 1 2 3 4 5 6 
#
# 1 130.6726 27.6899 61.6141 0.0000 -30.4185 0.0000
# 2 27.6899 69.0461 35.3699 0.0000 -25.1643 0.0000
# 3 61.6141 35.3699 150.8875 0.0000 -35.8157 0.0000
# 4 0.0000 0.0000 0.0000 36.1975 0.0000 1.3207
# 5 -30.4185 -25.1643 -35.8157 0.0000 56.8558 0.0000
# 6 0.0000 0.0000 0.0000 1.3207 0.0000 36.6005
#
#
#
# Elastic Compliance Matrix: (Units=1/GPa)
#
#
# Indices 1 2 3 4 5 6 
#
# 1 0.010075 -0.001425 -0.003116 0.000000 0.002797 0.000000
# 2 -0.001425 0.018403 -0.002328 0.000000 0.005917 0.000000
# 3 -0.003116 -0.002328 0.009178 0.000000 0.003084 0.000000
# 4 0.000000 0.000000 0.000000 0.027663 0.000000 -0.000998
# 5 0.002797 0.005917 0.003084 0.000000 0.023646 0.000000
# 6 0.000000 0.000000 0.000000 -0.000998 0.000000 0.027358
#
#
# Mechanical properties :
#
#
# Convention : Reuss Voigt Hill
#
# Bulk Modulus (GPa) = 41.80914 66.66153 54.23534
# Shear Modulus (GPa) = 36.22328 40.99292 38.60810
#
# Velocity S-wave (km/s) = 4.00351 4.25894 4.13319
# Velocity P-wave (km/s) = 6.31430 7.32674 6.83928
#
# Compressibility (1/GPa) = 0.02391822
#
# Stress axis : x y z
#
# Youngs Moduli (GPa) = 99.25554 54.33821 108.96081
#
# Poissons Ratio (x) = 0.07742 0.33955
# Poissons Ratio (y) = 0.14143 0.25363
# Poissons Ratio (z) = 0.30931 0.12648
#
# Static dielectric constant tensor:
#      x y z
#    x 1.856970 0.000000 0.056480 
#    y 0.000000 1.777190 0.000000 
#    z 0.056480 0.000000 1.839730 
# 
# From -- ./inp_files/14099.got.cif
#   From: 2010.05.17/outbox.cif.g08.bks.cpg/sg14_8_cif.got.tgz:14099.got - 2010.06.03 17:49:19.
