data_PCOD9244682
_publ_section_title
;
Structure prediction by ZEFSAII (Michael W. Deem and Ramdas Pophale) SiO2 
 PCOD9244682
Probable space group: P 21/C
;
_chemical_formula_sum "Si O2"
_cell_formula_units_Z 16
_cell_length_a 4.736092
_cell_length_b 10.616803
_cell_length_c 14.716763
_cell_angle_alpha 90.000000
_cell_angle_beta 113.512965
_cell_angle_gamma 90.000000
_cell_volume 678.549020
_symmetry_space_group_name_H-M "P 21/C"
_symmetry_group_IT_number 14
_symmetry_cell_setting 'monoclinic'
loop_
_space_group_symop_operation_xyz
x,y,z
-x,1/2+y,1/2-z
-x,-y,-z
x,1/2-y,1/2+z
loop_
_atom_site_type_symbol
_atom_site_label
_atom_site_fract_x
_atom_site_fract_y
_atom_site_fract_z
Si Si1 0.705989 0.992109 0.397717
Si Si2 0.900416 0.106840 0.710897
Si Si3 0.704609 0.761325 0.630304
Si Si4 0.874432 0.399507 0.413833
O O1 0.488368 0.112841 0.385691
O O2 0.558029 0.115340 0.625658
O O3 0.869329 0.972797 0.321654
O O4 0.000000 0.000000 0.500000
O O5 0.066099 0.239221 0.754820
O O6 0.863893 0.051962 0.808285
O O7 0.459971 0.648098 0.602160
O O8 0.914653 0.726967 0.570598
O O9 0.000000 0.500000 0.500000
#
# Coordination Sequence:
#
# PCOD9244682 Si02
#       4
#     4   4   4   4
#     4  12  24  44  68 102 146 182 231 292 354 429
#     4  10  22  43  67  97 137 184 229 288 342 426
#     4  10  22  42  66  98 141 172 240 280 347 426
#     4  10  20  42  69  99 138 173 234 291 348 418
#
# _framework density 23.579727999999999
#
# number of rings (size 3 to 8) (size 9 to 14) (size 15 to 20)
#    1.500    0.000    2.500    3.000    0.000    0.000 
#    4.500    5.000    0.000    0.000    0.000    0.000 
#    0.000    0.000    0.000    0.000    0.000    0.000 
#
# Total GULP energy -89223.194081 kJ/mol
# GULP energy per Si atom -5576.449630 kJ/mol
# Density = 2.352606 g / cm^3
# Si number density = 23.579728 Si / 1000 Ang^3
#
#
#
# Elastic Constant Matrix: (Units=GPa)
#
#
# Indices 1 2 3 4 5 6 
#
# 1 165.7429 25.7192 32.9121 0.0000 37.0815 0.0000
# 2 25.7192 60.2213 34.5014 0.0000 26.5156 0.0000
# 3 32.9121 34.5014 85.4658 0.0000 26.9534 0.0000
# 4 0.0000 0.0000 0.0000 16.9683 0.0000 7.1535
# 5 37.0815 26.5156 26.9534 0.0000 56.5206 0.0000
# 6 0.0000 0.0000 0.0000 7.1535 0.0000 47.2803
#
#
#
# Elastic Compliance Matrix: (Units=1/GPa)
#
#
# Indices 1 2 3 4 5 6 
#
# 1 0.007253 -0.000658 -0.001323 0.000000 -0.003819 0.000000
# 2 -0.000658 0.024330 -0.007185 0.000000 -0.007555 0.000000
# 3 -0.001323 -0.007185 0.016212 0.000000 -0.003492 0.000000
# 4 0.000000 0.000000 0.000000 0.062949 0.000000 -0.009524
# 5 -0.003819 -0.007555 -0.003492 0.000000 0.025408 0.000000
# 6 0.000000 0.000000 0.000000 -0.009524 0.000000 0.022591
#
#
# Mechanical properties :
#
#
# Convention : Reuss Voigt Hill
#
# Bulk Modulus (GPa) = 33.94265 55.29949 44.62107
# Shear Modulus (GPa) = 26.75286 38.70699 32.72992
#
# Velocity S-wave (km/s) = 3.37199 4.05598 3.72970
# Velocity P-wave (km/s) = 5.43935 6.74075 6.12471
#
# Compressibility (1/GPa) = 0.02946146
#
# Stress axis : x y z
#
# Youngs Moduli (GPa) = 137.88160 41.10185 61.68240
#
# Poissons Ratio (x) = 0.02705 0.08160
# Poissons Ratio (y) = 0.09075 0.44321
# Poissons Ratio (z) = 0.18241 0.29533
#
# Static dielectric constant tensor:
#      x y z
#    x 1.870840 0.000000 0.013830 
#    y 0.000000 1.989780 0.000000 
#    z 0.013830 0.000000 1.959860 
# 
# From -- ./inp_files/20496.got.cif
#   From: 2010.05.17/outbox.cif.g08.bks.cpg/sg14_11_cif.got.tgz:20496.got - 2010.06.03 17:49:19.
