data_PCOD9244190
_publ_section_title
;
Structure prediction by ZEFSAII (Michael W. Deem and Ramdas Pophale) SiO2 
 PCOD9244190
Probable space group: P 21/C
;
_chemical_formula_sum "Si O2"
_cell_formula_units_Z 20
_cell_length_a 8.047383
_cell_length_b 12.408470
_cell_length_c 11.459782
_cell_angle_alpha 90.000000
_cell_angle_beta 126.898205
_cell_angle_gamma 90.000000
_cell_volume 915.120411
_symmetry_space_group_name_H-M "P 21/C"
_symmetry_group_IT_number 14
_symmetry_cell_setting 'monoclinic'
loop_
_space_group_symop_operation_xyz
x,y,z
-x,1/2+y,1/2-z
-x,-y,-z
x,1/2-y,1/2+z
loop_
_atom_site_type_symbol
_atom_site_label
_atom_site_fract_x
_atom_site_fract_y
_atom_site_fract_z
Si Si1 0.602209 0.949973 0.656456
Si Si2 0.613791 0.146259 0.842423
Si Si3 0.784233 0.142625 0.393504
Si Si4 0.051131 0.534936 0.388698
Si Si5 0.834431 0.584033 0.782093
O O1 0.433971 0.866082 0.629737
O O2 0.840968 0.914566 0.745540
O O3 0.500000 0.000000 0.500000
O O4 0.606485 0.044955 0.752678
O O5 0.743969 0.238316 0.828457
O O6 0.373785 0.151412 0.781644
O O7 0.755592 0.115074 0.013738
O O8 0.976066 0.133091 0.563568
O O9 0.804021 0.039633 0.317531
O O10 0.113420 0.435742 0.331429
O O11 0.000000 0.500000 0.500000
#
# Coordination Sequence:
#
# PCOD9244190 Si02
#       5
#     4   4   4   4   4
#     4  10  20  40  62  89 131 167 207 266 321 382
#     4  10  23  38  64  96 124 167 217 265 325 389
#     4  10  22  39  64  96 125 167 218 259 328 386
#     4  10  21  40  64  91 128 166 211 267 320 377
#     4  10  21  42  65  91 134 168 208 274 325 376
#
# _framework density 21.855049999999999
#
# number of rings (size 3 to 8) (size 9 to 14) (size 15 to 20)
#    0.000    2.000    2.000    0.600    2.800    1.600 
#    0.000    0.000    0.000    0.000    0.000    0.000 
#    0.000    0.000    0.000    0.000    0.000    0.000 
#
# Total GULP energy -111424.088484 kJ/mol
# GULP energy per Si atom -5571.204424 kJ/mol
# Density = 2.180531 g / cm^3
# Si number density = 21.855050 Si / 1000 Ang^3
#
#
#
# Elastic Constant Matrix: (Units=GPa)
#
#
# Indices 1 2 3 4 5 6 
#
# 1 95.2534 31.8289 52.9750 0.0000 26.9874 0.0000
# 2 31.8289 45.6290 16.5501 0.0000 24.1034 0.0000
# 3 52.9750 16.5501 124.4080 0.0000 36.8100 0.0000
# 4 0.0000 0.0000 0.0000 8.4606 0.0000 8.1492
# 5 26.9874 24.1034 36.8100 0.0000 49.7700 0.0000
# 6 0.0000 0.0000 0.0000 8.1492 0.0000 30.1807
#
#
#
# Elastic Compliance Matrix: (Units=1/GPa)
#
#
# Indices 1 2 3 4 5 6 
#
# 1 0.017079 -0.009658 -0.005929 0.000000 -0.000198 0.000000
# 2 -0.009658 0.034926 0.003740 0.000000 -0.014444 0.000000
# 3 -0.005929 0.003740 0.012353 0.000000 -0.007733 0.000000
# 4 0.000000 0.000000 0.000000 0.159738 0.000000 -0.043131
# 5 -0.000198 -0.014444 -0.007733 0.000000 0.032914 0.000000
# 6 0.000000 0.000000 0.000000 -0.043131 0.000000 0.044780
#
#
# Mechanical properties :
#
#
# Convention : Reuss Voigt Hill
#
# Bulk Modulus (GPa) = 24.59177 51.99981 38.29579
# Shear Modulus (GPa) = 14.74750 28.61136 21.67943
#
# Velocity S-wave (km/s) = 2.60048 3.62213 3.15296
# Velocity P-wave (km/s) = 4.50481 6.42945 5.55118
#
# Compressibility (1/GPa) = 0.04066401
#
# Stress axis : x y z
#
# Youngs Moduli (GPa) = 58.55028 28.63157 80.95069
#
# Poissons Ratio (x) = 0.27654 0.47996
# Poissons Ratio (y) = 0.56551 -0.30276
# Poissons Ratio (z) = 0.34715 -0.10708
#
# Static dielectric constant tensor:
#      x y z
#    x 1.885370 0.000000 -0.006810 
#    y 0.000000 2.052260 0.000000 
#    z -0.006810 0.000000 1.759530 
# 
# From -- ./inp_files/24018.got.cif
#   From: 2010.05.17/outbox.cif.g08.bks.cpg/sg14_13_cif.got.tgz:24018.got - 2010.06.03 17:49:19.
