data_PCOD9244038
_publ_section_title
;
Structure prediction by ZEFSAII (Michael W. Deem and Ramdas Pophale) SiO2 
 PCOD9244038
Probable space group: P 21/C
;
_chemical_formula_sum "Si O2"
_cell_formula_units_Z 32
_cell_length_a 20.813907
_cell_length_b 12.426713
_cell_length_c 9.154043
_cell_angle_alpha 90.000000
_cell_angle_beta 39.592168
_cell_angle_gamma 90.000000
_cell_volume 1508.966019
_symmetry_space_group_name_H-M "P 21/C"
_symmetry_group_IT_number 14
_symmetry_cell_setting 'monoclinic'
loop_
_space_group_symop_operation_xyz
x,y,z
-x,1/2+y,1/2-z
-x,-y,-z
x,1/2-y,1/2+z
loop_
_atom_site_type_symbol
_atom_site_label
_atom_site_fract_x
_atom_site_fract_y
_atom_site_fract_z
Si Si1 0.333785 0.179500 0.954016
Si Si2 0.249509 0.406390 0.200370
Si Si3 0.694644 0.383020 0.009624
Si Si4 0.124677 0.101681 0.181743
Si Si5 0.439877 0.411532 0.017161
Si Si6 0.089344 0.858820 0.339794
Si Si7 0.518863 0.970749 0.133718
Si Si8 0.208506 0.775390 0.395256
O O1 0.328353 0.043228 0.678575
O O2 0.411797 0.182964 0.679117
O O3 0.384657 0.096906 0.980567
O O4 0.224407 0.137929 0.093693
O O5 0.250870 0.499191 0.077911
O O6 0.149648 0.382345 0.466062
O O7 0.308480 0.298318 0.054557
O O8 0.709406 0.328916 0.141896
O O9 0.747394 0.315187 0.789507
O O10 0.578286 0.394861 0.170295
O O11 0.025957 0.161966 0.412482
O O12 0.102715 0.976445 0.247318
O O13 0.500000 0.500000 0.000000
O O14 0.501979 0.418988 0.757557
O O15 0.154260 0.853843 0.375208
O O16 0.130070 0.775756 0.148125
O O17 0.500000 0.000000 0.000000
#
# Coordination Sequence:
#
# PCOD9244038 Si02
#       8
#     4   4   4   4   4   4   4   4
#     4  10  22  40  64  97 133 178 203 269 336 396
#     4  10  20  39  64  94 136 164 211 267 338 389
#     4  10  22  45  65  92 129 168 220 280 310 393
#     4  10  22  41  65  96 136 169 209 270 342 394
#     4   8  18  40  60  82 122 174 209 249 309 376
#     4  10  22  42  70  94 125 174 225 270 330 392
#     4  10  22  41  66  96 130 169 221 265 317 390
#     4  10  22  44  70  91 122 174 233 271 320 377
#
# _framework density 21.206575000000001
#
# number of rings (size 3 to 8) (size 9 to 14) (size 15 to 20)
#    0.000    2.250    1.250    0.000    3.500    4.000 
#   13.500    0.625    0.000    0.000    0.000    0.000 
#    0.000    0.000    0.000    0.000    0.000    0.000 
#
# Total GULP energy -178166.950444 kJ/mol
# GULP energy per Si atom -5567.717201 kJ/mol
# Density = 2.115831 g / cm^3
# Si number density = 21.206575 Si / 1000 Ang^3
#
#
#
# Elastic Constant Matrix: (Units=GPa)
#
#
# Indices 1 2 3 4 5 6 
#
# 1 64.4636 14.8235 27.9290 0.0000 10.9577 0.0000
# 2 14.8235 61.9957 35.3308 0.0000 5.6695 0.0000
# 3 27.9290 35.3308 80.9141 0.0000 6.2041 0.0000
# 4 0.0000 0.0000 0.0000 28.3750 0.0000 -2.7525
# 5 10.9577 5.6695 6.2041 0.0000 39.6372 0.0000
# 6 0.0000 0.0000 0.0000 -2.7525 0.0000 18.3352
#
#
#
# Elastic Compliance Matrix: (Units=1/GPa)
#
#
# Indices 1 2 3 4 5 6 
#
# 1 0.018955 -0.000802 -0.005870 0.000000 -0.004207 0.000000
# 2 -0.000802 0.021611 -0.009048 0.000000 -0.001453 0.000000
# 3 -0.005870 -0.009048 0.018332 0.000000 0.000048 0.000000
# 4 0.000000 0.000000 0.000000 0.035763 0.000000 0.005369
# 5 -0.004207 -0.001453 0.000048 0.000000 0.026592 0.000000
# 6 0.000000 0.000000 0.000000 0.005369 0.000000 0.055346
#
#
# Mechanical properties :
#
#
# Convention : Reuss Voigt Hill
#
# Bulk Modulus (GPa) = 36.41940 40.39334 38.40637
# Shear Modulus (GPa) = 23.02097 25.88883 24.45490
#
# Velocity S-wave (km/s) = 3.29836 3.49777 3.39953
# Velocity P-wave (km/s) = 5.63174 5.94991 5.79301
#
# Compressibility (1/GPa) = 0.02745790
#
# Stress axis : x y z
#
# Youngs Moduli (GPa) = 52.75560 46.27200 54.54923
#
# Poissons Ratio (x) = 0.03713 0.32020
# Poissons Ratio (y) = 0.04233 0.49357
# Poissons Ratio (z) = 0.30967 0.41867
#
# Static dielectric constant tensor:
#      x y z
#    x 1.880160 0.000000 0.081920 
#    y 0.000000 1.892290 0.000000 
#    z 0.081920 0.000000 1.859250 
# 
# From -- ./inp_files/19055.got.cif
#   From: 2010.05.17/outbox.cif.g08.bks.cpg/sg14_10_cif.got.tgz:19055.got - 2010.06.03 17:49:19.
