data_PCOD9244304
_publ_section_title
;
Structure prediction by ZEFSAII (Michael W. Deem and Ramdas Pophale) SiO2 
 PCOD9244304
Probable space group: P 21/C
;
_chemical_formula_sum "Si O2"
_cell_formula_units_Z 32
_cell_length_a 28.642964
_cell_length_b 4.884007
_cell_length_c 8.660024
_cell_angle_alpha 90.000000
_cell_angle_beta 108.221686
_cell_angle_gamma 90.000000
_cell_volume 1150.721109
_symmetry_space_group_name_H-M "P 21/C"
_symmetry_group_IT_number 14
_symmetry_cell_setting 'monoclinic'
loop_
_space_group_symop_operation_xyz
x,y,z
-x,1/2+y,1/2-z
-x,-y,-z
x,1/2-y,1/2+z
loop_
_atom_site_type_symbol
_atom_site_label
_atom_site_fract_x
_atom_site_fract_y
_atom_site_fract_z
Si Si1 0.182121 0.757130 0.399935
Si Si2 0.812794 0.881214 0.832837
Si Si3 0.403645 0.102526 0.443625
Si Si4 0.533931 0.002919 0.773587
Si Si5 0.726699 0.963284 0.169536
Si Si6 0.966847 0.540495 0.203699
Si Si7 0.664673 0.583340 0.870084
Si Si8 0.097127 0.432119 0.144875
O O1 0.184173 0.666292 0.576587
O O2 0.183984 0.067849 0.348139
O O3 0.233383 0.643546 0.380134
O O4 0.130673 0.634637 0.281868
O O5 0.761266 0.742536 0.802155
O O6 0.861881 0.720897 0.915199
O O7 0.432665 0.343011 0.566073
O O8 0.438423 0.946828 0.359424
O O9 0.372742 0.944922 0.545433
O O10 0.366459 0.240763 0.283550
O O11 0.490163 0.784741 0.698182
O O12 0.695644 0.097651 0.278641
O O13 0.695630 0.786630 0.013977
O O14 0.932229 0.707929 0.285446
O O15 0.992637 0.271387 0.297722
O O16 0.938639 0.445959 0.020914
#
# Coordination Sequence:
#
# PCOD9244304 Si02
#       8
#     4   4   4   4   4   4   4   4
#     4  11  25  40  67  98 131 170 230 282 341 406
#     4  11  25  40  67  98 131 170 230 282 341 406
#     4   9  20  37  64  94 126 178 224 275 356 409
#     4  11  22  40  70  97 134 175 230 296 346 407
#     4  10  20  40  66  88 128 176 220 276 340 400
#     4  12  28  47  72 101 140 183 228 275 344 422
#     4   9  18  37  68  82 136 178 212 281 332 419
#     4  11  26  45  68  98 134 178 222 287 340 401
#
# _framework density 27.808651000000001
#
# number of rings (size 3 to 8) (size 9 to 14) (size 15 to 20)
#    0.000    1.500    2.500    1.500    7.000    0.000 
#    0.000    0.000   55.000    0.000    0.000    0.000 
#    0.000    0.000    0.000    0.000    0.000    0.000 
#
# Total GULP energy -179221.568557 kJ/mol
# GULP energy per Si atom -5600.674017 kJ/mol
# Density = 2.774536 g / cm^3
# Si number density = 27.808651 Si / 1000 Ang^3
#
#
#
# Elastic Constant Matrix: (Units=GPa)
#
#
# Indices 1 2 3 4 5 6 
#
# 1 136.8133 20.4671 71.5279 0.0000 -21.1935 0.0000
# 2 20.4671 60.9859 6.5641 0.0000 -2.2738 0.0000
# 3 71.5279 6.5641 162.3409 0.0000 1.5393 0.0000
# 4 0.0000 0.0000 0.0000 40.4040 0.0000 -1.6972
# 5 -21.1935 -2.2738 1.5393 0.0000 54.9243 0.0000
# 6 0.0000 0.0000 0.0000 -1.6972 0.0000 7.0625
#
#
#
# Elastic Compliance Matrix: (Units=1/GPa)
#
#
# Indices 1 2 3 4 5 6 
#
# 1 0.010868 -0.002984 -0.004708 0.000000 0.004202 0.000000
# 2 -0.002984 0.017315 0.000619 0.000000 -0.000452 0.000000
# 3 -0.004708 0.000619 0.008228 0.000000 -0.002021 0.000000
# 4 0.000000 0.000000 0.000000 0.025002 0.000000 0.006008
# 5 0.004202 -0.000452 -0.002021 0.000000 0.019866 0.000000
# 6 0.000000 0.000000 0.000000 0.006008 0.000000 0.143037
#
#
# Mechanical properties :
#
#
# Convention : Reuss Voigt Hill
#
# Bulk Modulus (GPa) = 44.91163 61.91758 53.41460
# Shear Modulus (GPa) = 20.33485 37.91689 29.12587
#
# Velocity S-wave (km/s) = 2.70708 3.69656 3.23982
# Velocity P-wave (km/s) = 5.09474 6.36658 5.76583
#
# Compressibility (1/GPa) = 0.02226595
#
# Stress axis : x y z
#
# Youngs Moduli (GPa) = 92.01600 57.75282 121.53377
#
# Poissons Ratio (x) = 0.17233 0.57212
# Poissons Ratio (y) = 0.27456 -0.07521
# Poissons Ratio (z) = 0.43317 -0.03574
#
# Static dielectric constant tensor:
#      x y z
#    x 2.242080 0.000000 0.010500 
#    y 0.000000 2.100870 0.000000 
#    z 0.010500 0.000000 2.068190 
# 
# From -- ./inp_files/19899.got.cif
#   From: 2010.05.17/outbox.cif.g08.bks.cpg/sg14_10_cif.got.tgz:19899.got - 2010.06.03 17:49:19.
