data_PCOD9244387
_publ_section_title
;
Structure prediction by ZEFSAII (Michael W. Deem and Ramdas Pophale) SiO2 
 PCOD9244387
Probable space group: P 21/C
;
_chemical_formula_sum "Si O2"
_cell_formula_units_Z 32
_cell_length_a 12.808476
_cell_length_b 14.066827
_cell_length_c 11.654461
_cell_angle_alpha 90.000000
_cell_angle_beta 132.964574
_cell_angle_gamma 90.000000
_cell_volume 1536.609486
_symmetry_space_group_name_H-M "P 21/C"
_symmetry_group_IT_number 14
_symmetry_cell_setting 'monoclinic'
loop_
_space_group_symop_operation_xyz
x,y,z
-x,1/2+y,1/2-z
-x,-y,-z
x,1/2-y,1/2+z
loop_
_atom_site_type_symbol
_atom_site_label
_atom_site_fract_x
_atom_site_fract_y
_atom_site_fract_z
Si Si1 0.407016 0.097026 0.928886
Si Si2 0.939162 0.854582 0.941366
Si Si3 0.442480 0.208785 0.569196
Si Si4 0.234359 0.308994 0.114634
Si Si5 0.247911 0.474411 0.867419
Si Si6 0.816188 0.532852 0.558683
Si Si7 0.733203 0.380444 0.314765
Si Si8 0.044661 0.035836 0.406947
O O1 0.319748 0.109194 0.745659
O O2 0.297651 0.086083 0.950594
O O3 0.464662 0.204306 0.996393
O O4 0.500000 0.000000 0.000000
O O5 0.833720 0.765704 0.849148
O O6 0.883233 0.928944 0.804907
O O7 0.904612 0.898747 0.040343
O O8 0.107471 0.836633 0.061860
O O9 0.339472 0.233633 0.599202
O O10 0.366299 0.109680 0.468095
O O11 0.599976 0.186758 0.732958
O O12 0.095495 0.355450 0.952765
O O13 0.292700 0.563944 0.824646
O O14 0.181976 0.506292 0.940357
O O15 0.737503 0.459437 0.416814
O O16 0.914068 0.481162 0.725082
O O17 0.000000 0.000000 0.500000
#
# Coordination Sequence:
#
# PCOD9244387 Si02
#       8
#     4   4   4   4   4   4   4   4
#     4  12  25  43  68  90 136 186 222 278 352 410
#     4  11  20  40  72  96 128 175 231 275 336 400
#     4  11  24  42  65 101 135 176 229 276 345 414
#     4  11  24  41  66  95 133 187 221 274 347 418
#     4  10  20  40  69  98 134 177 226 273 342 414
#     4  11  21  42  65  95 133 172 221 283 337 398
#     4  11  22  40  70 105 130 168 230 293 334 390
#     4  11  21  38  66  97 130 173 227 269 333 404
#
# _framework density 20.825068999999999
#
# number of rings (size 3 to 8) (size 9 to 14) (size 15 to 20)
#    0.000    1.000    6.250    1.875    0.000    1.000 
#    0.000    1.250    2.750    0.000    0.000    0.000 
#    0.000    0.000    0.000    0.000    0.000    0.000 
#
# Total GULP energy -178367.406033 kJ/mol
# GULP energy per Si atom -5573.981439 kJ/mol
# Density = 2.077767 g / cm^3
# Si number density = 20.825069 Si / 1000 Ang^3
#
#
#
# Elastic Constant Matrix: (Units=GPa)
#
#
# Indices 1 2 3 4 5 6 
#
# 1 90.7359 22.3893 36.0729 0.0000 1.3332 0.0000
# 2 22.3893 53.4304 17.2169 0.0000 13.1655 0.0000
# 3 36.0729 17.2169 67.5596 0.0000 6.6831 0.0000
# 4 0.0000 0.0000 0.0000 25.7546 0.0000 -4.8630
# 5 1.3332 13.1655 6.6831 0.0000 43.5930 0.0000
# 6 0.0000 0.0000 0.0000 -4.8630 0.0000 28.2520
#
#
#
# Elastic Compliance Matrix: (Units=1/GPa)
#
#
# Indices 1 2 3 4 5 6 
#
# 1 0.014876 -0.004462 -0.007000 0.000000 0.001966 0.000000
# 2 -0.004462 0.023086 -0.002868 0.000000 -0.006396 0.000000
# 3 -0.007000 -0.002868 0.019459 0.000000 -0.001903 0.000000
# 4 0.000000 0.000000 0.000000 0.040132 0.000000 0.006908
# 5 0.001966 -0.006396 -0.001903 0.000000 0.025103 0.000000
# 6 0.000000 0.000000 0.000000 0.006908 0.000000 0.036585
#
#
# Mechanical properties :
#
#
# Convention : Reuss Voigt Hill
#
# Bulk Modulus (GPa) = 34.77092 40.34267 37.55680
# Shear Modulus (GPa) = 25.31793 28.58970 26.95381
#
# Velocity S-wave (km/s) = 3.49053 3.70922 3.60154
# Velocity P-wave (km/s) = 5.74265 6.14481 5.94713
#
# Compressibility (1/GPa) = 0.02875967
#
# Stress axis : x y z
#
# Youngs Moduli (GPa) = 67.22114 43.31637 51.39110
#
# Poissons Ratio (x) = 0.19329 0.35976
# Poissons Ratio (y) = 0.29997 0.14738
# Poissons Ratio (z) = 0.47057 0.12422
#
# Static dielectric constant tensor:
#      x y z
#    x 1.762740 0.000000 -0.014310 
#    y 0.000000 1.849760 0.000000 
#    z -0.014310 0.000000 1.750350 
# 
# From -- ./inp_files/30047.got.cif
#   From: 2010.05.17/outbox.cif.g08.bks.cpg/sg14_16_cif.got.tgz:30047.got - 2010.06.03 17:49:19.
