data_PCOD9244629
_publ_section_title
;
Structure prediction by ZEFSAII (Michael W. Deem and Ramdas Pophale) SiO2 
 PCOD9244629
Probable space group: P 21/C
;
_chemical_formula_sum "Si O2"
_cell_formula_units_Z 22
_cell_length_a 9.024706
_cell_length_b 8.183557
_cell_length_c 21.705728
_cell_angle_alpha 90.000000
_cell_angle_beta 30.513451
_cell_angle_gamma 90.000000
_cell_volume 813.938230
_symmetry_space_group_name_H-M "P 21/C"
_symmetry_group_IT_number 14
_symmetry_cell_setting 'monoclinic'
loop_
_space_group_symop_operation_xyz
x,y,z
-x,1/2+y,1/2-z
-x,-y,-z
x,1/2-y,1/2+z
loop_
_atom_site_type_symbol
_atom_site_label
_atom_site_fract_x
_atom_site_fract_y
_atom_site_fract_z
Si Si1 0.392445 0.116293 0.693781
Si Si2 0.377609 0.349813 0.424813
Si Si3 0.875852 0.969765 0.439336
Si Si4 0.049630 0.286293 0.207573
Si Si5 0.500000 0.000000 0.000000
Si Si6 0.524433 0.427922 0.722214
O O1 0.108808 0.176352 0.758333
O O2 0.541744 0.256219 0.681577
O O3 0.610403 0.072250 0.560522
O O4 0.349808 0.964934 0.755653
O O5 0.153359 0.206831 0.517906
O O6 0.357139 0.490989 0.482501
O O7 0.362680 0.430144 0.363794
O O8 0.699688 0.275656 0.325700
O O9 0.874279 0.934522 0.366908
O O10 0.176818 0.048329 0.351357
O O11 0.252008 0.137116 0.114106
#
# Coordination Sequence:
#
# PCOD9244629 Si02
#       6
#     4   4   4   4   2   4
#     4  12  24  44  68 100 136 182 223 280 337 404
#     4  10  22  45  70 104 136 177 222 285 337 406
#     4  10  24  46  71  96 137 181 224 282 341 398
#     4  10  23  41  75 101 139 166 232 281 341 397
#     4  10  20  42  66 102 132 168 226 274 334 392
#     4  11  25  46  66 100 140 180 226 278 337 416
#
# _framework density 27.02908
#
# number of rings (size 3 to 8) (size 9 to 14) (size 15 to 20)
#    0.000    1.455    1.818    2.182    2.545    2.909 
#    3.273    1.818    0.000    0.000    0.000    0.000 
#    0.000    0.000    0.000    0.000    0.000    0.000 
#
# Total GULP energy -122922.645765 kJ/mol
# GULP energy per Si atom -5587.392989 kJ/mol
# Density = 2.696756 g / cm^3
# Si number density = 27.029080 Si / 1000 Ang^3
#
#
#
# Elastic Constant Matrix: (Units=GPa)
#
#
# Indices 1 2 3 4 5 6 
#
# 1 172.8171 34.1768 47.4041 0.0000 20.1728 0.0000
# 2 34.1768 79.7012 20.8852 0.0000 -10.9339 0.0000
# 3 47.4041 20.8852 83.1901 0.0000 2.6229 0.0000
# 4 0.0000 0.0000 0.0000 46.3796 0.0000 0.5922
# 5 20.1728 -10.9339 2.6229 0.0000 42.1904 0.0000
# 6 0.0000 0.0000 0.0000 0.5922 0.0000 39.5064
#
#
#
# Elastic Compliance Matrix: (Units=1/GPa)
#
#
# Indices 1 2 3 4 5 6 
#
# 1 0.007876 -0.003030 -0.003591 0.000000 -0.004328 0.000000
# 2 -0.003030 0.015198 -0.002263 0.000000 0.005528 0.000000
# 3 -0.003591 -0.002263 0.014628 0.000000 0.000221 0.000000
# 4 0.000000 0.000000 0.000000 0.021565 0.000000 -0.000323
# 5 -0.004328 0.005528 0.000221 0.000000 0.027190 0.000000
# 6 0.000000 0.000000 0.000000 -0.000323 0.000000 0.025317
#
#
# Mechanical properties :
#
#
# Convention : Reuss Voigt Hill
#
# Bulk Modulus (GPa) = 50.16646 60.07119 55.11882
# Shear Modulus (GPa) = 36.71441 41.16476 38.93959
#
# Velocity S-wave (km/s) = 3.68955 3.90677 3.79971
# Velocity P-wave (km/s) = 6.06225 6.52866 6.29977
#
# Compressibility (1/GPa) = 0.01993364
#
# Stress axis : x y z
#
# Youngs Moduli (GPa) = 126.97124 65.79994 68.36235
#
# Poissons Ratio (x) = 0.19938 0.24547
# Poissons Ratio (y) = 0.38473 0.15471
# Poissons Ratio (z) = 0.45592 0.14891
#
# Static dielectric constant tensor:
#      x y z
#    x 2.058890 0.000000 -0.003410 
#    y 0.000000 2.203550 0.000000 
#    z -0.003410 0.000000 2.180980 
# 
# From -- ./inp_files/64725.got.cif
#   From: 2010.05.17/outbox.cif.g08.bks.cpg/sg14_33_cif.got.tgz:64725.got - 2010.06.03 17:49:19.
