data_PCOD9244133
_publ_section_title
;
Structure prediction by ZEFSAII (Michael W. Deem and Ramdas Pophale) SiO2 
 PCOD9244133
Probable space group: P 21/C
;
_chemical_formula_sum "Si O2"
_cell_formula_units_Z 32
_cell_length_a 9.234464
_cell_length_b 18.471243
_cell_length_c 8.469725
_cell_angle_alpha 90.000000
_cell_angle_beta 103.328955
_cell_angle_gamma 90.000000
_cell_volume 1405.781604
_symmetry_space_group_name_H-M "P 21/C"
_symmetry_group_IT_number 14
_symmetry_cell_setting 'monoclinic'
loop_
_space_group_symop_operation_xyz
x,y,z
-x,1/2+y,1/2-z
-x,-y,-z
x,1/2-y,1/2+z
loop_
_atom_site_type_symbol
_atom_site_label
_atom_site_fract_x
_atom_site_fract_y
_atom_site_fract_z
Si Si1 0.758675 0.321371 0.921647
Si Si2 0.703277 0.479475 0.282078
Si Si3 0.693226 0.337280 0.436970
Si Si4 0.993687 0.308505 0.687214
Si Si5 0.412821 0.935259 0.805313
Si Si6 0.850609 0.520724 0.632549
Si Si7 0.962214 0.851419 0.329218
Si Si8 0.890955 0.934584 0.629489
O O1 0.662984 0.247811 0.909013
O O2 0.884161 0.306899 0.815242
O O3 0.660217 0.389519 0.852849
O O4 0.861214 0.340900 0.097052
O O5 0.666587 0.395053 0.291881
O O6 0.569111 0.531115 0.300103
O O7 0.832162 0.494264 0.447634
O O8 0.764075 0.507747 0.131376
O O9 0.870277 0.331667 0.527121
O O10 0.603766 0.376311 0.556840
O O11 0.076805 0.232923 0.681950
O O12 0.118009 0.367692 0.752741
O O13 0.310400 0.002351 0.834724
O O14 0.906342 0.602498 0.667207
O O15 0.958315 0.473015 0.771920
O O16 0.903041 0.899346 0.461274
#
# Coordination Sequence:
#
# PCOD9244133 Si02
#       8
#     4   4   4   4   4   4   4   4
#     4   9  18  35  60  88 115 149 203 245 288 357
#     4  11  23  36  61  87 122 155 199 242 287 357
#     4   9  17  34  58  83 108 154 205 236 281 347
#     4   9  18  34  56  86 118 148 193 247 293 344
#     4  10  20  40  56  86 118 158 197 241 288 359
#     4  11  20  37  62  86 117 152 197 239 301 339
#     4  10  21  35  61  88 119 153 188 253 305 337
#     4  11  21  37  55  95 116 145 198 249 288 349
#
# _framework density 22.763138000000001
#
# number of rings (size 3 to 8) (size 9 to 14) (size 15 to 20)
#    0.000    2.000    5.000    2.250    1.750    2.000 
#    0.000    4.375    0.000    1.500    0.000    0.000 
#    0.000    0.000    0.000    0.000    0.000    0.000 
#
# Total GULP energy -178509.308684 kJ/mol
# GULP energy per Si atom -5578.415896 kJ/mol
# Density = 2.271133 g / cm^3
# Si number density = 22.763138 Si / 1000 Ang^3
#
#
#
# Elastic Constant Matrix: (Units=GPa)
#
#
# Indices 1 2 3 4 5 6 
#
# 1 61.0054 25.3275 8.8497 0.0000 -13.1067 0.0000
# 2 25.3275 158.7516 27.5254 0.0000 0.2444 0.0000
# 3 8.8497 27.5254 28.4337 0.0000 -4.9389 0.0000
# 4 0.0000 0.0000 0.0000 40.0722 0.0000 1.2243
# 5 -13.1067 0.2444 -4.9389 0.0000 13.8563 0.0000
# 6 0.0000 0.0000 0.0000 1.2243 0.0000 34.1854
#
#
#
# Elastic Compliance Matrix: (Units=1/GPa)
#
#
# Indices 1 2 3 4 5 6 
#
# 1 0.022477 -0.003667 0.000275 0.000000 0.021424 0.000000
# 2 -0.003667 0.008281 -0.007998 0.000000 -0.006465 0.000000
# 3 0.000275 -0.007998 0.045727 0.000000 0.016700 0.000000
# 4 0.000000 0.000000 0.000000 0.024982 0.000000 -0.000895
# 5 0.021424 -0.006465 0.016700 0.000000 0.098501 0.000000
# 6 0.000000 0.000000 0.000000 -0.000895 0.000000 0.029284
#
#
# Mechanical properties :
#
#
# Convention : Reuss Voigt Hill
#
# Bulk Modulus (GPa) = 18.61988 41.28843 29.95416
# Shear Modulus (GPa) = 18.52299 30.05532 24.28915
#
# Velocity S-wave (km/s) = 2.85569 3.63760 3.27010
# Velocity P-wave (km/s) = 4.36702 5.98503 5.23886
#
# Compressibility (1/GPa) = 0.05370603
#
# Stress axis : x y z
#
# Youngs Moduli (GPa) = 44.48949 120.76029 21.86873
#
# Poissons Ratio (x) = 0.44280 -0.00602
# Poissons Ratio (y) = 0.16313 0.17491
# Poissons Ratio (z) = -0.01224 0.96586
#
# Static dielectric constant tensor:
#      x y z
#    x 1.824240 0.000000 -0.041840 
#    y 0.000000 1.905500 0.000000 
#    z -0.041840 0.000000 1.975590 
# 
# From -- ./inp_files/26115.got.cif
#   From: 2010.05.17/outbox.cif.g08.bks.cpg/sg14_14_cif.got.tgz:26115.got - 2010.06.03 17:49:19.
