data_PCOD9244054
_publ_section_title
;
Structure prediction by ZEFSAII (Michael W. Deem and Ramdas Pophale) SiO2 
 PCOD9244054
Probable space group: P 21/C
;
_chemical_formula_sum "Si O2"
_cell_formula_units_Z 32
_cell_length_a 12.431186
_cell_length_b 10.306112
_cell_length_c 11.865638
_cell_angle_alpha 90.000000
_cell_angle_beta 86.711926
_cell_angle_gamma 90.000000
_cell_volume 1517.689684
_symmetry_space_group_name_H-M "P 21/C"
_symmetry_group_IT_number 14
_symmetry_cell_setting 'monoclinic'
loop_
_space_group_symop_operation_xyz
x,y,z
-x,1/2+y,1/2-z
-x,-y,-z
x,1/2-y,1/2+z
loop_
_atom_site_type_symbol
_atom_site_label
_atom_site_fract_x
_atom_site_fract_y
_atom_site_fract_z
Si Si1 0.404342 0.595883 0.969183
Si Si2 0.639191 0.363161 0.276534
Si Si3 0.216113 0.636241 0.152781
Si Si4 0.991064 0.738849 0.606062
Si Si5 0.736336 0.937860 0.950420
Si Si6 0.940591 0.775476 0.871666
Si Si7 0.121877 0.525862 0.364529
Si Si8 0.520815 0.850404 0.034426
O O1 0.300483 0.587088 0.055528
O O2 0.450480 0.743394 0.973869
O O3 0.500000 0.500000 0.000000
O O4 0.370179 0.573822 0.843674
O O5 0.713302 0.235353 0.275020
O O6 0.690956 0.462396 0.362215
O O7 0.520539 0.333845 0.335164
O O8 0.114385 0.714842 0.108818
O O9 0.166623 0.523844 0.234428
O O10 0.941855 0.755029 0.735680
O O11 0.940599 0.802508 0.493867
O O12 0.963950 0.585741 0.599127
O O13 0.837531 0.865393 0.893124
O O14 0.646001 0.837063 0.998625
O O15 0.779510 0.014020 0.056589
O O16 0.057860 0.841147 0.878397
O O17 0.500000 0.000000 0.000000
#
# Coordination Sequence:
#
# PCOD9244054 Si02
#       8
#     4   4   4   4   4   4   4   4
#     4  11  26  43  60 101 136 166 214 284 343 389
#     4  10  22  39  65  89 128 162 221 267 326 402
#     4  10  23  38  66  93 126 176 211 265 347 391
#     4  10  21  40  61  92 126 164 216 269 315 400
#     4  10  20  39  65  90 117 173 218 265 319 390
#     4  10  21  39  60  91 127 160 214 265 328 390
#     4  10  21  38  66  90 127 163 221 265 317 404
#     4   9  22  40  65  89 121 172 228 259 319 401
#
# _framework density 21.084678
#
# number of rings (size 3 to 8) (size 9 to 14) (size 15 to 20)
#    0.000    2.000    0.000    3.000   10.500    4.000 
#    9.000    1.250    0.000    0.000    0.000    0.000 
#    0.000    0.000    0.000    0.000    0.000    0.000 
#
# Total GULP energy -178160.703213 kJ/mol
# GULP energy per Si atom -5567.521975 kJ/mol
# Density = 2.103669 g / cm^3
# Si number density = 21.084678 Si / 1000 Ang^3
#
#
#
# Elastic Constant Matrix: (Units=GPa)
#
#
# Indices 1 2 3 4 5 6 
#
# 1 86.7662 17.0645 37.9234 0.0000 -26.0287 0.0000
# 2 17.0645 24.3565 4.6759 0.0000 -9.8092 0.0000
# 3 37.9234 4.6759 122.4216 0.0000 -8.1082 0.0000
# 4 0.0000 0.0000 0.0000 27.2559 0.0000 -7.6323
# 5 -26.0287 -9.8092 -8.1082 0.0000 30.8241 0.0000
# 6 0.0000 0.0000 0.0000 -7.6323 0.0000 20.3479
#
#
#
# Elastic Compliance Matrix: (Units=1/GPa)
#
#
# Indices 1 2 3 4 5 6 
#
# 1 0.018672 -0.007258 -0.004698 0.000000 0.012222 0.000000
# 2 -0.007258 0.049995 0.001004 0.000000 0.010045 0.000000
# 3 -0.004698 0.001004 0.009509 0.000000 -0.001146 0.000000
# 4 0.000000 0.000000 0.000000 0.040995 0.000000 0.015377
# 5 0.012222 0.010045 -0.001146 0.000000 0.045658 0.000000
# 6 0.000000 0.000000 0.000000 0.015377 0.000000 0.054913
#
#
# Mechanical properties :
#
#
# Convention : Reuss Voigt Hill
#
# Bulk Modulus (GPa) = 17.77038 39.20801 28.48920
# Shear Modulus (GPa) = 19.20099 27.27759 23.23929
#
# Velocity S-wave (km/s) = 3.02099 3.60073 3.32352
# Velocity P-wave (km/s) = 4.54036 5.99357 5.31685
#
# Compressibility (1/GPa) = 0.05627341
#
# Stress axis : x y z
#
# Youngs Moduli (GPa) = 53.55526 20.00218 105.15854
#
# Poissons Ratio (x) = 0.14518 0.49399
# Poissons Ratio (y) = 0.38871 -0.10559
# Poissons Ratio (z) = 0.25158 -0.02008
#
# Static dielectric constant tensor:
#      x y z
#    x 1.777170 0.000000 -0.022020 
#    y 0.000000 1.792960 0.000000 
#    z -0.022020 0.000000 1.855720 
# 
# From -- ./inp_files/29104.got.cif
#   From: 2010.05.17/outbox.cif.g08.bks.cpg/sg14_15_cif.got.tgz:29104.got - 2010.06.03 17:49:19.
