data_PCOD9244444
_publ_section_title
;
Structure prediction by ZEFSAII (Michael W. Deem and Ramdas Pophale) SiO2 
 PCOD9244444
Probable space group: P 21/C
;
_chemical_formula_sum "Si O2"
_cell_formula_units_Z 24
_cell_length_a 14.049462
_cell_length_b 12.605345
_cell_length_c 7.793819
_cell_angle_alpha 90.000000
_cell_angle_beta 132.885374
_cell_angle_gamma 90.000000
_cell_volume 1011.348426
_symmetry_space_group_name_H-M "P 21/C"
_symmetry_group_IT_number 14
_symmetry_cell_setting 'monoclinic'
loop_
_space_group_symop_operation_xyz
x,y,z
-x,1/2+y,1/2-z
-x,-y,-z
x,1/2-y,1/2+z
loop_
_atom_site_type_symbol
_atom_site_label
_atom_site_fract_x
_atom_site_fract_y
_atom_site_fract_z
Si Si1 0.262365 0.327815 0.073436
Si Si2 0.003730 0.126858 0.090803
Si Si3 0.620688 0.168996 0.426406
Si Si4 0.137775 0.806923 0.753710
Si Si5 0.840916 0.465483 0.017135
Si Si6 0.558984 0.683969 0.000938
O O1 0.374993 0.369294 0.081903
O O2 0.133160 0.306710 0.805529
O O3 0.514001 0.212488 0.163983
O O4 0.322729 0.227618 0.239673
O O5 0.892474 0.142786 0.099809
O O6 0.946976 0.199557 0.868692
O O7 0.062351 0.009431 0.214505
O O8 0.713233 0.270239 0.582998
O O9 0.719764 0.089715 0.460214
O O10 0.545764 0.129601 0.503833
O O11 0.105220 0.889299 0.563122
O O12 0.785094 0.574834 0.866954
#
# Coordination Sequence:
#
# PCOD9244444 Si02
#       6
#     4   4   4   4   4   4
#     4   9  22  39  62  90 118 161 203 240 301 356
#     4  10  23  38  66  86 125 154 203 246 304 359
#     4  11  21  38  64  87 119 163 199 243 304 345
#     4  12  20  43  62  89 124 158 195 257 300 355
#     4  10  23  38  61  97 113 160 210 234 306 360
#     4  10  20  41  63  83 126 164 192 251 295 351
#
# _framework density 23.730694
#
# number of rings (size 3 to 8) (size 9 to 14) (size 15 to 20)
#    1.000    0.667    3.333    1.500    0.000    2.000 
#    0.000    0.000    3.667    0.000    0.000    0.000 
#    0.000    0.000    0.000    0.000    0.000    0.000 
#
# Total GULP energy -133706.261955 kJ/mol
# GULP energy per Si atom -5571.094248 kJ/mol
# Density = 2.367668 g / cm^3
# Si number density = 23.730694 Si / 1000 Ang^3
#
#
#
# Elastic Constant Matrix: (Units=GPa)
#
#
# Indices 1 2 3 4 5 6 
#
# 1 169.9666 121.0568 128.2501 0.0000 -32.2770 0.0000
# 2 121.0568 241.6437 211.8516 0.0000 -50.4909 0.0000
# 3 128.2501 211.8516 345.9669 0.0000 -55.6546 0.0000
# 4 0.0000 0.0000 0.0000 33.9516 0.0000 -13.0647
# 5 -32.2770 -50.4909 -55.6546 0.0000 48.3034 0.0000
# 6 0.0000 0.0000 0.0000 -13.0647 0.0000 53.4848
#
#
#
# Elastic Compliance Matrix: (Units=1/GPa)
#
#
# Indices 1 2 3 4 5 6 
#
# 1 0.009481 -0.003399 -0.001210 0.000000 0.001388 0.000000
# 2 -0.003399 0.010736 -0.004756 0.000000 0.003471 0.000000
# 3 -0.001210 -0.004756 0.006532 0.000000 0.001747 0.000000
# 4 0.000000 0.000000 0.000000 0.032509 0.000000 0.007941
# 5 0.001388 0.003471 0.001747 0.000000 0.027271 0.000000
# 6 0.000000 0.000000 0.000000 0.007941 0.000000 0.020637
#
#
# Mechanical properties :
#
#
# Convention : Reuss Voigt Hill
#
# Bulk Modulus (GPa) = 124.68941 186.65493 155.67217
# Shear Modulus (GPa) = 38.88996 46.90920 42.89958
#
# Velocity S-wave (km/s) = 4.05261 4.45087 4.25640
# Velocity P-wave (km/s) = 8.63457 10.25865 9.48145
#
# Compressibility (1/GPa) = 0.00801993
#
# Stress axis : x y z
#
# Youngs Moduli (GPa) = 105.47500 93.14833 153.09174
#
# Poissons Ratio (x) = 0.31658 0.18525
# Poissons Ratio (y) = 0.35848 0.72804
# Poissons Ratio (z) = 0.12763 0.44297
#
# Static dielectric constant tensor:
#      x y z
#    x 1.911850 0.000000 -0.056450 
#    y 0.000000 1.993890 0.000000 
#    z -0.056450 0.000000 1.958500 
# 
# From -- ./inp_files/16327.got.cif
#   From: 2010.05.17/outbox.cif.g08.bks.cpg/sg14_9_cif.got.tgz:16327.got - 2010.06.03 17:49:19.
