data_PCOD9244270
_publ_section_title
;
Structure prediction by ZEFSAII (Michael W. Deem and Ramdas Pophale) SiO2 
 PCOD9244270
Probable space group: P 21/C
;
_chemical_formula_sum "Si O2"
_cell_formula_units_Z 32
_cell_length_a 12.837945
_cell_length_b 10.216703
_cell_length_c 17.037123
_cell_angle_alpha 90.000000
_cell_angle_beta 147.872147
_cell_angle_gamma 90.000000
_cell_volume 1188.390861
_symmetry_space_group_name_H-M "P 21/C"
_symmetry_group_IT_number 14
_symmetry_cell_setting 'monoclinic'
loop_
_space_group_symop_operation_xyz
x,y,z
-x,1/2+y,1/2-z
-x,-y,-z
x,1/2-y,1/2+z
loop_
_atom_site_type_symbol
_atom_site_label
_atom_site_fract_x
_atom_site_fract_y
_atom_site_fract_z
Si Si1 0.293551 0.682547 0.482387
Si Si2 0.613522 0.846370 0.953725
Si Si3 0.106544 0.056819 0.245194
Si Si4 0.283125 0.337950 0.320521
Si Si5 0.544035 0.617310 0.236417
Si Si6 0.267102 0.428769 0.012026
Si Si7 0.887166 0.826856 0.439802
Si Si8 0.215131 0.779884 0.259749
O O1 0.508830 0.635262 0.589136
O O2 0.364788 0.788831 0.592991
O O3 0.195906 0.734411 0.338805
O O4 0.119976 0.597085 0.409646
O O5 0.554968 0.913949 0.835742
O O6 0.746903 0.727082 0.009401
O O7 0.428348 0.773023 0.873185
O O8 0.716271 0.909371 0.095159
O O9 0.240818 0.184603 0.313064
O O10 0.152053 0.017278 0.364516
O O11 0.167470 0.933348 0.232722
O O12 0.118607 0.375327 0.153144
O O13 0.486813 0.486308 0.153481
O O14 0.738898 0.700381 0.342008
O O15 0.201062 0.437309 0.059525
O O16 0.080784 0.782599 0.606893
#
# Coordination Sequence:
#
# PCOD9244270 Si02
#       8
#     4   4   4   4   4   4   4   4
#     4  10  21  39  62  92 127 163 209 261 321 380
#     4   9  22  38  62  94 123 162 212 266 313 377
#     4  11  22  38  69  97 122 170 214 263 322 373
#     4   9  22  40  61  86 134 164 202 263 319 370
#     4  10  21  40  63  88 124 170 206 256 324 383
#     4  10  20  40  65  86 124 172 209 251 332 383
#     4  10  22  38  58  92 130 161 206 267 311 374
#     4  11  22  37  65  96 126 156 217 272 307 375
#
# _framework density 26.927168000000002
#
# number of rings (size 3 to 8) (size 9 to 14) (size 15 to 20)
#    0.000    2.000    2.500    0.000    5.250    5.000 
#    0.000    1.250    5.500    0.000    0.000    0.000 
#    0.000    0.000    0.000    0.000    0.000    0.000 
#
# Total GULP energy -178860.371653 kJ/mol
# GULP energy per Si atom -5589.386614 kJ/mol
# Density = 2.686588 g / cm^3
# Si number density = 26.927168 Si / 1000 Ang^3
#
#
#
# Elastic Constant Matrix: (Units=GPa)
#
#
# Indices 1 2 3 4 5 6 
#
# 1 78.5372 21.3256 61.9480 0.0000 -23.6431 0.0000
# 2 21.3256 64.7718 33.0451 0.0000 4.0433 0.0000
# 3 61.9480 33.0451 204.5827 0.0000 -35.9844 0.0000
# 4 0.0000 0.0000 0.0000 55.2973 0.0000 5.1291
# 5 -23.6431 4.0433 -35.9844 0.0000 57.1294 0.0000
# 6 0.0000 0.0000 0.0000 5.1291 0.0000 28.6508
#
#
#
# Elastic Compliance Matrix: (Units=1/GPa)
#
#
# Indices 1 2 3 4 5 6 
#
# 1 0.018771 -0.004501 -0.003975 0.000000 0.005583 0.000000
# 2 -0.004501 0.018464 -0.002448 0.000000 -0.004712 0.000000
# 3 -0.003975 -0.002448 0.007004 0.000000 0.002940 0.000000
# 4 0.000000 0.000000 0.000000 0.018389 0.000000 -0.003292
# 5 0.005583 -0.004712 0.002940 0.000000 0.022000 0.000000
# 6 0.000000 0.000000 0.000000 -0.003292 0.000000 0.035492
#
#
# Mechanical properties :
#
#
# Convention : Reuss Voigt Hill
#
# Bulk Modulus (GPa) = 44.66045 64.50323 54.58184
# Shear Modulus (GPa) = 33.45992 43.65369 38.55680
#
# Velocity S-wave (km/s) = 3.52889 4.03075 3.78814
# Velocity P-wave (km/s) = 5.76418 6.75791 6.28073
#
# Compressibility (1/GPa) = 0.02239118
#
# Stress axis : x y z
#
# Youngs Moduli (GPa) = 53.27356 54.15996 142.77239
#
# Poissons Ratio (x) = 0.24377 0.56750
# Poissons Ratio (y) = 0.23978 0.34953
# Poissons Ratio (z) = 0.21175 0.13259
#
# Static dielectric constant tensor:
#      x y z
#    x 2.155330 0.000000 -0.002990 
#    y 0.000000 2.203950 0.000000 
#    z -0.002990 0.000000 2.045220 
# 
# From -- ./inp_files/59403.got.cif
#   From: 2010.05.17/outbox.cif.g08.bks.cpg/sg14_30_cif.got.tgz:59403.got - 2010.06.03 17:49:19.
