data_PCOD9244336
_publ_section_title
;
Structure prediction by ZEFSAII (Michael W. Deem and Ramdas Pophale) SiO2 
 PCOD9244336
Probable space group: P 21/C
;
_chemical_formula_sum "Si O2"
_cell_formula_units_Z 24
_cell_length_a 15.034892
_cell_length_b 8.257553
_cell_length_c 9.809875
_cell_angle_alpha 90.000000
_cell_angle_beta 65.152839
_cell_angle_gamma 90.000000
_cell_volume 1105.170300
_symmetry_space_group_name_H-M "P 21/C"
_symmetry_group_IT_number 14
_symmetry_cell_setting 'monoclinic'
loop_
_space_group_symop_operation_xyz
x,y,z
-x,1/2+y,1/2-z
-x,-y,-z
x,1/2-y,1/2+z
loop_
_atom_site_type_symbol
_atom_site_label
_atom_site_fract_x
_atom_site_fract_y
_atom_site_fract_z
Si Si1 0.236549 0.864183 0.364449
Si Si2 0.417162 0.636067 0.157362
Si Si3 0.450456 0.882736 0.922813
Si Si4 0.753000 0.558788 0.408653
Si Si5 0.737158 0.569633 0.879962
Si Si6 0.113308 0.543143 0.437086
O O1 0.336226 0.769327 0.258835
O O2 0.149282 0.731487 0.412501
O O3 0.222553 0.001759 0.259678
O O4 0.250672 0.946488 0.501694
O O5 0.458527 0.710412 0.991392
O O6 0.486740 0.614888 0.243428
O O7 0.354386 0.482274 0.154050
O O8 0.338835 0.948435 0.985387
O O9 0.500000 0.000000 0.000000
O O10 0.726525 0.746448 0.431986
O O11 0.842103 0.524096 0.451502
O O12 0.830966 0.543832 0.723295
O O13 0.000000 0.500000 0.500000
#
# Coordination Sequence:
#
# PCOD9244336 Si02
#       6
#     4   4   4   4   4   4
#     4  10  20  40  67  87 124 172 208 258 320 375
#     4  10  20  42  63  91 124 175 211 257 323 372
#     4  11  23  42  66  93 129 168 219 261 319 381
#     4  11  23  40  63  95 127 166 215 263 318 381
#     4  11  21  39  66  91 131 166 212 264 318 381
#     4  11  23  41  64  91 125 170 214 260 321 384
#
# _framework density 21.71611
#
# number of rings (size 3 to 8) (size 9 to 14) (size 15 to 20)
#    0.000    1.333    5.000    3.000    0.000    4.000 
#    3.000    4.167    0.000    0.000    0.000    0.000 
#    0.000    0.000    0.000    0.000    0.000    0.000 
#
# Total GULP energy -134228.494331 kJ/mol
# GULP energy per Si atom -5592.853930 kJ/mol
# Density = 2.166668 g / cm^3
# Si number density = 21.716110 Si / 1000 Ang^3
#
#
#
# Elastic Constant Matrix: (Units=GPa)
#
#
# Indices 1 2 3 4 5 6 
#
# 1 97.9581 14.3025 37.3875 0.0000 18.8726 0.0000
# 2 14.3025 79.1056 21.4947 0.0000 1.2437 0.0000
# 3 37.3875 21.4947 106.6897 0.0000 26.2029 0.0000
# 4 0.0000 0.0000 0.0000 24.2136 0.0000 0.5570
# 5 18.8726 1.2437 26.2029 0.0000 35.8895 0.0000
# 6 0.0000 0.0000 0.0000 0.5570 0.0000 16.9224
#
#
#
# Elastic Compliance Matrix: (Units=1/GPa)
#
#
# Indices 1 2 3 4 5 6 
#
# 1 0.012379 -0.001351 -0.003020 0.000000 -0.004258 0.000000
# 2 -0.001351 0.013620 -0.002838 0.000000 0.002310 0.000000
# 3 -0.003020 -0.002838 0.012903 0.000000 -0.007734 0.000000
# 4 0.000000 0.000000 0.000000 0.041330 0.000000 -0.001360
# 5 -0.004258 0.002310 -0.007734 0.000000 0.035668 0.000000
# 6 0.000000 0.000000 0.000000 -0.001360 0.000000 0.059138
#
#
# Mechanical properties :
#
#
# Convention : Reuss Voigt Hill
#
# Bulk Modulus (GPa) = 40.84346 47.79141 44.31744
# Shear Modulus (GPa) = 25.30141 29.44300 27.37221
#
# Velocity S-wave (km/s) = 3.41706 3.68613 3.55414
# Velocity P-wave (km/s) = 5.86661 6.33813 6.10692
#
# Compressibility (1/GPa) = 0.02448372
#
# Stress axis : x y z
#
# Youngs Moduli (GPa) = 80.78472 73.41925 77.50421
#
# Poissons Ratio (x) = 0.09915 0.23407
# Poissons Ratio (y) = 0.10910 0.21998
# Poissons Ratio (z) = 0.24398 0.20838
#
# Static dielectric constant tensor:
#      x y z
#    x 1.772200 0.000000 -0.005050 
#    y 0.000000 1.802840 0.000000 
#    z -0.005050 0.000000 1.840860 
# 
# From -- ./inp_files/15046.got.cif
#   From: 2010.05.17/outbox.cif.g08.bks.cpg/sg14_8_cif.got.tgz:15046.got - 2010.06.03 17:49:19.
