data_PCOD9244001
_publ_section_title
;
Structure prediction by ZEFSAII (Michael W. Deem and Ramdas Pophale) SiO2 
 PCOD9244001
Probable space group: P 21/C
;
_chemical_formula_sum "Si O2"
_cell_formula_units_Z 30
_cell_length_a 15.323333
_cell_length_b 17.218543
_cell_length_c 5.372923
_cell_angle_alpha 90.000000
_cell_angle_beta 59.796468
_cell_angle_gamma 90.000000
_cell_volume 1225.170480
_symmetry_space_group_name_H-M "P 21/C"
_symmetry_group_IT_number 14
_symmetry_cell_setting 'monoclinic'
loop_
_space_group_symop_operation_xyz
x,y,z
-x,1/2+y,1/2-z
-x,-y,-z
x,1/2-y,1/2+z
loop_
_atom_site_type_symbol
_atom_site_label
_atom_site_fract_x
_atom_site_fract_y
_atom_site_fract_z
Si Si1 0.031940 0.901893 0.708449
Si Si2 0.663149 0.049421 0.161385
Si Si3 0.546116 0.134415 0.687246
Si Si4 0.626781 0.699133 0.867399
Si Si5 0.841356 0.795996 0.965431
Si Si6 0.287310 0.770830 0.011121
Si Si7 0.500000 0.500000 0.500000
Si Si8 0.887249 0.051031 0.908184
O O1 0.086326 0.895375 0.365416
O O2 0.944422 0.839939 0.868678
O O3 0.106406 0.906380 0.835983
O O4 0.970332 0.983405 0.792424
O O5 0.610985 0.057836 0.509163
O O6 0.679387 0.140197 0.058021
O O7 0.775827 0.018360 0.024162
O O8 0.591842 0.006118 0.074980
O O9 0.468698 0.149307 0.576580
O O10 0.617113 0.209252 0.626310
O O11 0.493179 0.097408 0.999284
O O12 0.623292 0.762280 0.643801
O O13 0.736299 0.660158 0.676773
O O14 0.838685 0.771973 0.678730
O O15 0.230234 0.752372 0.344454
#
# Coordination Sequence:
#
# PCOD9244001 Si02
#       8
#     4   4   4   4   4   4   2   4
#     4  10  22  46  68  98 126 178 213 290 339 410
#     4  11  25  44  65 101 134 178 226 287 326 414
#     4  11  24  42  62  96 137 183 219 278 331 404
#     4  10  22  39  66  97 129 178 223 262 333 410
#     4  10  21  40  65  99 132 164 219 281 334 400
#     4  10  20  39  64  84 129 174 213 259 322 389
#     4  12  26  42  64 100 138 172 230 286 324 392
#     4  10  24  43  72  94 132 171 229 268 354 401
#
# _framework density 24.486387000000001
#
# number of rings (size 3 to 8) (size 9 to 14) (size 15 to 20)
#    0.000    1.600    1.333    2.800    5.600    0.000 
#    0.000    8.000    0.000    0.000    0.000    0.000 
#    0.000    0.000    0.000    0.000    0.000    0.000 
#
# Total GULP energy -167168.440103 kJ/mol
# GULP energy per Si atom -5572.281337 kJ/mol
# Density = 2.443065 g / cm^3
# Si number density = 24.486387 Si / 1000 Ang^3
#
#
#
# Elastic Constant Matrix: (Units=GPa)
#
#
# Indices 1 2 3 4 5 6 
#
# 1 84.2630 -73.9267 95.6279 0.0000 56.2193 0.0000
# 2 -73.9267 -214.3368 214.2515 0.0000 127.6648 0.0000
# 3 95.6279 214.2515 -66.8881 0.0000 -62.1039 0.0000
# 4 0.0000 0.0000 0.0000 -24.6607 0.0000 12.6191
# 5 56.2193 127.6648 -62.1039 0.0000 -13.4003 0.0000
# 6 0.0000 0.0000 0.0000 12.6191 0.0000 33.7617
#
#
#
# Elastic Compliance Matrix: (Units=1/GPa)
#
#
# Indices 1 2 3 4 5 6 
#
# 1 0.009402 -0.004736 -0.001073 0.000000 -0.000707 0.000000
# 2 -0.004736 0.005185 0.005323 0.000000 0.004864 0.000000
# 3 -0.001073 0.005323 0.012818 0.000000 -0.013197 0.000000
# 4 0.000000 0.000000 0.000000 -0.034040 0.000000 0.012723
# 5 -0.000707 0.004864 -0.013197 0.000000 0.029903 0.000000
# 6 0.000000 0.000000 0.000000 0.012723 0.000000 0.024864
#
#
# Mechanical properties :
#
#
# Convention : Reuss Voigt Hill
#
# Bulk Modulus (GPa) = 37.83167 30.54930 34.19049
# Shear Modulus (GPa) = 86.33305 -29.72085 28.30610
#
# Velocity S-wave (km/s) = 5.94425 -3.48770 3.40368
# Velocity P-wave (km/s) = 7.91175 1.92759 5.42587
#
# Compressibility (1/GPa) = 0.02643288
#
# Stress axis : x y z
#
# Youngs Moduli (GPa) = 106.36502 192.84966 78.01496
#
# Poissons Ratio (x) = 0.91336 0.08367
# Poissons Ratio (y) = 0.50376 -0.41524
# Poissons Ratio (z) = 0.11408 -1.02646
#
# Static dielectric constant tensor:
#      x y z
#    x 1.913940 0.000000 -0.004480 
#    y 0.000000 1.976770 0.000000 
#    z -0.004480 0.000000 1.621270 
# 
# From -- ./inp_files/2960.got.cif
#   From: 2010.05.17/outbox.cif.g08.bks.cpg/sg14_2_cif.got.tgz:2960.got - 2010.06.03 17:49:19.
