data_PCOD9244018
_publ_section_title
;
Structure prediction by ZEFSAII (Michael W. Deem and Ramdas Pophale) SiO2 
 PCOD9244018
Probable space group: P 21/C
;
_chemical_formula_sum "Si O2"
_cell_formula_units_Z 28
_cell_length_a 5.261584
_cell_length_b 10.076429
_cell_length_c 26.692730
_cell_angle_alpha 90.000000
_cell_angle_beta 115.875358
_cell_angle_gamma 90.000000
_cell_volume 1273.315019
_symmetry_space_group_name_H-M "P 21/C"
_symmetry_group_IT_number 14
_symmetry_cell_setting 'monoclinic'
loop_
_space_group_symop_operation_xyz
x,y,z
-x,1/2+y,1/2-z
-x,-y,-z
x,1/2-y,1/2+z
loop_
_atom_site_type_symbol
_atom_site_label
_atom_site_fract_x
_atom_site_fract_y
_atom_site_fract_z
Si Si1 0.661629 0.577850 0.453173
Si Si2 0.182990 0.952442 0.131049
Si Si3 0.735475 0.273961 0.136226
Si Si4 0.409074 0.821155 0.668408
Si Si5 0.347171 0.178369 0.945006
Si Si6 0.621070 0.802584 0.797603
Si Si7 0.780276 0.567564 0.117674
O O1 0.837138 0.550969 0.418104
O O2 0.388330 0.657349 0.409329
O O3 0.775419 0.663191 0.509184
O O4 0.597451 0.428233 0.466316
O O5 0.370003 0.821671 0.138362
O O6 0.880018 0.885902 0.112859
O O7 0.321459 0.041930 0.185435
O O8 0.562320 0.260736 0.173319
O O9 0.703193 0.414288 0.105779
O O10 0.066023 0.258348 0.175970
O O11 0.471749 0.792416 0.731586
O O12 0.666872 0.894129 0.663299
O O13 0.113845 0.902152 0.639352
O O14 0.382113 0.329988 0.932909
#
# Coordination Sequence:
#
# PCOD9244018 Si02
#       7
#     4   4   4   4   4   4   4
#     4  10  20  39  64  90 123 164 207 262 312 364
#     4  10  21  38  64  90 126 158 219 258 302 374
#     4  11  24  42  62  92 129 161 207 258 309 378
#     4  11  24  41  63  90 125 169 208 256 309 366
#     4  10  20  39  64  90 123 164 207 262 312 364
#     4  11  24  41  63  90 125 169 208 256 309 366
#     4  11  24  42  62  92 129 161 207 258 309 378
#
# _framework density 21.989846
#
# number of rings (size 3 to 8) (size 9 to 14) (size 15 to 20)
#    0.000    1.429    2.857    2.143    4.000    0.571 
#    0.000    0.000    0.000    5.143    0.000    0.000 
#    0.000    0.000    0.000    0.000    0.000    0.000 
#
# Total GULP energy -156248.727530 kJ/mol
# GULP energy per Si atom -5580.311697 kJ/mol
# Density = 2.193980 g / cm^3
# Si number density = 21.989846 Si / 1000 Ang^3
#
#
#
# Elastic Constant Matrix: (Units=GPa)
#
#
# Indices 1 2 3 4 5 6 
#
# 1 104.9495 7.6744 7.9820 0.0000 -6.1544 0.0000
# 2 7.6744 64.2013 2.0584 0.0000 -2.8465 0.0000
# 3 7.9820 2.0584 62.2792 0.0000 -5.1631 0.0000
# 4 0.0000 0.0000 0.0000 15.7906 0.0000 -5.4842
# 5 -6.1544 -2.8465 -5.1631 0.0000 21.2027 0.0000
# 6 0.0000 0.0000 0.0000 -5.4842 0.0000 15.2245
#
#
#
# Elastic Compliance Matrix: (Units=1/GPa)
#
#
# Indices 1 2 3 4 5 6 
#
# 1 0.009826 -0.001033 -0.001021 0.000000 0.002465 0.000000
# 2 -0.001033 0.015785 -0.000243 0.000000 0.001760 0.000000
# 3 -0.001021 -0.000243 0.016501 0.000000 0.003689 0.000000
# 4 0.000000 0.000000 0.000000 0.072385 0.000000 0.026074
# 5 0.002465 0.001760 0.003689 0.000000 0.049014 0.000000
# 6 0.000000 0.000000 0.000000 0.026074 0.000000 0.075076
#
#
# Mechanical properties :
#
#
# Convention : Reuss Voigt Hill
#
# Bulk Modulus (GPa) = 26.65310 29.65104 28.15207
# Shear Modulus (GPa) = 19.55511 24.69125 22.12318
#
# Velocity S-wave (km/s) = 2.98531 3.35453 3.17529
# Velocity P-wave (km/s) = 4.90201 5.34014 5.12576
#
# Compressibility (1/GPa) = 0.03751909
#
# Stress axis : x y z
#
# Youngs Moduli (GPa) = 101.76984 63.35014 60.60066
#
# Poissons Ratio (x) = 0.06541 0.06187
# Poissons Ratio (y) = 0.10508 0.01475
# Poissons Ratio (z) = 0.10389 0.01542
#
# Static dielectric constant tensor:
#      x y z
#    x 1.865130 0.000000 -0.018960 
#    y 0.000000 1.812810 0.000000 
#    z -0.018960 0.000000 1.824620 
# 
# From -- ./inp_files/78649.got.cif
#   From: 2010.05.17/outbox.cif.g08.bks.cpg/sg14_40_cif.got.tgz:78649.got - 2010.06.03 17:49:19.
