data_PCOD9244786
_publ_section_title
;
Structure prediction by ZEFSAII (Michael W. Deem and Ramdas Pophale) SiO2 
 PCOD9244786
Probable space group: P 21/C
;
_chemical_formula_sum "Si O2"
_cell_formula_units_Z 24
_cell_length_a 16.162428
_cell_length_b 6.533202
_cell_length_c 27.671754
_cell_angle_alpha 90.000000
_cell_angle_beta 154.706332
_cell_angle_gamma 90.000000
_cell_volume 1248.416577
_symmetry_space_group_name_H-M "P 21/C"
_symmetry_group_IT_number 14
_symmetry_cell_setting 'monoclinic'
loop_
_space_group_symop_operation_xyz
x,y,z
-x,1/2+y,1/2-z
-x,-y,-z
x,1/2-y,1/2+z
loop_
_atom_site_type_symbol
_atom_site_label
_atom_site_fract_x
_atom_site_fract_y
_atom_site_fract_z
Si Si1 0.724173 0.215766 0.482895
Si Si2 0.903904 0.917813 0.656329
Si Si3 0.994029 0.519036 0.053966
Si Si4 0.704084 0.888175 0.116906
Si Si5 0.717721 0.748685 0.234633
Si Si6 0.966349 0.602552 0.603556
O O1 0.496374 0.191567 0.362783
O O2 0.782827 0.453358 0.512325
O O3 0.817184 0.106508 0.579417
O O4 0.820935 0.107584 0.487835
O O5 0.742624 0.814395 0.605227
O O6 0.968673 0.752354 0.650525
O O7 0.098783 0.980648 0.787653
O O8 0.183453 0.416537 0.178477
O O9 0.967793 0.751068 0.057952
O O10 0.000000 0.500000 0.000000
O O11 0.709440 0.836261 0.176234
O O12 0.500000 0.000000 0.000000
O O13 0.853925 0.550573 0.304554
#
# Coordination Sequence:
#
# PCOD9244786 Si02
#       6
#     4   4   4   4   4   4
#     4  10  23  42  65  95 129 172 218 273 329 400
#     4  11  24  42  60  96 132 176 230 272 331 397
#     4  10  23  46  68  98 132 168 218 276 342 400
#     4  12  25  39  65  93 135 183 228 278 340 402
#     4  11  23  42  64  98 129 174 224 268 341 397
#     4  10  20  44  68  85 138 168 210 281 325 394
#
# _framework density 19.224350999999999
#
# number of rings (size 3 to 8) (size 9 to 14) (size 15 to 20)
#    0.000    1.333    5.000    2.000    4.667    6.000 
#    6.000    0.000    0.000    0.000    0.000    0.000 
#    0.000    0.000    0.000    0.000    0.000    0.000 
#
# Total GULP energy -134093.536337 kJ/mol
# GULP energy per Si atom -5587.230681 kJ/mol
# Density = 1.918060 g / cm^3
# Si number density = 19.224351 Si / 1000 Ang^3
#
#
#
# Elastic Constant Matrix: (Units=GPa)
#
#
# Indices 1 2 3 4 5 6 
#
# 1 108.3853 22.1898 49.4923 0.0000 -24.8426 0.0000
# 2 22.1898 73.9840 8.4713 0.0000 -25.2169 0.0000
# 3 49.4923 8.4713 59.4709 0.0000 4.0077 0.0000
# 4 0.0000 0.0000 0.0000 13.6165 0.0000 1.8633
# 5 -24.8426 -25.2169 4.0077 0.0000 38.8010 0.0000
# 6 0.0000 0.0000 0.0000 1.8633 0.0000 25.7616
#
#
#
# Elastic Compliance Matrix: (Units=1/GPa)
#
#
# Indices 1 2 3 4 5 6 
#
# 1 0.021579 0.001445 -0.019293 0.000000 0.016748 0.000000
# 2 0.001445 0.018109 -0.004670 0.000000 0.013177 0.000000
# 3 -0.019293 -0.004670 0.034815 0.000000 -0.018984 0.000000
# 4 0.000000 0.000000 0.000000 0.074175 0.000000 -0.005365
# 5 0.016748 0.013177 -0.018984 0.000000 0.047020 0.000000
# 6 0.000000 0.000000 0.000000 -0.005365 0.000000 0.039206
#
#
# Mechanical properties :
#
#
# Convention : Reuss Voigt Hill
#
# Bulk Modulus (GPa) = 33.93563 44.68301 39.30932
# Shear Modulus (GPa) = 17.25561 26.41493 21.83527
#
# Velocity S-wave (km/s) = 2.99923 3.71082 3.37384
# Velocity P-wave (km/s) = 5.44836 6.45396 5.97236
#
# Compressibility (1/GPa) = 0.02946755
#
# Stress axis : x y z
#
# Youngs Moduli (GPa) = 46.34167 55.22137 28.72322
#
# Poissons Ratio (x) = -0.07982 0.55415
# Poissons Ratio (y) = -0.06698 0.13415
# Poissons Ratio (z) = 0.89405 0.25791
#
# Static dielectric constant tensor:
#      x y z
#    x 1.671680 0.000000 0.005470 
#    y 0.000000 1.703110 0.000000 
#    z 0.005470 0.000000 1.665840 
# 
# From -- ./inp_files/77442.got.cif
#   From: 2010.05.17/outbox.cif.g08.bks.cpg/sg14_39_cif.got.tgz:77442.got - 2010.06.03 17:49:19.
