data_PCOD9244612
_publ_section_title
;
Structure prediction by ZEFSAII (Michael W. Deem and Ramdas Pophale) SiO2 
 PCOD9244612
Probable space group: P 21/C
;
_chemical_formula_sum "Si O2"
_cell_formula_units_Z 32
_cell_length_a 16.923648
_cell_length_b 8.416241
_cell_length_c 24.960267
_cell_angle_alpha 90.000000
_cell_angle_beta 20.933526
_cell_angle_gamma 90.000000
_cell_volume 1270.210340
_symmetry_space_group_name_H-M "P 21/C"
_symmetry_group_IT_number 14
_symmetry_cell_setting 'monoclinic'
loop_
_space_group_symop_operation_xyz
x,y,z
-x,1/2+y,1/2-z
-x,-y,-z
x,1/2-y,1/2+z
loop_
_atom_site_type_symbol
_atom_site_label
_atom_site_fract_x
_atom_site_fract_y
_atom_site_fract_z
Si Si1 0.256427 0.090377 0.984235
Si Si2 0.885734 0.841317 0.346877
Si Si3 0.530237 0.210208 0.172918
Si Si4 0.240910 0.922258 0.197824
Si Si5 0.288946 0.892962 0.341459
Si Si6 0.035307 0.773954 0.918800
Si Si7 0.356392 0.238263 0.601481
Si Si8 0.567319 0.977891 0.347693
O O1 0.116825 0.176840 0.117672
O O2 0.169742 0.133278 0.979169
O O3 0.508725 0.152008 0.827003
O O4 0.288752 0.903514 0.969689
O O5 0.839761 0.808181 0.314294
O O6 0.109994 0.922204 0.224442
O O7 0.675436 0.943057 0.500530
O O8 0.658198 0.304616 0.137515
O O9 0.426250 0.334750 0.198629
O O10 0.350540 0.080485 0.308798
O O11 0.085698 0.862749 0.343217
O O12 0.312932 0.101421 0.162603
O O13 0.441026 0.798152 0.064299
O O14 0.073103 0.817527 0.451110
O O15 0.228505 0.906766 0.793650
O O16 0.408691 0.097055 0.608417
#
# Coordination Sequence:
#
# PCOD9244612 Si02
#       8
#     4   4   4   4   4   4   4   4
#     4   9  23  40  65  89 124 163 196 252 315 356
#     4  11  23  40  64  90 126 163 207 249 307 364
#     4  10  23  40  65  90 123 162 198 256 305 361
#     4  10  24  40  62  88 125 164 203 255 303 359
#     4  10  20  42  65  87 123 159 198 248 311 357
#     4  11  21  42  64  91 126 159 204 252 305 365
#     4  11  24  40  61  90 125 164 207 251 308 349
#     4  12  23  38  63  91 125 162 209 251 299 368
#
# _framework density 25.192677
#
# number of rings (size 3 to 8) (size 9 to 14) (size 15 to 20)
#    0.750    0.750    2.500    1.875    5.250    2.500 
#    0.000    0.625    0.000    0.000    0.000    0.000 
#    0.000    0.000    0.000    0.000    0.000    0.000 
#
# Total GULP energy -178949.514852 kJ/mol
# GULP energy per Si atom -5592.172339 kJ/mol
# Density = 2.513534 g / cm^3
# Si number density = 25.192677 Si / 1000 Ang^3
#
#
#
# Elastic Constant Matrix: (Units=GPa)
#
#
# Indices 1 2 3 4 5 6 
#
# 1 138.7285 40.6174 2.3574 0.0000 -20.7103 0.0000
# 2 40.6174 124.7626 10.9490 0.0000 -6.6510 0.0000
# 3 2.3574 10.9490 43.3427 0.0000 -22.6263 0.0000
# 4 0.0000 0.0000 0.0000 18.7343 0.0000 1.0665
# 5 -20.7103 -6.6510 -22.6263 0.0000 36.2802 0.0000
# 6 0.0000 0.0000 0.0000 1.0665 0.0000 44.4025
#
#
#
# Elastic Compliance Matrix: (Units=1/GPa)
#
#
# Indices 1 2 3 4 5 6 
#
# 1 0.009054 -0.002916 0.003949 0.000000 0.007097 0.000000
# 2 -0.002916 0.009138 -0.003179 0.000000 -0.001972 0.000000
# 3 0.003949 -0.003179 0.036376 0.000000 0.024357 0.000000
# 4 0.000000 0.000000 0.000000 0.053451 0.000000 -0.001284
# 5 0.007097 -0.001972 0.024357 0.000000 0.046443 0.000000
# 6 0.000000 0.000000 0.000000 -0.001284 0.000000 0.022552
#
#
# Mechanical properties :
#
#
# Convention : Reuss Voigt Hill
#
# Bulk Modulus (GPa) = 19.89035 46.07568 32.98302
# Shear Modulus (GPa) = 25.24404 36.74406 30.99405
#
# Velocity S-wave (km/s) = 3.16893 3.82320 3.51134
# Velocity P-wave (km/s) = 4.61540 6.14965 5.43692
#
# Compressibility (1/GPa) = 0.05027563
#
# Stress axis : x y z
#
# Youngs Moduli (GPa) = 110.44300 109.42799 27.49096
#
# Poissons Ratio (x) = 0.31909 -0.10856
# Poissons Ratio (y) = 0.32205 0.08741
# Poissons Ratio (z) = -0.43614 0.34792
#
# Static dielectric constant tensor:
#      x y z
#    x 1.955920 0.000000 0.031500 
#    y 0.000000 1.994060 0.000000 
#    z 0.031500 0.000000 2.052150 
# 
# From -- ./inp_files/51381.got.cif
#   From: 2010.05.17/outbox.cif.g08.bks.cpg/sg14_26_cif.got.tgz:51381.got - 2010.06.03 17:49:19.
