data_PCOD9244386
_publ_section_title
;
Structure prediction by ZEFSAII (Michael W. Deem and Ramdas Pophale) SiO2 
 PCOD9244386
Probable space group: P 21/C
;
_chemical_formula_sum "Si O2"
_cell_formula_units_Z 30
_cell_length_a 13.634053
_cell_length_b 9.639785
_cell_length_c 22.546304
_cell_angle_alpha 90.000000
_cell_angle_beta 25.510925
_cell_angle_gamma 90.000000
_cell_volume 1276.220178
_symmetry_space_group_name_H-M "P 21/C"
_symmetry_group_IT_number 14
_symmetry_cell_setting 'monoclinic'
loop_
_space_group_symop_operation_xyz
x,y,z
-x,1/2+y,1/2-z
-x,-y,-z
x,1/2-y,1/2+z
loop_
_atom_site_type_symbol
_atom_site_label
_atom_site_fract_x
_atom_site_fract_y
_atom_site_fract_z
Si Si1 0.220712 0.603821 0.995858
Si Si2 0.038675 0.859220 0.301311
Si Si3 0.073697 0.879005 0.143522
Si Si4 0.000000 0.500000 0.500000
Si Si5 0.871192 0.827030 0.598760
Si Si6 0.778878 0.689345 0.531628
Si Si7 0.547841 0.026581 0.853560
Si Si8 0.260159 0.451468 0.271525
O O1 0.115494 0.735657 0.086510
O O2 0.136142 0.472677 0.078594
O O3 0.111707 0.611066 0.989296
O O4 0.489226 0.603364 0.856960
O O5 0.026113 0.848914 0.237956
O O6 0.954353 0.724719 0.383063
O O7 0.282983 0.917294 0.188392
O O8 0.851335 0.943705 0.231755
O O9 0.311907 0.962167 0.007109
O O10 0.177079 0.455604 0.458821
O O11 0.207766 0.575967 0.344191
O O12 0.804379 0.809568 0.567084
O O13 0.687395 0.912273 0.738282
O O14 0.888680 0.659761 0.605943
O O15 0.532240 0.661721 0.638986
#
# Coordination Sequence:
#
# PCOD9244386 Si02
#       8
#     4   4   4   2   4   4   4   4
#     4  10  23  43  69  98 135 187 226 292 349 422
#     4  11  28  43  66 103 142 182 235 291 347 421
#     4  11  23  44  68  98 135 189 238 279 354 414
#     4  10  22  40  68  96 138 168 220 302 338 406
#     4   9  22  42  65 101 132 179 228 278 355 415
#     4  11  25  42  67 107 132 183 227 292 349 417
#     4  11  23  46  69  96 139 186 226 294 354 412
#     4  10  20  40  69  98 132 177 235 274 351 415
#
# _framework density 23.506914999999999
#
# number of rings (size 3 to 8) (size 9 to 14) (size 15 to 20)
#    0.000    1.600    2.667    0.400    1.867   10.133 
#    0.000    0.000    0.000    0.000    0.000    0.000 
#    0.000    0.000    0.000    0.000    0.000    0.000 
#
# Total GULP energy -167096.541563 kJ/mol
# GULP energy per Si atom -5569.884719 kJ/mol
# Density = 2.345341 g / cm^3
# Si number density = 23.506915 Si / 1000 Ang^3
#
#
#
# Elastic Constant Matrix: (Units=GPa)
#
#
# Indices 1 2 3 4 5 6 
#
# 1 187.7826 21.2491 79.7060 0.0000 13.5016 0.0000
# 2 21.2491 74.9800 31.4716 0.0000 -8.6590 0.0000
# 3 79.7060 31.4716 86.3725 0.0000 -3.3550 0.0000
# 4 0.0000 0.0000 0.0000 41.8238 0.0000 -3.5342
# 5 13.5016 -8.6590 -3.3550 0.0000 26.9474 0.0000
# 6 0.0000 0.0000 0.0000 -3.5342 0.0000 16.8241
#
#
#
# Elastic Compliance Matrix: (Units=1/GPa)
#
#
# Indices 1 2 3 4 5 6 
#
# 1 0.009635 0.000500 -0.009300 0.000000 -0.005824 0.000000
# 2 0.000500 0.016299 -0.006237 0.000000 0.004210 0.000000
# 3 -0.009300 -0.006237 0.022645 0.000000 0.005475 0.000000
# 4 0.000000 0.000000 0.000000 0.024342 0.000000 0.005113
# 5 -0.005824 0.004210 0.005475 0.000000 0.042062 0.000000
# 6 0.000000 0.000000 0.000000 0.005113 0.000000 0.060513
#
#
# Mechanical properties :
#
#
# Convention : Reuss Voigt Hill
#
# Bulk Modulus (GPa) = 54.03656 68.22095 61.12875
# Shear Modulus (GPa) = 23.61416 31.56630 27.59023
#
# Velocity S-wave (km/s) = 3.17292 3.66847 3.42966
# Velocity P-wave (km/s) = 6.03827 6.85771 6.46099
#
# Compressibility (1/GPa) = 0.01850599
#
# Stress axis : x y z
#
# Youngs Moduli (GPa) = 103.79012 61.35251 44.15991
#
# Poissons Ratio (x) = -0.03069 0.41067
# Poissons Ratio (y) = -0.05192 0.27543
# Poissons Ratio (z) = 0.96522 0.38266
#
# Static dielectric constant tensor:
#      x y z
#    x 2.008690 0.000000 -0.054630 
#    y 0.000000 2.245850 0.000000 
#    z -0.054630 0.000000 2.080240 
# 
# From -- ./inp_files/67410.got.cif
#   From: 2010.05.17/outbox.cif.g08.bks.cpg/sg14_34_cif.got.tgz:67410.got - 2010.06.03 17:49:19.
