data_PCOD9244265
_publ_section_title
;
Structure prediction by ZEFSAII (Michael W. Deem and Ramdas Pophale) SiO2 
 PCOD9244265
Probable space group: P 21/C
;
_chemical_formula_sum "Si O2"
_cell_formula_units_Z 32
_cell_length_a 12.845769
_cell_length_b 12.439518
_cell_length_c 18.971455
_cell_angle_alpha 90.000000
_cell_angle_beta 150.010762
_cell_angle_gamma 90.000000
_cell_volume 1515.280322
_symmetry_space_group_name_H-M "P 21/C"
_symmetry_group_IT_number 14
_symmetry_cell_setting 'monoclinic'
loop_
_space_group_symop_operation_xyz
x,y,z
-x,1/2+y,1/2-z
-x,-y,-z
x,1/2-y,1/2+z
loop_
_atom_site_type_symbol
_atom_site_label
_atom_site_fract_x
_atom_site_fract_y
_atom_site_fract_z
Si Si1 0.684406 0.700321 0.434828
Si Si2 0.481143 0.846092 0.422150
Si Si3 0.898777 0.257807 0.736598
Si Si4 0.808522 0.724968 0.709566
Si Si5 0.412497 0.247885 0.281426
Si Si6 0.462903 0.486495 0.296376
Si Si7 0.660930 0.467144 0.937442
Si Si8 0.845278 0.008658 0.258021
O O1 0.500457 0.763785 0.367452
O O2 0.677917 0.729588 0.349279
O O3 0.640093 0.574022 0.415587
O O4 0.894948 0.739849 0.594938
O O5 0.262998 0.831322 0.332555
O O6 0.648977 0.802191 0.575941
O O7 0.544488 0.959866 0.427227
O O8 0.815786 0.377833 0.702195
O O9 0.973240 0.245348 0.700255
O O10 0.774616 0.747624 0.771678
O O11 0.756081 0.598350 0.667866
O O12 0.520325 0.364120 0.346471
O O13 0.572168 0.152722 0.391333
O O14 0.399664 0.495864 0.177358
O O15 0.267253 0.513842 0.232211
O O16 0.907885 0.484816 0.090306
#
# Coordination Sequence:
#
# PCOD9244265 Si02
#       8
#     4   4   4   4   4   4   4   4
#     4  10  20  42  67  94 127 169 217 266 327 382
#     4  11  22  43  65  91 131 173 210 262 334 379
#     4  11  23  43  67  94 129 180 215 257 330 399
#     4  10  25  41  59  96 131 164 217 269 311 389
#     4  10  22  41  63  96 134 166 215 278 317 370
#     4  10  20  40  65 100 132 166 218 276 318 381
#     4  11  22  39  69  96 133 172 212 271 329 392
#     4  11  21  39  66  96 124 175 223 257 318 389
#
# _framework density 21.118203000000001
#
# number of rings (size 3 to 8) (size 9 to 14) (size 15 to 20)
#    0.000    1.500    5.000    0.375    1.750    3.000 
#    2.250    5.000    0.000    0.000    0.000    0.000 
#    0.000    0.000    0.000    0.000    0.000    0.000 
#
# Total GULP energy -178812.575219 kJ/mol
# GULP energy per Si atom -5587.892976 kJ/mol
# Density = 2.107014 g / cm^3
# Si number density = 21.118203 Si / 1000 Ang^3
#
#
#
# Elastic Constant Matrix: (Units=GPa)
#
#
# Indices 1 2 3 4 5 6 
#
# 1 150.3372 38.3695 16.8165 0.0000 -5.6276 0.0000
# 2 38.3695 148.1384 7.0792 0.0000 3.3238 0.0000
# 3 16.8165 7.0792 30.1942 0.0000 2.5528 0.0000
# 4 0.0000 0.0000 0.0000 22.8569 0.0000 0.9087
# 5 -5.6276 3.3238 2.5528 0.0000 22.7453 0.0000
# 6 0.0000 0.0000 0.0000 0.9087 0.0000 35.4011
#
#
#
# Elastic Compliance Matrix: (Units=1/GPa)
#
#
# Indices 1 2 3 4 5 6 
#
# 1 0.007678 -0.001853 -0.004064 0.000000 0.002626 0.000000
# 2 -0.001853 0.007290 -0.000553 0.000000 -0.001462 0.000000
# 3 -0.004064 -0.000553 0.035931 0.000000 -0.004957 0.000000
# 4 0.000000 0.000000 0.000000 0.043795 0.000000 -0.001124
# 5 0.002626 -0.001462 -0.004957 0.000000 0.045385 0.000000
# 6 0.000000 0.000000 0.000000 -0.001124 0.000000 0.028277
#
#
# Mechanical properties :
#
#
# Convention : Reuss Voigt Hill
#
# Bulk Modulus (GPa) = 26.34500 50.35556 38.35028
# Shear Modulus (GPa) = 25.78013 33.96096 29.87055
#
# Velocity S-wave (km/s) = 3.49772 4.01451 3.76499
# Velocity P-wave (km/s) = 5.36788 6.73682 6.09093
#
# Compressibility (1/GPa) = 0.03795786
#
# Stress axis : x y z
#
# Youngs Moduli (GPa) = 130.24941 137.17956 27.83121
#
# Poissons Ratio (x) = 0.25424 0.11309
# Poissons Ratio (y) = 0.24139 0.01540
# Poissons Ratio (z) = 0.52927 0.07591
#
# Static dielectric constant tensor:
#      x y z
#    x 1.765770 0.000000 -0.000460 
#    y 0.000000 1.777490 0.000000 
#    z -0.000460 0.000000 1.747390 
# 
# From -- ./inp_files/57718.got.cif
#   From: 2010.05.17/outbox.cif.g08.bks.cpg/sg14_29_cif.got.tgz:57718.got - 2010.06.03 17:49:19.
