data_PCOD9244433
_publ_section_title
;
Structure prediction by ZEFSAII (Michael W. Deem and Ramdas Pophale) SiO2 
 PCOD9244433
Probable space group: P 21/C
;
_chemical_formula_sum "Si O2"
_cell_formula_units_Z 24
_cell_length_a 14.129644
_cell_length_b 10.928075
_cell_length_c 8.979907
_cell_angle_alpha 90.000000
_cell_angle_beta 41.483060
_cell_angle_gamma 90.000000
_cell_volume 918.472423
_symmetry_space_group_name_H-M "P 21/C"
_symmetry_group_IT_number 14
_symmetry_cell_setting 'monoclinic'
loop_
_space_group_symop_operation_xyz
x,y,z
-x,1/2+y,1/2-z
-x,-y,-z
x,1/2-y,1/2+z
loop_
_atom_site_type_symbol
_atom_site_label
_atom_site_fract_x
_atom_site_fract_y
_atom_site_fract_z
Si Si1 0.677625 0.059612 0.104208
Si Si2 0.822479 0.220762 0.288263
Si Si3 0.573272 0.426234 0.127249
Si Si4 0.250680 0.044144 0.313014
Si Si5 0.718476 0.808925 0.085313
Si Si6 0.986529 0.375140 0.854349
O O1 0.508493 0.048472 0.330207
O O2 0.742426 0.947011 0.123594
O O3 0.749638 0.188136 0.994913
O O4 0.697917 0.004394 0.908425
O O5 0.693966 0.135341 0.384528
O O6 0.942544 0.148814 0.236064
O O7 0.891272 0.297132 0.078179
O O8 0.656826 0.463608 0.178219
O O9 0.443342 0.327575 0.285798
O O10 0.276566 0.185291 0.326278
O O11 0.081154 0.011039 0.535781
O O12 0.856510 0.815406 0.814423
#
# Coordination Sequence:
#
# PCOD9244433 Si02
#       6
#     4   4   4   4   4   4
#     4   9  21  36  66  86 117 164 213 248 309 368
#     4  10  21  43  62  89 127 162 211 253 317 372
#     4   9  20  37  61  92 114 160 206 258 306 358
#     4  10  20  41  62  86 127 161 209 258 309 375
#     4  10  23  34  61  96 116 158 212 258 301 366
#     4  10  24  39  65  91 125 169 202 262 311 371
#
# _framework density 26.130345999999999
#
# number of rings (size 3 to 8) (size 9 to 14) (size 15 to 20)
#    1.000    1.333    0.000    1.500    4.667    4.000 
#    0.000    7.500    0.000    0.000    0.000    0.000 
#    0.000    0.000    0.000    0.000    0.000    0.000 
#
# Total GULP energy -133654.533578 kJ/mol
# GULP energy per Si atom -5568.938899 kJ/mol
# Density = 2.607087 g / cm^3
# Si number density = 26.130346 Si / 1000 Ang^3
#
#
#
# Elastic Constant Matrix: (Units=GPa)
#
#
# Indices 1 2 3 4 5 6 
#
# 1 102.3704 36.1064 25.0716 0.0000 -37.3016 0.0000
# 2 36.1064 132.9536 31.5347 0.0000 -5.1667 0.0000
# 3 25.0716 31.5347 105.8457 0.0000 -18.0167 0.0000
# 4 0.0000 0.0000 0.0000 26.4196 0.0000 7.6511
# 5 -37.3016 -5.1667 -18.0167 0.0000 34.2023 0.0000
# 6 0.0000 0.0000 0.0000 7.6511 0.0000 17.3721
#
#
#
# Elastic Compliance Matrix: (Units=1/GPa)
#
#
# Indices 1 2 3 4 5 6 
#
# 1 0.018299 -0.004273 0.000248 0.000000 0.019443 0.000000
# 2 -0.004273 0.009091 -0.002478 0.000000 -0.004592 0.000000
# 3 0.000248 -0.002478 0.011105 0.000000 0.005746 0.000000
# 4 0.000000 0.000000 0.000000 0.043384 0.000000 -0.019108
# 5 0.019443 -0.004592 0.005746 0.000000 0.052775 0.000000
# 6 0.000000 0.000000 0.000000 -0.019108 0.000000 0.065979
#
#
# Mechanical properties :
#
#
# Convention : Reuss Voigt Hill
#
# Bulk Modulus (GPa) = 39.23142 58.51056 48.87099
# Shear Modulus (GPa) = 22.50868 32.16262 27.33565
#
# Velocity S-wave (km/s) = 2.93815 3.51216 3.23790
# Velocity P-wave (km/s) = 5.15331 6.23598 5.72032
#
# Compressibility (1/GPa) = 0.02548977
#
# Stress axis : x y z
#
# Youngs Moduli (GPa) = 54.64714 109.99766 90.04676
#
# Poissons Ratio (x) = 0.47000 -0.02232
# Poissons Ratio (y) = 0.23350 0.22314
# Poissons Ratio (z) = -0.01355 0.27258
#
# Static dielectric constant tensor:
#      x y z
#    x 2.165560 0.000000 -0.001730 
#    y 0.000000 2.115650 0.000000 
#    z -0.001730 0.000000 2.185570 
# 
# From -- ./inp_files/35085.got.cif
#   From: 2010.05.17/outbox.cif.g08.bks.cpg/sg14_18_cif.got.tgz:35085.got - 2010.06.03 17:49:19.
