data_PCOD9244882
_publ_section_title
;
Structure prediction by ZEFSAII (Michael W. Deem and Ramdas Pophale) SiO2 
 PCOD9244882
Probable space group: P 21/C
;
_chemical_formula_sum "Si O2"
_cell_formula_units_Z 32
_cell_length_a 8.456285
_cell_length_b 19.687521
_cell_length_c 15.630973
_cell_angle_alpha 90.000000
_cell_angle_beta 37.520685
_cell_angle_gamma 90.000000
_cell_volume 1584.922542
_symmetry_space_group_name_H-M "P 21/C"
_symmetry_group_IT_number 14
_symmetry_cell_setting 'monoclinic'
loop_
_space_group_symop_operation_xyz
x,y,z
-x,1/2+y,1/2-z
-x,-y,-z
x,1/2-y,1/2+z
loop_
_atom_site_type_symbol
_atom_site_label
_atom_site_fract_x
_atom_site_fract_y
_atom_site_fract_z
Si Si1 0.525699 0.609514 0.163568
Si Si2 0.909435 0.933990 0.813485
Si Si3 0.603487 0.627450 0.309924
Si Si4 0.990920 0.192128 0.122387
Si Si5 0.240113 0.471215 0.268257
Si Si6 0.002768 0.343484 0.434043
Si Si7 0.527313 0.109551 0.498553
Si Si8 0.219129 0.233266 0.679347
O O1 0.702155 0.621384 0.169977
O O2 0.313711 0.670483 0.245514
O O3 0.369563 0.539350 0.248644
O O4 0.631397 0.600472 0.022413
O O5 0.693800 0.932637 0.833441
O O6 0.864939 0.875537 0.903515
O O7 0.177617 0.908978 0.651485
O O8 0.981863 0.003045 0.829846
O O9 0.295760 0.634703 0.435074
O O10 0.706120 0.695696 0.310091
O O11 0.065827 0.250247 0.157436
O O12 0.059793 0.201651 0.993474
O O13 0.424032 0.439279 0.116585
O O14 0.172116 0.412204 0.362975
O O15 0.059961 0.307402 0.319583
O O16 0.469906 0.186512 0.551831
#
# Coordination Sequence:
#
# PCOD9244882 Si02
#       8
#     4   4   4   4   4   4   4   4
#     4   9  18  34  57  79 108 142 185 216 278 324
#     4   9  18  35  56  78 111 141 176 222 278 311
#     4  10  22  33  52  84 106 148 178 222 277 316
#     4   8  18  34  51  77 103 146 172 219 274 313
#     4   9  18  36  58  79 105 144 185 222 265 328
#     4  10  21  36  55  82 106 140 191 217 270 337
#     4   9  18  34  58  79 102 153 180 221 268 321
#     4  10  21  34  55  77 113 140 181 230 266 321
#
# _framework density 20.190261
#
# number of rings (size 3 to 8) (size 9 to 14) (size 15 to 20)
#    0.000    3.000    0.000    1.500    7.000    5.000 
#    0.000    3.750    0.000   12.000    0.000    0.000 
#    0.000    0.000    0.000    0.000    0.000    0.000 
#
# Total GULP energy -178265.565168 kJ/mol
# GULP energy per Si atom -5570.798911 kJ/mol
# Density = 2.014431 g / cm^3
# Si number density = 20.190261 Si / 1000 Ang^3
#
#
#
# Elastic Constant Matrix: (Units=GPa)
#
#
# Indices 1 2 3 4 5 6 
#
# 1 88.3806 11.3112 18.8969 0.0000 29.0245 0.0000
# 2 11.3112 65.6481 7.4989 0.0000 7.3712 0.0000
# 3 18.8969 7.4989 56.0807 0.0000 18.5730 0.0000
# 4 0.0000 0.0000 0.0000 18.7116 0.0000 4.6712
# 5 29.0245 7.3712 18.5730 0.0000 18.7087 0.0000
# 6 0.0000 0.0000 0.0000 4.6712 0.0000 16.4065
#
#
#
# Elastic Compliance Matrix: (Units=1/GPa)
#
#
# Indices 1 2 3 4 5 6 
#
# 1 0.024546 0.000030 0.006467 0.000000 -0.044512 0.000000
# 2 0.000030 0.015938 -0.000069 0.000000 -0.006258 0.000000
# 3 0.006467 -0.000069 0.028270 0.000000 -0.038070 0.000000
# 4 0.000000 0.000000 0.000000 0.057532 0.000000 -0.016380
# 5 -0.044512 -0.006258 -0.038070 0.000000 0.162766 0.000000
# 6 0.000000 0.000000 0.000000 -0.016380 0.000000 0.065615
#
#
# Mechanical properties :
#
#
# Convention : Reuss Voigt Hill
#
# Bulk Modulus (GPa) = 12.25350 31.72482 21.98916
# Shear Modulus (GPa) = 13.54962 22.25888 17.90425
#
# Velocity S-wave (km/s) = 2.59336 3.32393 2.98111
# Velocity P-wave (km/s) = 3.87938 5.52072 4.77116
#
# Compressibility (1/GPa) = 0.08160937
#
# Stress axis : x y z
#
# Youngs Moduli (GPa) = 40.73957 62.74285 35.37361
#
# Poissons Ratio (x) = -0.00188 -0.22875
# Poissons Ratio (y) = -0.00122 0.00244
# Poissons Ratio (z) = -0.26345 0.00432
#
# Static dielectric constant tensor:
#      x y z
#    x 1.747850 0.000000 0.026080 
#    y 0.000000 1.734270 0.000000 
#    z 0.026080 0.000000 1.752570 
# 
# From -- ./inp_files/41992.got.cif
#   From: 2010.05.17/outbox.cif.g08.bks.cpg/sg14_21_cif.got.tgz:41992.got - 2010.06.03 17:49:19.
