data_PCOD9244554
_publ_section_title
;
Structure prediction by ZEFSAII (Michael W. Deem and Ramdas Pophale) SiO2 
 PCOD9244554
Probable space group: P 21/C
;
_chemical_formula_sum "Si O2"
_cell_formula_units_Z 30
_cell_length_a 9.373961
_cell_length_b 15.884182
_cell_length_c 13.804620
_cell_angle_alpha 90.000000
_cell_angle_beta 137.419576
_cell_angle_gamma 90.000000
_cell_volume 1390.785417
_symmetry_space_group_name_H-M "P 21/C"
_symmetry_group_IT_number 14
_symmetry_cell_setting 'monoclinic'
loop_
_space_group_symop_operation_xyz
x,y,z
-x,1/2+y,1/2-z
-x,-y,-z
x,1/2-y,1/2+z
loop_
_atom_site_type_symbol
_atom_site_label
_atom_site_fract_x
_atom_site_fract_y
_atom_site_fract_z
Si Si1 0.323925 0.366118 0.067575
Si Si2 0.763703 0.131275 0.070260
Si Si3 0.764885 0.045155 0.777530
Si Si4 0.323926 0.633885 0.256348
Si Si5 0.000000 0.500000 0.000000
Si Si6 0.500005 0.749998 0.696299
Si Si7 0.236289 0.368725 0.806552
Si Si8 0.235117 0.454847 0.512644
O O1 0.568705 0.393105 0.177850
O O2 0.325933 0.292547 0.147839
O O3 0.184083 0.442544 0.037628
O O4 0.250948 0.340411 0.924546
O O5 0.749044 0.159593 0.173595
O O6 0.999995 0.147134 0.150999
O O7 0.598803 0.178676 0.920834
O O8 0.731696 0.030664 0.047121
O O9 0.764573 0.000003 0.882289
O O10 0.731698 0.969336 0.684581
O O11 0.000002 0.081384 0.879677
O O12 0.325941 0.707456 0.178097
O O13 0.568703 0.606893 0.390852
O O14 0.184072 0.557462 0.146449
O O15 0.598815 0.821321 0.677975
#
# Coordination Sequence:
#
# PCOD9244554 Si02
#       8
#     4   4   4   4   2   4   4   4
#     4  12  24  45  71 101 141 179 235 286 354 414
#     4  11  24  43  68  99 138 178 232 283 344 419
#     4  10  20  41  70  98 130 178 228 287 336 409
#     4  12  24  45  71 101 141 179 235 286 354 414
#     4  12  24  44  70 104 134 182 228 302 332 408
#     4  12  26  44  66  98 144 186 222 284 352 422
#     4  11  24  43  68  99 138 178 232 283 344 419
#     4  10  20  41  70  98 130 178 228 287 336 409
#
# _framework density 21.570546
#
# number of rings (size 3 to 8) (size 9 to 14) (size 15 to 20)
#    0.000    0.800    5.333    1.600    1.867    0.000 
#    0.000    1.333    0.000    0.000    0.000    0.000 
#    0.000    0.000    0.000    0.000    0.000    0.000 
#
# Total GULP energy -167215.932072 kJ/mol
# GULP energy per Si atom -5573.864402 kJ/mol
# Density = 2.152145 g / cm^3
# Si number density = 21.570546 Si / 1000 Ang^3
#
#
#
# Elastic Constant Matrix: (Units=GPa)
#
#
# Indices 1 2 3 4 5 6 
#
# 1 76.3732 22.1743 25.3548 0.0000 -5.2374 0.0000
# 2 22.1743 34.0309 23.8665 0.0000 3.0586 0.0000
# 3 25.3548 23.8665 79.6040 0.0000 11.0697 0.0000
# 4 0.0000 0.0000 0.0000 7.2088 0.0000 -9.4759
# 5 -5.2374 3.0586 11.0697 0.0000 53.5222 0.0000
# 6 0.0000 0.0000 0.0000 -9.4759 0.0000 12.4532
#
#
#
# Elastic Compliance Matrix: (Units=1/GPa)
#
#
# Indices 1 2 3 4 5 6 
#
# 1 0.016959 -0.009168 -0.003044 0.000000 0.002813 0.000000
# 2 -0.009168 0.042167 -0.009537 0.000000 -0.001334 0.000000
# 3 -0.003044 -0.009537 0.016841 0.000000 -0.003236 0.000000
# 4 0.000000 0.000000 0.000000********** 0.000000**********
# 5 0.002813 -0.001334 -0.003236 0.000000 0.019705 0.000000
# 6 0.000000 0.000000 0.000000********** 0.000000**********
#
#
# Mechanical properties :
#
#
# Convention : Reuss Voigt Hill
#
# Bulk Modulus (GPa) = 30.79838 36.97770 33.88804
# Shear Modulus (GPa) = -0.00509 22.54435 11.26963
#
# Velocity S-wave (km/s) = -0.04862 3.23638 2.28821
# Velocity P-wave (km/s) = 3.78230 5.58081 4.76714
#
# Compressibility (1/GPa) = 0.03246924
#
# Stress axis : x y z
#
# Youngs Moduli (GPa) = 58.96569 23.71512 59.37906
#
# Poissons Ratio (x) = 0.21743 0.18075
# Poissons Ratio (y) = 0.54062 0.56627
# Poissons Ratio (z) = 0.17949 0.22616
#
# Static dielectric constant tensor:
#      x y z
#    x 1.787310 0.000000 -0.008220 
#    y 0.000000 1.807450 0.000000 
#    z -0.008220 0.000000 1.782760 
# 
# From -- ./inp_files/41834.got.cif
#   From: 2010.05.17/outbox.cif.g08.bks.cpg/sg14_21_cif.got.tgz:41834.got - 2010.06.03 17:49:19.
