data_PCOD9244338
_publ_section_title
;
Structure prediction by ZEFSAII (Michael W. Deem and Ramdas Pophale) SiO2 
 PCOD9244338
Probable space group: P 21/C
;
_chemical_formula_sum "Si O2"
_cell_formula_units_Z 28
_cell_length_a 13.951772
_cell_length_b 6.676186
_cell_length_c 13.533119
_cell_angle_alpha 90.000000
_cell_angle_beta 107.536553
_cell_angle_gamma 90.000000
_cell_volume 1201.953716
_symmetry_space_group_name_H-M "P 21/C"
_symmetry_group_IT_number 14
_symmetry_cell_setting 'monoclinic'
loop_
_space_group_symop_operation_xyz
x,y,z
-x,1/2+y,1/2-z
-x,-y,-z
x,1/2-y,1/2+z
loop_
_atom_site_type_symbol
_atom_site_label
_atom_site_fract_x
_atom_site_fract_y
_atom_site_fract_z
Si Si1 0.952460 0.112698 0.344161
Si Si2 0.871001 0.182673 0.637772
Si Si3 0.506728 0.922640 0.650897
Si Si4 0.368707 0.449161 0.272828
Si Si5 0.095624 0.428284 0.468521
Si Si6 0.570304 0.192387 0.043883
Si Si7 0.798645 0.556864 0.945867
O O1 0.873160 0.225370 0.248523
O O2 0.042784 0.269411 0.381147
O O3 0.894145 0.055397 0.425787
O O4 0.016164 0.915172 0.334180
O O5 0.860487 0.380950 0.569569
O O6 0.795584 0.028067 0.557792
O O7 0.604028 0.777323 0.686156
O O8 0.423792 0.799207 0.560764
O O9 0.469463 0.970898 0.749119
O O10 0.526217 0.128837 0.598512
O O11 0.346304 0.587323 0.361065
O O12 0.289258 0.466697 0.160370
O O13 0.177268 0.293464 0.547788
O O14 0.000000 0.500000 0.500000
O O15 0.500000 0.000000 0.000000
#
# Coordination Sequence:
#
# PCOD9244338 Si02
#       7
#     4   4   4   4   4   4   4
#     4  11  21  37  63  87 117 163 206 243 304 365
#     4  11  21  37  63  88 118 164 204 241 307 366
#     4  10  20  40  67  91 120 173 203 242 316 381
#     4  11  22  40  63  92 127 160 210 257 310 368
#     4  11  19  39  61  80 117 158 197 246 303 367
#     4   9  20  39  67  92 115 159 210 246 306 380
#     4  11  25  37  57  99 123 151 209 263 296 353
#
# _framework density 23.295404999999999
#
# number of rings (size 3 to 8) (size 9 to 14) (size 15 to 20)
#    0.000    1.429    5.714    0.857    0.000    2.286 
#    0.000    4.286    0.000    0.000    0.000    0.000 
#    0.000    0.000    0.000    0.000    0.000    0.000 
#
# Total GULP energy -155914.324932 kJ/mol
# GULP energy per Si atom -5568.368748 kJ/mol
# Density = 2.324238 g / cm^3
# Si number density = 23.295405 Si / 1000 Ang^3
#
#
#
# Elastic Constant Matrix: (Units=GPa)
#
#
# Indices 1 2 3 4 5 6 
#
# 1 20.8218 14.3630 11.2414 0.0000 10.9333 0.0000
# 2 14.3630 138.7416 36.4489 0.0000 1.0924 0.0000
# 3 11.2414 36.4489 106.0753 0.0000 13.5626 0.0000
# 4 0.0000 0.0000 0.0000 45.5929 0.0000 -4.2677
# 5 10.9333 1.0924 13.5626 0.0000 38.3570 0.0000
# 6 0.0000 0.0000 0.0000 -4.2677 0.0000 7.4878
#
#
#
# Elastic Compliance Matrix: (Units=1/GPa)
#
#
# Indices 1 2 3 4 5 6 
#
# 1 0.061992 -0.005627 -0.002511 0.000000 -0.016622 0.000000
# 2 -0.005627 0.008456 -0.002601 0.000000 0.002283 0.000000
# 3 -0.002511 -0.002601 0.010983 0.000000 -0.003094 0.000000
# 4 0.000000 0.000000 0.000000 0.023169 0.000000 0.013205
# 5 -0.016622 0.002283 -0.003094 0.000000 0.031838 0.000000
# 6 0.000000 0.000000 0.000000 0.013205 0.000000 0.141077
#
#
# Mechanical properties :
#
#
# Convention : Reuss Voigt Hill
#
# Bulk Modulus (GPa) = 16.67998 43.30504 29.99251
# Shear Modulus (GPa) = 15.67516 31.85989 23.76753
#
# Velocity S-wave (km/s) = 2.59682 3.70218 3.19763
# Velocity P-wave (km/s) = 4.02083 6.07493 5.15130
#
# Compressibility (1/GPa) = 0.05995210
#
# Stress axis : x y z
#
# Youngs Moduli (GPa) = 16.13118 118.26608 91.05301
#
# Poissons Ratio (x) = 0.66550 0.22862
# Poissons Ratio (y) = 0.09077 0.23683
# Poissons Ratio (z) = 0.04050 0.30761
#
# Static dielectric constant tensor:
#      x y z
#    x 1.807380 0.000000 0.107980 
#    y 0.000000 2.157510 0.000000 
#    z 0.107980 0.000000 1.897120 
# 
# From -- ./inp_files/48054.got.cif
#   From: 2010.05.17/outbox.cif.g08.bks.cpg/sg14_25_cif.got.tgz:48054.got - 2010.06.03 17:49:19.
