data_PCOD9244316
_publ_section_title
;
Structure prediction by ZEFSAII (Michael W. Deem and Ramdas Pophale) SiO2 
 PCOD9244316
Probable space group: P 21/C
;
_chemical_formula_sum "Si O2"
_cell_formula_units_Z 24
_cell_length_a 21.318935
_cell_length_b 5.038023
_cell_length_c 17.624087
_cell_angle_alpha 90.000000
_cell_angle_beta 146.368834
_cell_angle_gamma 90.000000
_cell_volume 1048.383443
_symmetry_space_group_name_H-M "P 21/C"
_symmetry_group_IT_number 14
_symmetry_cell_setting 'monoclinic'
loop_
_space_group_symop_operation_xyz
x,y,z
-x,1/2+y,1/2-z
-x,-y,-z
x,1/2-y,1/2+z
loop_
_atom_site_type_symbol
_atom_site_label
_atom_site_fract_x
_atom_site_fract_y
_atom_site_fract_z
Si Si1 0.629393 0.627404 0.755251
Si Si2 0.384255 0.504897 0.483711
Si Si3 0.269520 0.411033 0.514690
Si Si4 0.169241 0.771455 0.058598
Si Si5 0.315682 0.489870 0.820327
Si Si6 0.034978 0.180496 0.240832
O O1 0.517575 0.456950 0.629764
O O2 0.640785 0.722591 0.852909
O O3 0.748669 0.484306 0.855864
O O4 0.618827 0.875002 0.687194
O O5 0.328784 0.574164 0.508458
O O6 0.324356 0.246158 0.389030
O O7 0.365307 0.746375 0.407243
O O8 0.216572 0.577200 0.531056
O O9 0.166667 0.247177 0.374291
O O10 0.195366 0.932053 0.161496
O O11 0.037598 0.740820 0.906245
O O12 0.984002 0.375386 0.254987
#
# Coordination Sequence:
#
# PCOD9244316 Si02
#       6
#     4   4   4   4   4   4
#     4  11  23  42  68  92 129 173 218 254 318 392
#     4  12  27  39  66  96 137 164 208 269 327 372
#     4  10  25  40  65 100 131 162 217 276 327 366
#     4  10  22  42  69  92 122 173 222 260 310 391
#     4  11  25  44  63  94 129 178 213 254 314 398
#     4  10  20  40  66  93 123 166 218 269 315 378
#
# _framework density 22.892385000000001
#
# number of rings (size 3 to 8) (size 9 to 14) (size 15 to 20)
#    0.000    1.333    3.333    1.000    9.333    0.000 
#    0.000    1.667    0.000    0.000    0.000    0.000 
#    0.000    0.000    0.000    0.000    0.000    0.000 
#
# Total GULP energy -134064.898194 kJ/mol
# GULP energy per Si atom -5586.037425 kJ/mol
# Density = 2.284028 g / cm^3
# Si number density = 22.892385 Si / 1000 Ang^3
#
#
#
# Elastic Constant Matrix: (Units=GPa)
#
#
# Indices 1 2 3 4 5 6 
#
# 1 46.7910 7.2090 41.1987 0.0000 -6.7852 0.0000
# 2 7.2090 81.1070 48.7410 0.0000 -1.5677 0.0000
# 3 41.1987 48.7410 150.0686 0.0000 -34.6252 0.0000
# 4 0.0000 0.0000 0.0000 32.3290 0.0000 -6.2454
# 5 -6.7852 -1.5677 -34.6252 0.0000 -1.3381 0.0000
# 6 0.0000 0.0000 0.0000 -6.2454 0.0000 12.6006
#
#
#
# Elastic Compliance Matrix: (Units=1/GPa)
#
#
# Indices 1 2 3 4 5 6 
#
# 1 0.027681 0.001231 -0.005842 0.000000 0.009351 0.000000
# 2 0.001231 0.013332 -0.001393 0.000000 0.014192 0.000000
# 3 -0.005842 -0.001393 0.002286 0.000000 -0.027887 0.000000
# 4 0.000000 0.000000 0.000000 0.034207 0.000000 0.016954
# 5 0.009351 0.014192 -0.027887 0.000000 -0.089759 0.000000
# 6 0.000000 0.000000 0.000000 0.016954 0.000000 0.087765
#
#
# Mechanical properties :
#
#
# Convention : Reuss Voigt Hill
#
# Bulk Modulus (GPa) = 31.95859 52.47379 42.21619
# Shear Modulus (GPa) = 51.04666 20.77282 35.90974
#
# Velocity S-wave (km/s) = 4.72726 3.01560 3.96489
# Velocity P-wave (km/s) = 6.61714 5.92425 6.28026
#
# Compressibility (1/GPa) = 0.03129049
#
# Stress axis : x y z
#
# Youngs Moduli (GPa) = 36.12529 75.00973 437.53359
#
# Poissons Ratio (x) = -0.09232 2.55589
# Poissons Ratio (y) = -0.04446 0.60961
# Poissons Ratio (z) = 0.21103 0.10451
#
# Static dielectric constant tensor:
#      x y z
#    x 1.807260 0.000000 -0.012890 
#    y 0.000000 1.891230 0.000000 
#    z -0.012890 0.000000 1.909690 
# 
# From -- ./inp_files/56533.got.cif
#   From: 2010.05.17/outbox.cif.g08.bks.cpg/sg14_29_cif.got.tgz:56533.got - 2010.06.03 17:49:19.
