data_PCOD9244857
_publ_section_title
;
Structure prediction by ZEFSAII (Michael W. Deem and Ramdas Pophale) SiO2 
 PCOD9244857
Probable space group: P 21/C
;
_chemical_formula_sum "Si O2"
_cell_formula_units_Z 32
_cell_length_a 12.941477
_cell_length_b 20.777060
_cell_length_c 9.369281
_cell_angle_alpha 90.000000
_cell_angle_beta 149.036235
_cell_angle_gamma 90.000000
_cell_volume 1296.152513
_symmetry_space_group_name_H-M "P 21/C"
_symmetry_group_IT_number 14
_symmetry_cell_setting 'monoclinic'
loop_
_space_group_symop_operation_xyz
x,y,z
-x,1/2+y,1/2-z
-x,-y,-z
x,1/2-y,1/2+z
loop_
_atom_site_type_symbol
_atom_site_label
_atom_site_fract_x
_atom_site_fract_y
_atom_site_fract_z
Si Si1 0.360641 0.816182 0.310050
Si Si2 0.381985 0.810480 0.007481
Si Si3 0.125856 0.304213 0.744802
Si Si4 0.108098 0.320771 0.053720
Si Si5 0.682891 0.054927 0.584121
Si Si6 0.165661 0.070557 0.114618
Si Si7 0.054061 0.440093 0.163644
Si Si8 0.586898 0.430387 0.653635
O O1 0.434055 0.757287 0.494936
O O2 0.392790 0.888371 0.403413
O O3 0.436222 0.809757 0.238060
O O4 0.118167 0.807609 0.033866
O O5 0.462650 0.870901 0.010415
O O6 0.136855 0.816858 0.728849
O O7 0.177105 0.313486 0.972166
O O8 0.179637 0.235546 0.742442
O O9 0.195921 0.358617 0.715703
O O10 0.158745 0.388674 0.185437
O O11 0.565939 0.067967 0.299116
O O12 0.686349 0.980541 0.635215
O O13 0.926554 0.062596 0.864807
O O14 0.168809 0.055091 0.949328
O O15 0.000000 0.500000 0.000000
O O16 0.829129 0.421381 0.939043
O O17 0.500000 0.500000 0.500000
#
# Coordination Sequence:
#
# PCOD9244857 Si02
#       8
#     4   4   4   4   4   4   4   4
#     4   9  16  28  49  78 105 135 176 232 273 314
#     4   9  17  29  50  75 105 134 177 225 276 319
#     4   9  16  27  45  72 110 139 177 223 281 323
#     4   9  17  27  45  73 104 139 177 227 271 321
#     4   9  18  30  50  76 109 143 179 219 273 323
#     4   9  18  29  48  76 110 142 176 223 275 325
#     4  10  21  32  54  79 109 141 184 226 272 323
#     4  10  21  36  52  78 111 146 180 221 276 330
#
# _framework density 24.688454
#
# number of rings (size 3 to 8) (size 9 to 14) (size 15 to 20)
#    0.000    2.750    0.000    1.500   10.500    6.000 
#    0.000    0.625    0.000    0.000    6.500    0.000 
#    0.000    0.000    0.000    0.000    0.000    0.000 
#
# Total GULP energy -178710.625834 kJ/mol
# GULP energy per Si atom -5584.707057 kJ/mol
# Density = 2.463226 g / cm^3
# Si number density = 24.688454 Si / 1000 Ang^3
#
#
#
# Elastic Constant Matrix: (Units=GPa)
#
#
# Indices 1 2 3 4 5 6 
#
# 1 149.7699 74.3450 51.3398 0.0000 -28.3219 0.0000
# 2 74.3450 226.0948 69.6489 0.0000 -61.2158 0.0000
# 3 51.3398 69.6489 114.3833 0.0000 -35.2862 0.0000
# 4 0.0000 0.0000 0.0000 37.8691 0.0000 -1.0439
# 5 -28.3219 -61.2158 -35.2862 0.0000 64.0027 0.0000
# 6 0.0000 0.0000 0.0000 -1.0439 0.0000 41.8069
#
#
#
# Elastic Compliance Matrix: (Units=1/GPa)
#
#
# Indices 1 2 3 4 5 6 
#
# 1 0.008591 -0.001883 -0.002521 0.000000 0.000611 0.000000
# 2 -0.001883 0.006908 -0.001904 0.000000 0.004724 0.000000
# 3 -0.002521 -0.001904 0.012203 0.000000 0.003791 0.000000
# 4 0.000000 0.000000 0.000000 0.026425 0.000000 0.000660
# 5 0.000611 0.004724 0.003791 0.000000 0.022503 0.000000
# 6 0.000000 0.000000 0.000000 0.000660 0.000000 0.023936
#
#
# Mechanical properties :
#
#
# Convention : Reuss Voigt Hill
#
# Bulk Modulus (GPa) = 66.28534 97.87948 82.08241
# Shear Modulus (GPa) = 42.29756 48.39668 45.34712
#
# Velocity S-wave (km/s) = 4.14364 4.43233 4.29041
# Velocity P-wave (km/s) = 7.05691 8.11948 7.60677
#
# Compressibility (1/GPa) = 0.01508629
#
# Stress axis : x y z
#
# Youngs Moduli (GPa) = 116.39607 144.76928 81.94818
#
# Poissons Ratio (x) = 0.27260 0.20660
# Poissons Ratio (y) = 0.21918 0.15599
# Poissons Ratio (z) = 0.29345 0.27558
#
# Static dielectric constant tensor:
#      x y z
#    x 2.119260 0.000000 0.206400 
#    y 0.000000 1.905660 0.000000 
#    z 0.206400 0.000000 2.147400 
# 
# From -- ./inp_files/16840.got.cif
#   From: 2010.05.17/outbox.cif.g08.bks.cpg/sg14_9_cif.got.tgz:16840.got - 2010.06.03 17:49:19.
