data_PCOD9244792
_publ_section_title
;
Structure prediction by ZEFSAII (Michael W. Deem and Ramdas Pophale) SiO2 
 PCOD9244792
Probable space group: P 21/C
;
_chemical_formula_sum "Si O2"
_cell_formula_units_Z 30
_cell_length_a 10.368464
_cell_length_b 9.652250
_cell_length_c 13.625338
_cell_angle_alpha 90.000000
_cell_angle_beta 63.331155
_cell_angle_gamma 90.000000
_cell_volume 1218.543398
_symmetry_space_group_name_H-M "P 21/C"
_symmetry_group_IT_number 14
_symmetry_cell_setting 'monoclinic'
loop_
_space_group_symop_operation_xyz
x,y,z
-x,1/2+y,1/2-z
-x,-y,-z
x,1/2-y,1/2+z
loop_
_atom_site_type_symbol
_atom_site_label
_atom_site_fract_x
_atom_site_fract_y
_atom_site_fract_z
Si Si1 0.804473 0.250431 0.084652
Si Si2 0.084443 0.192109 0.236120
Si Si3 0.879613 0.839158 0.560219
Si Si4 0.806221 0.945174 0.994323
Si Si5 0.500000 0.000000 0.000000
Si Si6 0.722930 0.572303 0.920647
Si Si7 0.539764 0.249217 0.544805
Si Si8 0.242191 0.733681 0.172795
O O1 0.663475 0.300139 0.074078
O O2 0.759135 0.246354 0.212183
O O3 0.950124 0.338912 0.024915
O O4 0.834199 0.095265 0.032350
O O5 0.131186 0.122018 0.322038
O O6 0.098215 0.092596 0.135742
O O7 0.176698 0.325987 0.177155
O O8 0.921654 0.249188 0.306326
O O9 0.834970 0.677711 0.561463
O O10 0.785767 0.915324 0.509199
O O11 0.641170 0.937510 0.015623
O O12 0.538934 0.886753 0.894545
O O13 0.566355 0.638253 0.960976
O O14 0.723701 0.421348 0.873899
O O15 0.631676 0.325414 0.422858
#
# Coordination Sequence:
#
# PCOD9244792 Si02
#       8
#     4   4   4   4   2   4   4   4
#     4  11  23  43  72 100 134 180 237 281 345 413
#     4  11  23  40  70 103 131 184 233 278 350 412
#     4  11  21  42  67 101 135 178 226 286 345 417
#     4  10  21  40  68  97 135 173 233 285 335 403
#     4  10  20  44  68  96 136 174 220 302 328 400
#     4  11  25  45  69 101 147 174 233 290 350 412
#     4  11  24  47  65 104 140 178 228 296 343 413
#     4  12  25  44  72 101 139 190 227 286 353 418
#
# _framework density 24.619558999999999
#
# number of rings (size 3 to 8) (size 9 to 14) (size 15 to 20)
#    0.000    1.067    6.667    1.600    1.867    1.600 
#    4.800    0.000    0.000    0.000    0.000    0.000 
#    0.000    0.000    0.000    0.000    0.000    0.000 
#
# Total GULP energy -167474.973570 kJ/mol
# GULP energy per Si atom -5582.499119 kJ/mol
# Density = 2.456352 g / cm^3
# Si number density = 24.619559 Si / 1000 Ang^3
#
#
#
# Elastic Constant Matrix: (Units=GPa)
#
#
# Indices 1 2 3 4 5 6 
#
# 1 159.4598 23.1700 13.3413 0.0000 -1.4425 0.0000
# 2 23.1700 81.5146 6.3414 0.0000 3.7630 0.0000
# 3 13.3413 6.3414 114.5427 0.0000 17.6502 0.0000
# 4 0.0000 0.0000 0.0000 31.1145 0.0000 2.2425
# 5 -1.4425 3.7630 17.6502 0.0000 42.6905 0.0000
# 6 0.0000 0.0000 0.0000 2.2425 0.0000 33.0756
#
#
#
# Elastic Compliance Matrix: (Units=1/GPa)
#
#
# Indices 1 2 3 4 5 6 
#
# 1 0.006612 -0.001852 -0.000777 0.000000 0.000708 0.000000
# 2 -0.001852 0.012869 -0.000334 0.000000 -0.001059 0.000000
# 3 -0.000777 -0.000334 0.009440 0.000000 -0.003900 0.000000
# 4 0.000000 0.000000 0.000000 0.032297 0.000000 -0.002190
# 5 0.000708 -0.001059 -0.003900 0.000000 0.025154 0.000000
# 6 0.000000 0.000000 0.000000 -0.002190 0.000000 0.030382
#
#
# Mechanical properties :
#
#
# Convention : Reuss Voigt Hill
#
# Bulk Modulus (GPa) = 43.48372 49.02472 46.25422
# Shear Modulus (GPa) = 38.36019 42.22041 40.29030
#
# Velocity S-wave (km/s) = 3.95158 4.14564 4.04978
# Velocity P-wave (km/s) = 6.20650 6.54762 6.37934
#
# Compressibility (1/GPa) = 0.02299711
#
# Stress axis : x y z
#
# Youngs Moduli (GPa) = 151.24958 77.70683 105.92954
#
# Poissons Ratio (x) = 0.14388 0.08227
# Poissons Ratio (y) = 0.28005 0.03534
# Poissons Ratio (z) = 0.11746 0.02592
#
# Static dielectric constant tensor:
#      x y z
#    x 1.694020 0.000000 0.111700 
#    y 0.000000 1.755600 0.000000 
#    z 0.111700 0.000000 1.890430 
# 
# From -- ./inp_files/44370.got.cif
#   From: 2010.05.17/outbox.cif.g08.bks.cpg/sg14_23_cif.got.tgz:44370.got - 2010.06.03 17:49:19.
