data_PCOD9244700
_publ_section_title
;
Structure prediction by ZEFSAII (Michael W. Deem and Ramdas Pophale) SiO2 
 PCOD9244700
Probable space group: P 21/C
;
_chemical_formula_sum "Si O2"
_cell_formula_units_Z 30
_cell_length_a 19.874261
_cell_length_b 8.654172
_cell_length_c 13.249005
_cell_angle_alpha 90.000000
_cell_angle_beta 27.352916
_cell_angle_gamma 90.000000
_cell_volume 1047.024832
_symmetry_space_group_name_H-M "P 21/C"
_symmetry_group_IT_number 14
_symmetry_cell_setting 'monoclinic'
loop_
_space_group_symop_operation_xyz
x,y,z
-x,1/2+y,1/2-z
-x,-y,-z
x,1/2-y,1/2+z
loop_
_atom_site_type_symbol
_atom_site_label
_atom_site_fract_x
_atom_site_fract_y
_atom_site_fract_z
Si Si1 0.677680 0.191629 0.433274
Si Si2 0.500000 0.500000 0.000000
Si Si3 0.983780 0.128943 0.661062
Si Si4 0.646233 0.057050 0.137002
Si Si5 0.939962 0.189174 0.489402
Si Si6 0.721240 0.734336 0.170231
Si Si7 0.189378 0.084017 0.642793
Si Si8 0.427083 0.287462 0.433045
O O1 0.596426 0.087002 0.462113
O O2 0.574449 0.268821 0.656887
O O3 0.795735 0.088580 0.337933
O O4 0.770002 0.300765 0.238783
O O5 0.466119 0.644115 0.135385
O O6 0.001566 0.149854 0.517717
O O7 0.105358 0.245145 0.539902
O O8 0.811857 0.120973 0.916226
O O9 0.032799 0.953443 0.619619
O O10 0.605123 0.939729 0.101009
O O11 0.662573 0.909004 0.217370
O O12 0.027621 0.345115 0.344968
O O13 0.632721 0.652869 0.377165
O O14 0.717563 0.618967 0.080962
O O15 0.285810 0.180593 0.592849
#
# Coordination Sequence:
#
# PCOD9244700 Si02
#       8
#     4   2   4   4   4   4   4   4
#     4   9  22  42  65  97 141 180 242 302 362 443
#     4  10  20  44  68 104 148 182 254 296 394 432
#     4  10  20  42  71  96 140 183 254 295 374 443
#     4   8  19  42  64  96 136 190 229 310 362 444
#     4  10  21  41  68  98 130 195 238 303 363 436
#     4  11  24  42  70 107 142 193 239 322 356 465
#     4  12  23  42  71 102 138 193 241 297 383 435
#     4   9  22  42  63  95 136 185 234 300 362 437
#
# _framework density 28.652616999999999
#
# number of rings (size 3 to 8) (size 9 to 14) (size 15 to 20)
#    0.800    1.333    1.333    1.200    0.000    4.800 
#    9.600    4.000    0.000    0.000    0.000    0.000 
#    0.000    0.000    0.000    0.000    0.000    0.000 
#
# Total GULP energy -167352.853688 kJ/mol
# GULP energy per Si atom -5578.428456 kJ/mol
# Density = 2.858740 g / cm^3
# Si number density = 28.652617 Si / 1000 Ang^3
#
#
#
# Elastic Constant Matrix: (Units=GPa)
#
#
# Indices 1 2 3 4 5 6 
#
# 1 141.7086 48.0295 72.4505 0.0000 33.9939 0.0000
# 2 48.0295 146.8934 83.8053 0.0000 4.5382 0.0000
# 3 72.4505 83.8053 223.3178 0.0000 15.4121 0.0000
# 4 0.0000 0.0000 0.0000 57.7714 0.0000 0.3532
# 5 33.9939 4.5382 15.4121 0.0000 77.6792 0.0000
# 6 0.0000 0.0000 0.0000 0.3532 0.0000 53.0353
#
#
#
# Elastic Compliance Matrix: (Units=1/GPa)
#
#
# Indices 1 2 3 4 5 6 
#
# 1 0.009681 -0.001788 -0.002215 0.000000 -0.003693 0.000000
# 2 -0.001788 0.008994 -0.002852 0.000000 0.000823 0.000000
# 3 -0.002215 -0.002852 0.006274 0.000000 -0.000109 0.000000
# 4 0.000000 0.000000 0.000000 0.017310 0.000000 -0.000115
# 5 -0.003693 0.000823 -0.000109 0.000000 0.014463 0.000000
# 6 0.000000 0.000000 0.000000 -0.000115 0.000000 0.018856
#
#
# Mechanical properties :
#
#
# Convention : Reuss Voigt Hill
#
# Bulk Modulus (GPa) = 88.96921 102.27671 95.62296
# Shear Modulus (GPa) = 53.74362 58.20615 55.97489
#
# Velocity S-wave (km/s) = 4.33563 4.51204 4.42472
# Velocity P-wave (km/s) = 7.49546 7.93206 7.71685
#
# Compressibility (1/GPa) = 0.01123984
#
# Stress axis : x y z
#
# Youngs Moduli (GPa) = 103.29633 111.18752 159.37876
#
# Poissons Ratio (x) = 0.19875 0.35304
# Poissons Ratio (y) = 0.18464 0.45455
# Poissons Ratio (z) = 0.22881 0.31711
#
# Static dielectric constant tensor:
#      x y z
#    x 2.650560 0.000000 0.288820 
#    y 0.000000 2.789040 0.000000 
#    z 0.288820 0.000000 2.464580 
# 
# From -- ./inp_files/48564.got.cif
#   From: 2010.05.17/outbox.cif.g08.bks.cpg/sg14_25_cif.got.tgz:48564.got - 2010.06.03 17:49:19.
