data_PCOD9244829
_publ_section_title
;
Structure prediction by ZEFSAII (Michael W. Deem and Ramdas Pophale) SiO2 
 PCOD9244829
Probable space group: P 21/C
;
_chemical_formula_sum "Si O2"
_cell_formula_units_Z 22
_cell_length_a 15.724872
_cell_length_b 8.572575
_cell_length_c 9.715146
_cell_angle_alpha 90.000000
_cell_angle_beta 40.356321
_cell_angle_gamma 90.000000
_cell_volume 848.035009
_symmetry_space_group_name_H-M "P 21/C"
_symmetry_group_IT_number 14
_symmetry_cell_setting 'monoclinic'
loop_
_space_group_symop_operation_xyz
x,y,z
-x,1/2+y,1/2-z
-x,-y,-z
x,1/2-y,1/2+z
loop_
_atom_site_type_symbol
_atom_site_label
_atom_site_fract_x
_atom_site_fract_y
_atom_site_fract_z
Si Si1 0.311642 0.084224 0.620380
Si Si2 0.076449 0.958735 0.730397
Si Si3 0.130894 0.875409 0.143275
Si Si4 0.208548 0.422953 0.790680
Si Si5 0.582037 0.159237 0.285980
Si Si6 0.500000 0.500000 0.500000
O O1 0.241141 0.240518 0.759959
O O2 0.450333 0.107644 0.363346
O O3 0.200981 0.009054 0.664538
O O4 0.366402 0.978083 0.676286
O O5 0.049992 0.776968 0.787481
O O6 0.126171 0.999396 0.514577
O O7 0.943049 0.060738 0.901674
O O8 0.143578 0.022203 0.228816
O O9 0.278812 0.806488 0.955145
O O10 0.353391 0.492938 0.617178
O O11 0.526581 0.311483 0.428462
#
# Coordination Sequence:
#
# PCOD9244829 Si02
#       6
#     4   4   4   4   4   2
#     4  10  25  45  74 104 144 188 243 303 373 435
#     4  12  27  47  70 103 145 198 240 304 370 439
#     4  12  27  45  71 105 145 195 248 301 368 438
#     4  11  25  45  72 106 146 189 245 303 363 442
#     4  10  23  46  74 107 140 187 246 307 369 437
#     4  10  20  46  70 104 134 188 240 306 360 428
#
# _framework density 25.942325
#
# number of rings (size 3 to 8) (size 9 to 14) (size 15 to 20)
#    0.000    1.091    1.818    2.727    7.636    0.727 
#    0.000    0.000    0.000    0.000    0.000    0.000 
#    0.000    0.000    0.000    0.000    0.000    0.000 
#
# Total GULP energy -122487.658132 kJ/mol
# GULP energy per Si atom -5567.620824 kJ/mol
# Density = 2.588328 g / cm^3
# Si number density = 25.942325 Si / 1000 Ang^3
#
#
#
# Elastic Constant Matrix: (Units=GPa)
#
#
# Indices 1 2 3 4 5 6 
#
# 1 167.8354 51.7819 41.5149 0.0000 -71.1219 0.0000
# 2 51.7819 136.1154 10.9297 0.0000 -17.5120 0.0000
# 3 41.5149 10.9297 107.9567 0.0000 -33.3800 0.0000
# 4 0.0000 0.0000 0.0000 18.4579 0.0000 -7.3858
# 5 -71.1219 -17.5120 -33.3800 0.0000 44.0301 0.0000
# 6 0.0000 0.0000 0.0000 -7.3858 0.0000 43.5703
#
#
#
# Elastic Compliance Matrix: (Units=1/GPa)
#
#
# Indices 1 2 3 4 5 6 
#
# 1 0.021303 -0.003819 0.003089 0.000000 0.035233 0.000000
# 2 -0.003819 0.008432 -0.000334 0.000000 -0.003069 0.000000
# 3 0.003089 -0.000334 0.012553 0.000000 0.014373 0.000000
# 4 0.000000 0.000000 0.000000 0.058120 0.000000 0.009852
# 5 0.035233 -0.003069 0.014373 0.000000 0.089300 0.000000
# 6 0.000000 0.000000 0.000000 0.009852 0.000000 0.024621
#
#
# Mechanical properties :
#
#
# Convention : Reuss Voigt Hill
#
# Bulk Modulus (GPa) = 24.90104 68.92894 46.91499
# Shear Modulus (GPa) = 21.75382 41.72370 31.73876
#
# Velocity S-wave (km/s) = 2.89891 4.01474 3.50156
# Velocity P-wave (km/s) = 4.56337 6.93676 5.87124
#
# Compressibility (1/GPa) = 0.04015896
#
# Stress axis : x y z
#
# Youngs Moduli (GPa) = 46.94151 118.60073 79.66123
#
# Poissons Ratio (x) = 0.45297 -0.24604
# Poissons Ratio (y) = 0.17928 0.02659
# Poissons Ratio (z) = -0.14499 0.03959
#
# Static dielectric constant tensor:
#      x y z
#    x 1.978710 0.000000 0.042810 
#    y 0.000000 2.204310 0.000000 
#    z 0.042810 0.000000 2.320430 
# 
# From -- ./inp_files/33540.got.cif
#   From: 2010.05.17/outbox.cif.g08.bks.cpg/sg14_17_cif.got.tgz:33540.got - 2010.06.03 17:49:19.
