data_PCOD9244501
_publ_section_title
;
Structure prediction by ZEFSAII (Michael W. Deem and Ramdas Pophale) SiO2 
 PCOD9244501
Probable space group: P 21/C
;
_chemical_formula_sum "Si O2"
_cell_formula_units_Z 28
_cell_length_a 9.095252
_cell_length_b 12.714710
_cell_length_c 13.135238
_cell_angle_alpha 90.000000
_cell_angle_beta 64.580930
_cell_angle_gamma 90.000000
_cell_volume 1371.953696
_symmetry_space_group_name_H-M "P 21/C"
_symmetry_group_IT_number 14
_symmetry_cell_setting 'monoclinic'
loop_
_space_group_symop_operation_xyz
x,y,z
-x,1/2+y,1/2-z
-x,-y,-z
x,1/2-y,1/2+z
loop_
_atom_site_type_symbol
_atom_site_label
_atom_site_fract_x
_atom_site_fract_y
_atom_site_fract_z
Si Si1 0.629083 0.879105 0.056147
Si Si2 0.350756 0.878644 0.966343
Si Si3 0.576951 0.283271 0.767550
Si Si4 0.118353 0.212553 0.590448
Si Si5 0.878394 0.247621 0.330711
Si Si6 0.615506 0.957548 0.553787
Si Si7 0.887838 0.399539 0.012811
O O1 0.538705 0.816244 0.173334
O O2 0.662988 0.001111 0.065614
O O3 0.503472 0.872186 0.998238
O O4 0.790083 0.816182 0.975757
O O5 0.381896 0.803171 0.861631
O O6 0.194492 0.839014 0.075777
O O7 0.737613 0.273790 0.789535
O O8 0.479277 0.384781 0.838716
O O9 0.248761 0.118660 0.538138
O O10 0.044678 0.224185 0.724462
O O11 0.963918 0.185712 0.565328
O O12 0.900122 0.146493 0.396041
O O13 0.500000 0.000000 0.500000
O O14 0.707298 0.054986 0.579711
O O15 0.000000 0.500000 0.000000
#
# Coordination Sequence:
#
# PCOD9244501 Si02
#       7
#     4   4   4   4   4   4   4
#     4   9  22  43  63  93 133 170 222 267 332 402
#     4  10  22  41  66  93 128 177 215 272 332 398
#     4  10  21  40  66  96 127 170 223 277 325 391
#     4  10  23  40  62  97 130 169 212 272 336 394
#     4  11  22  40  62  93 134 166 217 273 331 393
#     4  10  20  41  66  94 122 168 227 269 318 388
#     4  10  22  40  64  91 128 171 216 267 331 388
#
# _framework density 20.408852
#
# number of rings (size 3 to 8) (size 9 to 14) (size 15 to 20)
#    0.000    2.000    1.429    0.857    0.000   10.286 
#    2.571    1.429    0.000    0.000    0.000    0.000 
#    0.000    0.000    0.000    0.000    0.000    0.000 
#
# Total GULP energy -156396.740022 kJ/mol
# GULP energy per Si atom -5585.597858 kJ/mol
# Density = 2.036240 g / cm^3
# Si number density = 20.408852 Si / 1000 Ang^3
#
#
#
# Elastic Constant Matrix: (Units=GPa)
#
#
# Indices 1 2 3 4 5 6 
#
# 1 67.0690 40.1836 18.3456 0.0000 -13.7844 0.0000
# 2 40.1836 120.8279 53.1156 0.0000 -13.0796 0.0000
# 3 18.3456 53.1156 119.9974 0.0000 -23.9474 0.0000
# 4 0.0000 0.0000 0.0000 17.0962 0.0000 3.3536
# 5 -13.7844 -13.0796 -23.9474 0.0000 23.3178 0.0000
# 6 0.0000 0.0000 0.0000 3.3536 0.0000 33.9703
#
#
#
# Elastic Compliance Matrix: (Units=1/GPa)
#
#
# Indices 1 2 3 4 5 6 
#
# 1 0.020403 -0.006460 0.001791 0.000000 0.010277 0.000000
# 2 -0.006460 0.012356 -0.004856 0.000000 -0.001875 0.000000
# 3 0.001791 -0.004856 0.012423 0.000000 0.011093 0.000000
# 4 0.000000 0.000000 0.000000 0.059648 0.000000 -0.005889
# 5 0.010277 -0.001875 0.011093 0.000000 0.059302 0.000000
# 6 0.000000 0.000000 0.000000 -0.005889 0.000000 0.030019
#
#
# Mechanical properties :
#
#
# Convention : Reuss Voigt Hill
#
# Bulk Modulus (GPa) = 38.26688 59.02043 48.64366
# Shear Modulus (GPa) = 22.53149 27.96016 25.24583
#
# Velocity S-wave (km/s) = 3.32626 3.70537 3.52092
# Velocity P-wave (km/s) = 5.79162 6.87664 6.35732
#
# Compressibility (1/GPa) = 0.02613226
#
# Stress axis : x y z
#
# Youngs Moduli (GPa) = 49.01283 80.92958 80.49599
#
# Poissons Ratio (x) = 0.52283 -0.14419
# Poissons Ratio (y) = 0.31664 0.39089
# Poissons Ratio (z) = -0.08780 0.39299
#
# Static dielectric constant tensor:
#      x y z
#    x 1.722980 0.000000 0.001820 
#    y 0.000000 1.745020 0.000000 
#    z 0.001820 0.000000 1.742400 
# 
# From -- ./inp_files/25202.got.cif
#   From: 2010.05.17/outbox.cif.g08.bks.cpg/sg14_13_cif.got.tgz:25202.got - 2010.06.03 17:49:19.
