data_PCOD9244920
_publ_section_title
;
Structure prediction by ZEFSAII (Michael W. Deem and Ramdas Pophale) SiO2 
 PCOD9244920
Probable space group: P 21/C
;
_chemical_formula_sum "Si O2"
_cell_formula_units_Z 20
_cell_length_a 7.875150
_cell_length_b 9.532926
_cell_length_c 22.938897
_cell_angle_alpha 90.000000
_cell_angle_beta 147.629256
_cell_angle_gamma 90.000000
_cell_volume 922.003109
_symmetry_space_group_name_H-M "P 21/C"
_symmetry_group_IT_number 14
_symmetry_cell_setting 'monoclinic'
loop_
_space_group_symop_operation_xyz
x,y,z
-x,1/2+y,1/2-z
-x,-y,-z
x,1/2-y,1/2+z
loop_
_atom_site_type_symbol
_atom_site_label
_atom_site_fract_x
_atom_site_fract_y
_atom_site_fract_z
Si Si1 0.845584 0.677576 0.321742
Si Si2 0.242950 0.620379 0.549984
Si Si3 0.708931 0.958656 0.333584
Si Si4 0.383048 0.579062 0.407265
Si Si5 0.164777 0.172768 0.505401
O O1 0.714024 0.833820 0.288954
O O2 0.585486 0.561109 0.261595
O O3 0.108243 0.674977 0.449114
O O4 0.029604 0.633754 0.316693
O O5 0.563132 0.536557 0.627692
O O6 0.000000 0.500000 0.500000
O O7 0.160054 0.749154 0.567997
O O8 0.685827 0.890661 0.391957
O O9 0.035131 0.047491 0.427960
O O10 0.500000 0.500000 0.500000
O O11 0.607054 0.712682 0.457645
#
# Coordination Sequence:
#
# PCOD9244920 Si02
#       5
#     4   4   4   4   4
#     4  10  21  35  55  89 109 147 198 232 281 335
#     4   8  16  33  59  78 107 146 181 229 287 337
#     4  10  22  37  58  80 116 155 189 234 285 340
#     4   9  18  34  60  87 111 142 192 234 284 341
#     4   9  19  39  57  80 118 156 183 227 298 345
#
# _framework density 21.691901000000001
#
# number of rings (size 3 to 8) (size 9 to 14) (size 15 to 20)
#    0.000    2.800    0.000    0.000    8.400    0.800 
#    3.600    0.000    0.000    0.000    0.000    0.000 
#    0.000    0.000    0.000    0.000    0.000    0.000 
#
# Total GULP energy -111455.153252 kJ/mol
# GULP energy per Si atom -5572.757663 kJ/mol
# Density = 2.164253 g / cm^3
# Si number density = 21.691901 Si / 1000 Ang^3
#
#
#
# Elastic Constant Matrix: (Units=GPa)
#
#
# Indices 1 2 3 4 5 6 
#
# 1 67.7908 45.1799 13.2566 0.0000 19.2217 0.0000
# 2 45.1799 145.8332 31.2165 0.0000 14.4279 0.0000
# 3 13.2566 31.2165 43.1393 0.0000 2.7920 0.0000
# 4 0.0000 0.0000 0.0000 34.1732 0.0000 -6.4310
# 5 19.2217 14.4279 2.7920 0.0000 23.6995 0.0000
# 6 0.0000 0.0000 0.0000 -6.4310 0.0000 47.1246
#
#
#
# Elastic Compliance Matrix: (Units=1/GPa)
#
#
# Indices 1 2 3 4 5 6 
#
# 1 0.022920 -0.005087 -0.002378 0.000000 -0.015212 0.000000
# 2 -0.005087 0.009698 -0.005380 0.000000 -0.001145 0.000000
# 3 -0.002378 -0.005380 0.027679 0.000000 0.001943 0.000000
# 4 0.000000 0.000000 0.000000 0.030034 0.000000 0.004099
# 5 -0.015212 -0.001145 0.001943 0.000000 0.055001 0.000000
# 6 0.000000 0.000000 0.000000 0.004099 0.000000 0.021780
#
#
# Mechanical properties :
#
#
# Convention : Reuss Voigt Hill
#
# Bulk Modulus (GPa) = 28.89593 48.45214 38.67403
# Shear Modulus (GPa) = 24.46938 32.14015 28.30476
#
# Velocity S-wave (km/s) = 3.36228 3.85342 3.61620
# Velocity P-wave (km/s) = 5.33134 6.49488 5.94166
#
# Compressibility (1/GPa) = 0.03460695
#
# Stress axis : x y z
#
# Youngs Moduli (GPa) = 43.63061 103.11441 36.12834
#
# Poissons Ratio (x) = 0.52450 0.08591
# Poissons Ratio (y) = 0.22193 0.19439
# Poissons Ratio (z) = 0.10375 0.55480
#
# Static dielectric constant tensor:
#      x y z
#    x 1.819290 0.000000 -0.023410 
#    y 0.000000 1.784540 0.000000 
#    z -0.023410 0.000000 1.839230 
# 
# From -- ./inp_files/50164.got.cif
#   From: 2010.05.17/outbox.cif.g08.bks.cpg/sg14_26_cif.got.tgz:50164.got - 2010.06.03 17:49:19.
