data_PCOD9244921
_publ_section_title
;
Structure prediction by ZEFSAII (Michael W. Deem and Ramdas Pophale) SiO2 
 PCOD9244921
Probable space group: P 21/C
;
_chemical_formula_sum "Si O2"
_cell_formula_units_Z 28
_cell_length_a 17.275504
_cell_length_b 8.314136
_cell_length_c 11.781265
_cell_angle_alpha 90.000000
_cell_angle_beta 139.802455
_cell_angle_gamma 90.000000
_cell_volume 1092.158153
_symmetry_space_group_name_H-M "P 21/C"
_symmetry_group_IT_number 14
_symmetry_cell_setting 'monoclinic'
loop_
_space_group_symop_operation_xyz
x,y,z
-x,1/2+y,1/2-z
-x,-y,-z
x,1/2-y,1/2+z
loop_
_atom_site_type_symbol
_atom_site_label
_atom_site_fract_x
_atom_site_fract_y
_atom_site_fract_z
Si Si1 0.624179 0.096373 0.461303
Si Si2 0.209677 0.803462 0.712174
Si Si3 0.625759 0.934667 0.098255
Si Si4 0.216738 0.328424 0.792483
Si Si5 0.122488 0.530008 0.488971
Si Si6 0.620674 0.429682 0.338225
Si Si7 0.927866 0.982534 0.301217
O O1 0.678746 0.188973 0.631573
O O2 0.609926 0.237072 0.350785
O O3 0.723980 0.957306 0.556191
O O4 0.499505 0.008169 0.346155
O O5 0.267028 0.962717 0.724168
O O6 0.116528 0.710611 0.530313
O O7 0.152080 0.855468 0.767262
O O8 0.671217 0.752818 0.150334
O O9 0.624619 0.987823 0.966167
O O10 0.500000 0.000000 0.000000
O O11 0.127838 0.413384 0.603152
O O12 0.148108 0.181011 0.773121
O O13 0.257437 0.524723 0.588434
O O14 0.032525 0.494396 0.285205
O O15 0.000000 0.000000 0.500000
#
# Coordination Sequence:
#
# PCOD9244921 Si02
#       7
#     4   4   4   4   4   4   4
#     4  10  21  37  57  91 138 166 228 248 314 396
#     4   9  22  41  60  93 129 169 221 272 320 395
#     4  10  21  35  55  91 134 169 220 261 311 391
#     4  10  23  41  63  98 131 169 225 267 326 402
#     4  11  23  42  66  91 138 170 216 276 330 393
#     4  11  22  36  61  92 135 190 207 259 334 386
#     4  11  24  49  70  93 131 166 224 289 336 386
#
# _framework density 25.637312000000001
#
# number of rings (size 3 to 8) (size 9 to 14) (size 15 to 20)
#    0.000    1.714    4.286    0.857    8.000    2.286 
#    2.571    2.857    0.000    0.000    0.000    0.000 
#    0.000    0.000    0.000    0.000    0.000    0.000 
#
# Total GULP energy -156320.575285 kJ/mol
# GULP energy per Si atom -5582.877689 kJ/mol
# Density = 2.557896 g / cm^3
# Si number density = 25.637312 Si / 1000 Ang^3
#
#
#
# Elastic Constant Matrix: (Units=GPa)
#
#
# Indices 1 2 3 4 5 6 
#
# 1 43.5033 4.3484 1.7257 0.0000 4.9591 0.0000
# 2 4.3484 130.7291 43.7531 0.0000 -0.4252 0.0000
# 3 1.7257 43.7531 103.0898 0.0000 -1.8296 0.0000
# 4 0.0000 0.0000 0.0000 43.5639 0.0000 -8.8967
# 5 4.9591 -0.4252 -1.8296 0.0000 33.4223 0.0000
# 6 0.0000 0.0000 0.0000 -8.8967 0.0000 22.4967
#
#
#
# Elastic Compliance Matrix: (Units=1/GPa)
#
#
# Indices 1 2 3 4 5 6 
#
# 1 0.023466 -0.000746 -0.000138 0.000000 -0.003499 0.000000
# 2 -0.000746 0.008940 -0.003781 0.000000 0.000017 0.000000
# 3 -0.000138 -0.003781 0.011318 0.000000 0.000592 0.000000
# 4 0.000000 0.000000 0.000000 0.024972 0.000000 0.009875
# 5 -0.003499 0.000017 0.000592 0.000000 0.030472 0.000000
# 6 0.000000 0.000000 0.000000 0.009875 0.000000 0.048356
#
#
# Mechanical properties :
#
#
# Convention : Reuss Voigt Hill
#
# Bulk Modulus (GPa) = 29.07610 41.88630 35.48120
# Shear Modulus (GPa) = 29.70559 35.06290 32.38425
#
# Velocity S-wave (km/s) = 3.40764 3.70219 3.55796
# Velocity P-wave (km/s) = 5.18157 5.88629 5.54514
#
# Compressibility (1/GPa) = 0.03439250
#
# Stress axis : x y z
#
# Youngs Moduli (GPa) = 42.61558 111.85867 88.35474
#
# Poissons Ratio (x) = 0.08340 0.01223
# Poissons Ratio (y) = 0.03177 0.33411
# Poissons Ratio (z) = 0.00590 0.42299
#
# Static dielectric constant tensor:
#      x y z
#    x 2.076800 0.000000 0.092140 
#    y 0.000000 2.102050 0.000000 
#    z 0.092140 0.000000 2.163070 
# 
# From -- ./inp_files/34989.got.cif
#   From: 2010.05.17/outbox.cif.g08.bks.cpg/sg14_18_cif.got.tgz:34989.got - 2010.06.03 17:49:19.
