data_PCOD9244097
_publ_section_title
;
Structure prediction by ZEFSAII (Michael W. Deem and Ramdas Pophale) SiO2 
 PCOD9244097
Probable space group: P 21/C
;
_chemical_formula_sum "Si O2"
_cell_formula_units_Z 28
_cell_length_a 9.559146
_cell_length_b 9.448428
_cell_length_c 18.201915
_cell_angle_alpha 90.000000
_cell_angle_beta 45.826067
_cell_angle_gamma 90.000000
_cell_volume 1179.105856
_symmetry_space_group_name_H-M "P 21/C"
_symmetry_group_IT_number 14
_symmetry_cell_setting 'monoclinic'
loop_
_space_group_symop_operation_xyz
x,y,z
-x,1/2+y,1/2-z
-x,-y,-z
x,1/2-y,1/2+z
loop_
_atom_site_type_symbol
_atom_site_label
_atom_site_fract_x
_atom_site_fract_y
_atom_site_fract_z
Si Si1 0.142742 0.029634 0.561235
Si Si2 0.470263 0.621626 0.114376
Si Si3 0.867591 0.252518 0.347002
Si Si4 0.711675 0.815874 0.290764
Si Si5 0.338196 0.613902 0.438594
Si Si6 0.612347 0.657903 0.668009
Si Si7 0.207033 0.852093 0.387460
O O1 0.345835 0.104227 0.507351
O O2 0.967527 0.132436 0.605597
O O3 0.094764 0.904440 0.634057
O O4 0.177911 0.946282 0.470964
O O5 0.301561 0.727008 0.149966
O O6 0.383722 0.466970 0.157712
O O7 0.566457 0.690939 0.150327
O O8 0.774350 0.349546 0.445265
O O9 0.080446 0.303907 0.245853
O O10 0.552388 0.691468 0.363879
O O11 0.750477 0.820083 0.187867
O O12 0.334517 0.451306 0.415566
O O13 0.233345 0.695408 0.409619
O O14 0.407604 0.604604 0.775927
#
# Coordination Sequence:
#
# PCOD9244097 Si02
#       7
#     4   4   4   4   4   4   4
#     4  10  20  39  67  96 127 173 222 259 328 397
#     4  12  25  44  66  99 130 177 220 268 332 401
#     4  11  25  42  67  95 138 176 221 266 334 392
#     4  11  23  43  71  94 132 173 222 277 324 390
#     4  10  22  42  66  99 134 173 216 277 333 380
#     4  11  23  41  65  97 136 165 222 279 327 384
#     4   9  19  35  68  97 122 169 220 268 321 384
#
# _framework density 23.746804999999998
#
# number of rings (size 3 to 8) (size 9 to 14) (size 15 to 20)
#    0.000    1.429    4.286    3.000    6.000    3.429 
#    2.571    0.000    0.000    0.000    0.000    0.000 
#    0.000    0.000    0.000    0.000    0.000    0.000 
#
# Total GULP energy -156628.557704 kJ/mol
# GULP energy per Si atom -5593.877061 kJ/mol
# Density = 2.369276 g / cm^3
# Si number density = 23.746805 Si / 1000 Ang^3
#
#
#
# Elastic Constant Matrix: (Units=GPa)
#
#
# Indices 1 2 3 4 5 6 
#
# 1 82.1308 18.7298 3.0813 0.0000 -13.8925 0.0000
# 2 18.7298 56.0261 11.3590 0.0000 -10.1372 0.0000
# 3 3.0813 11.3590 51.4639 0.0000 -14.0526 0.0000
# 4 0.0000 0.0000 0.0000 24.8467 0.0000 -0.8950
# 5 -13.8925 -10.1372 -14.0526 0.0000 35.4750 0.0000
# 6 0.0000 0.0000 0.0000 -0.8950 0.0000 27.6073
#
#
#
# Elastic Compliance Matrix: (Units=1/GPa)
#
#
# Indices 1 2 3 4 5 6 
#
# 1 0.013861 -0.004041 0.001378 0.000000 0.004819 0.000000
# 2 -0.004041 0.020426 -0.003481 0.000000 0.002875 0.000000
# 3 0.001378 -0.003481 0.022418 0.000000 0.008425 0.000000
# 4 0.000000 0.000000 0.000000 0.040294 0.000000 0.001306
# 5 0.004819 0.002875 0.008425 0.000000 0.034235 0.000000
# 6 0.000000 0.000000 0.000000 0.001306 0.000000 0.036265
#
#
# Mechanical properties :
#
#
# Convention : Reuss Voigt Hill
#
# Bulk Modulus (GPa) = 22.51482 28.44011 25.47747
# Shear Modulus (GPa) = 25.69483 28.01584 26.85534
#
# Velocity S-wave (km/s) = 3.29300 3.43851 3.36654
# Velocity P-wave (km/s) = 4.89492 5.26943 5.08562
#
# Compressibility (1/GPa) = 0.04441518
#
# Stress axis : x y z
#
# Youngs Moduli (GPa) = 72.14626 48.95765 44.60798
#
# Poissons Ratio (x) = 0.19784 -0.06147
# Poissons Ratio (y) = 0.29155 0.15529
# Poissons Ratio (z) = -0.09942 0.17044
#
# Static dielectric constant tensor:
#      x y z
#    x 1.940190 0.000000 0.008360 
#    y 0.000000 1.890330 0.000000 
#    z 0.008360 0.000000 1.957330 
# 
# From -- ./inp_files/64963.got.cif
#   From: 2010.05.17/outbox.cif.g08.bks.cpg/sg14_33_cif.got.tgz:64963.got - 2010.06.03 17:49:19.
