data_PCOD9244608
_publ_section_title
;
Structure prediction by ZEFSAII (Michael W. Deem and Ramdas Pophale) SiO2 
 PCOD9244608
Probable space group: P 21/C
;
_chemical_formula_sum "Si O2"
_cell_formula_units_Z 26
_cell_length_a 15.384228
_cell_length_b 10.843566
_cell_length_c 14.860443
_cell_angle_alpha 90.000000
_cell_angle_beta 26.414630
_cell_angle_gamma 90.000000
_cell_volume 1102.825333
_symmetry_space_group_name_H-M "P 21/C"
_symmetry_group_IT_number 14
_symmetry_cell_setting 'monoclinic'
loop_
_space_group_symop_operation_xyz
x,y,z
-x,1/2+y,1/2-z
-x,-y,-z
x,1/2-y,1/2+z
loop_
_atom_site_type_symbol
_atom_site_label
_atom_site_fract_x
_atom_site_fract_y
_atom_site_fract_z
Si Si1 0.479092 0.185112 0.499824
Si Si2 0.500000 0.500000 0.500000
Si Si3 0.082173 0.742340 0.218673
Si Si4 0.168276 0.338224 0.696000
Si Si5 0.378638 0.541457 0.973168
Si Si6 0.615400 0.441363 0.585266
Si Si7 0.141739 0.678609 0.860138
O O1 0.365906 0.307455 0.569819
O O2 0.494020 0.143734 0.589408
O O3 0.703852 0.209686 0.264735
O O4 0.373769 0.074405 0.545471
O O5 0.490327 0.435850 0.610868
O O6 0.279984 0.561930 0.717784
O O7 0.042744 0.789907 0.356132
O O8 0.902361 0.752863 0.317459
O O9 0.171455 0.604382 0.144645
O O10 0.266760 0.816859 0.006628
O O11 0.218426 0.459681 0.594813
O O12 0.000602 0.339218 0.925218
O O13 0.488813 0.493789 0.783558
#
# Coordination Sequence:
#
# PCOD9244608 Si02
#       7
#     4   2   4   4   4   4   4
#     4  10  23  46  70  97 126 186 223 273 342 386
#     4  10  20  42  64  94 136 178 206 270 334 384
#     4  10  25  42  63 101 133 170 222 278 333 390
#     4  12  25  41  69 101 130 179 222 275 341 395
#     4  10  23  46  71  93 136 177 226 277 330 409
#     4  11  24  41  68 100 133 175 222 272 340 397
#     4  10  22  45  63  96 139 168 223 277 319 410
#
# _framework density 23.575810000000001
#
# number of rings (size 3 to 8) (size 9 to 14) (size 15 to 20)
#    0.000    1.538    1.538    1.846    6.462    2.462 
#    2.769    3.077    0.000    0.000    0.000    0.000 
#    0.000    0.000    0.000    0.000    0.000    0.000 
#
# Total GULP energy -144902.790416 kJ/mol
# GULP energy per Si atom -5573.184247 kJ/mol
# Density = 2.352215 g / cm^3
# Si number density = 23.575810 Si / 1000 Ang^3
#
#
#
# Elastic Constant Matrix: (Units=GPa)
#
#
# Indices 1 2 3 4 5 6 
#
# 1 148.7082 -1.0751 25.1389 0.0000 -15.5181 0.0000
# 2 -1.0751 35.4532 -15.2383 0.0000 -5.6043 0.0000
# 3 25.1389 -15.2383 36.4502 0.0000 1.9732 0.0000
# 4 0.0000 0.0000 0.0000 29.8007 0.0000 -2.8089
# 5 -15.5181 -5.6043 1.9732 0.0000 25.0391 0.0000
# 6 0.0000 0.0000 0.0000 -2.8089 0.0000 36.5677
#
#
#
# Elastic Compliance Matrix: (Units=1/GPa)
#
#
# Indices 1 2 3 4 5 6 
#
# 1 0.008433 -0.001856 -0.006882 0.000000 0.005353 0.000000
# 2 -0.001856 0.035912 0.015988 0.000000 0.005628 0.000000
# 3 -0.006882 0.015988 0.039069 0.000000 -0.003765 0.000000
# 4 0.000000 0.000000 0.000000 0.033801 0.000000 0.002596
# 5 0.005353 0.005628 -0.003765 0.000000 0.044812 0.000000
# 6 0.000000 0.000000 0.000000 0.002596 0.000000 0.027546
#
#
# Mechanical properties :
#
#
# Convention : Reuss Voigt Hill
#
# Bulk Modulus (GPa) = 10.21293 26.47361 18.34327
# Shear Modulus (GPa) = 24.07209 32.40057 28.23633
#
# Velocity S-wave (km/s) = 3.19885 3.71120 3.46451
# Velocity P-wave (km/s) = 4.24086 5.44220 4.87865
#
# Compressibility (1/GPa) = 0.09791509
#
# Stress axis : x y z
#
# Youngs Moduli (GPa) = 118.57920 27.84615 25.59575
#
# Poissons Ratio (x) = 0.05168 0.17615
# Poissons Ratio (y) = 0.22008 -0.40924
# Poissons Ratio (z) = 0.81605 -0.44522
#
# Static dielectric constant tensor:
#      x y z
#    x 1.844130 0.000000 -0.014670 
#    y 0.000000 1.833640 0.000000 
#    z -0.014670 0.000000 1.836940 
# 
# From -- ./inp_files/47088.got.cif
#   From: 2010.05.17/outbox.cif.g08.bks.cpg/sg14_24_cif.got.tgz:47088.got - 2010.06.03 17:49:19.
