data_PCOD9244312
_publ_section_title
;
Structure prediction by ZEFSAII (Michael W. Deem and Ramdas Pophale) SiO2 
 PCOD9244312
Probable space group: P 21/C
;
_chemical_formula_sum "Si O2"
_cell_formula_units_Z 28
_cell_length_a 10.742408
_cell_length_b 8.306738
_cell_length_c 16.075213
_cell_angle_alpha 90.000000
_cell_angle_beta 50.629472
_cell_angle_gamma 90.000000
_cell_volume 1108.924747
_symmetry_space_group_name_H-M "P 21/C"
_symmetry_group_IT_number 14
_symmetry_cell_setting 'monoclinic'
loop_
_space_group_symop_operation_xyz
x,y,z
-x,1/2+y,1/2-z
-x,-y,-z
x,1/2-y,1/2+z
loop_
_atom_site_type_symbol
_atom_site_label
_atom_site_fract_x
_atom_site_fract_y
_atom_site_fract_z
Si Si1 0.141413 0.658986 0.929409
Si Si2 0.477820 0.856646 0.597202
Si Si3 0.115688 0.024204 0.178963
Si Si4 0.810316 0.754607 0.007706
Si Si5 0.369233 0.498893 0.703830
Si Si6 0.331350 0.974426 0.821816
Si Si7 0.807202 0.344972 0.897232
O O1 0.253910 0.540086 0.829634
O O2 0.195633 0.839549 0.879548
O O3 0.958147 0.650690 0.977597
O O4 0.169969 0.653787 0.014608
O O5 0.669200 0.845630 0.523547
O O6 0.428655 0.672827 0.645198
O O7 0.409653 0.974610 0.697605
O O8 0.373498 0.879588 0.558479
O O9 0.259938 0.081695 0.179606
O O10 0.147836 0.836760 0.150187
O O11 0.128864 0.120074 0.087659
O O12 0.942421 0.047106 0.294748
O O13 0.737307 0.858008 0.115206
O O14 0.529196 0.417744 0.672319
#
# Coordination Sequence:
#
# PCOD9244312 Si02
#       7
#     4   4   4   4   4   4   4
#     4  11  23  42  68 101 130 177 229 276 339 402
#     4   9  22  40  61  97 134 167 222 282 333 395
#     4  11  23  43  67 101 133 178 224 281 340 398
#     4  11  22  39  72  95 127 180 228 276 334 410
#     4   9  22  40  65  94 135 171 221 278 338 403
#     4  10  20  40  66  90 129 173 223 274 336 400
#     4  11  25  42  69  97 141 175 226 282 337 403
#
# _framework density 25.249686000000001
#
# number of rings (size 3 to 8) (size 9 to 14) (size 15 to 20)
#    0.000    1.714    1.429    3.000    6.000    2.286 
#    2.571    0.714    3.143    0.000    0.000    0.000 
#    0.000    0.000    0.000    0.000    0.000    0.000 
#
# Total GULP energy -157060.459775 kJ/mol
# GULP energy per Si atom -5609.302135 kJ/mol
# Density = 2.519222 g / cm^3
# Si number density = 25.249686 Si / 1000 Ang^3
#
#
#
# Elastic Constant Matrix: (Units=GPa)
#
#
# Indices 1 2 3 4 5 6 
#
# 1 218.1880 32.6640 65.0107 0.0000 -10.8419 0.0000
# 2 32.6640 61.9182 20.5860 0.0000 -2.6196 0.0000
# 3 65.0107 20.5860 52.5005 0.0000 -7.7763 0.0000
# 4 0.0000 0.0000 0.0000 36.5640 0.0000 2.9241
# 5 -10.8419 -2.6196 -7.7763 0.0000 44.1377 0.0000
# 6 0.0000 0.0000 0.0000 2.9241 0.0000 48.8783
#
#
#
# Elastic Compliance Matrix: (Units=1/GPa)
#
#
# Indices 1 2 3 4 5 6 
#
# 1 0.007316 -0.000976 -0.008644 0.000000 0.000216 0.000000
# 2 -0.000976 0.018703 -0.006157 0.000000 -0.000214 0.000000
# 3 -0.008644 -0.006157 0.032649 0.000000 0.003263 0.000000
# 4 0.000000 0.000000 0.000000 0.027481 0.000000 -0.001644
# 5 0.000216 -0.000214 0.003263 0.000000 0.023272 0.000000
# 6 0.000000 0.000000 0.000000 -0.001644 0.000000 0.020557
#
#
# Mechanical properties :
#
#
# Convention : Reuss Voigt Hill
#
# Bulk Modulus (GPa) = 36.88178 63.23646 50.05912
# Shear Modulus (GPa) = 29.31363 40.20573 34.75968
#
# Velocity S-wave (km/s) = 3.41097 3.99472 3.71433
# Velocity P-wave (km/s) = 5.49104 6.80999 6.18577
#
# Compressibility (1/GPa) = 0.02711366
#
# Stress axis : x y z
#
# Youngs Moduli (GPa) = 136.69325 53.46686 30.62908
#
# Poissons Ratio (x) = 0.05219 0.26476
# Poissons Ratio (y) = 0.13344 0.18857
# Poissons Ratio (z) = 1.18159 0.32918
#
# Static dielectric constant tensor:
#      x y z
#    x 1.941340 0.000000 -0.011100 
#    y 0.000000 1.991010 0.000000 
#    z -0.011100 0.000000 1.973130 
# 
# From -- ./inp_files/39959.got.cif
#   From: 2010.05.17/outbox.cif.g08.bks.cpg/sg14_20_cif.got.tgz:39959.got - 2010.06.03 17:49:19.
