data_PCOD9244935
_publ_section_title
;
Structure prediction by ZEFSAII (Michael W. Deem and Ramdas Pophale) SiO2 
 PCOD9244935
Probable space group: P 21/C
;
_chemical_formula_sum "Si O2"
_cell_formula_units_Z 32
_cell_length_a 11.651455
_cell_length_b 12.415436
_cell_length_c 23.606257
_cell_angle_alpha 90.000000
_cell_angle_beta 155.555567
_cell_angle_gamma 90.000000
_cell_volume 1413.093243
_symmetry_space_group_name_H-M "P 21/C"
_symmetry_group_IT_number 14
_symmetry_cell_setting 'monoclinic'
loop_
_space_group_symop_operation_xyz
x,y,z
-x,1/2+y,1/2-z
-x,-y,-z
x,1/2-y,1/2+z
loop_
_atom_site_type_symbol
_atom_site_label
_atom_site_fract_x
_atom_site_fract_y
_atom_site_fract_z
Si Si1 0.702540 0.692410 0.149381
Si Si2 0.122455 0.075829 0.640241
Si Si3 0.781343 0.336920 0.690778
Si Si4 0.390682 0.609698 0.903888
Si Si5 0.944832 0.169585 0.391029
Si Si6 0.492053 0.348977 0.212611
Si Si7 0.504461 0.049834 0.353387
Si Si8 0.202845 0.076266 0.808636
O O1 0.663680 0.648287 0.195072
O O2 0.618219 0.816576 0.101021
O O3 0.019130 0.684539 0.272495
O O4 0.543690 0.617480 0.032696
O O5 0.354810 0.143310 0.712767
O O6 0.108297 0.092422 0.701024
O O7 0.176109 0.949674 0.652002
O O8 0.810948 0.092867 0.477612
O O9 0.592308 0.232739 0.610471
O O10 0.961223 0.331387 0.829668
O O11 0.663860 0.457345 0.631029
O O12 0.512201 0.533314 0.910373
O O13 0.067885 0.579323 0.772224
O O14 0.733202 0.262783 0.313850
O O15 0.229966 0.178304 0.553877
O O16 0.594520 0.469113 0.240049
#
# Coordination Sequence:
#
# PCOD9244935 Si02
#       8
#     4   4   4   4   4   4   4   4
#     4  11  21  32  60  85 119 157 195 258 306 371
#     4  10  22  39  62  86 119 158 214 254 300 368
#     4  10  21  35  57  85 121 157 199 251 310 371
#     4  11  19  35  57  84 117 154 198 251 307 361
#     4  10  21  40  63  92 121 159 208 258 305 364
#     4  11  23  40  66  93 120 164 210 261 303 365
#     4  11  19  36  61  88 113 158 211 251 296 365
#     4  10  21  36  53  85 118 155 198 250 312 361
#
# _framework density 22.645357000000001
#
# number of rings (size 3 to 8) (size 9 to 14) (size 15 to 20)
#    0.000    1.500    3.750    4.125    0.000    2.500 
#    0.000    0.625   11.000    0.000    0.000    0.000 
#    0.000    0.000    0.000    0.000    0.000    0.000 
#
# Total GULP energy -178646.313986 kJ/mol
# GULP energy per Si atom -5582.697312 kJ/mol
# Density = 2.259381 g / cm^3
# Si number density = 22.645357 Si / 1000 Ang^3
#
#
#
# Elastic Constant Matrix: (Units=GPa)
#
#
# Indices 1 2 3 4 5 6 
#
# 1 100.1015 14.6582 2.6118 0.0000 18.5183 0.0000
# 2 14.6582 93.0620 8.0361 0.0000 19.6268 0.0000
# 3 2.6118 8.0361 27.2393 0.0000 3.5781 0.0000
# 4 0.0000 0.0000 0.0000 31.9857 0.0000 4.5602
# 5 18.5183 19.6268 3.5781 0.0000 28.3503 0.0000
# 6 0.0000 0.0000 0.0000 4.5602 0.0000 35.3967
#
#
#
# Elastic Compliance Matrix: (Units=1/GPa)
#
#
# Indices 1 2 3 4 5 6 
#
# 1 0.011369 -0.000259 -0.000063 0.000000 -0.007239 0.000000
# 2 -0.000259 0.012774 -0.002648 0.000000 -0.008340 0.000000
# 3 -0.000063 -0.002648 0.037881 0.000000 -0.002906 0.000000
# 4 0.000000 0.000000 0.000000 0.031849 0.000000 -0.004103
# 5 -0.007239 -0.008340 -0.002906 0.000000 0.046142 0.000000
# 6 0.000000 0.000000 0.000000 -0.004103 0.000000 0.028780
#
#
# Mechanical properties :
#
#
# Convention : Reuss Voigt Hill
#
# Bulk Modulus (GPa) = 17.83045 30.11279 23.97162
# Shear Modulus (GPa) = 25.84941 32.15299 29.00120
#
# Velocity S-wave (km/s) = 3.38226 3.77218 3.58253
# Velocity P-wave (km/s) = 4.81080 5.68321 5.26510
#
# Compressibility (1/GPa) = 0.05608385
#
# Stress axis : x y z
#
# Youngs Moduli (GPa) = 87.96218 78.28479 26.39864
#
# Poissons Ratio (x) = 0.02024 0.00166
# Poissons Ratio (y) = 0.02274 0.06991
# Poissons Ratio (z) = 0.00553 0.20732
#
# Static dielectric constant tensor:
#      x y z
#    x 1.866950 0.000000 -0.025640 
#    y 0.000000 1.924320 0.000000 
#    z -0.025640 0.000000 1.852410 
# 
# From -- ./inp_files/33814.got.cif
#   From: 2010.05.17/outbox.cif.g08.bks.cpg/sg14_17_cif.got.tgz:33814.got - 2010.06.03 17:49:19.
