data_PCOD9244892
_publ_section_title
;
Structure prediction by ZEFSAII (Michael W. Deem and Ramdas Pophale) SiO2 
 PCOD9244892
Probable space group: P 21/C
;
_chemical_formula_sum "Si O2"
_cell_formula_units_Z 30
_cell_length_a 12.091487
_cell_length_b 13.311089
_cell_length_c 14.220753
_cell_angle_alpha 90.000000
_cell_angle_beta 146.859068
_cell_angle_gamma 90.000000
_cell_volume 1251.310806
_symmetry_space_group_name_H-M "P 21/C"
_symmetry_group_IT_number 14
_symmetry_cell_setting 'monoclinic'
loop_
_space_group_symop_operation_xyz
x,y,z
-x,1/2+y,1/2-z
-x,-y,-z
x,1/2-y,1/2+z
loop_
_atom_site_type_symbol
_atom_site_label
_atom_site_fract_x
_atom_site_fract_y
_atom_site_fract_z
Si Si1 0.657171 0.362440 0.840342
Si Si2 0.460858 0.770975 0.066730
Si Si3 0.028932 0.656717 0.191956
Si Si4 0.976626 0.365480 0.400342
Si Si5 0.484332 0.688513 0.899481
Si Si6 0.000000 0.000000 0.500000
Si Si7 0.493598 0.419696 0.258110
Si Si8 0.033181 0.588511 0.397382
O O1 0.568411 0.285405 0.701102
O O2 0.527597 0.463719 0.743936
O O3 0.626408 0.309341 0.919781
O O4 0.876166 0.403835 0.964421
O O5 0.272546 0.826283 0.880881
O O6 0.577892 0.717992 0.065344
O O7 0.590514 0.854970 0.214755
O O8 0.949813 0.762695 0.094117
O O9 0.995693 0.565622 0.096193
O O10 0.961815 0.638716 0.251341
O O11 0.732602 0.360130 0.228664
O O12 0.052263 0.379068 0.561826
O O13 0.023524 0.468367 0.381256
O O14 0.589765 0.613757 0.901451
O O15 0.727805 0.388758 0.424443
#
# Coordination Sequence:
#
# PCOD9244892 Si02
#       8
#     4   4   4   4   4   2   4   4
#     4  11  22  39  62  84 119 154 198 247 289 358
#     4   9  19  39  63  81 119 162 183 232 315 344
#     4  10  21  34  59  87 114 152 192 248 295 351
#     4   9  17  35  58  83 118 153 192 241 292 357
#     4   9  18  38  58  84 114 157 185 239 303 344
#     4  12  24  38  58  94 110 150 206 250 294 350
#     4   9  20  37  60  84 117 154 198 238 292 353
#     4   9  19  35  60  87 113 161 199 235 306 360
#
# _framework density 23.974858999999999
#
# number of rings (size 3 to 8) (size 9 to 14) (size 15 to 20)
#    0.000    2.400    2.667    0.800    3.733    1.067 
#    4.800    0.000    2.933    0.000    0.000    0.000 
#    0.000    0.000    0.000    0.000    0.000    0.000 
#
# Total GULP energy -167068.216509 kJ/mol
# GULP energy per Si atom -5568.940550 kJ/mol
# Density = 2.392029 g / cm^3
# Si number density = 23.974859 Si / 1000 Ang^3
#
#
#
# Elastic Constant Matrix: (Units=GPa)
#
#
# Indices 1 2 3 4 5 6 
#
# 1 93.6208 45.2938 29.7903 0.0000 -39.2245 0.0000
# 2 45.2938 107.9607 21.1918 0.0000 -26.6150 0.0000
# 3 29.7903 21.1918 70.2550 0.0000 -8.5503 0.0000
# 4 0.0000 0.0000 0.0000 17.1942 0.0000 -11.0235
# 5 -39.2245 -26.6150 -8.5503 0.0000 38.2309 0.0000
# 6 0.0000 0.0000 0.0000 -11.0235 0.0000 44.0571
#
#
#
# Elastic Compliance Matrix: (Units=1/GPa)
#
#
# Indices 1 2 3 4 5 6 
#
# 1 0.022293 -0.003446 -0.006087 0.000000 0.019112 0.000000
# 2 -0.003446 0.012156 -0.001651 0.000000 0.004557 0.000000
# 3 -0.006087 -0.001651 0.016872 0.000000 -0.003621 0.000000
# 4 0.000000 0.000000 0.000000 0.069271 0.000000 0.017332
# 5 0.019112 0.004557 -0.003621 0.000000 0.048128 0.000000
# 6 0.000000 0.000000 0.000000 0.017332 0.000000 0.027034
#
#
# Mechanical properties :
#
#
# Convention : Reuss Voigt Hill
#
# Bulk Modulus (GPa) = 34.53942 51.59868 43.06905
# Shear Modulus (GPa) = 21.95146 31.60047 26.77596
#
# Velocity S-wave (km/s) = 3.02918 3.63446 3.34553
# Velocity P-wave (km/s) = 5.16453 6.25948 5.73818
#
# Compressibility (1/GPa) = 0.02895243
#
# Stress axis : x y z
#
# Youngs Moduli (GPa) = 44.85696 82.26325 59.26870
#
# Poissons Ratio (x) = 0.28351 0.36079
# Poissons Ratio (y) = 0.15460 0.09784
# Poissons Ratio (z) = 0.27306 0.13579
#
# Static dielectric constant tensor:
#      x y z
#    x 2.018500 0.000000 0.048740 
#    y 0.000000 2.313430 0.000000 
#    z 0.048740 0.000000 1.976690 
# 
# From -- ./inp_files/46997.got.cif
#   From: 2010.05.17/outbox.cif.g08.bks.cpg/sg14_24_cif.got.tgz:46997.got - 2010.06.03 17:49:19.
