data_PCOD9244373
_publ_section_title
;
Structure prediction by ZEFSAII (Michael W. Deem and Ramdas Pophale) SiO2 
 PCOD9244373
Probable space group: P 21/C
;
_chemical_formula_sum "Si O2"
_cell_formula_units_Z 28
_cell_length_a 5.270994
_cell_length_b 20.766253
_cell_length_c 10.081077
_cell_angle_alpha 90.000000
_cell_angle_beta 92.331019
_cell_angle_gamma 90.000000
_cell_volume 1102.549449
_symmetry_space_group_name_H-M "P 21/C"
_symmetry_group_IT_number 14
_symmetry_cell_setting 'monoclinic'
loop_
_space_group_symop_operation_xyz
x,y,z
-x,1/2+y,1/2-z
-x,-y,-z
x,1/2-y,1/2+z
loop_
_atom_site_type_symbol
_atom_site_label
_atom_site_fract_x
_atom_site_fract_y
_atom_site_fract_z
Si Si1 0.084964 0.207533 0.021878
Si Si2 0.984479 0.087668 0.873197
Si Si3 0.194372 0.449816 0.940833
Si Si4 0.604547 0.421318 0.142146
Si Si5 0.295104 0.970454 0.894710
Si Si6 0.413762 0.668793 0.320739
Si Si7 0.106230 0.660999 0.072347
O O1 0.322937 0.196687 0.122554
O O2 0.816799 0.193840 0.090624
O O3 0.109041 0.156657 0.900710
O O4 0.066187 0.279758 0.970417
O O5 0.721417 0.094300 0.787554
O O6 0.921544 0.062113 0.018682
O O7 0.163676 0.031104 0.817706
O O8 0.368912 0.500430 0.867120
O O9 0.052965 0.394967 0.855391
O O10 0.337512 0.412737 0.062682
O O11 0.000000 0.500000 0.000000
O O12 0.782047 0.377791 0.050000
O O13 0.418218 0.909149 0.826587
O O14 0.500000 0.000000 0.000000
O O15 0.331179 0.685748 0.170434
#
# Coordination Sequence:
#
# PCOD9244373 Si02
#       7
#     4   4   4   4   4   4   4
#     4  11  27  45  67 102 136 187 233 284 349 417
#     4  10  22  40  65 102 138 178 234 289 348 420
#     4   9  21  42  61 102 130 176 228 277 353 409
#     4  10  22  41  68  99 137 176 231 291 351 415
#     4  10  20  40  68  98 136 183 226 290 350 402
#     4  11  26  47  69 100 140 181 240 287 348 424
#     4  11  26  42  71  94 138 185 229 290 355 419
#
# _framework density 25.395686999999999
#
# number of rings (size 3 to 8) (size 9 to 14) (size 15 to 20)
#    0.000    1.714    1.429    0.857    6.000    5.714 
#    0.000    0.000    0.000    0.000    0.000    0.000 
#    0.000    0.000    0.000    0.000    0.000    0.000 
#
# Total GULP energy -156569.006874 kJ/mol
# GULP energy per Si atom -5591.750246 kJ/mol
# Density = 2.533789 g / cm^3
# Si number density = 25.395687 Si / 1000 Ang^3
#
#
#
# Elastic Constant Matrix: (Units=GPa)
#
#
# Indices 1 2 3 4 5 6 
#
# 1 101.8063 41.2921 19.8457 0.0000 36.1064 0.0000
# 2 41.2921 165.5442 38.9199 0.0000 22.7506 0.0000
# 3 19.8457 38.9199 96.5015 0.0000 36.8855 0.0000
# 4 0.0000 0.0000 0.0000 25.6248 0.0000 7.9912
# 5 36.1064 22.7506 36.8855 0.0000 51.7669 0.0000
# 6 0.0000 0.0000 0.0000 7.9912 0.0000 33.3830
#
#
#
# Elastic Compliance Matrix: (Units=1/GPa)
#
#
# Indices 1 2 3 4 5 6 
#
# 1 0.014066 -0.002594 0.002017 0.000000 -0.010108 0.000000
# 2 -0.002594 0.007226 -0.002554 0.000000 0.000453 0.000000
# 3 0.002017 -0.002554 0.015236 0.000000 -0.011140 0.000000
# 4 0.000000 0.000000 0.000000 0.042173 0.000000 -0.010095
# 5 -0.010108 0.000453 -0.011140 0.000000 0.034106 0.000000
# 6 0.000000 0.000000 0.000000 -0.010095 0.000000 0.032372
#
#
# Mechanical properties :
#
#
# Convention : Reuss Voigt Hill
#
# Bulk Modulus (GPa) = 33.03983 62.66306 47.85144
# Shear Modulus (GPa) = 30.95402 39.74121 35.34761
#
# Velocity S-wave (km/s) = 3.49502 3.96015 3.73483
# Velocity P-wave (km/s) = 5.41527 6.75564 6.12224
#
# Compressibility (1/GPa) = 0.03026650
#
# Stress axis : x y z
#
# Youngs Moduli (GPa) = 71.09173 138.39297 65.63406
#
# Poissons Ratio (x) = 0.35894 -0.13238
# Poissons Ratio (y) = 0.18438 0.16764
# Poissons Ratio (z) = -0.14338 0.35347
#
# Static dielectric constant tensor:
#      x y z
#    x 2.135630 0.000000 -0.063980 
#    y 0.000000 1.997570 0.000000 
#    z -0.063980 0.000000 2.024410 
# 
# From -- ./inp_files/21826.got.cif
#   From: 2010.05.17/outbox.cif.g08.bks.cpg/sg14_11_cif.got.tgz:21826.got - 2010.06.03 17:49:19.
