data_PCOD9244007
_publ_section_title
;
Structure prediction by ZEFSAII (Michael W. Deem and Ramdas Pophale) SiO2 
 PCOD9244007
Probable space group: P 21/C
;
_chemical_formula_sum "Si O2"
_cell_formula_units_Z 24
_cell_length_a 29.595062
_cell_length_b 10.250708
_cell_length_c 9.012648
_cell_angle_alpha 90.000000
_cell_angle_beta 151.527387
_cell_angle_gamma 90.000000
_cell_volume 1303.484516
_symmetry_space_group_name_H-M "P 21/C"
_symmetry_group_IT_number 14
_symmetry_cell_setting 'monoclinic'
loop_
_space_group_symop_operation_xyz
x,y,z
-x,1/2+y,1/2-z
-x,-y,-z
x,1/2-y,1/2+z
loop_
_atom_site_type_symbol
_atom_site_label
_atom_site_fract_x
_atom_site_fract_y
_atom_site_fract_z
Si Si1 0.062608 0.116651 0.749242
Si Si2 0.943041 0.605982 0.425377
Si Si3 0.275532 0.431128 0.231019
Si Si4 0.718934 0.823210 0.579198
Si Si5 0.554197 0.384959 0.241190
Si Si6 0.477389 0.132574 0.851495
O O1 0.046216 0.253124 0.619054
O O2 0.031210 0.122990 0.829159
O O3 0.179069 0.111665 0.087357
O O4 0.000000 0.000000 0.500000
O O5 0.000000 0.500000 0.500000
O O6 0.835707 0.552791 0.112671
O O7 0.278654 0.332310 0.380908
O O8 0.338596 0.559588 0.436633
O O9 0.306954 0.362458 0.164935
O O10 0.635258 0.860007 0.449418
O O11 0.510700 0.370498 0.278952
O O12 0.500000 0.500000 0.000000
O O13 0.531397 0.252680 0.087230
O O14 0.500000 0.000000 0.000000
#
# Coordination Sequence:
#
# PCOD9244007 Si02
#       6
#     4   4   4   4   4   4
#     4  10  21  39  65  91 120 160 206 251 305 369
#     4  10  21  40  63  90 125 158 203 256 309 364
#     4  10  21  39  62  91 120 164 205 250 304 367
#     4  10  20  39  64  88 122 159 205 244 307 362
#     4  12  24  41  62  89 125 162 211 251 300 365
#     4  12  23  40  62  90 126 163 201 252 304 355
#
# _framework density 18.412188
#
# number of rings (size 3 to 8) (size 9 to 14) (size 15 to 20)
#    0.000    1.333    3.333    3.000    0.000    1.333 
#    3.000    1.667    0.000    0.000    0.000    0.000 
#    0.000    0.000    0.000    0.000    0.000    0.000 
#
# Total GULP energy -133766.374861 kJ/mol
# GULP energy per Si atom -5573.598953 kJ/mol
# Density = 1.837028 g / cm^3
# Si number density = 18.412188 Si / 1000 Ang^3
#
#
#
# Elastic Constant Matrix: (Units=GPa)
#
#
# Indices 1 2 3 4 5 6 
#
# 1 146.9031 73.0741 65.4816 0.0000 -12.0262 0.0000
# 2 73.0741 145.3916 81.0786 0.0000 -8.3897 0.0000
# 3 65.4816 81.0786 80.2494 0.0000 -10.8683 0.0000
# 4 0.0000 0.0000 0.0000 40.3832 0.0000 0.0910
# 5 -12.0262 -8.3897 -10.8683 0.0000 36.3139 0.0000
# 6 0.0000 0.0000 0.0000 0.0910 0.0000 34.3757
#
#
#
# Elastic Compliance Matrix: (Units=1/GPa)
#
#
# Indices 1 2 3 4 5 6 
#
# 1 0.010825 -0.001223 -0.007452 0.000000 0.001072 0.000000
# 2 -0.001223 0.015940 -0.015282 0.000000 -0.001296 0.000000
# 3 -0.007452 -0.015282 0.034571 0.000000 0.004348 0.000000
# 4 0.000000 0.000000 0.000000 0.024763 0.000000 -0.000066
# 5 0.001072 -0.001296 0.004348 0.000000 0.028895 0.000000
# 6 0.000000 0.000000 0.000000 -0.000066 0.000000 0.029090
#
#
# Mechanical properties :
#
#
# Convention : Reuss Voigt Hill
#
# Bulk Modulus (GPa) = 74.50932 90.20142 82.35537
# Shear Modulus (GPa) = 25.44869 32.40854 28.92862
#
# Velocity S-wave (km/s) = 3.72178 4.19999 3.96809
# Velocity P-wave (km/s) = 7.68272 8.52152 8.11296
#
# Compressibility (1/GPa) = 0.01342114
#
# Stress axis : x y z
#
# Youngs Moduli (GPa) = 92.37734 62.73390 28.92590
#
# Poissons Ratio (x) = 0.07674 0.21556
# Poissons Ratio (y) = 0.11300 0.44206
# Poissons Ratio (z) = 0.68840 0.95873
#
# Static dielectric constant tensor:
#      x y z
#    x 1.629770 0.000000 -0.002510 
#    y 0.000000 1.742090 0.000000 
#    z -0.002510 0.000000 1.701240 
# 
# From -- ./inp_files/15034.got.cif
#   From: 2010.05.17/outbox.cif.g08.bks.cpg/sg14_8_cif.got.tgz:15034.got - 2010.06.03 17:49:19.
