data_PCOD9244531
_publ_section_title
;
Structure prediction by ZEFSAII (Michael W. Deem and Ramdas Pophale) SiO2 
 PCOD9244531
Probable space group: P 21/C
;
_chemical_formula_sum "Si O2"
_cell_formula_units_Z 32
_cell_length_a 14.567164
_cell_length_b 12.061499
_cell_length_c 16.076032
_cell_angle_alpha 90.000000
_cell_angle_beta 155.025213
_cell_angle_gamma 90.000000
_cell_volume 1192.595980
_symmetry_space_group_name_H-M "P 21/C"
_symmetry_group_IT_number 14
_symmetry_cell_setting 'monoclinic'
loop_
_space_group_symop_operation_xyz
x,y,z
-x,1/2+y,1/2-z
-x,-y,-z
x,1/2-y,1/2+z
loop_
_atom_site_type_symbol
_atom_site_label
_atom_site_fract_x
_atom_site_fract_y
_atom_site_fract_z
Si Si1 0.262228 0.893127 0.174561
Si Si2 0.899446 0.842205 0.660753
Si Si3 0.306158 0.661087 0.276654
Si Si4 0.382716 0.375801 0.604190
Si Si5 0.408551 0.705819 0.624228
Si Si6 0.094612 0.483146 0.224578
Si Si7 0.287867 0.303374 0.273824
Si Si8 0.799362 0.934173 0.753962
O O1 0.197531 0.776290 0.163247
O O2 0.399296 0.859559 0.205580
O O3 0.330928 0.967894 0.308891
O O4 0.058524 0.961898 0.970585
O O5 0.774696 0.732270 0.531329
O O6 0.784156 0.889862 0.648188
O O7 0.895372 0.945537 0.594613
O O8 0.154718 0.803677 0.885485
O O9 0.398237 0.609123 0.269243
O O10 0.198529 0.573777 0.248038
O O11 0.524183 0.695770 0.503113
O O12 0.508466 0.333143 0.792073
O O13 0.227410 0.457885 0.420222
O O14 0.583634 0.657446 0.702707
O O15 0.103513 0.376386 0.170281
O O16 0.229441 0.176113 0.215756
#
# Coordination Sequence:
#
# PCOD9244531 Si02
#       8
#     4   4   4   4   4   4   4   4
#     4   9  22  42  64  97 130 178 225 272 343 404
#     4  11  22  41  66  96 134 173 225 275 336 406
#     4  10  20  41  68  92 129 178 221 272 340 402
#     4  10  22  44  65  95 136 174 225 274 340 401
#     4  10  23  41  67  96 136 177 225 281 330 407
#     4  11  23  41  76  96 135 188 220 286 350 399
#     4  11  21  42  65  95 134 174 223 281 341 400
#     4  10  21  42  66  92 136 173 217 286 337 398
#
# _framework density 26.832222999999999
#
# number of rings (size 3 to 8) (size 9 to 14) (size 15 to 20)
#    0.000    1.750    3.750    1.500    0.000    5.500 
#    2.250    3.750    2.750    0.750    0.000    0.000 
#    0.000    0.000    0.000    0.000    0.000    0.000 
#
# Total GULP energy -178168.521817 kJ/mol
# GULP energy per Si atom -5567.766307 kJ/mol
# Density = 2.677115 g / cm^3
# Si number density = 26.832223 Si / 1000 Ang^3
#
#
#
# Elastic Constant Matrix: (Units=GPa)
#
#
# Indices 1 2 3 4 5 6 
#
# 1 111.1882 52.2793 23.6477 0.0000 14.8813 0.0000
# 2 52.2793 139.8884 14.8513 0.0000 10.4368 0.0000
# 3 23.6477 14.8513 68.9974 0.0000 -3.6239 0.0000
# 4 0.0000 0.0000 0.0000 -4.3726 0.0000 -25.1176
# 5 14.8813 10.4368 -3.6239 0.0000 25.3597 0.0000
# 6 0.0000 0.0000 0.0000 -25.1176 0.0000 21.7190
#
#
#
# Elastic Compliance Matrix: (Units=1/GPa)
#
#
# Indices 1 2 3 4 5 6 
#
# 1 0.012406 -0.003769 -0.003770 0.000000 -0.006268 0.000000
# 2 -0.003769 0.008738 -0.000667 0.000000 -0.001480 0.000000
# 3 -0.003770 -0.000667 0.016181 0.000000 0.004799 0.000000
# 4 0.000000 0.000000 0.000000 -0.029922 0.000000 -0.034604
# 5 -0.006268 -0.001480 0.004799 0.000000 0.044406 0.000000
# 6 0.000000 0.000000 0.000000 -0.034604 0.000000 0.006024
#
#
# Mechanical properties :
#
#
# Convention : Reuss Voigt Hill
#
# Bulk Modulus (GPa) = 47.81421 55.73672 51.77547
# Shear Modulus (GPa) = 61.56363 23.82758 42.69561
#
# Velocity S-wave (km/s) = 4.79518 2.98320 3.99332
# Velocity P-wave (km/s) = 6.96539 5.71694 6.37182
#
# Compressibility (1/GPa) = 0.02091428
#
# Stress axis : x y z
#
# Youngs Moduli (GPa) = 80.60300 114.43987 61.80058
#
# Poissons Ratio (x) = 0.43129 0.23300
# Poissons Ratio (y) = 0.30377 0.04122
# Poissons Ratio (z) = 0.30388 0.07633
#
# Static dielectric constant tensor:
#      x y z
#    x 2.245570 0.000000 0.021760 
#    y 0.000000 2.131950 0.000000 
#    z 0.021760 0.000000 2.296410 
# 
# From -- ./inp_files/59511.got.cif
#   From: 2010.05.17/outbox.cif.g08.bks.cpg/sg14_30_cif.got.tgz:59511.got - 2010.06.03 17:49:19.
