data_PCOD9244872
_publ_section_title
;
Structure prediction by ZEFSAII (Michael W. Deem and Ramdas Pophale) SiO2 
 PCOD9244872
Probable space group: P 21/C
;
_chemical_formula_sum "Si O2"
_cell_formula_units_Z 26
_cell_length_a 5.385043
_cell_length_b 10.436777
_cell_length_c 17.443305
_cell_angle_alpha 90.000000
_cell_angle_beta 113.175968
_cell_angle_gamma 90.000000
_cell_volume 901.242880
_symmetry_space_group_name_H-M "P 21/C"
_symmetry_group_IT_number 14
_symmetry_cell_setting 'monoclinic'
loop_
_space_group_symop_operation_xyz
x,y,z
-x,1/2+y,1/2-z
-x,-y,-z
x,1/2-y,1/2+z
loop_
_atom_site_type_symbol
_atom_site_label
_atom_site_fract_x
_atom_site_fract_y
_atom_site_fract_z
Si Si1 0.655330 0.896049 0.907083
Si Si2 0.114329 0.350455 0.909155
Si Si3 0.500000 0.500000 0.000000
Si Si4 0.567383 0.285039 0.765916
Si Si5 0.688027 0.884034 0.140152
Si Si6 0.861306 0.426388 0.199640
Si Si7 0.826019 0.249797 0.563848
O O1 0.586097 0.880851 0.808152
O O2 0.410756 0.827205 0.921954
O O3 0.953811 0.840205 0.948458
O O4 0.580974 0.042858 0.915287
O O5 0.242017 0.408662 0.000439
O O6 0.177641 0.200241 0.909152
O O7 0.267068 0.466419 0.874200
O O8 0.819661 0.355550 0.837035
O O9 0.329313 0.638440 0.000327
O O10 0.387846 0.227137 0.810301
O O11 0.666678 0.163457 0.726674
O O12 0.911256 0.968707 0.211967
O O13 0.977475 0.329439 0.149893
#
# Coordination Sequence:
#
# PCOD9244872 Si02
#       7
#     4   4   2   4   4   4   4
#     4  11  23  40  67 101 140 172 223 285 355 408
#     4  10  22  41  61  96 128 184 231 280 348 412
#     4  10  24  52  72  88 136 182 248 286 326 426
#     4  10  21  33  61  96 135 171 214 283 352 407
#     4  11  22  34  61  98 135 175 215 286 353 414
#     4   9  19  35  59  92 135 167 222 277 340 410
#     4  10  23  44  67  99 127 183 228 280 338 398
#
# _framework density 28.849048
#
# number of rings (size 3 to 8) (size 9 to 14) (size 15 to 20)
#    0.000    1.846    3.077    0.000    6.462    0.615 
#   11.077    1.538    0.000    0.000    0.000    0.000 
#    0.000    0.000    0.000    0.000    0.000    0.000 
#
# Total GULP energy -145018.353342 kJ/mol
# GULP energy per Si atom -5577.628975 kJ/mol
# Density = 2.878339 g / cm^3
# Si number density = 28.849048 Si / 1000 Ang^3
#
#
#
# Elastic Constant Matrix: (Units=GPa)
#
#
# Indices 1 2 3 4 5 6 
#
# 1 106.7517 15.5135 61.2876 0.0000 18.5237 0.0000
# 2 15.5135 57.2486 51.1855 0.0000 15.5778 0.0000
# 3 61.2876 51.1855 126.5729 0.0000 26.9612 0.0000
# 4 0.0000 0.0000 0.0000 53.1375 0.0000 21.3859
# 5 18.5237 15.5778 26.9612 0.0000 52.2362 0.0000
# 6 0.0000 0.0000 0.0000 21.3859 0.0000 42.5411
#
#
#
# Elastic Compliance Matrix: (Units=1/GPa)
#
#
# Indices 1 2 3 4 5 6 
#
# 1 0.013558 0.003690 -0.007638 0.000000 -0.001966 0.000000
# 2 0.003690 0.028721 -0.012694 0.000000 -0.003322 0.000000
# 3 -0.007638 -0.012694 0.017245 0.000000 -0.002407 0.000000
# 4 0.000000 0.000000 0.000000 0.023592 0.000000 -0.011860
# 5 -0.001966 -0.003322 -0.002407 0.000000 0.022074 0.000000
# 6 0.000000 0.000000 0.000000 -0.011860 0.000000 0.029469
#
#
# Mechanical properties :
#
#
# Convention : Reuss Voigt Hill
#
# Bulk Modulus (GPa) = 38.10975 60.72738 49.41857
# Shear Modulus (GPa) = 28.29821 40.42208 34.36015
#
# Velocity S-wave (km/s) = 3.13534 3.74727 3.45488
# Velocity P-wave (km/s) = 5.13282 6.31018 5.75171
#
# Compressibility (1/GPa) = 0.02624000
#
# Stress axis : x y z
#
# Youngs Moduli (GPa) = 73.75931 34.81751 57.98724
#
# Poissons Ratio (x) = -0.12849 0.44293
# Poissons Ratio (y) = -0.27220 0.73609
# Poissons Ratio (z) = 0.56340 0.44197
#
# Static dielectric constant tensor:
#      x y z
#    x 2.306460 0.000000 -0.606270 
#    y 0.000000 1.954200 0.000000 
#    z -0.606270 0.000000 0.777260 
# 
# From -- ./inp_files/63225.got.cif
#   From: 2010.05.17/outbox.cif.g08.bks.cpg/sg14_32_cif.got.tgz:63225.got - 2010.06.03 17:49:19.
