data_PCOD9244770
_publ_section_title
;
Structure prediction by ZEFSAII (Michael W. Deem and Ramdas Pophale) SiO2 
 PCOD9244770
Probable space group: P 21/C
;
_chemical_formula_sum "Si O2"
_cell_formula_units_Z 28
_cell_length_a 18.220052
_cell_length_b 8.085723
_cell_length_c 12.204561
_cell_angle_alpha 90.000000
_cell_angle_beta 40.954847
_cell_angle_gamma 90.000000
_cell_volume 1178.526952
_symmetry_space_group_name_H-M "P 21/C"
_symmetry_group_IT_number 14
_symmetry_cell_setting 'monoclinic'
loop_
_space_group_symop_operation_xyz
x,y,z
-x,1/2+y,1/2-z
-x,-y,-z
x,1/2-y,1/2+z
loop_
_atom_site_type_symbol
_atom_site_label
_atom_site_fract_x
_atom_site_fract_y
_atom_site_fract_z
Si Si1 0.375803 0.924874 0.516321
Si Si2 0.168920 0.000256 0.594065
Si Si3 0.921410 0.698417 0.176499
Si Si4 0.658262 0.083449 0.978799
Si Si5 0.284465 0.359319 0.754293
Si Si6 0.094122 0.679937 0.791217
Si Si7 0.376315 0.478073 0.245247
O O1 0.280127 0.992876 0.545906
O O2 0.415261 0.745828 0.429733
O O3 0.492384 0.022330 0.389117
O O4 0.335344 0.915915 0.687815
O O5 0.105396 0.826471 0.689158
O O6 0.096314 0.157944 0.715000
O O7 0.217436 0.032931 0.419106
O O8 0.808042 0.696479 0.230737
O O9 0.940249 0.510036 0.199668
O O10 0.017445 0.734313 0.979087
O O11 0.779329 0.155932 0.810356
O O12 0.626801 0.959472 0.918939
O O13 0.675337 0.007078 0.078356
O O14 0.343287 0.206098 0.746025
#
# Coordination Sequence:
#
# PCOD9244770 Si02
#       7
#     4   4   4   4   4   4   4
#     4  10  25  42  66  95 127 170 231 264 342 397
#     4  11  22  43  63  97 131 173 215 278 330 400
#     4  10  20  44  64  95 130 174 218 277 325 402
#     4  10  24  43  64  95 132 172 213 284 323 400
#     4  11  23  40  65  94 130 170 220 266 343 392
#     4   9  21  41  66  91 131 169 225 267 331 395
#     4  11  24  43  66  94 129 176 219 283 328 400
#
# _framework density 23.758472000000001
#
# number of rings (size 3 to 8) (size 9 to 14) (size 15 to 20)
#    0.000    1.714    1.429    2.143    6.000    1.714 
#   10.286    0.000    0.000    0.000    0.000    0.000 
#    0.000    0.000    0.000    0.000    0.000    0.000 
#
# Total GULP energy -156382.630072 kJ/mol
# GULP energy per Si atom -5585.093931 kJ/mol
# Density = 2.370440 g / cm^3
# Si number density = 23.758472 Si / 1000 Ang^3
#
#
#
# Elastic Constant Matrix: (Units=GPa)
#
#
# Indices 1 2 3 4 5 6 
#
# 1 78.7645 34.8427 28.8110 0.0000 9.8122 0.0000
# 2 34.8427 111.8794 36.3422 0.0000 29.8641 0.0000
# 3 28.8110 36.3422 89.4926 0.0000 24.5847 0.0000
# 4 0.0000 0.0000 0.0000 30.8176 0.0000 13.4006
# 5 9.8122 29.8641 24.5847 0.0000 40.7750 0.0000
# 6 0.0000 0.0000 0.0000 13.4006 0.0000 33.7616
#
#
#
# Elastic Compliance Matrix: (Units=1/GPa)
#
#
# Indices 1 2 3 4 5 6 
#
# 1 0.015697 -0.004045 -0.003820 0.000000 0.001488 0.000000
# 2 -0.004045 0.012738 -0.001888 0.000000 -0.007218 0.000000
# 3 -0.003820 -0.001888 0.015027 0.000000 -0.006759 0.000000
# 4 0.000000 0.000000 0.000000 0.039218 0.000000 -0.015566
# 5 0.001488 -0.007218 -0.006759 0.000000 0.033528 0.000000
# 6 0.000000 0.000000 0.000000 -0.015566 0.000000 0.035798
#
#
# Mechanical properties :
#
#
# Convention : Reuss Voigt Hill
#
# Bulk Modulus (GPa) = 41.74106 53.34759 47.54433
# Shear Modulus (GPa) = 27.85569 33.08022 30.46795
#
# Velocity S-wave (km/s) = 3.42782 3.73547 3.58495
# Velocity P-wave (km/s) = 5.76834 6.41155 6.09843
#
# Compressibility (1/GPa) = 0.02395722
#
# Stress axis : x y z
#
# Youngs Moduli (GPa) = 63.70529 78.50653 66.54672
#
# Poissons Ratio (x) = 0.31757 0.25419
# Poissons Ratio (y) = 0.25770 0.12562
# Poissons Ratio (z) = 0.24333 0.14819
#
# Static dielectric constant tensor:
#      x y z
#    x 1.891200 0.000000 -0.017700 
#    y 0.000000 2.046920 0.000000 
#    z -0.017700 0.000000 1.926250 
# 
# From -- ./inp_files/31515.got.cif
#   From: 2010.05.17/outbox.cif.g08.bks.cpg/sg14_16_cif.got.tgz:31515.got - 2010.06.03 17:49:19.
