data_PCOD9244293
_publ_section_title
;
Structure prediction by ZEFSAII (Michael W. Deem and Ramdas Pophale) SiO2 
 PCOD9244293
Probable space group: P 21/C
;
_chemical_formula_sum "Si O2"
_cell_formula_units_Z 24
_cell_length_a 11.409711
_cell_length_b 7.643332
_cell_length_c 17.550458
_cell_angle_alpha 90.000000
_cell_angle_beta 49.102000
_cell_angle_gamma 90.000000
_cell_volume 1156.901981
_symmetry_space_group_name_H-M "P 21/C"
_symmetry_group_IT_number 14
_symmetry_cell_setting 'monoclinic'
loop_
_space_group_symop_operation_xyz
x,y,z
-x,1/2+y,1/2-z
-x,-y,-z
x,1/2-y,1/2+z
loop_
_atom_site_type_symbol
_atom_site_label
_atom_site_fract_x
_atom_site_fract_y
_atom_site_fract_z
Si Si1 0.093232 0.547244 0.384615
Si Si2 0.061444 0.935814 0.392691
Si Si3 0.520017 0.702591 0.637066
Si Si4 0.428452 0.410343 0.215990
Si Si5 0.831224 0.696049 0.413724
Si Si6 0.683099 0.902717 0.818520
O O1 0.145044 0.749345 0.370672
O O2 0.243938 0.437197 0.304773
O O3 0.000000 0.500000 0.500000
O O4 0.966052 0.553035 0.371529
O O5 0.919203 0.877167 0.398023
O O6 0.180334 0.062574 0.300692
O O7 0.000000 0.000000 0.500000
O O8 0.504592 0.626092 0.728948
O O9 0.491221 0.910490 0.653302
O O10 0.693114 0.672881 0.532802
O O11 0.402185 0.589794 0.635661
O O12 0.441524 0.236907 0.159699
O O13 0.758923 0.673963 0.362121
#
# Coordination Sequence:
#
# PCOD9244293 Si02
#       6
#     4   4   4   4   4   4
#     4  10  20  40  65  99 130 171 232 274 330 397
#     4  10  22  43  68  99 133 180 233 273 333 415
#     4  12  23  45  67 100 138 178 230 268 344 416
#     4  12  24  41  72  94 132 182 226 280 330 415
#     4  10  25  40  69 100 138 178 219 288 347 395
#     4  12  25  44  67 101 140 173 224 286 347 398
#
# _framework density 20.745061
#
# number of rings (size 3 to 8) (size 9 to 14) (size 15 to 20)
#    1.000    0.000    5.000    2.500    2.333    0.667 
#    0.000    0.000    0.000    0.000    0.000    0.000 
#    0.000    0.000    0.000    0.000    0.000    0.000 
#
# Total GULP energy -133931.976908 kJ/mol
# GULP energy per Si atom -5580.499038 kJ/mol
# Density = 2.069784 g / cm^3
# Si number density = 20.745061 Si / 1000 Ang^3
#
#
#
# Elastic Constant Matrix: (Units=GPa)
#
#
# Indices 1 2 3 4 5 6 
#
# 1 87.8095 24.9995 14.2504 0.0000 4.2548 0.0000
# 2 24.9995 105.8532 13.5883 0.0000 11.7632 0.0000
# 3 14.2504 13.5883 40.6845 0.0000 -6.8353 0.0000
# 4 0.0000 0.0000 0.0000 24.6865 0.0000 -5.5699
# 5 4.2548 11.7632 -6.8353 0.0000 32.9535 0.0000
# 6 0.0000 0.0000 0.0000 -5.5699 0.0000 40.3412
#
#
#
# Elastic Compliance Matrix: (Units=1/GPa)
#
#
# Indices 1 2 3 4 5 6 
#
# 1 0.012775 -0.002324 -0.003975 0.000000 -0.001644 0.000000
# 2 -0.002324 0.010937 -0.003569 0.000000 -0.004344 0.000000
# 3 -0.003975 -0.003569 0.028455 0.000000 0.007689 0.000000
# 4 0.000000 0.000000 0.000000 0.041810 0.000000 0.005773
# 5 -0.001644 -0.004344 0.007689 0.000000 0.033704 0.000000
# 6 0.000000 0.000000 0.000000 0.005773 0.000000 0.025586
#
#
# Mechanical properties :
#
#
# Convention : Reuss Voigt Hill
#
# Bulk Modulus (GPa) = 30.83350 37.78040 34.30695
# Shear Modulus (GPa) = 27.20175 31.69683 29.44929
#
# Velocity S-wave (km/s) = 3.62503 3.91310 3.77182
# Velocity P-wave (km/s) = 5.69355 6.21834 5.96172
#
# Compressibility (1/GPa) = 0.03243225
#
# Stress axis : x y z
#
# Youngs Moduli (GPa) = 78.28011 91.43453 35.14287
#
# Poissons Ratio (x) = 0.21250 0.13968
# Poissons Ratio (y) = 0.18193 0.12541
# Poissons Ratio (z) = 0.31113 0.32629
#
# Static dielectric constant tensor:
#      x y z
#    x 1.796280 0.000000 -0.013510 
#    y 0.000000 1.784130 0.000000 
#    z -0.013510 0.000000 1.735810 
# 
# From -- ./inp_files/56991.got.cif
#   From: 2010.05.17/outbox.cif.g08.bks.cpg/sg14_29_cif.got.tgz:56991.got - 2010.06.03 17:49:19.
