data_PCOD9244240
_publ_section_title
;
Structure prediction by ZEFSAII (Michael W. Deem and Ramdas Pophale) SiO2 
 PCOD9244240
Probable space group: P 21/C
;
_chemical_formula_sum "Si O2"
_cell_formula_units_Z 32
_cell_length_a 11.195213
_cell_length_b 13.169388
_cell_length_c 20.651684
_cell_angle_alpha 90.000000
_cell_angle_beta 154.299880
_cell_angle_gamma 90.000000
_cell_volume 1320.394674
_symmetry_space_group_name_H-M "P 21/C"
_symmetry_group_IT_number 14
_symmetry_cell_setting 'monoclinic'
loop_
_space_group_symop_operation_xyz
x,y,z
-x,1/2+y,1/2-z
-x,-y,-z
x,1/2-y,1/2+z
loop_
_atom_site_type_symbol
_atom_site_label
_atom_site_fract_x
_atom_site_fract_y
_atom_site_fract_z
Si Si1 0.582251 0.852888 0.476807
Si Si2 0.953817 0.253491 0.007562
Si Si3 0.712542 0.439934 0.933187
Si Si4 0.291200 0.070175 0.321873
Si Si5 0.478518 0.125809 0.739852
Si Si6 0.240496 0.832978 0.948816
Si Si7 0.799286 0.319664 0.717441
Si Si8 0.292866 0.460260 0.282264
O O1 0.632383 0.861164 0.579402
O O2 0.395013 0.768242 0.351780
O O3 0.893072 0.829629 0.605635
O O4 0.427192 0.960149 0.393745
O O5 0.821556 0.365219 0.931067
O O6 0.788290 0.168156 0.887666
O O7 0.871007 0.226980 0.042477
O O8 0.271137 0.278864 0.148928
O O9 0.447626 0.388057 0.835892
O O10 0.625719 0.550104 0.865930
O O11 0.968190 0.446835 0.108536
O O12 0.965458 0.069495 0.153869
O O13 0.443112 0.055526 0.786704
O O14 0.190616 0.787983 0.853634
O O15 0.555014 0.870290 0.105093
O O16 0.673199 0.431516 0.666967
#
# Coordination Sequence:
#
# PCOD9244240 Si02
#       8
#     4   4   4   4   4   4   4   4
#     4  10  23  38  60  87 128 163 209 250 315 375
#     4  10  20  40  64  92 120 160 215 256 310 381
#     4  11  21  42  66  88 126 169 205 268 317 370
#     4  10  21  41  58  88 125 165 203 257 308 369
#     4  10  23  42  65  95 121 169 213 265 317 369
#     4  10  22  37  64  93 120 161 212 256 310 374
#     4  11  22  39  58  96 121 169 205 256 316 373
#     4  10  21  39  60  89 128 157 207 257 315 368
#
# _framework density 24.235178000000001
#
# number of rings (size 3 to 8) (size 9 to 14) (size 15 to 20)
#    0.000    1.750    1.250    3.375    1.750    6.000 
#    4.500    6.875    0.000    0.000    0.000    0.000 
#    0.000    0.000    0.000    0.000    0.000    0.000 
#
# Total GULP energy -178468.120680 kJ/mol
# GULP energy per Si atom -5577.128771 kJ/mol
# Density = 2.418002 g / cm^3
# Si number density = 24.235178 Si / 1000 Ang^3
#
#
#
# Elastic Constant Matrix: (Units=GPa)
#
#
# Indices 1 2 3 4 5 6 
#
# 1 32.2188 -2.8181 8.1590 0.0000 -4.1223 0.0000
# 2 -2.8181 101.4981 50.5634 0.0000 4.7877 0.0000
# 3 8.1590 50.5634 83.2777 0.0000 -0.6876 0.0000
# 4 0.0000 0.0000 0.0000 40.1524 0.0000 1.3830
# 5 -4.1223 4.7877 -0.6876 0.0000 29.8733 0.0000
# 6 0.0000 0.0000 0.0000 1.3830 0.0000 25.4175
#
#
#
# Elastic Compliance Matrix: (Units=1/GPa)
#
#
# Indices 1 2 3 4 5 6 
#
# 1 0.033162 0.003352 -0.005252 0.000000 0.003918 0.000000
# 2 0.003352 0.014647 -0.009239 0.000000 -0.002097 0.000000
# 3 -0.005252 -0.009239 0.018142 0.000000 0.001174 0.000000
# 4 0.000000 0.000000 0.000000 0.024952 0.000000 -0.001358
# 5 0.003918 -0.002097 0.001174 0.000000 0.034379 0.000000
# 6 0.000000 0.000000 0.000000 -0.001358 0.000000 0.039417
#
#
# Mechanical properties :
#
#
# Convention : Reuss Voigt Hill
#
# Bulk Modulus (GPa) = 22.89699 36.53368 29.71533
# Shear Modulus (GPa) = 24.80977 29.82801 27.31889
#
# Velocity S-wave (km/s) = 3.20302 3.51204 3.36108
# Velocity P-wave (km/s) = 4.81118 5.61723 5.22976
#
# Compressibility (1/GPa) = 0.04367387
#
# Stress axis : x y z
#
# Youngs Moduli (GPa) = 30.15469 68.27351 55.12124
#
# Poissons Ratio (x) = -0.22888 0.28950
# Poissons Ratio (y) = -0.10109 0.50926
# Poissons Ratio (z) = 0.15838 0.63077
#
# Static dielectric constant tensor:
#      x y z
#    x 2.051220 0.000000 -0.045560 
#    y 0.000000 1.945430 0.000000 
#    z -0.045560 0.000000 1.957520 
# 
# From -- ./inp_files/77606.got.cif
#   From: 2010.05.17/outbox.cif.g08.bks.cpg/sg14_39_cif.got.tgz:77606.got - 2010.06.03 17:49:19.
