data_PCOD9244630
_publ_section_title
;
Structure prediction by ZEFSAII (Michael W. Deem and Ramdas Pophale) SiO2 
 PCOD9244630
Probable space group: P 21/C
;
_chemical_formula_sum "Si O2"
_cell_formula_units_Z 30
_cell_length_a 10.039377
_cell_length_b 12.435513
_cell_length_c 9.562834
_cell_angle_alpha 90.000000
_cell_angle_beta 102.784589
_cell_angle_gamma 90.000000
_cell_volume 1164.272786
_symmetry_space_group_name_H-M "P 21/C"
_symmetry_group_IT_number 14
_symmetry_cell_setting 'monoclinic'
loop_
_space_group_symop_operation_xyz
x,y,z
-x,1/2+y,1/2-z
-x,-y,-z
x,1/2-y,1/2+z
loop_
_atom_site_type_symbol
_atom_site_label
_atom_site_fract_x
_atom_site_fract_y
_atom_site_fract_z
Si Si1 0.337882 0.628715 0.541028
Si Si2 0.184488 0.440469 0.424218
Si Si3 0.010602 0.192100 0.705411
Si Si4 0.713889 0.811156 0.795290
Si Si5 0.287825 0.732471 0.797537
Si Si6 0.304157 0.004125 0.430359
Si Si7 0.000000 0.500000 0.000000
Si Si8 0.597575 0.578552 0.758867
O O1 0.204321 0.553755 0.504253
O O2 0.308869 0.727317 0.638043
O O3 0.371279 0.678250 0.399030
O O4 0.463624 0.563613 0.634554
O O5 0.042279 0.394984 0.336069
O O6 0.256283 0.356351 0.543640
O O7 0.272227 0.455432 0.303182
O O8 0.139953 0.269513 0.728224
O O9 0.870712 0.251830 0.704135
O O10 0.008350 0.123938 0.562804
O O11 0.669242 0.903337 0.677792
O O12 0.617104 0.707379 0.780597
O O13 0.319035 0.613219 0.863794
O O14 0.393834 0.022638 0.589960
O O15 0.148186 0.013886 0.450448
#
# Coordination Sequence:
#
# PCOD9244630 Si02
#       8
#     4   4   4   4   4   4   2   4
#     4  12  29  47  68 101 146 187 239 288 354 421
#     4  11  24  47  70 104 131 187 236 297 348 422
#     4  10  24  41  73 100 141 178 233 290 360 422
#     4  11  23  43  75 106 138 182 240 290 350 426
#     4  11  29  46  67 104 142 191 227 300 356 416
#     4  11  23  46  71 103 141 184 236 288 360 415
#     4  10  20  42  66 102 134 178 224 284 354 408
#     4  11  25  44  74 103 138 188 233 289 348 427
#
# _framework density 25.767157999999998
#
# number of rings (size 3 to 8) (size 9 to 14) (size 15 to 20)
#    0.000    1.067    4.000    2.000    7.467    5.333 
#    0.000    0.000    0.000    0.000    0.000    0.000 
#    0.000    0.000    0.000    0.000    0.000    0.000 
#
# Total GULP energy -167637.059766 kJ/mol
# GULP energy per Si atom -5587.901992 kJ/mol
# Density = 2.570851 g / cm^3
# Si number density = 25.767158 Si / 1000 Ang^3
#
#
#
# Elastic Constant Matrix: (Units=GPa)
#
#
# Indices 1 2 3 4 5 6 
#
# 1 56.5684 0.5015 2.0005 0.0000 6.2830 0.0000
# 2 0.5015 79.9193 30.3808 0.0000 8.8889 0.0000
# 3 2.0005 30.3808 109.5543 0.0000 0.9445 0.0000
# 4 0.0000 0.0000 0.0000 46.9026 0.0000 0.1897
# 5 6.2830 8.8889 0.9445 0.0000 28.2774 0.0000
# 6 0.0000 0.0000 0.0000 0.1897 0.0000 22.7271
#
#
#
# Elastic Compliance Matrix: (Units=1/GPa)
#
#
# Indices 1 2 3 4 5 6 
#
# 1 0.018153 0.000518 -0.000439 0.000000 -0.004182 0.000000
# 2 0.000518 0.014537 -0.004001 0.000000 -0.004551 0.000000
# 3 -0.000439 -0.004001 0.010237 0.000000 0.001013 0.000000
# 4 0.000000 0.000000 0.000000 0.021322 0.000000 -0.000178
# 5 -0.004182 -0.004551 0.001013 0.000000 0.037690 0.000000
# 6 0.000000 0.000000 0.000000 -0.000178 0.000000 0.044002
#
#
# Mechanical properties :
#
#
# Convention : Reuss Voigt Hill
#
# Bulk Modulus (GPa) = 28.50488 34.64530 31.57509
# Shear Modulus (GPa) = 30.21541 33.79202 32.00372
#
# Velocity S-wave (km/s) = 3.42809 3.62531 3.52808
# Velocity P-wave (km/s) = 5.17258 5.56763 5.37374
#
# Compressibility (1/GPa) = 0.03508171
#
# Stress axis : x y z
#
# Youngs Moduli (GPa) = 55.08702 68.79162 97.68659
#
# Poissons Ratio (x) = -0.03564 0.04290
# Poissons Ratio (y) = -0.02854 0.39089
# Poissons Ratio (z) = 0.02419 0.27526
#
# Static dielectric constant tensor:
#      x y z
#    x 2.038910 0.000000 0.028810 
#    y 0.000000 2.000890 0.000000 
#    z 0.028810 0.000000 2.025310 
# 
# From -- ./inp_files/13148.got.cif
#   From: 2010.05.17/outbox.cif.g08.bks.cpg/sg14_7_cif.got.tgz:13148.got - 2010.06.03 17:49:19.
