data_PCOD9244361
_publ_section_title
;
Structure prediction by ZEFSAII (Michael W. Deem and Ramdas Pophale) SiO2 
 PCOD9244361
Probable space group: P 21/C
;
_chemical_formula_sum "Si O2"
_cell_formula_units_Z 32
_cell_length_a 5.715335
_cell_length_b 16.174583
_cell_length_c 16.772661
_cell_angle_alpha 90.000000
_cell_angle_beta 108.639224
_cell_angle_gamma 90.000000
_cell_volume 1469.192872
_symmetry_space_group_name_H-M "P 21/C"
_symmetry_group_IT_number 14
_symmetry_cell_setting 'monoclinic'
loop_
_space_group_symop_operation_xyz
x,y,z
-x,1/2+y,1/2-z
-x,-y,-z
x,1/2-y,1/2+z
loop_
_atom_site_type_symbol
_atom_site_label
_atom_site_fract_x
_atom_site_fract_y
_atom_site_fract_z
Si Si1 0.950384 0.242422 0.033105
Si Si2 0.517629 0.222265 0.614068
Si Si3 0.779492 0.432658 0.475819
Si Si4 0.888082 0.563385 0.223322
Si Si5 0.642127 0.470471 0.640719
Si Si6 0.845001 0.385287 0.902000
Si Si7 0.461939 0.029028 0.586571
Si Si8 0.464047 0.328023 0.740943
O O1 0.754077 0.250799 0.085968
O O2 0.248005 0.233220 0.074865
O O3 0.868718 0.160979 0.975637
O O4 0.924031 0.328416 0.982729
O O5 0.547597 0.242590 0.711071
O O6 0.468137 0.126752 0.591509
O O7 0.675778 0.438458 0.554650
O O8 0.568325 0.460392 0.390736
O O9 0.000000 0.500000 0.500000
O O10 0.667274 0.504808 0.170572
O O11 0.811393 0.639196 0.272788
O O12 0.095203 0.509048 0.290558
O O13 0.972420 0.608585 0.151930
O O14 0.558655 0.396476 0.688626
O O15 0.783451 0.480161 0.914991
O O16 0.599876 0.342548 0.839349
O O17 0.500000 0.000000 0.500000
#
# Coordination Sequence:
#
# PCOD9244361 Si02
#       8
#     4   4   4   4   4   4   4   4
#     4  12  26  45  70 104 140 182 234 300 356 424
#     4  12  26  44  74 103 138 186 242 289 361 436
#     4  11  23  40  69  99 134 184 233 294 352 433
#     4  10  22  42  71  95 139 186 233 299 361 418
#     4  10  20  40  68  94 130 178 232 282 356 419
#     4  10  24  44  69  97 139 182 232 296 359 421
#     4  11  23  43  72 101 138 184 241 297 360 435
#     4  10  22  45  66  95 137 185 229 289 360 418
#
# _framework density 21.780664999999999
#
# number of rings (size 3 to 8) (size 9 to 14) (size 15 to 20)
#    0.000    1.250    2.500    3.000    7.000    1.000 
#    9.000    0.000    0.000    0.000    0.000    0.000 
#    0.000    0.000    0.000    0.000    0.000    0.000 
#
# Total GULP energy -178417.376493 kJ/mol
# GULP energy per Si atom -5575.543015 kJ/mol
# Density = 2.173109 g / cm^3
# Si number density = 21.780665 Si / 1000 Ang^3
#
#
#
# Elastic Constant Matrix: (Units=GPa)
#
#
# Indices 1 2 3 4 5 6 
#
# 1 95.6873 14.5384 27.5793 0.0000 4.2690 0.0000
# 2 14.5384 89.7339 4.1898 0.0000 7.6866 0.0000
# 3 27.5793 4.1898 67.0514 0.0000 13.1072 0.0000
# 4 0.0000 0.0000 0.0000 34.9952 0.0000 -2.6772
# 5 4.2690 7.6866 13.1072 0.0000 44.4441 0.0000
# 6 0.0000 0.0000 0.0000 -2.6772 0.0000 21.1142
#
#
#
# Elastic Compliance Matrix: (Units=1/GPa)
#
#
# Indices 1 2 3 4 5 6 
#
# 1 0.012136 -0.001786 -0.005001 0.000000 0.000618 0.000000
# 2 -0.001786 0.011582 0.000391 0.000000 -0.001947 0.000000
# 3 -0.005001 0.000391 0.017898 0.000000 -0.004866 0.000000
# 4 0.000000 0.000000 0.000000 0.028855 0.000000 0.003659
# 5 0.000618 -0.001947 -0.004866 0.000000 0.024212 0.000000
# 6 0.000000 0.000000 0.000000 0.003659 0.000000 0.047825
#
#
# Mechanical properties :
#
#
# Convention : Reuss Voigt Hill
#
# Bulk Modulus (GPa) = 34.69224 38.34307 36.51766
# Shear Modulus (GPa) = 30.32013 33.85504 32.08758
#
# Velocity S-wave (km/s) = 3.73509 3.94682 3.84241
# Velocity P-wave (km/s) = 5.87909 6.19776 6.04053
#
# Compressibility (1/GPa) = 0.02882489
#
# Stress axis : x y z
#
# Youngs Moduli (GPa) = 82.40080 86.34180 55.87363
#
# Poissons Ratio (x) = 0.15418 0.27942
# Poissons Ratio (y) = 0.14714 -0.02187
# Poissons Ratio (z) = 0.41208 -0.03379
#
# Static dielectric constant tensor:
#      x y z
#    x 1.925100 0.000000 0.018850 
#    y 0.000000 1.800000 0.000000 
#    z 0.018850 0.000000 1.874580 
# 
# From -- ./inp_files/53501.got.cif
#   From: 2010.05.17/outbox.cif.g08.bks.cpg/sg14_27_cif.got.tgz:53501.got - 2010.06.03 17:49:19.
