data_PCOD9244471
_publ_section_title
;
Structure prediction by ZEFSAII (Michael W. Deem and Ramdas Pophale) SiO2 
 PCOD9244471
Probable space group: P 21/C
;
_chemical_formula_sum "Si O2"
_cell_formula_units_Z 20
_cell_length_a 5.182156
_cell_length_b 13.314347
_cell_length_c 11.276390
_cell_angle_alpha 90.000000
_cell_angle_beta 74.844850
_cell_angle_gamma 90.000000
_cell_volume 750.978320
_symmetry_space_group_name_H-M "P 21/C"
_symmetry_group_IT_number 14
_symmetry_cell_setting 'monoclinic'
loop_
_space_group_symop_operation_xyz
x,y,z
-x,1/2+y,1/2-z
-x,-y,-z
x,1/2-y,1/2+z
loop_
_atom_site_type_symbol
_atom_site_label
_atom_site_fract_x
_atom_site_fract_y
_atom_site_fract_z
Si Si1 0.665550 0.575124 0.566490
Si Si2 0.453483 0.200939 0.463141
Si Si3 0.855966 0.195701 0.623637
Si Si4 0.114838 0.591898 0.318043
Si Si5 0.202234 0.477441 0.866262
O O1 0.500000 0.500000 0.500000
O O2 0.560094 0.688351 0.592381
O O3 0.937107 0.594464 0.459553
O O4 0.719278 0.508921 0.676791
O O5 0.716720 0.198537 0.511482
O O6 0.425435 0.096874 0.393107
O O7 0.179301 0.196487 0.576143
O O8 0.760930 0.297435 0.697614
O O9 0.759918 0.090040 0.686750
O O10 0.933130 0.580889 0.225235
O O11 0.000000 0.500000 0.000000
#
# Coordination Sequence:
#
# PCOD9244471 Si02
#       5
#     4   4   4   4   4
#     4  10  20  41  64  95 127 168 220 273 322 391
#     4  10  21  41  66  90 130 172 216 271 323 387
#     4  10  21  42  62  93 129 170 221 264 324 391
#     4  10  22  40  66  95 129 171 220 271 328 391
#     4  10  23  43  66  93 137 172 218 270 335 394
#
# _framework density 26.631927999999998
#
# number of rings (size 3 to 8) (size 9 to 14) (size 15 to 20)
#    0.000    2.000    2.000    0.600    2.800    0.000 
#   14.400    0.000    0.000    0.000    0.000    0.000 
#    0.000    0.000    0.000    0.000    0.000    0.000 
#
# Total GULP energy -111906.761997 kJ/mol
# GULP energy per Si atom -5595.338100 kJ/mol
# Density = 2.657131 g / cm^3
# Si number density = 26.631928 Si / 1000 Ang^3
#
#
#
# Elastic Constant Matrix: (Units=GPa)
#
#
# Indices 1 2 3 4 5 6 
#
# 1 48.4546 27.0621 9.3787 0.0000 0.5447 0.0000
# 2 27.0621 257.2114 41.8549 0.0000 2.5998 0.0000
# 3 9.3787 41.8549 63.3336 0.0000 7.4023 0.0000
# 4 0.0000 0.0000 0.0000 63.8912 0.0000 -3.9155
# 5 0.5447 2.5998 7.4023 0.0000 61.1943 0.0000
# 6 0.0000 0.0000 0.0000 -3.9155 0.0000 59.8523
#
#
#
# Elastic Compliance Matrix: (Units=1/GPa)
#
#
# Indices 1 2 3 4 5 6 
#
# 1 0.022140 -0.002011 -0.001964 0.000000 0.000126 0.000000
# 2 -0.002011 0.004541 -0.002721 0.000000 0.000154 0.000000
# 3 -0.001964 -0.002721 0.018119 0.000000 -0.002059 0.000000
# 4 0.000000 0.000000 0.000000 0.015715 0.000000 0.001028
# 5 0.000126 0.000154 -0.002059 0.000000 0.016583 0.000000
# 6 0.000000 0.000000 0.000000 0.001028 0.000000 0.016775
#
#
# Mechanical properties :
#
#
# Convention : Reuss Voigt Hill
#
# Bulk Modulus (GPa) = 31.83996 58.39898 45.11947
# Shear Modulus (GPa) = 42.46880 56.36784 49.41832
#
# Velocity S-wave (km/s) = 3.99765 4.60559 4.31235
# Velocity P-wave (km/s) = 5.76973 7.08927 6.46326
#
# Compressibility (1/GPa) = 0.03140707
#
# Stress axis : x y z
#
# Youngs Moduli (GPa) = 45.16743 220.23254 55.19045
#
# Poissons Ratio (x) = 0.44290 0.10841
# Poissons Ratio (y) = 0.09083 0.15017
# Poissons Ratio (z) = 0.08872 0.59924
#
# Static dielectric constant tensor:
#      x y z
#    x 2.133310 0.000000 -0.135190 
#    y 0.000000 2.191260 0.000000 
#    z -0.135190 0.000000 2.083140 
# 
# From -- ./inp_files/29925.got.cif
#   From: 2010.05.17/outbox.cif.g08.bks.cpg/sg14_15_cif.got.tgz:29925.got - 2010.06.03 17:49:19.
