data_PCOD9244657
_publ_section_title
;
Structure prediction by ZEFSAII (Michael W. Deem and Ramdas Pophale) SiO2 
 PCOD9244657
Probable space group: P 21/C
;
_chemical_formula_sum "Si O2"
_cell_formula_units_Z 28
_cell_length_a 7.701251
_cell_length_b 14.224812
_cell_length_c 10.203842
_cell_angle_alpha 90.000000
_cell_angle_beta 109.986446
_cell_angle_gamma 90.000000
_cell_volume 1050.496802
_symmetry_space_group_name_H-M "P 21/C"
_symmetry_group_IT_number 14
_symmetry_cell_setting 'monoclinic'
loop_
_space_group_symop_operation_xyz
x,y,z
-x,1/2+y,1/2-z
-x,-y,-z
x,1/2-y,1/2+z
loop_
_atom_site_type_symbol
_atom_site_label
_atom_site_fract_x
_atom_site_fract_y
_atom_site_fract_z
Si Si1 0.761538 0.653363 0.157599
Si Si2 0.830415 0.737787 0.910063
Si Si3 0.036205 0.964313 0.299911
Si Si4 0.307027 0.538415 0.393259
Si Si5 0.611992 0.404419 0.990153
Si Si6 0.825388 0.150223 0.907966
Si Si7 0.568035 0.231835 0.181861
O O1 0.818304 0.748738 0.248841
O O2 0.888171 0.565645 0.227651
O O3 0.795876 0.656495 0.008629
O O4 0.550290 0.631309 0.148347
O O5 0.645317 0.794591 0.899295
O O6 0.025514 0.779565 0.995503
O O7 0.814100 0.972844 0.235307
O O8 0.170305 0.933394 0.456778
O O9 0.093251 0.892180 0.202747
O O10 0.500000 0.500000 0.500000
O O11 0.204782 0.565187 0.501042
O O12 0.320186 0.638429 0.321917
O O13 0.605790 0.316011 0.086841
O O14 0.500000 0.500000 0.000000
O O15 0.642135 0.210772 0.828113
#
# Coordination Sequence:
#
# PCOD9244657 Si02
#       7
#     4   4   4   4   4   4   4
#     4  10  21  39  73 104 135 185 238 302 364 444
#     4  11  23  42  70 102 141 186 241 297 374 438
#     4  10  20  42  67  97 136 193 246 299 369 441
#     4  12  25  41  67 107 150 191 254 313 372 445
#     4   8  18  39  68  97 134 185 240 294 366 440
#     4  11  24  42  68 100 140 200 243 301 376 446
#     4  10  24  41  64 105 143 184 244 309 363 445
#
# _framework density 26.654055
#
# number of rings (size 3 to 8) (size 9 to 14) (size 15 to 20)
#    0.000    1.714    1.429    2.143    6.000    0.000 
#    0.000    0.000    0.000    1.714    0.000    0.000 
#    0.000    0.000    0.000    0.000    0.000    0.000 
#
# Total GULP energy -155886.058231 kJ/mol
# GULP energy per Si atom -5567.359223 kJ/mol
# Density = 2.659339 g / cm^3
# Si number density = 26.654055 Si / 1000 Ang^3
#
#
#
# Elastic Constant Matrix: (Units=GPa)
#
#
# Indices 1 2 3 4 5 6 
#
# 1 70.3891 30.5164 21.2427 0.0000 25.3044 0.0000
# 2 30.5164 88.7589 31.8881 0.0000 2.4065 0.0000
# 3 21.2427 31.8881 119.2893 0.0000 26.0250 0.0000
# 4 0.0000 0.0000 0.0000 23.8179 0.0000 6.7134
# 5 25.3044 2.4065 26.0250 0.0000 42.2821 0.0000
# 6 0.0000 0.0000 0.0000 6.7134 0.0000 47.4267
#
#
#
# Elastic Compliance Matrix: (Units=1/GPa)
#
#
# Indices 1 2 3 4 5 6 
#
# 1 0.021975 -0.007560 0.001020 0.000000 -0.013349 0.000000
# 2 -0.007560 0.015153 -0.004047 0.000000 0.006153 0.000000
# 3 0.001020 -0.004047 0.010819 0.000000 -0.007039 0.000000
# 4 0.000000 0.000000 0.000000 0.043730 0.000000 -0.006190
# 5 -0.013349 0.006153 -0.007039 0.000000 0.035622 0.000000
# 6 0.000000 0.000000 0.000000 -0.006190 0.000000 0.021961
#
#
# Mechanical properties :
#
#
# Convention : Reuss Voigt Hill
#
# Bulk Modulus (GPa) = 37.35033 49.52576 43.43805
# Shear Modulus (GPa) = 27.87723 35.69135 31.78429
#
# Velocity S-wave (km/s) = 3.23753 3.66329 3.45697
# Velocity P-wave (km/s) = 5.29329 6.04269 5.68036
#
# Compressibility (1/GPa) = 0.02677352
#
# Stress axis : x y z
#
# Youngs Moduli (GPa) = 45.50569 65.99506 92.43159
#
# Poissons Ratio (x) = 0.49891 -0.09427
# Poissons Ratio (y) = 0.34402 0.37404
# Poissons Ratio (z) = -0.04641 0.26706
#
# Static dielectric constant tensor:
#      x y z
#    x 2.171340 0.000000 -0.042470 
#    y 0.000000 2.090510 0.000000 
#    z -0.042470 0.000000 2.236790 
# 
# From -- ./inp_files/25578.got.cif
#   From: 2010.05.17/outbox.cif.g08.bks.cpg/sg14_13_cif.got.tgz:25578.got - 2010.06.03 17:49:19.
