data_PCOD9244313
_publ_section_title
;
Structure prediction by ZEFSAII (Michael W. Deem and Ramdas Pophale) SiO2 
 PCOD9244313
Probable space group: P 21/C
;
_chemical_formula_sum "Si O2"
_cell_formula_units_Z 28
_cell_length_a 18.368124
_cell_length_b 5.198046
_cell_length_c 12.985812
_cell_angle_alpha 90.000000
_cell_angle_beta 112.919376
_cell_angle_gamma 90.000000
_cell_volume 1141.981353
_symmetry_space_group_name_H-M "P 21/C"
_symmetry_group_IT_number 14
_symmetry_cell_setting 'monoclinic'
loop_
_space_group_symop_operation_xyz
x,y,z
-x,1/2+y,1/2-z
-x,-y,-z
x,1/2-y,1/2+z
loop_
_atom_site_type_symbol
_atom_site_label
_atom_site_fract_x
_atom_site_fract_y
_atom_site_fract_z
Si Si1 0.318121 0.709907 0.230044
Si Si2 0.065272 0.842370 0.130656
Si Si3 0.347641 0.078482 0.528531
Si Si4 0.782310 0.255704 0.154296
Si Si5 0.236643 0.436082 0.542791
Si Si6 0.511199 0.088134 0.686236
Si Si7 0.087684 0.343696 0.006084
O O1 0.333050 0.553349 0.133097
O O2 0.266673 0.578384 0.290763
O O3 0.403662 0.820563 0.306980
O O4 0.259818 0.939728 0.162763
O O5 0.134775 0.833241 0.251297
O O6 0.977778 0.741862 0.114657
O O7 0.081641 0.625054 0.051476
O O8 0.069603 0.125559 0.083299
O O9 0.319124 0.366855 0.533775
O O10 0.440874 0.065095 0.564518
O O11 0.286326 0.959650 0.414111
O O12 0.803828 0.124306 0.059129
O O13 0.176892 0.202705 0.520801
O O14 0.484450 0.315991 0.751100
#
# Coordination Sequence:
#
# PCOD9244313 Si02
#       7
#     4   4   4   4   4   4   4
#     4  10  21  41  65  88 129 177 210 268 329 390
#     4  10  22  43  66  97 123 172 212 266 318 390
#     4  10  23  39  63  93 128 163 222 269 324 390
#     4  11  24  39  63  98 130 167 219 268 331 388
#     4  11  22  40  63  94 128 174 214 273 319 394
#     4  10  20  40  66  91 125 174 218 262 327 385
#     4  10  22  42  70  90 128 167 219 258 323 384
#
# _framework density 24.518787
#
# number of rings (size 3 to 8) (size 9 to 14) (size 15 to 20)
#    0.000    1.714    2.857    0.857    4.000    1.714 
#    2.571    0.714    0.000    0.000    0.000    0.000 
#    0.000    0.000    0.000    0.000    0.000    0.000 
#
# Total GULP energy -156311.692225 kJ/mol
# GULP energy per Si atom -5582.560437 kJ/mol
# Density = 2.446298 g / cm^3
# Si number density = 24.518787 Si / 1000 Ang^3
#
#
#
# Elastic Constant Matrix: (Units=GPa)
#
#
# Indices 1 2 3 4 5 6 
#
# 1 108.5692 5.2246 40.3298 0.0000 34.5283 0.0000
# 2 5.2246 88.1349 23.9787 0.0000 6.6686 0.0000
# 3 40.3298 23.9787 123.4262 0.0000 52.4696 0.0000
# 4 0.0000 0.0000 0.0000 18.0231 0.0000 9.1489
# 5 34.5283 6.6686 52.4696 0.0000 49.1131 0.0000
# 6 0.0000 0.0000 0.0000 9.1489 0.0000 31.9606
#
#
#
# Elastic Compliance Matrix: (Units=1/GPa)
#
#
# Indices 1 2 3 4 5 6 
#
# 1 0.011888 0.000046 -0.000619 0.000000 -0.007703 0.000000
# 2 0.000046 0.012046 -0.003016 0.000000 0.001554 0.000000
# 3 -0.000619 -0.003016 0.015629 0.000000 -0.015853 0.000000
# 4 0.000000 0.000000 0.000000 0.064917 0.000000 -0.018583
# 5 -0.007703 0.001554 -0.015853 0.000000 0.042502 0.000000
# 6 0.000000 0.000000 0.000000 -0.018583 0.000000 0.036608
#
#
# Mechanical properties :
#
#
# Convention : Reuss Voigt Hill
#
# Bulk Modulus (GPa) = 30.87667 51.02181 40.94924
# Shear Modulus (GPa) = 24.80603 36.52587 30.66595
#
# Velocity S-wave (km/s) = 3.18420 3.86386 3.54038
# Velocity P-wave (km/s) = 5.11265 6.38438 5.78358
#
# Compressibility (1/GPa) = 0.03238691
#
# Stress axis : x y z
#
# Youngs Moduli (GPa) = 84.11753 83.01166 63.98206
#
# Poissons Ratio (x) = -0.00386 0.03960
# Poissons Ratio (y) = -0.00391 0.19297
# Poissons Ratio (z) = 0.05207 0.25037
#
# Static dielectric constant tensor:
#      x y z
#    x 1.993620 0.000000 -0.014040 
#    y 0.000000 2.007930 0.000000 
#    z -0.014040 0.000000 2.011730 
# 
# From -- ./inp_files/34786.got.cif
#   From: 2010.05.17/outbox.cif.g08.bks.cpg/sg14_18_cif.got.tgz:34786.got - 2010.06.03 17:49:19.
