data_PCOD9244055
_publ_section_title
;
Structure prediction by ZEFSAII (Michael W. Deem and Ramdas Pophale) SiO2 
 PCOD9244055
Probable space group: P 21/C
;
_chemical_formula_sum "Si O2"
_cell_formula_units_Z 20
_cell_length_a 7.835422
_cell_length_b 7.243725
_cell_length_c 14.594666
_cell_angle_alpha 90.000000
_cell_angle_beta 109.673136
_cell_angle_gamma 90.000000
_cell_volume 780.006278
_symmetry_space_group_name_H-M "P 21/C"
_symmetry_group_IT_number 14
_symmetry_cell_setting 'monoclinic'
loop_
_space_group_symop_operation_xyz
x,y,z
-x,1/2+y,1/2-z
-x,-y,-z
x,1/2-y,1/2+z
loop_
_atom_site_type_symbol
_atom_site_label
_atom_site_fract_x
_atom_site_fract_y
_atom_site_fract_z
Si Si1 0.618444 0.885258 0.095395
Si Si2 0.285319 0.741852 0.619977
Si Si3 0.209602 0.774814 0.811765
Si Si4 0.990073 0.807450 0.439750
Si Si5 0.380845 0.348881 0.070159
O O1 0.476074 0.863872 0.152598
O O2 0.782774 0.008994 0.158862
O O3 0.660469 0.702320 0.043926
O O4 0.500000 0.000000 0.000000
O O5 0.192037 0.751869 0.700836
O O6 0.135382 0.680461 0.519216
O O7 0.351608 0.940978 0.594342
O O8 0.066532 0.676847 0.851622
O O9 0.413793 0.704411 0.870952
O O10 0.781757 0.745481 0.405253
O O11 0.000000 0.000000 0.500000
#
# Coordination Sequence:
#
# PCOD9244055 Si02
#       5
#     4   4   4   4   4
#     4  10  20  39  65  90 125 173 210 268 330 375
#     4  11  21  42  67  94 131 172 224 268 326 397
#     4  11  23  43  63  99 133 165 228 275 314 397
#     4  10  23  42  64  94 128 175 214 267 335 385
#     4  10  22  42  69  89 130 180 209 267 343 381
#
# _framework density 25.640820999999999
#
# number of rings (size 3 to 8) (size 9 to 14) (size 15 to 20)
#    0.000    1.600    4.000    1.800    2.800    0.800 
#   10.800    0.000    0.000    0.000    0.000    0.000 
#    0.000    0.000    0.000    0.000    0.000    0.000 
#
# Total GULP energy -111760.625210 kJ/mol
# GULP energy per Si atom -5588.031261 kJ/mol
# Density = 2.558246 g / cm^3
# Si number density = 25.640821 Si / 1000 Ang^3
#
#
#
# Elastic Constant Matrix: (Units=GPa)
#
#
# Indices 1 2 3 4 5 6 
#
# 1 161.2861 17.3107 46.7974 0.0000 -37.4039 0.0000
# 2 17.3107 59.0926 19.5114 0.0000 -11.8746 0.0000
# 3 46.7974 19.5114 141.1364 0.0000 -54.8719 0.0000
# 4 0.0000 0.0000 0.0000 22.8442 0.0000 -9.8400
# 5 -37.4039 -11.8746 -54.8719 0.0000 56.0795 0.0000
# 6 0.0000 0.0000 0.0000 -9.8400 0.0000 34.3026
#
#
#
# Elastic Compliance Matrix: (Units=1/GPa)
#
#
# Indices 1 2 3 4 5 6 
#
# 1 0.007470 -0.001133 -0.000769 0.000000 0.003990 0.000000
# 2 -0.001133 0.018072 -0.001499 0.000000 0.001605 0.000000
# 3 -0.000769 -0.001499 0.011661 0.000000 0.010579 0.000000
# 4 0.000000 0.000000 0.000000 0.049946 0.000000 0.014328
# 5 0.003990 0.001605 0.010579 0.000000 0.031184 0.000000
# 6 0.000000 0.000000 0.000000 0.014328 0.000000 0.033262
#
#
# Mechanical properties :
#
#
# Convention : Reuss Voigt Hill
#
# Bulk Modulus (GPa) = 32.89322 58.75043 45.82182
# Shear Modulus (GPa) = 29.66818 41.17161 35.41989
#
# Velocity S-wave (km/s) = 3.40526 4.01147 3.72073
# Velocity P-wave (km/s) = 5.32141 6.66472 6.03058
#
# Compressibility (1/GPa) = 0.03040140
#
# Stress axis : x y z
#
# Youngs Moduli (GPa) = 133.86475 55.33498 85.75873
#
# Poissons Ratio (x) = 0.06267 0.06595
# Poissons Ratio (y) = 0.15161 0.12855
# Poissons Ratio (z) = 0.10295 0.08295
#
# Static dielectric constant tensor:
#      x y z
#    x 2.107200 0.000000 -0.018600 
#    y 0.000000 2.288700 0.000000 
#    z -0.018600 0.000000 1.984110 
# 
# From -- ./inp_files/38738.got.cif
#   From: 2010.05.17/outbox.cif.g08.bks.cpg/sg14_20_cif.got.tgz:38738.got - 2010.06.03 17:49:19.
