data_PCOD9244478
_publ_section_title
;
Structure prediction by ZEFSAII (Michael W. Deem and Ramdas Pophale) SiO2 
 PCOD9244478
Probable space group: P 21/C
;
_chemical_formula_sum "Si O2"
_cell_formula_units_Z 20
_cell_length_a 24.064516
_cell_length_b 5.578531
_cell_length_c 13.530194
_cell_angle_alpha 90.000000
_cell_angle_beta 152.071141
_cell_angle_gamma 90.000000
_cell_volume 850.735613
_symmetry_space_group_name_H-M "P 21/C"
_symmetry_group_IT_number 14
_symmetry_cell_setting 'monoclinic'
loop_
_space_group_symop_operation_xyz
x,y,z
-x,1/2+y,1/2-z
-x,-y,-z
x,1/2-y,1/2+z
loop_
_atom_site_type_symbol
_atom_site_label
_atom_site_fract_x
_atom_site_fract_y
_atom_site_fract_z
Si Si1 0.188580 0.037955 0.846194
Si Si2 0.194133 0.201946 0.063579
Si Si3 0.575610 0.034323 0.520707
Si Si4 0.994926 0.803063 0.077384
Si Si5 0.625661 0.963825 0.023656
O O1 0.189030 0.221373 0.937970
O O2 0.098893 0.118917 0.619319
O O3 0.313087 0.009848 0.987185
O O4 0.125404 0.805182 0.792002
O O5 0.068756 0.145659 0.918557
O O6 0.284718 0.986541 0.232515
O O7 0.267037 0.420180 0.227883
O O8 0.559262 0.792557 0.429640
O O9 0.500000 0.000000 0.500000
O O10 0.557759 0.296593 0.447834
O O11 0.000000 0.000000 0.000000
#
# Coordination Sequence:
#
# PCOD9244478 Si02
#       5
#     4   4   4   4   4
#     4  10  21  38  56  89 120 167 199 253 301 371
#     4   9  22  36  59  92 118 166 201 251 301 371
#     4  10  20  41  65  88 120 162 201 257 309 359
#     4  10  21  36  58  83 126 158 203 249 302 359
#     4   9  21  40  61  88 124 154 203 255 302 358
#
# _framework density 23.509065
#
# number of rings (size 3 to 8) (size 9 to 14) (size 15 to 20)
#    1.200    1.200    0.000    1.800    2.800    1.600 
#    0.000    2.000    0.000    0.000    0.000    0.000 
#    0.000    0.000    0.000    0.000    0.000    0.000 
#
# Total GULP energy -111451.942907 kJ/mol
# GULP energy per Si atom -5572.597145 kJ/mol
# Density = 2.345556 g / cm^3
# Si number density = 23.509065 Si / 1000 Ang^3
#
#
#
# Elastic Constant Matrix: (Units=GPa)
#
#
# Indices 1 2 3 4 5 6 
#
# 1 211.8238 68.7900 44.6989 0.0000 21.8379 0.0000
# 2 68.7900 135.2271 31.3622 0.0000 23.9315 0.0000
# 3 44.6989 31.3622 48.7110 0.0000 0.7460 0.0000
# 4 0.0000 0.0000 0.0000 -24.2749 0.0000 22.7545
# 5 21.8379 23.9315 0.7460 0.0000 38.8931 0.0000
# 6 0.0000 0.0000 0.0000 22.7545 0.0000 14.2815
#
#
#
# Elastic Compliance Matrix: (Units=1/GPa)
#
#
# Indices 1 2 3 4 5 6 
#
# 1 0.006582 -0.001778 -0.004857 0.000000 -0.002508 0.000000
# 2 -0.001778 0.010392 -0.004978 0.000000 -0.005301 0.000000
# 3 -0.004857 -0.004978 0.028111 0.000000 0.005251 0.000000
# 4 0.000000 0.000000 0.000000 -0.016521 0.000000 0.026323
# 5 -0.002508 -0.005301 0.005251 0.000000 0.030281 0.000000
# 6 0.000000 0.000000 0.000000 0.026323 0.000000 0.028081
#
#
# Mechanical properties :
#
#
# Convention : Reuss Voigt Hill
#
# Bulk Modulus (GPa) = 45.74765 76.16269 60.95517
# Shear Modulus (GPa) = 42.57607 22.50732 32.54170
#
# Velocity S-wave (km/s) = 4.26026 3.09753 3.72455
# Velocity P-wave (km/s) = 6.61072 6.72758 6.66941
#
# Compressibility (1/GPa) = 0.02185905
#
# Stress axis : x y z
#
# Youngs Moduli (GPa) = 151.93675 96.22808 35.57387
#
# Poissons Ratio (x) = 0.17108 0.17277
# Poissons Ratio (y) = 0.27012 0.17709
# Poissons Ratio (z) = 0.73788 0.47904
#
# Static dielectric constant tensor:
#      x y z
#    x 1.910610 0.000000 -0.028820 
#    y 0.000000 2.035430 0.000000 
#    z -0.028820 0.000000 1.949950 
# 
# From -- ./inp_files/31018.got.cif
#   From: 2010.05.17/outbox.cif.g08.bks.cpg/sg14_16_cif.got.tgz:31018.got - 2010.06.03 17:49:19.
