data_PCOD9244243
_publ_section_title
;
Structure prediction by ZEFSAII (Michael W. Deem and Ramdas Pophale) SiO2 
 PCOD9244243
Probable space group: P 21/C
;
_chemical_formula_sum "Si O2"
_cell_formula_units_Z 28
_cell_length_a 19.133680
_cell_length_b 7.602217
_cell_length_c 10.331221
_cell_angle_alpha 90.000000
_cell_angle_beta 106.515618
_cell_angle_gamma 90.000000
_cell_volume 1440.762183
_symmetry_space_group_name_H-M "P 21/C"
_symmetry_group_IT_number 14
_symmetry_cell_setting 'monoclinic'
loop_
_space_group_symop_operation_xyz
x,y,z
-x,1/2+y,1/2-z
-x,-y,-z
x,1/2-y,1/2+z
loop_
_atom_site_type_symbol
_atom_site_label
_atom_site_fract_x
_atom_site_fract_y
_atom_site_fract_z
Si Si1 0.830832 0.725071 0.537792
Si Si2 0.405908 0.069880 0.744624
Si Si3 0.054392 0.968826 0.408488
Si Si4 0.393455 0.472953 0.944172
Si Si5 0.501068 0.237587 0.111821
Si Si6 0.958191 0.057069 0.108270
Si Si7 0.267900 0.276657 0.764432
O O1 0.890953 0.574634 0.586722
O O2 0.780790 0.727830 0.638311
O O3 0.782221 0.690138 0.385776
O O4 0.874223 0.909409 0.542316
O O5 0.453494 0.938844 0.856032
O O6 0.390186 0.976161 0.594729
O O7 0.458600 0.228102 0.723628
O O8 0.328128 0.131274 0.756108
O O9 0.066929 0.759662 0.409305
O O10 0.000000 0.000000 0.500000
O O11 0.012760 0.030205 0.256982
O O12 0.441670 0.608488 0.889944
O O13 0.435555 0.283761 0.978306
O O14 0.316795 0.441244 0.836665
O O15 0.000000 0.000000 0.000000
#
# Coordination Sequence:
#
# PCOD9244243 Si02
#       7
#     4   4   4   4   4   4   4
#     4  12  25  44  69  94 144 182 218 270 349 397
#     4  10  20  40  64  92 127 165 228 270 339 379
#     4  12  23  44  74 103 132 168 229 282 331 390
#     4   9  21  41  61  94 128 165 226 272 335 390
#     4   9  19  38  67  90 118 166 224 292 317 375
#     4  12  23  44  74 105 129 174 225 284 329 391
#     4  12  24  45  60  94 140 185 204 270 340 419
#
# _framework density 19.434156999999999
#
# number of rings (size 3 to 8) (size 9 to 14) (size 15 to 20)
#    0.857    0.286    4.286    2.571    0.000    0.571 
#    7.714    0.000    0.000    0.000    0.000    0.000 
#    0.000    0.000    0.000    0.000    0.000    0.000 
#
# Total GULP energy -156194.350928 kJ/mol
# GULP energy per Si atom -5578.369676 kJ/mol
# Density = 1.938992 g / cm^3
# Si number density = 19.434157 Si / 1000 Ang^3
#
#
#
# Elastic Constant Matrix: (Units=GPa)
#
#
# Indices 1 2 3 4 5 6 
#
# 1 115.7130 16.8479 37.1817 0.0000 -11.2435 0.0000
# 2 16.8479 84.5115 -10.0420 0.0000 1.7978 0.0000
# 3 37.1817 -10.0420 111.0351 0.0000 -3.0490 0.0000
# 4 0.0000 0.0000 0.0000 27.7449 0.0000 2.1305
# 5 -11.2435 1.7978 -3.0490 0.0000 50.2419 0.0000
# 6 0.0000 0.0000 0.0000 2.1305 0.0000 34.3896
#
#
#
# Elastic Compliance Matrix: (Units=1/GPa)
#
#
# Indices 1 2 3 4 5 6 
#
# 1 0.010402 -0.002555 -0.003654 0.000000 0.002197 0.000000
# 2 -0.002555 0.012595 0.001970 0.000000 -0.000903 0.000000
# 3 -0.003654 0.001970 0.010401 0.000000 -0.000257 0.000000
# 4 0.000000 0.000000 0.000000 0.036215 0.000000 -0.002244
# 5 0.002197 -0.000903 -0.000257 0.000000 0.020412 0.000000
# 6 0.000000 0.000000 0.000000 -0.002244 0.000000 0.029218
#
#
# Mechanical properties :
#
#
# Convention : Reuss Voigt Hill
#
# Bulk Modulus (GPa) = 40.12777 44.35942 42.24360
# Shear Modulus (GPa) = 36.75761 40.29342 38.52552
#
# Velocity S-wave (km/s) = 4.35373 4.55832 4.45720
# Velocity P-wave (km/s) = 6.77984 7.11192 6.94787
#
# Compressibility (1/GPa) = 0.02492040
#
# Stress axis : x y z
#
# Youngs Moduli (GPa) = 96.13902 79.39516 96.14664
#
# Poissons Ratio (x) = 0.20282 0.35130
# Poissons Ratio (y) = 0.24559 -0.18938
# Poissons Ratio (z) = 0.35127 -0.15639
#
# Static dielectric constant tensor:
#      x y z
#    x 1.657010 0.000000 -0.014450 
#    y 0.000000 1.697420 0.000000 
#    z -0.014450 0.000000 1.729490 
# 
# From -- ./inp_files/17606.got.cif
#   From: 2010.05.17/outbox.cif.g08.bks.cpg/sg14_9_cif.got.tgz:17606.got - 2010.06.03 17:49:19.
