data_PCOD9244848
_publ_section_title
;
Structure prediction by ZEFSAII (Michael W. Deem and Ramdas Pophale) SiO2 
 PCOD9244848
Probable space group: P 21/C
;
_chemical_formula_sum "Si O2"
_cell_formula_units_Z 28
_cell_length_a 14.179849
_cell_length_b 19.165780
_cell_length_c 5.649769
_cell_angle_alpha 90.000000
_cell_angle_beta 117.889363
_cell_angle_gamma 90.000000
_cell_volume 1357.089793
_symmetry_space_group_name_H-M "P 21/C"
_symmetry_group_IT_number 14
_symmetry_cell_setting 'monoclinic'
loop_
_space_group_symop_operation_xyz
x,y,z
-x,1/2+y,1/2-z
-x,-y,-z
x,1/2-y,1/2+z
loop_
_atom_site_type_symbol
_atom_site_label
_atom_site_fract_x
_atom_site_fract_y
_atom_site_fract_z
Si Si1 0.820369 0.588331 0.642380
Si Si2 0.001834 0.719222 0.420487
Si Si3 0.239775 0.543557 0.150677
Si Si4 0.032169 0.922889 0.131335
Si Si5 0.241404 0.230368 0.771742
Si Si6 0.556651 0.050355 0.875413
Si Si7 0.353309 0.443307 0.910821
O O1 0.811956 0.508968 0.719296
O O2 0.781677 0.647496 0.776180
O O3 0.740806 0.597909 0.326962
O O4 0.941026 0.599685 0.709256
O O5 0.043619 0.754769 0.227768
O O6 0.024491 0.636816 0.425053
O O7 0.875092 0.734672 0.310672
O O8 0.338340 0.585071 0.385791
O O9 0.145987 0.578475 0.893102
O O10 0.297260 0.490198 0.040768
O O11 0.000000 0.000000 0.000000
O O12 0.294862 0.254929 0.590681
O O13 0.458520 0.092740 0.644604
O O14 0.602353 0.997234 0.733421
O O15 0.500000 0.000000 0.000000
#
# Coordination Sequence:
#
# PCOD9244848 Si02
#       7
#     4   4   4   4   4   4   4
#     4  11  21  33  53  80 114 153 185 236 291 347
#     4  10  22  40  57  74 111 167 206 230 280 353
#     4  10  21  31  50  81 114 146 182 234 296 330
#     4  12  23  34  54  85 123 151 192 246 290 342
#     4  10  21  36  56  72 108 157 204 229 275 354
#     4   8  16  33  51  71 107 143 183 221 284 357
#     4   9  17  32  51  77 108 141 179 231 290 344
#
# _framework density 20.632387000000001
#
# number of rings (size 3 to 8) (size 9 to 14) (size 15 to 20)
#    0.000    2.000    4.286    0.429    6.000    1.143 
#    0.000    0.000    0.000    0.000    0.000    2.000 
#    0.000    0.000    0.000    0.000    0.000    0.000 
#
# Total GULP energy -155935.077778 kJ/mol
# GULP energy per Si atom -5569.109921 kJ/mol
# Density = 2.058543 g / cm^3
# Si number density = 20.632387 Si / 1000 Ang^3
#
#
#
# Elastic Constant Matrix: (Units=GPa)
#
#
# Indices 1 2 3 4 5 6 
#
# 1 55.2186 -9.5262 28.4674 0.0000 14.4753 0.0000
# 2 -9.5262 56.5762 10.7633 0.0000 -1.2552 0.0000
# 3 28.4674 10.7633 102.6525 0.0000 14.1390 0.0000
# 4 0.0000 0.0000 0.0000 24.4288 0.0000 -7.7707
# 5 14.4753 -1.2552 14.1390 0.0000 49.6344 0.0000
# 6 0.0000 0.0000 0.0000 -7.7707 0.0000 2.4782
#
#
#
# Elastic Compliance Matrix: (Units=1/GPa)
#
#
# Indices 1 2 3 4 5 6 
#
# 1 0.023571 0.005075 -0.006390 0.000000 -0.004926 0.000000
# 2 0.005075 0.019179 -0.003415 0.000000 -0.000022 0.000000
# 3 -0.006390 -0.003415 0.012102 0.000000 -0.001670 0.000000
# 4 0.000000 0.000000 0.000000 16.016004 0.000000 50.220901
# 5 -0.004926 -0.000022 -0.001670 0.000000 0.022059 0.000000
# 6 0.000000 0.000000 0.000000 50.220901 0.000000157.879694
#
#
# Mechanical properties :
#
#
# Convention : Reuss Voigt Hill
#
# Bulk Modulus (GPa) = 22.03067 30.42848 26.22957
# Shear Modulus (GPa) = 0.02874 27.62444 13.82659
#
# Velocity S-wave (km/s) = 0.11814 3.66305 2.59151
# Velocity P-wave (km/s) = 3.27407 5.71581 4.65779
#
# Compressibility (1/GPa) = 0.04539127
#
# Stress axis : x y z
#
# Youngs Moduli (GPa) = 42.42465 52.14002 82.63137
#
# Poissons Ratio (x) = -0.26463 0.52805
# Poissons Ratio (y) = -0.21532 0.28222
# Poissons Ratio (z) = 0.27111 0.17808
#
# Static dielectric constant tensor:
#      x y z
#    x 1.785090 0.000000 -0.038980 
#    y 0.000000 1.824350 0.000000 
#    z -0.038980 0.000000 1.916280 
# 
# From -- ./inp_files/2969.got.cif
#   From: 2010.05.17/outbox.cif.g08.bks.cpg/sg14_2_cif.got.tgz:2969.got - 2010.06.03 17:49:19.
