data_PCOD9244393
_publ_section_title
;
Structure prediction by ZEFSAII (Michael W. Deem and Ramdas Pophale) SiO2 
 PCOD9244393
Probable space group: P 21/C
;
_chemical_formula_sum "Si O2"
_cell_formula_units_Z 30
_cell_length_a 12.937382
_cell_length_b 10.565179
_cell_length_c 8.691745
_cell_angle_alpha 90.000000
_cell_angle_beta 99.242126
_cell_angle_gamma 90.000000
_cell_volume 1172.615168
_symmetry_space_group_name_H-M "P 21/C"
_symmetry_group_IT_number 14
_symmetry_cell_setting 'monoclinic'
loop_
_space_group_symop_operation_xyz
x,y,z
-x,1/2+y,1/2-z
-x,-y,-z
x,1/2-y,1/2+z
loop_
_atom_site_type_symbol
_atom_site_label
_atom_site_fract_x
_atom_site_fract_y
_atom_site_fract_z
Si Si1 0.742815 0.993443 0.886477
Si Si2 0.475193 0.079915 0.147693
Si Si3 0.017616 0.863379 0.427778
Si Si4 0.500000 0.000000 0.500000
Si Si5 0.758577 0.391400 0.906686
Si Si6 0.274545 0.384885 0.932702
Si Si7 0.110005 0.331300 0.402213
Si Si8 0.664056 0.210740 0.080790
O O1 0.647785 0.892548 0.882566
O O2 0.766181 0.981101 0.712757
O O3 0.841566 0.954607 0.008493
O O4 0.691837 0.120426 0.942129
O O5 0.503597 0.003804 0.308750
O O6 0.554251 0.194600 0.140377
O O7 0.500000 0.000000 0.000000
O O8 0.973406 0.866369 0.246590
O O9 0.951156 0.754736 0.492182
O O10 0.138773 0.834181 0.489976
O O11 0.000000 0.000000 0.500000
O O12 0.399745 0.105460 0.464984
O O13 0.761554 0.543072 0.918804
O O14 0.664611 0.347492 0.000374
O O15 0.742030 0.335617 0.734099
O O16 0.209837 0.258048 0.882111
#
# Coordination Sequence:
#
# PCOD9244393 Si02
#       8
#     4   4   4   2   4   4   4   4
#     4  10  23  43  67 100 142 180 239 301 360 449
#     4   9  20  40  67 104 141 190 239 292 371 444
#     4  12  26  47  70 103 141 194 250 310 378 444
#     4  10  20  40  70 102 146 188 236 290 370 452
#     4  12  24  43  70  97 140 181 243 296 369 435
#     4  11  23  43  69 103 138 188 237 298 369 454
#     4  12  25  45  71 103 140 183 248 308 372 438
#     4  11  23  43  68 103 139 190 232 304 367 448
#
# _framework density 25.583841
#
# number of rings (size 3 to 8) (size 9 to 14) (size 15 to 20)
#    0.000    1.067    4.000    2.400    0.000    1.067 
#    0.000    2.000    0.000    0.000    0.000    0.000 
#    0.000    0.000    0.000    0.000    0.000    0.000 
#
# Total GULP energy -167255.854287 kJ/mol
# GULP energy per Si atom -5575.195143 kJ/mol
# Density = 2.552561 g / cm^3
# Si number density = 25.583841 Si / 1000 Ang^3
#
#
#
# Elastic Constant Matrix: (Units=GPa)
#
#
# Indices 1 2 3 4 5 6 
#
# 1 57.6477 -22.0314 0.5381 0.0000 20.5907 0.0000
# 2 -22.0314 50.9738 5.7917 0.0000 -1.7656 0.0000
# 3 0.5381 5.7917 152.6146 0.0000 19.3835 0.0000
# 4 0.0000 0.0000 0.0000 43.6390 0.0000 5.5988
# 5 20.5907 -1.7656 19.3835 0.0000 49.2726 0.0000
# 6 0.0000 0.0000 0.0000 5.5988 0.0000 31.3424
#
#
#
# Elastic Compliance Matrix: (Units=1/GPa)
#
#
# Indices 1 2 3 4 5 6 
#
# 1 0.025016 0.010356 0.000841 0.000000 -0.010414 0.000000
# 2 0.010356 0.024042 -0.000535 0.000000 -0.003256 0.000000
# 3 0.000841 -0.000535 0.006965 0.000000 -0.003111 0.000000
# 4 0.000000 0.000000 0.000000 0.023453 0.000000 -0.004189
# 5 -0.010414 -0.003256 -0.003111 0.000000 0.025754 0.000000
# 6 0.000000 0.000000 0.000000 -0.004189 0.000000 0.032654
#
#
# Mechanical properties :
#
#
# Convention : Reuss Voigt Hill
#
# Bulk Modulus (GPa) = 12.92867 25.53698 19.23283
# Shear Modulus (GPa) = 35.12646 43.31329 39.21988
#
# Velocity S-wave (km/s) = 3.70941 4.11906 3.91959
# Velocity P-wave (km/s) = 4.83847 5.71188 5.29322
#
# Compressibility (1/GPa) = 0.07734748
#
# Stress axis : x y z
#
# Youngs Moduli (GPa) = 39.97376 41.59392 143.57701
#
# Poissons Ratio (x) = -0.43075 -0.12082
# Poissons Ratio (y) = -0.41397 0.07687
# Poissons Ratio (z) = -0.03364 0.02227
#
# Static dielectric constant tensor:
#      x y z
#    x 2.437520 0.000000 0.063090 
#    y 0.000000 2.195570 0.000000 
#    z 0.063090 0.000000 2.011790 
# 
# From -- ./inp_files/15599.got.cif
#   From: 2010.05.17/outbox.cif.g08.bks.cpg/sg14_8_cif.got.tgz:15599.got - 2010.06.03 17:49:19.
