data_PCOD9244544
_publ_section_title
;
Structure prediction by ZEFSAII (Michael W. Deem and Ramdas Pophale) SiO2 
 PCOD9244544
Probable space group: P 21/C
;
_chemical_formula_sum "Si O2"
_cell_formula_units_Z 30
_cell_length_a 5.156806
_cell_length_b 21.964381
_cell_length_c 11.854611
_cell_angle_alpha 90.000000
_cell_angle_beta 73.535525
_cell_angle_gamma 90.000000
_cell_volume 1287.667415
_symmetry_space_group_name_H-M "P 21/C"
_symmetry_group_IT_number 14
_symmetry_cell_setting 'monoclinic'
loop_
_space_group_symop_operation_xyz
x,y,z
-x,1/2+y,1/2-z
-x,-y,-z
x,1/2-y,1/2+z
loop_
_atom_site_type_symbol
_atom_site_label
_atom_site_fract_x
_atom_site_fract_y
_atom_site_fract_z
Si Si1 0.267283 0.474593 0.244643
Si Si2 0.924534 0.358906 0.466895
Si Si3 0.780656 0.747801 0.166729
Si Si4 0.214416 0.804603 0.777616
Si Si5 0.749316 0.394090 0.261334
Si Si6 0.000000 0.500000 0.500000
Si Si7 0.352270 0.911895 0.585933
Si Si8 0.078435 0.141487 0.523065
O O1 0.485755 0.422343 0.238453
O O2 0.364722 0.521926 0.138914
O O3 0.971604 0.448534 0.249367
O O4 0.221419 0.508452 0.369647
O O5 0.138135 0.314983 0.379553
O O6 0.819329 0.324464 0.589622
O O7 0.707778 0.370330 0.393396
O O8 0.033754 0.425287 0.485569
O O9 0.947747 0.723344 0.253586
O O10 0.868679 0.702780 0.053639
O O11 0.466304 0.740144 0.229319
O O12 0.292083 0.864338 0.694742
O O13 0.907514 0.349500 0.157316
O O14 0.105970 0.902956 0.530421
O O15 0.632399 0.890138 0.496133
#
# Coordination Sequence:
#
# PCOD9244544 Si02
#       8
#     4   4   4   4   4   2   4   4
#     4  11  23  42  64 101 137 186 235 282 356 418
#     4  11  25  48  75 104 147 189 236 304 361 429
#     4  10  25  44  73 101 134 185 235 290 358 425
#     4  10  23  46  70 104 135 183 237 289 357 427
#     4  11  26  40  64 103 139 180 229 293 351 412
#     4  10  24  46  70 104 142 188 236 302 350 434
#     4  10  20  41  69  94 136 186 230 285 349 424
#     4  10  22  42  64  99 138 175 235 289 348 423
#
# _framework density 23.297939
#
# number of rings (size 3 to 8) (size 9 to 14) (size 15 to 20)
#    0.000    1.600    1.333    1.600    1.867   10.667 
#    7.200    0.000    0.000    0.000    0.000    0.000 
#    0.000    0.000    0.000    0.000    0.000    0.000 
#
# Total GULP energy -167424.216206 kJ/mol
# GULP energy per Si atom -5580.807207 kJ/mol
# Density = 2.324491 g / cm^3
# Si number density = 23.297939 Si / 1000 Ang^3
#
#
#
# Elastic Constant Matrix: (Units=GPa)
#
#
# Indices 1 2 3 4 5 6 
#
# 1 92.6670 9.6935 12.1023 0.0000 6.4408 0.0000
# 2 9.6935 97.0317 23.8499 0.0000 4.1843 0.0000
# 3 12.1023 23.8499 119.4800 0.0000 5.0426 0.0000
# 4 0.0000 0.0000 0.0000 35.0622 0.0000 -6.1972
# 5 6.4408 4.1843 5.0426 0.0000 18.2777 0.0000
# 6 0.0000 0.0000 0.0000 -6.1972 0.0000 23.1375
#
#
#
# Elastic Compliance Matrix: (Units=1/GPa)
#
#
# Indices 1 2 3 4 5 6 
#
# 1 0.011227 -0.000763 -0.000835 0.000000 -0.003551 0.000000
# 2 -0.000763 0.010956 -0.002039 0.000000 -0.001677 0.000000
# 3 -0.000835 -0.002039 0.008933 0.000000 -0.001704 0.000000
# 4 0.000000 0.000000 0.000000 0.029938 0.000000 0.008019
# 5 -0.003551 -0.001677 -0.001704 0.000000 0.056817 0.000000
# 6 0.000000 0.000000 0.000000 0.008019 0.000000 0.045368
#
#
# Mechanical properties :
#
#
# Convention : Reuss Voigt Hill
#
# Bulk Modulus (GPa) = 41.94343 44.49669 43.22006
# Shear Modulus (GPa) = 28.01759 32.86434 30.44096
#
# Velocity S-wave (km/s) = 3.47158 3.75989 3.61861
# Velocity P-wave (km/s) = 5.84049 6.16356 6.00420
#
# Compressibility (1/GPa) = 0.02384164
#
# Stress axis : x y z
#
# Youngs Moduli (GPa) = 89.07074 91.27758 111.94384
#
# Poissons Ratio (x) = 0.06966 0.09347
# Poissons Ratio (y) = 0.06798 0.22823
# Poissons Ratio (z) = 0.07437 0.18610
#
# Static dielectric constant tensor:
#      x y z
#    x 1.819370 0.000000 0.020230 
#    y 0.000000 1.858510 0.000000 
#    z 0.020230 0.000000 1.910430 
# 
# From -- ./inp_files/21762.got.cif
#   From: 2010.05.17/outbox.cif.g08.bks.cpg/sg14_11_cif.got.tgz:21762.got - 2010.06.03 17:49:19.
