data_PCOD9244178
_publ_section_title
;
Structure prediction by ZEFSAII (Michael W. Deem and Ramdas Pophale) SiO2 
 PCOD9244178
Probable space group: P 21/C
;
_chemical_formula_sum "Si O2"
_cell_formula_units_Z 32
_cell_length_a 9.326854
_cell_length_b 10.681073
_cell_length_c 23.537058
_cell_angle_alpha 90.000000
_cell_angle_beta 41.038057
_cell_angle_gamma 90.000000
_cell_volume 1539.489663
_symmetry_space_group_name_H-M "P 21/C"
_symmetry_group_IT_number 14
_symmetry_cell_setting 'monoclinic'
loop_
_space_group_symop_operation_xyz
x,y,z
-x,1/2+y,1/2-z
-x,-y,-z
x,1/2-y,1/2+z
loop_
_atom_site_type_symbol
_atom_site_label
_atom_site_fract_x
_atom_site_fract_y
_atom_site_fract_z
Si Si1 0.402067 0.934618 0.474469
Si Si2 0.177974 0.681248 0.787556
Si Si3 0.551296 0.849499 0.628148
Si Si4 0.270829 0.385015 0.497284
Si Si5 0.264825 0.281918 0.622224
Si Si6 0.829183 0.306560 0.591895
Si Si7 0.420125 0.056418 0.168707
Si Si8 0.981289 0.886141 0.550192
O O1 0.519336 0.801579 0.436292
O O2 0.139095 0.921927 0.554579
O O3 0.500000 0.000000 0.500000
O O4 0.460879 0.020424 0.402232
O O5 0.325829 0.793057 0.717167
O O6 0.165472 0.707491 0.858157
O O7 0.297812 0.552222 0.738895
O O8 0.941656 0.693798 0.829502
O O9 0.653709 0.747746 0.553403
O O10 0.724222 0.859690 0.628389
O O11 0.280474 0.369728 0.561926
O O12 0.428343 0.488258 0.424091
O O13 0.020657 0.403376 0.552063
O O14 0.250883 0.358759 0.684497
O O15 0.593256 0.366521 0.654174
O O16 0.904778 0.233894 0.513048
O O17 0.000000 0.000000 0.500000
#
# Coordination Sequence:
#
# PCOD9244178 Si02
#       8
#     4   4   4   4   4   4   4   4
#     4  11  20  35  62  91 114 151 204 253 294 347
#     4  10  25  40  57  86 128 161 194 241 299 358
#     4   9  19  38  58  84 120 156 197 248 296 345
#     4   9  19  38  63  86 116 151 197 254 300 347
#     4  11  22  39  60  88 122 160 195 244 304 358
#     4  10  20  40  61  88 117 157 201 243 299 352
#     4  11  22  40  62  88 119 160 200 245 299 361
#     4   9  19  35  61  87 112 147 201 255 291 336
#
# _framework density 20.786109
#
# number of rings (size 3 to 8) (size 9 to 14) (size 15 to 20)
#    0.000    2.000    2.500    0.750    3.500    2.000 
#    0.000    0.000    0.000    0.000    0.000    0.000 
#    0.000    0.000    0.000    0.000    0.000    0.000 
#
# Total GULP energy -178700.462709 kJ/mol
# GULP energy per Si atom -5584.389460 kJ/mol
# Density = 2.073880 g / cm^3
# Si number density = 20.786109 Si / 1000 Ang^3
#
#
#
# Elastic Constant Matrix: (Units=GPa)
#
#
# Indices 1 2 3 4 5 6 
#
# 1 133.9851 25.1532 21.6692 0.0000 -27.4661 0.0000
# 2 25.1532 49.7291 -4.1894 0.0000 -5.2504 0.0000
# 3 21.6692 -4.1894 43.0218 0.0000 -7.6573 0.0000
# 4 0.0000 0.0000 0.0000 25.6279 0.0000 -3.3170
# 5 -27.4661 -5.2504 -7.6573 0.0000 24.4037 0.0000
# 6 0.0000 0.0000 0.0000 -3.3170 0.0000 25.7230
#
#
#
# Elastic Compliance Matrix: (Units=1/GPa)
#
#
# Indices 1 2 3 4 5 6 
#
# 1 0.011168 -0.004938 -0.004298 0.000000 0.010159 0.000000
# 2 -0.004938 0.023121 0.004909 0.000000 0.000957 0.000000
# 3 -0.004298 0.004909 0.026705 0.000000 0.004598 0.000000
# 4 0.000000 0.000000 0.000000 0.039682 0.000000 0.005117
# 5 0.010159 0.000957 0.004598 0.000000 0.054059 0.000000
# 6 0.000000 0.000000 0.000000 0.005117 0.000000 0.039536
#
#
# Mechanical properties :
#
#
# Convention : Reuss Voigt Hill
#
# Bulk Modulus (GPa) = 19.10567 34.66690 26.88628
# Shear Modulus (GPa) = 22.68876 27.42445 25.05661
#
# Velocity S-wave (km/s) = 3.30742 3.63625 3.47573
# Velocity P-wave (km/s) = 4.87821 5.86036 5.39169
#
# Compressibility (1/GPa) = 0.05234048
#
# Stress axis : x y z
#
# Youngs Moduli (GPa) = 89.54030 43.24994 37.44571
#
# Poissons Ratio (x) = 0.21359 0.16094
# Poissons Ratio (y) = 0.44219 -0.18383
# Poissons Ratio (z) = 0.38484 -0.21232
#
# Static dielectric constant tensor:
#      x y z
#    x 1.753200 0.000000 -0.001200 
#    y 0.000000 1.760310 0.000000 
#    z -0.001200 0.000000 1.740450 
# 
# From -- ./inp_files/76609.got.cif
#   From: 2010.05.17/outbox.cif.g08.bks.cpg/sg14_39_cif.got.tgz:76609.got - 2010.06.03 17:49:19.
