data_PCOD9244686
_publ_section_title
;
Structure prediction by ZEFSAII (Michael W. Deem and Ramdas Pophale) SiO2 
 PCOD9244686
Probable space group: P 21/C
;
_chemical_formula_sum "Si O2"
_cell_formula_units_Z 30
_cell_length_a 8.410261
_cell_length_b 8.575707
_cell_length_c 25.199512
_cell_angle_alpha 90.000000
_cell_angle_beta 136.030909
_cell_angle_gamma 90.000000
_cell_volume 1261.827739
_symmetry_space_group_name_H-M "P 21/C"
_symmetry_group_IT_number 14
_symmetry_cell_setting 'monoclinic'
loop_
_space_group_symop_operation_xyz
x,y,z
-x,1/2+y,1/2-z
-x,-y,-z
x,1/2-y,1/2+z
loop_
_atom_site_type_symbol
_atom_site_label
_atom_site_fract_x
_atom_site_fract_y
_atom_site_fract_z
Si Si1 0.242864 0.437131 0.932112
Si Si2 0.000000 0.000000 0.500000
Si Si3 0.308306 0.302522 0.576790
Si Si4 0.234629 0.940757 0.640143
Si Si5 0.540238 0.762025 0.774614
Si Si6 0.211739 0.848063 0.326759
Si Si7 0.905491 0.576862 0.292352
Si Si8 0.744365 0.927713 0.044554
O O1 0.152817 0.528664 0.859001
O O2 0.248800 0.250966 0.932979
O O3 0.046792 0.474818 0.930573
O O4 0.500000 0.500000 0.000000
O O5 0.110233 0.177345 0.537034
O O6 0.255775 0.921828 0.582947
O O7 0.401592 0.352029 0.656847
O O8 0.529885 0.213603 0.605370
O O9 0.232811 0.423186 0.513708
O O10 0.374981 0.086671 0.695898
O O11 0.287646 0.798229 0.691637
O O12 0.691349 0.831075 0.763804
O O13 0.052753 0.697768 0.293540
O O14 0.174308 0.933339 0.262346
O O15 0.061882 0.523565 0.378843
O O16 0.500000 0.000000 0.000000
#
# Coordination Sequence:
#
# PCOD9244686 Si02
#       8
#     4   2   4   4   4   4   4   4
#     4  12  23  44  75 107 145 192 246 311 374 452
#     4  10  20  42  70 102 138 198 244 290 374 454
#     4  11  24  44  72 103 148 190 249 306 372 459
#     4  11  24  44  73 106 146 196 246 309 373 459
#     4  11  27  45  71 105 150 191 243 307 383 453
#     4  12  25  46  71 108 139 191 250 303 378 449
#     4  12  26  46  72 105 146 193 245 313 378 454
#     4  12  25  45  73 108 148 191 248 319 375 442
#
# _framework density 23.775034000000002
#
# number of rings (size 3 to 8) (size 9 to 14) (size 15 to 20)
#    0.000    0.533    5.333    2.400    5.600    0.533 
#    2.400    1.333    0.000    0.000    0.000    0.000 
#    0.000    0.000    0.000    0.000    0.000    0.000 
#
# Total GULP energy -167400.622483 kJ/mol
# GULP energy per Si atom -5580.020749 kJ/mol
# Density = 2.372092 g / cm^3
# Si number density = 23.775034 Si / 1000 Ang^3
#
#
#
# Elastic Constant Matrix: (Units=GPa)
#
#
# Indices 1 2 3 4 5 6 
#
# 1 66.0753 19.7324 1.2899 0.0000 13.3449 0.0000
# 2 19.7324 79.3488 32.9179 0.0000 9.3308 0.0000
# 3 1.2899 32.9179 140.2086 0.0000 -10.1770 0.0000
# 4 0.0000 0.0000 0.0000 55.8975 0.0000 -6.5402
# 5 13.3449 9.3308 -10.1770 0.0000 35.5959 0.0000
# 6 0.0000 0.0000 0.0000 -6.5402 0.0000 46.5292
#
#
#
# Elastic Compliance Matrix: (Units=1/GPa)
#
#
# Indices 1 2 3 4 5 6 
#
# 1 0.017362 -0.003825 0.000346 0.000000 -0.005407 0.000000
# 2 -0.003825 0.015618 -0.003906 0.000000 -0.003777 0.000000
# 3 0.000346 -0.003906 0.008283 0.000000 0.003262 0.000000
# 4 0.000000 0.000000 0.000000 0.018189 0.000000 0.002557
# 5 -0.005407 -0.003777 0.003262 0.000000 0.032043 0.000000
# 6 0.000000 0.000000 0.000000 0.002557 0.000000 0.021851
#
#
# Mechanical properties :
#
#
# Convention : Reuss Voigt Hill
#
# Bulk Modulus (GPa) = 37.74605 43.72369 40.73487
# Shear Modulus (GPa) = 36.51036 43.05067 39.78052
#
# Velocity S-wave (km/s) = 3.92300 4.25991 4.09492
# Velocity P-wave (km/s) = 6.03579 6.52888 6.28717
#
# Compressibility (1/GPa) = 0.02649284
#
# Stress axis : x y z
#
# Youngs Moduli (GPa) = 57.59726 64.02772 120.73176
#
# Poissons Ratio (x) = 0.24492 -0.04175
# Poissons Ratio (y) = 0.22032 0.47155
# Poissons Ratio (z) = -0.01992 0.25008
#
# Static dielectric constant tensor:
#      x y z
#    x 1.222570 0.000000 0.752960 
#    y 0.000000 1.878210 0.000000 
#    z 0.752960 0.000000 1.309140 
# 
# From -- ./inp_files/76517.got.cif
#   From: 2010.05.17/outbox.cif.g08.bks.cpg/sg14_39_cif.got.tgz:76517.got - 2010.06.03 17:49:19.
