data_PCOD9244131
_publ_section_title
;
Structure prediction by ZEFSAII (Michael W. Deem and Ramdas Pophale) SiO2 
 PCOD9244131
Probable space group: P 21/C
;
_chemical_formula_sum "Si O2"
_cell_formula_units_Z 24
_cell_length_a 12.517328
_cell_length_b 11.765056
_cell_length_c 13.612696
_cell_angle_alpha 90.000000
_cell_angle_beta 154.566153
_cell_angle_gamma 90.000000
_cell_volume 860.956662
_symmetry_space_group_name_H-M "P 21/C"
_symmetry_group_IT_number 14
_symmetry_cell_setting 'monoclinic'
loop_
_space_group_symop_operation_xyz
x,y,z
-x,1/2+y,1/2-z
-x,-y,-z
x,1/2-y,1/2+z
loop_
_atom_site_type_symbol
_atom_site_label
_atom_site_fract_x
_atom_site_fract_y
_atom_site_fract_z
Si Si1 0.756403 0.096624 0.493396
Si Si2 0.695934 0.484170 0.467017
Si Si3 0.950951 0.625386 0.518033
Si Si4 0.749069 0.862913 0.419719
Si Si5 0.474384 0.671775 0.997400
Si Si6 0.242672 0.394897 0.294969
O O1 0.515401 0.082445 0.226796
O O2 0.671594 0.152937 0.522154
O O3 0.989903 0.152248 0.635247
O O4 0.818186 0.958537 0.557042
O O5 0.887620 0.526266 0.543831
O O6 0.552068 0.367481 0.323526
O O7 0.714904 0.496801 0.600614
O O8 0.877267 0.742452 0.515409
O O9 0.747891 0.622594 0.259472
O O10 0.246551 0.629608 0.738465
O O11 0.803356 0.916476 0.357420
O O12 0.551071 0.797195 0.029337
#
# Coordination Sequence:
#
# PCOD9244131 Si02
#       6
#     4   4   4   4   4   4
#     4   9  20  36  50  87 117 151 186 246 278 352
#     4   9  20  34  55  82 123 145 195 241 281 351
#     4  10  20  40  52  84 118 162 182 231 293 354
#     4   9  21  33  59  88 117 152 192 240 303 340
#     4  10  22  36  56  80 121 155 189 227 296 351
#     4  11  19  33  60  86 116 149 192 244 302 337
#
# _framework density 27.875968
#
# number of rings (size 3 to 8) (size 9 to 14) (size 15 to 20)
#    1.000    1.333    1.667    1.000    4.667    2.667 
#    0.000    0.000    0.000    1.000    0.000    7.000 
#    0.000    0.000    0.000    0.000    0.000    0.000 
#
# Total GULP energy -133601.637984 kJ/mol
# GULP energy per Si atom -5566.734916 kJ/mol
# Density = 2.781252 g / cm^3
# Si number density = 27.875968 Si / 1000 Ang^3
#
#
#
# Elastic Constant Matrix: (Units=GPa)
#
#
# Indices 1 2 3 4 5 6 
#
# 1 83.2511 29.5307 44.2767 0.0000 8.0673 0.0000
# 2 29.5307 111.1850 51.5392 0.0000 8.1877 0.0000
# 3 44.2767 51.5392 158.1109 0.0000 0.1632 0.0000
# 4 0.0000 0.0000 0.0000 19.3508 0.0000 -3.1729
# 5 8.0673 8.1877 0.1632 0.0000 37.4945 0.0000
# 6 0.0000 0.0000 0.0000 -3.1729 0.0000 30.8440
#
#
#
# Elastic Compliance Matrix: (Units=1/GPa)
#
#
# Indices 1 2 3 4 5 6 
#
# 1 0.014879 -0.002146 -0.003464 0.000000 -0.002718 0.000000
# 2 -0.002146 0.011106 -0.003017 0.000000 -0.001950 0.000000
# 3 -0.003464 -0.003017 0.008277 0.000000 0.001368 0.000000
# 4 0.000000 0.000000 0.000000 0.052564 0.000000 0.005407
# 5 -0.002718 -0.001950 0.001368 0.000000 0.027675 0.000000
# 6 0.000000 0.000000 0.000000 0.005407 0.000000 0.032977
#
#
# Mechanical properties :
#
#
# Convention : Reuss Voigt Hill
#
# Bulk Modulus (GPa) = 58.79919 67.02669 62.91294
# Shear Modulus (GPa) = 29.34221 32.68454 31.01338
#
# Velocity S-wave (km/s) = 3.24790 3.42789 3.33911
# Velocity P-wave (km/s) = 5.93330 6.30588 6.12242
#
# Compressibility (1/GPa) = 0.01700704
#
# Stress axis : x y z
#
# Youngs Moduli (GPa) = 67.20946 90.03922 120.81715
#
# Poissons Ratio (x) = 0.19321 0.41855
# Poissons Ratio (y) = 0.14422 0.36455
# Poissons Ratio (z) = 0.23284 0.27168
#
# Static dielectric constant tensor:
#      x y z
#    x 2.093920 0.000000 -0.076440 
#    y 0.000000 2.208230 0.000000 
#    z -0.076440 0.000000 2.599820 
# 
# From -- ./inp_files/59635.got.cif
#   From: 2010.05.17/outbox.cif.g08.bks.cpg/sg14_30_cif.got.tgz:59635.got - 2010.06.03 17:49:19.
