data_PCOD9244980
_publ_section_title
;
Structure prediction by ZEFSAII (Michael W. Deem and Ramdas Pophale) SiO2 
 PCOD9244980
Probable space group: P 21/C
;
_chemical_formula_sum "Si O2"
_cell_formula_units_Z 28
_cell_length_a 8.656130
_cell_length_b 16.538409
_cell_length_c 10.030946
_cell_angle_alpha 90.000000
_cell_angle_beta 98.738909
_cell_angle_gamma 90.000000
_cell_volume 1419.345568
_symmetry_space_group_name_H-M "P 21/C"
_symmetry_group_IT_number 14
_symmetry_cell_setting 'monoclinic'
loop_
_space_group_symop_operation_xyz
x,y,z
-x,1/2+y,1/2-z
-x,-y,-z
x,1/2-y,1/2+z
loop_
_atom_site_type_symbol
_atom_site_label
_atom_site_fract_x
_atom_site_fract_y
_atom_site_fract_z
Si Si1 0.895060 0.232112 0.839686
Si Si2 0.308885 0.398675 0.988609
Si Si3 0.610536 0.752723 0.694411
Si Si4 0.376250 0.879629 0.076532
Si Si5 0.538471 0.008640 0.690263
Si Si6 0.087429 0.300635 0.104269
Si Si7 0.343148 0.864323 0.765076
O O1 0.965523 0.198982 0.710462
O O2 0.763372 0.171225 0.874925
O O3 0.813360 0.319156 0.801474
O O4 0.018575 0.247264 0.974454
O O5 0.453868 0.416875 0.106078
O O6 0.149364 0.384769 0.048416
O O7 0.339235 0.316438 0.911852
O O8 0.325929 0.470499 0.883262
O O9 0.532384 0.674372 0.617135
O O10 0.756919 0.734449 0.806635
O O11 0.477494 0.796906 0.763434
O O12 0.400201 0.962144 0.160102
O O13 0.337187 0.889697 0.917387
O O14 0.404630 0.940427 0.688865
#
# Coordination Sequence:
#
# PCOD9244980 Si02
#       7
#     4   4   4   4   4   4   4
#     4  11  25  38  65  94 134 161 217 265 323 367
#     4  10  21  38  62  96 126 162 215 258 309 382
#     4  10  21  35  68  91 119 165 224 267 304 366
#     4  11  21  39  62  94 124 170 212 270 309 374
#     4  10  22  39  65  92 128 168 213 261 316 379
#     4  12  21  41  64  95 126 167 206 269 317 376
#     4  10  22  40  61  94 126 170 212 266 313 381
#
# _framework density 19.727401
#
# number of rings (size 3 to 8) (size 9 to 14) (size 15 to 20)
#    0.000    1.429    4.286    1.286    2.000    2.286 
#    0.000    2.857    0.000    5.143    0.000    0.000 
#    0.000    0.000    0.000    0.000    0.000    0.000 
#
# Total GULP energy -156256.154102 kJ/mol
# GULP energy per Si atom -5580.576932 kJ/mol
# Density = 1.968250 g / cm^3
# Si number density = 19.727401 Si / 1000 Ang^3
#
#
#
# Elastic Constant Matrix: (Units=GPa)
#
#
# Indices 1 2 3 4 5 6 
#
# 1 80.6383 23.9841 34.4732 0.0000 -1.9265 0.0000
# 2 23.9841 47.2625 21.4939 0.0000 2.6414 0.0000
# 3 34.4732 21.4939 95.7016 0.0000 -19.8803 0.0000
# 4 0.0000 0.0000 0.0000 28.3796 0.0000 -0.8807
# 5 -1.9265 2.6414 -19.8803 0.0000 27.4776 0.0000
# 6 0.0000 0.0000 0.0000 -0.8807 0.0000 28.0852
#
#
#
# Elastic Compliance Matrix: (Units=1/GPa)
#
#
# Indices 1 2 3 4 5 6 
#
# 1 0.016203 -0.005893 -0.004895 0.000000 -0.001839 0.000000
# 2 -0.005893 0.026975 -0.005366 0.000000 -0.006889 0.000000
# 3 -0.004895 -0.005366 0.015833 0.000000 0.011628 0.000000
# 4 0.000000 0.000000 0.000000 0.035271 0.000000 0.001106
# 5 -0.001839 -0.006889 0.011628 0.000000 0.045340 0.000000
# 6 0.000000 0.000000 0.000000 0.001106 0.000000 0.035641
#
#
# Mechanical properties :
#
#
# Convention : Reuss Voigt Hill
#
# Bulk Modulus (GPa) = 37.45181 42.61166 40.03173
# Shear Modulus (GPa) = 23.09778 26.36523 24.73151
#
# Velocity S-wave (km/s) = 3.42548 3.65975 3.54455
# Velocity P-wave (km/s) = 5.88821 6.28534 6.09002
#
# Compressibility (1/GPa) = 0.02670098
#
# Stress axis : x y z
#
# Youngs Moduli (GPa) = 61.71880 37.07182 63.15878
#
# Poissons Ratio (x) = 0.21848 0.30915
# Poissons Ratio (y) = 0.36373 0.33894
# Poissons Ratio (z) = 0.30210 0.19894
#
# Static dielectric constant tensor:
#      x y z
#    x 1.700790 0.000000 -0.027660 
#    y 0.000000 1.693970 0.000000 
#    z -0.027660 0.000000 1.713400 
# 
# From -- ./inp_files/9520.got.cif
#   From: 2010.05.17/outbox.cif.g08.bks.cpg/sg14_5_cif.got.tgz:9520.got - 2010.06.03 17:49:19.
