data_PCOD9244301
_publ_section_title
;
Structure prediction by ZEFSAII (Michael W. Deem and Ramdas Pophale) SiO2 
 PCOD9244301
Probable space group: P 21/C
;
_chemical_formula_sum "Si O2"
_cell_formula_units_Z 28
_cell_length_a 18.657787
_cell_length_b 12.119226
_cell_length_c 14.834675
_cell_angle_alpha 90.000000
_cell_angle_beta 20.987965
_cell_angle_gamma 90.000000
_cell_volume 1201.446655
_symmetry_space_group_name_H-M "P 21/C"
_symmetry_group_IT_number 14
_symmetry_cell_setting 'monoclinic'
loop_
_space_group_symop_operation_xyz
x,y,z
-x,1/2+y,1/2-z
-x,-y,-z
x,1/2-y,1/2+z
loop_
_atom_site_type_symbol
_atom_site_label
_atom_site_fract_x
_atom_site_fract_y
_atom_site_fract_z
Si Si1 0.711752 0.455157 0.779860
Si Si2 0.880261 0.330637 0.837990
Si Si3 0.238179 0.903089 0.971874
Si Si4 0.844024 0.792393 0.825337
Si Si5 0.819625 0.011148 0.782322
Si Si6 0.305495 0.450384 0.017692
Si Si7 0.813032 0.265815 0.227114
O O1 0.828264 0.442680 0.548778
O O2 0.789861 0.528018 0.770670
O O3 0.671203 0.332945 0.865147
O O4 0.500000 0.500000 0.000000
O O5 0.765087 0.446441 0.960296
O O6 0.920432 0.283127 0.690375
O O7 0.073981 0.333252 0.674454
O O8 0.754079 0.229870 0.031591
O O9 0.456127 0.949768 0.742884
O O10 0.099963 0.945279 0.215466
O O11 0.746437 0.673247 0.951478
O O12 0.031136 0.780000 0.536924
O O13 0.725743 0.892267 0.914648
O O14 0.706384 0.118897 0.877092
O O15 0.000000 0.000000 0.500000
#
# Coordination Sequence:
#
# PCOD9244301 Si02
#       7
#     4   4   4   4   4   4   4
#     4   9  18  37  63  91 123 164 215 262 320 375
#     4  10  22  37  63  89 125 165 213 261 323 371
#     4  10  20  40  66  87 128 172 206 269 329 374
#     4  11  22  38  62  90 126 168 214 257 320 383
#     4   9  21  38  63  87 126 168 211 255 320 373
#     4  10  24  37  62  99 127 162 219 267 317 390
#     4   9  19  38  59  88 123 164 207 268 310 366
#
# _framework density 23.305240000000001
#
# number of rings (size 3 to 8) (size 9 to 14) (size 15 to 20)
#    0.000    2.286    1.429    0.000    6.000    3.429 
#    0.000    0.000    0.000   11.143    0.000    0.000 
#    0.000    0.000    0.000    0.000    0.000    0.000 
#
# Total GULP energy -156060.354032 kJ/mol
# GULP energy per Si atom -5573.584073 kJ/mol
# Density = 2.325220 g / cm^3
# Si number density = 23.305240 Si / 1000 Ang^3
#
#
#
# Elastic Constant Matrix: (Units=GPa)
#
#
# Indices 1 2 3 4 5 6 
#
# 1 134.5508 59.8232 32.1937 0.0000 20.2648 0.0000
# 2 59.8232 186.5953 19.3725 0.0000 1.2779 0.0000
# 3 32.1937 19.3725 41.1989 0.0000 8.7051 0.0000
# 4 0.0000 0.0000 0.0000 30.8979 0.0000 -1.6789
# 5 20.2648 1.2779 8.7051 0.0000 29.7942 0.0000
# 6 0.0000 0.0000 0.0000 -1.6789 0.0000 45.5091
#
#
#
# Elastic Compliance Matrix: (Units=1/GPa)
#
#
# Indices 1 2 3 4 5 6 
#
# 1 0.010995 -0.002857 -0.006069 0.000000 -0.005583 0.000000
# 2 -0.002857 0.006386 -0.001197 0.000000 0.002019 0.000000
# 3 -0.006069 -0.001197 0.030583 0.000000 -0.004756 0.000000
# 4 0.000000 0.000000 0.000000 0.032430 0.000000 0.001196
# 5 -0.005583 0.002019 -0.004756 0.000000 0.038664 0.000000
# 6 0.000000 0.000000 0.000000 0.001196 0.000000 0.022018
#
#
# Mechanical properties :
#
#
# Convention : Reuss Voigt Hill
#
# Bulk Modulus (GPa) = 36.07732 65.01376 50.54554
# Shear Modulus (GPa) = 29.31530 37.97060 33.64295
#
# Velocity S-wave (km/s) = 3.55051 4.04080 3.80357
# Velocity P-wave (km/s) = 5.68526 7.05181 6.40508
#
# Compressibility (1/GPa) = 0.02771824
#
# Stress axis : x y z
#
# Youngs Moduli (GPa) = 90.94828 156.60427 32.69823
#
# Poissons Ratio (x) = 0.44739 0.19845
# Poissons Ratio (y) = 0.25982 0.03913
# Poissons Ratio (z) = 0.55197 0.18743
#
# Static dielectric constant tensor:
#      x y z
#    x 1.904010 0.000000 0.039010 
#    y 0.000000 1.968430 0.000000 
#    z 0.039010 0.000000 1.931620 
# 
# From -- ./inp_files/48754.got.cif
#   From: 2010.05.17/outbox.cif.g08.bks.cpg/sg14_25_cif.got.tgz:48754.got - 2010.06.03 17:49:19.
