data_PCOD9244988
_publ_section_title
;
Structure prediction by ZEFSAII (Michael W. Deem and Ramdas Pophale) SiO2 
 PCOD9244988
Probable space group: P 21/C
;
_chemical_formula_sum "Si O2"
_cell_formula_units_Z 28
_cell_length_a 17.950252
_cell_length_b 16.662734
_cell_length_c 5.139142
_cell_angle_alpha 90.000000
_cell_angle_beta 77.223667
_cell_angle_gamma 90.000000
_cell_volume 1499.060928
_symmetry_space_group_name_H-M "P 21/C"
_symmetry_group_IT_number 14
_symmetry_cell_setting 'monoclinic'
loop_
_space_group_symop_operation_xyz
x,y,z
-x,1/2+y,1/2-z
-x,-y,-z
x,1/2-y,1/2+z
loop_
_atom_site_type_symbol
_atom_site_label
_atom_site_fract_x
_atom_site_fract_y
_atom_site_fract_z
Si Si1 0.500000 0.556902 0.750000
Si Si2 0.378329 0.196089 0.885869
Si Si3 0.088300 0.052816 0.211935
Si Si4 0.378331 0.803910 0.385875
Si Si5 0.198079 0.198359 0.987793
Si Si6 0.911699 0.447185 0.788066
Si Si7 0.198080 0.801641 0.487801
O O1 0.500000 0.500000 0.500000
O O2 0.572380 0.616544 0.687789
O O3 0.427621 0.616545 0.812212
O O4 0.500000 0.500000 0.000000
O O5 0.395452 0.259807 0.644194
O O6 0.287939 0.177757 0.942304
O O7 0.145501 0.123849 0.100182
O O8 0.999999 0.079374 0.250005
O O9 0.099507 0.017896 0.491614
O O10 0.099505 0.982105 0.991615
O O11 0.395453 0.759808 0.644201
O O12 0.287940 0.822242 0.442309
O O13 0.183577 0.268334 0.210499
O O14 0.854497 0.376152 0.899813
O O15 0.183578 0.768333 0.210509
#
# Coordination Sequence:
#
# PCOD9244988 Si02
#       7
#     4   4   4   4   4   4   4
#     4  12  24  36  56  86 110 136 180 224 262 310
#     4  10  21  39  58  77 108 146 177 213 269 323
#     4  10  21  36  54  78 110 145 176 214 270 322
#     4  10  21  39  58  77 108 146 177 213 269 323
#     4  10  21  36  57  82 105 138 183 223 261 311
#     4  10  21  36  54  78 110 145 176 214 270 322
#     4  10  21  36  57  82 105 138 183 223 261 311
#
# _framework density 18.678359
#
# number of rings (size 3 to 8) (size 9 to 14) (size 15 to 20)
#    0.000    1.714    0.000    4.286    0.000    3.429 
#    0.000    0.000    0.000    0.000    0.000    0.000 
#    0.000    0.000    0.000    0.000    0.000    0.000 
#
# Total GULP energy -156506.061433 kJ/mol
# GULP energy per Si atom -5589.502194 kJ/mol
# Density = 1.863585 g / cm^3
# Si number density = 18.678359 Si / 1000 Ang^3
#
#
#
# Elastic Constant Matrix: (Units=GPa)
#
#
# Indices 1 2 3 4 5 6 
#
# 1 42.9780 48.5421 29.0234 0.0000 -21.5646 0.0000
# 2 48.5421 94.0697 33.5092 0.0000 -35.8203 0.0000
# 3 29.0234 33.5092 107.0223 0.0000 -10.0417 0.0000
# 4 0.0000 0.0000 0.0000 63.7400 0.0000 -32.6997
# 5 -21.5646 -35.8203 -10.0417 0.0000 29.9762 0.0000
# 6 0.0000 0.0000 0.0000 -32.6997 0.0000 37.6427
#
#
#
# Elastic Compliance Matrix: (Units=1/GPa)
#
#
# Indices 1 2 3 4 5 6 
#
# 1 0.063435 -0.024735 -0.008208 0.000000 0.013328 0.000000
# 2 -0.024735 0.031011 -0.001233 0.000000 0.018850 0.000000
# 3 -0.008208 -0.001233 0.011629 0.000000 -0.003483 0.000000
# 4 0.000000 0.000000 0.000000 0.028301 0.000000 0.024585
# 5 0.013328 0.018850 -0.003483 0.000000 0.064306 0.000000
# 6 0.000000 0.000000 0.000000 0.024585 0.000000 0.047922
#
#
# Mechanical properties :
#
#
# Convention : Reuss Voigt Hill
#
# Bulk Modulus (GPa) = 26.50894 51.80216 39.15555
# Shear Modulus (GPa) = 15.26569 35.13814 25.20191
#
# Velocity S-wave (km/s) = 2.86193 4.34201 3.67721
# Velocity P-wave (km/s) = 5.01438 7.27540 6.24802
#
# Compressibility (1/GPa) = 0.03772312
#
# Stress axis : x y z
#
# Youngs Moduli (GPa) = 15.76405 32.24617 85.99134
#
# Poissons Ratio (x) = 0.79762 0.70580
# Poissons Ratio (y) = 0.38993 0.10604
# Poissons Ratio (z) = 0.12939 0.03976
#
# Static dielectric constant tensor:
#      x y z
#    x 1.630710 0.000000 -0.005100 
#    y 0.000000 1.589960 0.000000 
#    z -0.005100 0.000000 1.635700 
# 
# From -- ./inp_files/4168.got.cif
#   From: 2010.05.17/outbox.cif.g08.bks.cpg/sg14_3_cif.got.tgz:4168.got - 2010.06.03 17:49:19.
