data_PCOD9244559
_publ_section_title
;
Structure prediction by ZEFSAII (Michael W. Deem and Ramdas Pophale) SiO2 
 PCOD9244559
Probable space group: P 21/C
;
_chemical_formula_sum "Si O2"
_cell_formula_units_Z 26
_cell_length_a 15.452196
_cell_length_b 5.049859
_cell_length_c 12.607536
_cell_angle_alpha 90.000000
_cell_angle_beta 95.175182
_cell_angle_gamma 90.000000
_cell_volume 979.773491
_symmetry_space_group_name_H-M "P 21/C"
_symmetry_group_IT_number 14
_symmetry_cell_setting 'monoclinic'
loop_
_space_group_symop_operation_xyz
x,y,z
-x,1/2+y,1/2-z
-x,-y,-z
x,1/2-y,1/2+z
loop_
_atom_site_type_symbol
_atom_site_label
_atom_site_fract_x
_atom_site_fract_y
_atom_site_fract_z
Si Si1 0.513071 0.118865 0.826256
Si Si2 0.702398 0.202598 0.350408
Si Si3 0.665647 0.577579 0.621686
Si Si4 0.000000 0.500000 0.500000
Si Si5 0.795283 0.914566 0.717524
Si Si6 0.815552 0.248500 0.030295
Si Si7 0.040386 0.128552 0.705727
O O1 0.481419 0.348440 0.740833
O O2 0.607360 0.205235 0.878156
O O3 0.436738 0.087313 0.904091
O O4 0.762489 0.445067 0.318598
O O5 0.767703 0.063211 0.439184
O O6 0.680443 0.046459 0.240696
O O7 0.733637 0.435783 0.553150
O O8 0.705975 0.864432 0.644086
O O9 0.101585 0.591586 0.500901
O O10 0.026869 0.260510 0.590323
O O11 0.844603 0.099282 0.639417
O O12 0.859667 0.672659 0.747552
O O13 0.010927 0.823781 0.715811
#
# Coordination Sequence:
#
# PCOD9244559 Si02
#       7
#     4   4   4   2   4   4   4
#     4  10  20  41  71 100 137 185 230 281 353 419
#     4  10  22  41  68  96 133 182 226 281 345 416
#     4  10  23  42  66  96 139 177 229 288 350 411
#     4  12  24  46  70 104 138 192 236 288 356 430
#     4  11  22  43  66  93 139 176 222 290 345 409
#     4  11  24  43  64 103 134 180 236 286 348 419
#     4  12  27  47  71 101 139 183 240 297 354 416
#
# _framework density 26.536747999999999
#
# number of rings (size 3 to 8) (size 9 to 14) (size 15 to 20)
#    0.000    1.231    4.615    0.923    2.154    2.462 
#    5.538    0.769    0.000    0.000    0.000    0.000 
#    0.000    0.000    0.000    0.000    0.000    0.000 
#
# Total GULP energy -144947.107045 kJ/mol
# GULP energy per Si atom -5574.888733 kJ/mol
# Density = 2.647635 g / cm^3
# Si number density = 26.536748 Si / 1000 Ang^3
#
#
#
# Elastic Constant Matrix: (Units=GPa)
#
#
# Indices 1 2 3 4 5 6 
#
# 1 229.4514 21.5953 58.1368 0.0000 0.9939 0.0000
# 2 21.5953 71.4829 8.5281 0.0000 -8.7855 0.0000
# 3 58.1368 8.5281 67.3683 0.0000 3.1667 0.0000
# 4 0.0000 0.0000 0.0000 15.2851 0.0000 -12.1531
# 5 0.9939 -8.7855 3.1667 0.0000 43.6456 0.0000
# 6 0.0000 0.0000 0.0000 -12.1531 0.0000 41.5496
#
#
#
# Elastic Compliance Matrix: (Units=1/GPa)
#
#
# Indices 1 2 3 4 5 6 
#
# 1 0.005669 -0.001148 -0.004746 0.000000 -0.000016 0.000000
# 2 -0.001148 0.014839 -0.001033 0.000000 0.003088 0.000000
# 3 -0.004746 -0.001033 0.019140 0.000000 -0.001489 0.000000
# 4 0.000000 0.000000 0.000000 0.085249 0.000000 0.024935
# 5 -0.000016 0.003088 -0.001489 0.000000 0.023642 0.000000
# 6 0.000000 0.000000 0.000000 0.024935 0.000000 0.031361
#
#
# Mechanical properties :
#
#
# Convention : Reuss Voigt Hill
#
# Bulk Modulus (GPa) = 38.76854 60.53590 49.65222
# Shear Modulus (GPa) = 24.70953 38.76556 31.73754
#
# Velocity S-wave (km/s) = 3.05478 3.82622 3.46205
# Velocity P-wave (km/s) = 5.20416 6.51011 5.89342
#
# Compressibility (1/GPa) = 0.02579411
#
# Stress axis : x y z
#
# Youngs Moduli (GPa) = 176.40224 67.38989 52.24641
#
# Poissons Ratio (x) = 0.07739 0.24796
# Poissons Ratio (y) = 0.20257 0.05395
# Poissons Ratio (z) = 0.83719 0.06959
#
# Static dielectric constant tensor:
#      x y z
#    x 2.029820 0.000000 -0.050020 
#    y 0.000000 2.131910 0.000000 
#    z -0.050020 0.000000 2.268210 
# 
# From -- ./inp_files/33386.got.cif
#   From: 2010.05.17/outbox.cif.g08.bks.cpg/sg14_17_cif.got.tgz:33386.got - 2010.06.03 17:49:19.
