data_PCOD9244385
_publ_section_title
;
Structure prediction by ZEFSAII (Michael W. Deem and Ramdas Pophale) SiO2 
 PCOD9244385
Probable space group: P 21/C
;
_chemical_formula_sum "Si O2"
_cell_formula_units_Z 16
_cell_length_a 13.269223
_cell_length_b 10.904237
_cell_length_c 15.232711
_cell_angle_alpha 90.000000
_cell_angle_beta 162.389581
_cell_angle_gamma 90.000000
_cell_volume 666.815063
_symmetry_space_group_name_H-M "P 21/C"
_symmetry_group_IT_number 14
_symmetry_cell_setting 'monoclinic'
loop_
_space_group_symop_operation_xyz
x,y,z
-x,1/2+y,1/2-z
-x,-y,-z
x,1/2-y,1/2+z
loop_
_atom_site_type_symbol
_atom_site_label
_atom_site_fract_x
_atom_site_fract_y
_atom_site_fract_z
Si Si1 0.535467 0.928411 0.622794
Si Si2 0.155379 0.234197 0.736089
Si Si3 0.661327 0.063209 0.250206
Si Si4 0.882732 0.030967 0.082679
O O1 0.716544 0.803501 0.745608
O O2 0.500000 0.000000 0.500000
O O3 0.742340 0.998789 0.869112
O O4 0.149711 0.926254 0.331395
O O5 0.802464 0.170259 0.429286
O O6 0.083722 0.341838 0.746667
O O7 0.434083 0.135139 0.992136
O O8 0.423205 0.972450 0.105331
O O9 0.000000 0.000000 0.500000
#
# Coordination Sequence:
#
# PCOD9244385 Si02
#       4
#     4   4   4   4
#     4  10  20  40  69  98 125 164 227 279 318 392
#     4  11  23  43  67  93 132 176 213 274 337 379
#     4  12  27  43  63  98 137 170 216 272 334 402
#     4  11  23  42  68  99 129 174 229 269 323 411
#
# _framework density 23.994658999999999
#
# number of rings (size 3 to 8) (size 9 to 14) (size 15 to 20)
#    0.000    1.000    0.000    9.750    0.000    6.000 
#    0.000    2.500    0.000    0.000    0.000    0.000 
#    0.000    0.000    0.000    0.000    0.000    0.000 
#
# Total GULP energy -89453.361882 kJ/mol
# GULP energy per Si atom -5590.835118 kJ/mol
# Density = 2.394005 g / cm^3
# Si number density = 23.994659 Si / 1000 Ang^3
#
#
#
# Elastic Constant Matrix: (Units=GPa)
#
#
# Indices 1 2 3 4 5 6 
#
# 1 73.4454 30.4537 34.0778 0.0000 12.0899 0.0000
# 2 30.4537 81.0366 28.2816 0.0000 10.9471 0.0000
# 3 34.0778 28.2816 150.8940 0.0000 9.9327 0.0000
# 4 0.0000 0.0000 0.0000 36.3975 0.0000 2.5802
# 5 12.0899 10.9471 9.9327 0.0000 63.5919 0.0000
# 6 0.0000 0.0000 0.0000 2.5802 0.0000 30.9189
#
#
#
# Elastic Compliance Matrix: (Units=1/GPa)
#
#
# Indices 1 2 3 4 5 6 
#
# 1 0.017446 -0.005308 -0.002816 0.000000 -0.001963 0.000000
# 2 -0.005308 0.015052 -0.001534 0.000000 -0.001342 0.000000
# 3 -0.002816 -0.001534 0.007576 0.000000 -0.000384 0.000000
# 4 0.000000 0.000000 0.000000 0.027638 0.000000 -0.002306
# 5 -0.001963 -0.001342 -0.000384 0.000000 0.016390 0.000000
# 6 0.000000 0.000000 0.000000 -0.002306 0.000000 0.032535
#
#
# Mechanical properties :
#
#
# Convention : Reuss Voigt Hill
#
# Bulk Modulus (GPa) = 48.17539 54.55581 51.36560
# Shear Modulus (GPa) = 34.99635 40.35254 37.67444
#
# Velocity S-wave (km/s) = 3.82318 4.10534 3.96677
# Velocity P-wave (km/s) = 6.29366 6.72739 6.51413
#
# Compressibility (1/GPa) = 0.02075748
#
# Stress axis : x y z
#
# Youngs Moduli (GPa) = 57.31852 66.43786 131.99798
#
# Poissons Ratio (x) = 0.35268 0.37169
# Poissons Ratio (y) = 0.30427 0.20247
# Poissons Ratio (z) = 0.16140 0.10191
#
# Static dielectric constant tensor:
#      x y z
#    x 2.032580 0.000000 0.028510 
#    y 0.000000 1.993430 0.000000 
#    z 0.028510 0.000000 1.933410 
# 
# From -- ./inp_files/44730.got.cif
#   From: 2010.05.17/outbox.cif.g08.bks.cpg/sg14_23_cif.got.tgz:44730.got - 2010.06.03 17:49:19.
