data_PCOD9244727
_publ_section_title
;
Structure prediction by ZEFSAII (Michael W. Deem and Ramdas Pophale) SiO2 
 PCOD9244727
Probable space group: P 21/C
;
_chemical_formula_sum "Si O2"
_cell_formula_units_Z 24
_cell_length_a 10.788156
_cell_length_b 9.386471
_cell_length_c 9.428092
_cell_angle_alpha 90.000000
_cell_angle_beta 85.363305
_cell_angle_gamma 90.000000
_cell_volume 951.589696
_symmetry_space_group_name_H-M "P 21/C"
_symmetry_group_IT_number 14
_symmetry_cell_setting 'monoclinic'
loop_
_space_group_symop_operation_xyz
x,y,z
-x,1/2+y,1/2-z
-x,-y,-z
x,1/2-y,1/2+z
loop_
_atom_site_type_symbol
_atom_site_label
_atom_site_fract_x
_atom_site_fract_y
_atom_site_fract_z
Si Si1 0.799585 0.902024 0.849508
Si Si2 0.403371 0.877986 0.545492
Si Si3 0.190277 0.701618 0.498320
Si Si4 0.791284 0.987685 0.231101
Si Si5 0.070669 0.248756 0.394772
Si Si6 0.581156 0.866503 0.039692
O O1 0.850300 0.876305 0.686689
O O2 0.790080 0.069461 0.892188
O O3 0.882276 0.823113 0.963749
O O4 0.664717 0.830745 0.892872
O O5 0.318394 0.781766 0.449650
O O6 0.290191 0.954441 0.635137
O O7 0.492560 0.757352 0.604125
O O8 0.500000 0.000000 0.500000
O O9 0.154308 0.620686 0.358827
O O10 0.072055 0.787453 0.565792
O O11 0.902190 0.874283 0.224019
O O12 0.683427 0.914617 0.143894
O O13 0.500000 0.000000 0.000000
#
# Coordination Sequence:
#
# PCOD9244727 Si02
#       6
#     4   4   4   4   4   4
#     4  10  21  42  68  94 133 186 226 287 341 406
#     4  12  25  40  66 101 128 169 235 279 329 412
#     4  10  23  42  65  92 137 182 218 284 349 399
#     4  10  23  41  67  92 133 182 218 284 342 404
#     4  10  22  41  68  95 134 178 233 273 349 404
#     4  10  20  43  64  89 133 177 221 273 353 396
#
# _framework density 25.220953000000002
#
# number of rings (size 3 to 8) (size 9 to 14) (size 15 to 20)
#    0.000    2.000    3.333    3.000    7.000    2.667 
#    0.000    2.500    0.000    0.000    0.000    0.000 
#    0.000    0.000    0.000    0.000    0.000    0.000 
#
# Total GULP energy -133840.945811 kJ/mol
# GULP energy per Si atom -5576.706075 kJ/mol
# Density = 2.516355 g / cm^3
# Si number density = 25.220953 Si / 1000 Ang^3
#
#
#
# Elastic Constant Matrix: (Units=GPa)
#
#
# Indices 1 2 3 4 5 6 
#
# 1 125.3371 27.9697 32.3775 0.0000 -38.1318 0.0000
# 2 27.9697 74.2830 24.6403 0.0000 -6.6154 0.0000
# 3 32.3775 24.6403 54.0143 0.0000 -26.1114 0.0000
# 4 0.0000 0.0000 0.0000 37.9721 0.0000 -14.3352
# 5 -38.1318 -6.6154 -26.1114 0.0000 40.5347 0.0000
# 6 0.0000 0.0000 0.0000 -14.3352 0.0000 44.7439
#
#
#
# Elastic Compliance Matrix: (Units=1/GPa)
#
#
# Indices 1 2 3 4 5 6 
#
# 1 0.012062 -0.003396 -0.000674 0.000000 0.010359 0.000000
# 2 -0.003396 0.017075 -0.008642 0.000000 -0.005975 0.000000
# 3 -0.000674 -0.008642 0.031763 0.000000 0.018417 0.000000
# 4 0.000000 0.000000 0.000000 0.029959 0.000000 0.009598
# 5 0.010359 -0.005975 0.018417 0.000000 0.045303 0.000000
# 6 0.000000 0.000000 0.000000 0.009598 0.000000 0.025425
#
#
# Mechanical properties :
#
#
# Convention : Reuss Voigt Hill
#
# Bulk Modulus (GPa) = 28.18744 47.06769 37.62756
# Shear Modulus (GPa) = 25.14659 35.89328 30.51993
#
# Velocity S-wave (km/s) = 3.16104 3.77656 3.48243
# Velocity P-wave (km/s) = 4.95210 6.14160 5.57865
#
# Compressibility (1/GPa) = 0.03547680
#
# Stress axis : x y z
#
# Youngs Moduli (GPa) = 82.90739 58.56457 31.48351
#
# Poissons Ratio (x) = 0.19886 0.02120
# Poissons Ratio (y) = 0.28152 0.27209
# Poissons Ratio (z) = 0.05584 0.50613
#
# Static dielectric constant tensor:
#      x y z
#    x 2.042540 0.000000 -0.000600 
#    y 0.000000 2.419740 0.000000 
#    z -0.000600 0.000000 2.080270 
# 
# From -- ./inp_files/28013.got.cif
#   From: 2010.05.17/outbox.cif.g08.bks.cpg/sg14_15_cif.got.tgz:28013.got - 2010.06.03 17:49:19.
