data_PCOD9244318
_publ_section_title
;
Structure prediction by ZEFSAII (Michael W. Deem and Ramdas Pophale) SiO2 
 PCOD9244318
Probable space group: P 21/C
;
_chemical_formula_sum "Si O2"
_cell_formula_units_Z 28
_cell_length_a 8.609310
_cell_length_b 18.401894
_cell_length_c 17.723210
_cell_angle_alpha 90.000000
_cell_angle_beta 26.726733
_cell_angle_gamma 90.000000
_cell_volume 1262.788716
_symmetry_space_group_name_H-M "P 21/C"
_symmetry_group_IT_number 14
_symmetry_cell_setting 'monoclinic'
loop_
_space_group_symop_operation_xyz
x,y,z
-x,1/2+y,1/2-z
-x,-y,-z
x,1/2-y,1/2+z
loop_
_atom_site_type_symbol
_atom_site_label
_atom_site_fract_x
_atom_site_fract_y
_atom_site_fract_z
Si Si1 0.643523 0.578559 0.414703
Si Si2 0.539680 0.424609 0.085457
Si Si3 0.663411 0.301968 0.741948
Si Si4 0.705168 0.615764 0.217792
Si Si5 0.625789 0.972174 0.185480
Si Si6 0.541668 0.652236 0.608387
Si Si7 0.519912 0.087338 0.431882
O O1 0.500000 0.500000 0.500000
O O2 0.567510 0.600820 0.361910
O O3 0.495195 0.634103 0.540816
O O4 0.062115 0.577078 0.241579
O O5 0.335685 0.431749 0.251479
O O6 0.628424 0.509204 0.027524
O O7 0.383045 0.395241 0.075258
O O8 0.884702 0.380661 0.953716
O O9 0.455570 0.316209 0.755402
O O10 0.663868 0.220155 0.770574
O O11 0.484776 0.350658 0.885010
O O12 0.050634 0.329797 0.560514
O O13 0.607406 0.544256 0.211368
O O14 0.476222 0.918393 0.187574
O O15 0.000000 0.000000 0.000000
#
# Coordination Sequence:
#
# PCOD9244318 Si02
#       7
#     4   4   4   4   4   4   4
#     4  10  20  40  66  94 122 160 218 266 317 371
#     4  10  21  36  63  96 121 164 214 262 318 367
#     4  11  24  44  60  90 133 169 208 259 331 390
#     4  11  22  38  67  94 128 160 215 272 307 386
#     4  12  21  39  66  94 123 165 217 266 311 364
#     4  11  25  42  64  90 129 173 204 264 329 386
#     4   9  20  39  61  89 134 161 198 269 314 381
#
# _framework density 22.173148999999999
#
# number of rings (size 3 to 8) (size 9 to 14) (size 15 to 20)
#    0.000    1.429    4.286    1.286    2.000    0.000 
#    5.143    1.429    0.000    0.000    0.000    0.000 
#    0.000    0.000    0.000    0.000    0.000    0.000 
#
# Total GULP energy -156576.105569 kJ/mol
# GULP energy per Si atom -5592.003770 kJ/mol
# Density = 2.212268 g / cm^3
# Si number density = 22.173149 Si / 1000 Ang^3
#
#
#
# Elastic Constant Matrix: (Units=GPa)
#
#
# Indices 1 2 3 4 5 6 
#
# 1 100.7622 7.6853 34.6372 0.0000 31.6014 0.0000
# 2 7.6853 58.2852 1.7625 0.0000 8.0268 0.0000
# 3 34.6372 1.7625 64.4583 0.0000 24.3187 0.0000
# 4 0.0000 0.0000 0.0000 24.0533 0.0000 10.5882
# 5 31.6014 8.0268 24.3187 0.0000 41.4255 0.0000
# 6 0.0000 0.0000 0.0000 10.5882 0.0000 28.2590
#
#
#
# Elastic Compliance Matrix: (Units=1/GPa)
#
#
# Indices 1 2 3 4 5 6 
#
# 1 0.014008 -0.000621 -0.004527 0.000000 -0.007908 0.000000
# 2 -0.000621 0.017709 0.001240 0.000000 -0.003686 0.000000
# 3 -0.004527 0.001240 0.021451 0.000000 -0.009380 0.000000
# 4 0.000000 0.000000 0.000000 0.049786 0.000000 -0.018654
# 5 -0.007908 -0.003686 -0.009380 0.000000 0.036393 0.000000
# 6 0.000000 0.000000 0.000000 -0.018654 0.000000 0.042376
#
#
# Mechanical properties :
#
#
# Convention : Reuss Voigt Hill
#
# Bulk Modulus (GPa) = 22.04941 34.63063 28.34002
# Shear Modulus (GPa) = 24.43115 30.70894 27.57004
#
# Velocity S-wave (km/s) = 3.32299 3.72554 3.53001
# Velocity P-wave (km/s) = 4.96878 5.84452 5.42435
#
# Compressibility (1/GPa) = 0.04535268
#
# Stress axis : x y z
#
# Youngs Moduli (GPa) = 71.38771 56.46862 46.61713
#
# Poissons Ratio (x) = 0.03507 0.21102
# Poissons Ratio (y) = 0.04434 -0.05780
# Poissons Ratio (z) = 0.32315 -0.07002
#
# Static dielectric constant tensor:
#      x y z
#    x 1.856960 0.000000 0.002740 
#    y 0.000000 1.781070 0.000000 
#    z 0.002740 0.000000 1.855200 
# 
# From -- ./inp_files/56145.got.cif
#   From: 2010.05.17/outbox.cif.g08.bks.cpg/sg14_29_cif.got.tgz:56145.got - 2010.06.03 17:49:19.
