data_PCOD9244176
_publ_section_title
;
Structure prediction by ZEFSAII (Michael W. Deem and Ramdas Pophale) SiO2 
 PCOD9244176
Probable space group: P 21/C
;
_chemical_formula_sum "Si O2"
_cell_formula_units_Z 28
_cell_length_a 8.636879
_cell_length_b 11.815417
_cell_length_c 14.587119
_cell_angle_alpha 90.000000
_cell_angle_beta 65.368919
_cell_angle_gamma 90.000000
_cell_volume 1353.144420
_symmetry_space_group_name_H-M "P 21/C"
_symmetry_group_IT_number 14
_symmetry_cell_setting 'monoclinic'
loop_
_space_group_symop_operation_xyz
x,y,z
-x,1/2+y,1/2-z
-x,-y,-z
x,1/2-y,1/2+z
loop_
_atom_site_type_symbol
_atom_site_label
_atom_site_fract_x
_atom_site_fract_y
_atom_site_fract_z
Si Si1 0.652694 0.826609 0.786498
Si Si2 0.169136 0.410567 0.257407
Si Si3 0.422267 0.736476 0.504587
Si Si4 0.165029 0.079755 0.957641
Si Si5 0.226772 0.969728 0.127482
Si Si6 0.726288 0.680475 0.059100
Si Si7 0.701993 0.026415 0.453784
O O1 0.774702 0.718142 0.777646
O O2 0.639723 0.830128 0.680047
O O3 0.731006 0.944259 0.801924
O O4 0.484827 0.804573 0.889189
O O5 0.249385 0.439148 0.337456
O O6 0.228890 0.492802 0.162599
O O7 0.967310 0.427013 0.317643
O O8 0.342044 0.639120 0.586054
O O9 0.587115 0.778643 0.519724
O O10 0.291486 0.840955 0.527023
O O11 0.139419 0.215719 0.968664
O O12 0.258423 0.041173 0.026249
O O13 0.000000 0.000000 0.000000
O O14 0.784688 0.558791 0.007244
O O15 0.500000 0.000000 0.500000
#
# Coordination Sequence:
#
# PCOD9244176 Si02
#       7
#     4   4   4   4   4   4   4
#     4  11  22  40  64  88 123 164 201 267 314 365
#     4  10  21  39  64  86 122 167 203 254 319 369
#     4  11  23  40  62  93 123 163 211 258 311 378
#     4   9  19  37  62  91 119 162 211 257 313 373
#     4  11  23  38  64  93 123 160 212 261 308 374
#     4  10  21  39  65  88 126 162 212 259 312 371
#     4  10  20  40  61  86 122 168 203 250 311 373
#
# _framework density 20.692543000000001
#
# number of rings (size 3 to 8) (size 9 to 14) (size 15 to 20)
#    0.000    1.714    4.286    0.429    2.000    3.429 
#    0.000    0.714    6.286    0.000    0.000    0.000 
#    0.000    0.000    0.000    0.000    0.000    0.000 
#
# Total GULP energy -156137.283855 kJ/mol
# GULP energy per Si atom -5576.331566 kJ/mol
# Density = 2.064545 g / cm^3
# Si number density = 20.692543 Si / 1000 Ang^3
#
#
#
# Elastic Constant Matrix: (Units=GPa)
#
#
# Indices 1 2 3 4 5 6 
#
# 1 14.5811 12.8762 15.7516 0.0000 0.4266 0.0000
# 2 12.8762 113.9743 26.3178 0.0000 -6.2836 0.0000
# 3 15.7516 26.3178 115.3267 0.0000 8.1399 0.0000
# 4 0.0000 0.0000 0.0000 32.8374 0.0000 -2.6590
# 5 0.4266 -6.2836 8.1399 0.0000 30.7693 0.0000
# 6 0.0000 0.0000 0.0000 -2.6590 0.0000 24.4746
#
#
#
# Elastic Compliance Matrix: (Units=1/GPa)
#
#
# Indices 1 2 3 4 5 6 
#
# 1 0.085971 -0.007394 -0.010052 0.000000 -0.000043 0.000000
# 2 -0.007394 0.010090 -0.001473 0.000000 0.002553 0.000000
# 3 -0.010052 -0.001473 0.010589 0.000000 -0.002963 0.000000
# 4 0.000000 0.000000 0.000000 0.030723 0.000000 0.003338
# 5 -0.000043 0.002553 -0.002963 0.000000 0.033806 0.000000
# 6 0.000000 0.000000 0.000000 0.003338 0.000000 0.041221
#
#
# Mechanical properties :
#
#
# Convention : Reuss Voigt Hill
#
# Bulk Modulus (GPa) = 14.53208 39.30812 26.92010
# Shear Modulus (GPa) = 18.30324 30.21202 24.25763
#
# Velocity S-wave (km/s) = 2.97734 3.82520 3.42758
# Velocity P-wave (km/s) = 4.34252 6.20863 5.35745
#
# Compressibility (1/GPa) = 0.06881329
#
# Stress axis : x y z
#
# Youngs Moduli (GPa) = 11.63180 99.10733 94.43628
#
# Poissons Ratio (x) = 0.73279 0.94926
# Poissons Ratio (y) = 0.08600 0.13909
# Poissons Ratio (z) = 0.11692 0.14597
#
# Static dielectric constant tensor:
#      x y z
#    x 1.760870 0.000000 0.012310 
#    y 0.000000 1.790650 0.000000 
#    z 0.012310 0.000000 1.740570 
# 
# From -- ./inp_files/40227.got.cif
#   From: 2010.05.17/outbox.cif.g08.bks.cpg/sg14_21_cif.got.tgz:40227.got - 2010.06.03 17:49:19.
