data_PCOD9244877
_publ_section_title
;
Structure prediction by ZEFSAII (Michael W. Deem and Ramdas Pophale) SiO2 
 PCOD9244877
Probable space group: P 21/C
;
_chemical_formula_sum "Si O2"
_cell_formula_units_Z 28
_cell_length_a 16.632628
_cell_length_b 5.708472
_cell_length_c 13.667965
_cell_angle_alpha 90.000000
_cell_angle_beta 129.590982
_cell_angle_gamma 90.000000
_cell_volume 1000.048941
_symmetry_space_group_name_H-M "P 21/C"
_symmetry_group_IT_number 14
_symmetry_cell_setting 'monoclinic'
loop_
_space_group_symop_operation_xyz
x,y,z
-x,1/2+y,1/2-z
-x,-y,-z
x,1/2-y,1/2+z
loop_
_atom_site_type_symbol
_atom_site_label
_atom_site_fract_x
_atom_site_fract_y
_atom_site_fract_z
Si Si1 0.118107 0.437664 0.566416
Si Si2 0.131242 0.338276 0.347920
Si Si3 0.557989 0.055108 0.692588
Si Si4 0.836752 0.142243 0.639216
Si Si5 0.878170 0.440996 0.935866
Si Si6 0.366143 0.330613 0.572398
Si Si7 0.395436 0.728286 0.464194
O O1 0.106714 0.382008 0.441991
O O2 0.171282 0.189247 0.639155
O O3 0.000000 0.500000 0.500000
O O4 0.165003 0.689815 0.634818
O O5 0.117653 0.599703 0.294021
O O6 0.252560 0.266872 0.451910
O O7 0.100184 0.090656 0.273685
O O8 0.457649 0.156472 0.672100
O O9 0.606667 0.227020 0.651607
O O10 0.642299 0.988689 0.838082
O O11 0.498624 0.855284 0.585916
O O12 0.713409 0.180178 0.570230
O O13 0.859715 0.105449 0.539232
O O14 0.000000 0.500000 0.000000
O O15 0.406112 0.466290 0.508829
#
# Coordination Sequence:
#
# PCOD9244877 Si02
#       7
#     4   4   4   4   4   4   4
#     4   8  13  22  36  61  90 117 151 194 243 292
#     4   9  17  27  47  65  94 128 158 206 251 295
#     4  11  21  34  51  72  96 135 177 212 268 307
#     4   9  16  29  44  67  95 126 160 205 253 293
#     4   8  13  21  37  60  90 119 151 194 242 293
#     4  11  20  35  51  71 100 133 176 219 264 313
#     4  10  21  34  50  70  99 134 173 217 259 313
#
# _framework density 27.998629999999999
#
# number of rings (size 3 to 8) (size 9 to 14) (size 15 to 20)
#    0.000    2.571    2.857    0.429    0.000    0.000 
#    0.000    0.000    0.000    0.000    0.000    0.000 
#    0.000   57.143    0.000    0.000    0.000   49.000 
#
# Total GULP energy -156042.523431 kJ/mol
# GULP energy per Si atom -5572.947265 kJ/mol
# Density = 2.793490 g / cm^3
# Si number density = 27.998630 Si / 1000 Ang^3
#
#
#
# Elastic Constant Matrix: (Units=GPa)
#
#
# Indices 1 2 3 4 5 6 
#
# 1 104.1036 13.7184 11.4180 0.0000 4.3675 0.0000
# 2 13.7184 216.3270 3.6455 0.0000 -2.3594 0.0000
# 3 11.4180 3.6455 82.6047 0.0000 3.0902 0.0000
# 4 0.0000 0.0000 0.0000 21.4045 0.0000 -11.2772
# 5 4.3675 -2.3594 3.0902 0.0000 40.5024 0.0000
# 6 0.0000 0.0000 0.0000 -11.2772 0.0000 36.1087
#
#
#
# Elastic Compliance Matrix: (Units=1/GPa)
#
#
# Indices 1 2 3 4 5 6 
#
# 1 0.009871 -0.000615 -0.001300 0.000000 -0.001001 0.000000
# 2 -0.000615 0.004668 -0.000134 0.000000 0.000348 0.000000
# 3 -0.001300 -0.000134 0.012322 0.000000 -0.000808 0.000000
# 4 0.000000 0.000000 0.000000 0.055921 0.000000 0.017465
# 5 -0.001001 0.000348 -0.000808 0.000000 0.024880 0.000000
# 6 0.000000 0.000000 0.000000 0.017465 0.000000 0.033149
#
#
# Mechanical properties :
#
#
# Convention : Reuss Voigt Hill
#
# Bulk Modulus (GPa) = 43.93105 51.17768 47.55437
# Shear Modulus (GPa) = 32.78786 44.55334 38.67060
#
# Velocity S-wave (km/s) = 3.42578 3.99340 3.72043
# Velocity P-wave (km/s) = 5.60111 6.29137 5.95625
#
# Compressibility (1/GPa) = 0.02276294
#
# Stress axis : x y z
#
# Youngs Moduli (GPa) = 101.30248 214.23863 81.15797
#
# Poissons Ratio (x) = 0.13176 0.10550
# Poissons Ratio (y) = 0.06230 0.01088
# Poissons Ratio (z) = 0.13168 0.02871
#
# Static dielectric constant tensor:
#      x y z
#    x 2.302010 0.000000 -0.092560 
#    y 0.000000 2.543920 0.000000 
#    z -0.092560 0.000000 2.117340 
# 
# From -- ./inp_files/47959.got.cif
#   From: 2010.05.17/outbox.cif.g08.bks.cpg/sg14_24_cif.got.tgz:47959.got - 2010.06.03 17:49:19.
