data_PCOD9244366
_publ_section_title
;
Structure prediction by ZEFSAII (Michael W. Deem and Ramdas Pophale) SiO2 
 PCOD9244366
Probable space group: P 21/C
;
_chemical_formula_sum "Si O2"
_cell_formula_units_Z 24
_cell_length_a 9.931422
_cell_length_b 11.043773
_cell_length_c 8.820316
_cell_angle_alpha 90.000000
_cell_angle_beta 84.005574
_cell_angle_gamma 90.000000
_cell_volume 962.125753
_symmetry_space_group_name_H-M "P 21/C"
_symmetry_group_IT_number 14
_symmetry_cell_setting 'monoclinic'
loop_
_space_group_symop_operation_xyz
x,y,z
-x,1/2+y,1/2-z
-x,-y,-z
x,1/2-y,1/2+z
loop_
_atom_site_type_symbol
_atom_site_label
_atom_site_fract_x
_atom_site_fract_y
_atom_site_fract_z
Si Si1 0.541507 0.174641 0.386408
Si Si2 0.965371 0.164613 0.991079
Si Si3 0.349260 0.892664 0.959288
Si Si4 0.711994 0.988892 0.545534
Si Si5 0.787075 0.911505 0.853764
Si Si6 0.108112 0.157454 0.660633
O O1 0.575042 0.313234 0.421056
O O2 0.584769 0.130892 0.212720
O O3 0.390552 0.125469 0.428163
O O4 0.627202 0.103866 0.505405
O O5 0.015797 0.151188 0.815993
O O6 0.065590 0.084562 0.084414
O O7 0.014198 0.298670 0.034173
O O8 0.807446 0.150013 0.032564
O O9 0.325469 0.030233 0.022195
O O10 0.780734 0.987978 0.700994
O O11 0.814582 0.961023 0.398081
O O12 0.782755 0.767099 0.824910
#
# Coordination Sequence:
#
# PCOD9244366 Si02
#       6
#     4   4   4   4   4   4
#     4  11  28  42  67  91 137 171 216 273 313 395
#     4  10  21  39  66 100 130 166 213 264 328 383
#     4  12  24  46  64 101 130 174 212 269 333 385
#     4  11  24  47  62  98 126 174 224 260 330 373
#     4  10  22  41  69  94 128 168 218 266 322 379
#     4  10  20  40  68  96 127 171 212 272 311 395
#
# _framework density 24.944762999999998
#
# number of rings (size 3 to 8) (size 9 to 14) (size 15 to 20)
#    1.000    0.333    1.667    3.500    2.333    0.667 
#    3.000    2.500    0.000    0.000    0.000    0.000 
#    0.000    0.000    0.000    0.000    0.000    0.000 
#
# Total GULP energy -134218.290945 kJ/mol
# GULP energy per Si atom -5592.428789 kJ/mol
# Density = 2.488799 g / cm^3
# Si number density = 24.944763 Si / 1000 Ang^3
#
#
#
# Elastic Constant Matrix: (Units=GPa)
#
#
# Indices 1 2 3 4 5 6 
#
# 1 65.5538 21.7516 34.8809 0.0000 0.9595 0.0000
# 2 21.7516 55.6694 -17.0939 0.0000 0.5361 0.0000
# 3 34.8809 -17.0939 118.1616 0.0000 -7.5485 0.0000
# 4 0.0000 0.0000 0.0000 36.2620 0.0000 -4.8588
# 5 0.9595 0.5361 -7.5485 0.0000 40.8440 0.0000
# 6 0.0000 0.0000 0.0000 -4.8588 0.0000 28.1993
#
#
#
# Elastic Compliance Matrix: (Units=1/GPa)
#
#
# Indices 1 2 3 4 5 6 
#
# 1 0.024120 -0.012172 -0.009013 0.000000 -0.002073 0.000000
# 2 -0.012172 0.024943 0.007285 0.000000 0.001305 0.000000
# 3 -0.009013 0.007285 0.012331 0.000000 0.002395 0.000000
# 4 0.000000 0.000000 0.000000 0.028229 0.000000 0.004864
# 5 -0.002073 0.001305 0.002395 0.000000 0.024958 0.000000
# 6 0.000000 0.000000 0.000000 0.004864 0.000000 0.036300
#
#
# Mechanical properties :
#
#
# Convention : Reuss Voigt Hill
#
# Bulk Modulus (GPa) = 29.76805 35.38467 32.57636
# Shear Modulus (GPa) = 26.33265 34.38415 30.35840
#
# Velocity S-wave (km/s) = 3.25258 3.71672 3.49237
# Velocity P-wave (km/s) = 5.10541 5.71268 5.41756
#
# Compressibility (1/GPa) = 0.03359306
#
# Stress axis : x y z
#
# Youngs Moduli (GPa) = 41.45982 40.09072 81.09935
#
# Poissons Ratio (x) = 0.48798 0.73097
# Poissons Ratio (y) = 0.50465 -0.59080
# Poissons Ratio (z) = 0.37369 -0.29206
#
# Static dielectric constant tensor:
#      x y z
#    x 1.935120 0.000000 0.029370 
#    y 0.000000 2.112770 0.000000 
#    z 0.029370 0.000000 1.918480 
# 
# From -- ./inp_files/12345.got.cif
#   From: 2010.05.17/outbox.cif.g08.bks.cpg/sg14_7_cif.got.tgz:12345.got - 2010.06.03 17:49:19.
