data_PCOD9244298
_publ_section_title
;
Structure prediction by ZEFSAII (Michael W. Deem and Ramdas Pophale) SiO2 
 PCOD9244298
Probable space group: P 21/C
;
_chemical_formula_sum "Si O2"
_cell_formula_units_Z 22
_cell_length_a 11.898461
_cell_length_b 4.947569
_cell_length_c 29.248714
_cell_angle_alpha 90.000000
_cell_angle_beta 27.935402
_cell_angle_gamma 90.000000
_cell_volume 806.634098
_symmetry_space_group_name_H-M "P 21/C"
_symmetry_group_IT_number 14
_symmetry_cell_setting 'monoclinic'
loop_
_space_group_symop_operation_xyz
x,y,z
-x,1/2+y,1/2-z
-x,-y,-z
x,1/2-y,1/2+z
loop_
_atom_site_type_symbol
_atom_site_label
_atom_site_fract_x
_atom_site_fract_y
_atom_site_fract_z
Si Si1 0.744578 0.014570 0.645532
Si Si2 0.354168 0.253122 0.034839
Si Si3 0.136086 0.429648 0.530143
Si Si4 0.050410 0.528027 0.260372
Si Si5 0.268731 0.203736 0.767223
Si Si6 0.000000 0.500000 0.500000
O O1 0.729428 0.991077 0.706448
O O2 0.854948 0.752668 0.582169
O O3 0.488938 0.066702 0.715037
O O4 0.934736 0.264849 0.570982
O O5 0.307261 0.255172 0.997768
O O6 0.104523 0.219776 0.150578
O O7 0.500000 0.500000 0.000000
O O8 0.500000 0.000000 0.000000
O O9 0.991143 0.601794 0.618952
O O10 0.246216 0.565444 0.446404
O O11 0.248616 0.380630 0.221420
O O12 0.901886 0.266637 0.294119
#
# Coordination Sequence:
#
# PCOD9244298 Si02
#       6
#     4   4   4   4   4   2
#     4  10  20  40  66 103 135 184 238 302 367 436
#     4  11  25  45  74 101 140 200 249 293 376 446
#     4   9  22  40  64  98 138 179 237 295 361 433
#     4  11  27  47  74 110 151 191 249 319 357 442
#     4  11  22  39  75  97 142 190 243 295 380 439
#     4   8  20  38  62  96 142 170 226 298 362 414
#
# _framework density 27.273831000000001
#
# number of rings (size 3 to 8) (size 9 to 14) (size 15 to 20)
#    1.091    0.727    1.818    1.091   10.182    2.182 
#    0.000    1.818    0.000    0.000    0.000    0.000 
#    0.000    0.000    0.000    0.000    0.000    0.000 
#
# Total GULP energy -122492.828833 kJ/mol
# GULP energy per Si atom -5567.855856 kJ/mol
# Density = 2.721175 g / cm^3
# Si number density = 27.273831 Si / 1000 Ang^3
#
#
#
# Elastic Constant Matrix: (Units=GPa)
#
#
# Indices 1 2 3 4 5 6 
#
# 1 239.2381 60.7556 22.6230 0.0000 0.9214 0.0000
# 2 60.7556 160.5171 17.4194 0.0000 -0.6727 0.0000
# 3 22.6230 17.4194 36.1317 0.0000 6.7283 0.0000
# 4 0.0000 0.0000 0.0000 54.6556 0.0000 -0.9181
# 5 0.9214 -0.6727 6.7283 0.0000 34.8055 0.0000
# 6 0.0000 0.0000 0.0000 -0.9181 0.0000 42.3175
#
#
#
# Elastic Compliance Matrix: (Units=1/GPa)
#
#
# Indices 1 2 3 4 5 6 
#
# 1 0.004793 -0.001563 -0.002301 0.000000 0.000288 0.000000
# 2 -0.001563 0.007104 -0.002572 0.000000 0.000676 0.000000
# 3 -0.002301 -0.002572 0.031489 0.000000 -0.006076 0.000000
# 4 0.000000 0.000000 0.000000 0.018303 0.000000 0.000397
# 5 0.000288 0.000676 -0.006076 0.000000 0.029911 0.000000
# 6 0.000000 0.000000 0.000000 0.000397 0.000000 0.023639
#
#
# Mechanical properties :
#
#
# Convention : Reuss Voigt Hill
#
# Bulk Modulus (GPa) = 32.77270 70.83142 51.80206
# Shear Modulus (GPa) = 36.15782 48.69498 42.42640
#
# Velocity S-wave (km/s) = 3.64501 4.23000 3.94835
# Velocity P-wave (km/s) = 5.45500 7.06286 6.31035
#
# Compressibility (1/GPa) = 0.03051321
#
# Stress axis : x y z
#
# Youngs Moduli (GPa) = 208.61743 140.77538 31.75752
#
# Poissons Ratio (x) = 0.22009 0.07308
# Poissons Ratio (y) = 0.32615 0.08167
# Poissons Ratio (z) = 0.48006 0.36202
#
# Static dielectric constant tensor:
#      x y z
#    x 2.249780 0.000000 0.033940 
#    y 0.000000 2.319740 0.000000 
#    z 0.033940 0.000000 2.293130 
# 
# From -- ./inp_files/59828.got.cif
#   From: 2010.05.17/outbox.cif.g08.bks.cpg/sg14_30_cif.got.tgz:59828.got - 2010.06.03 17:49:19.
