data_PCOD9244290
_publ_section_title
;
Structure prediction by ZEFSAII (Michael W. Deem and Ramdas Pophale) SiO2 
 PCOD9244290
Probable space group: P 21/C
;
_chemical_formula_sum "Si O2"
_cell_formula_units_Z 20
_cell_length_a 8.427771
_cell_length_b 7.851537
_cell_length_c 12.429034
_cell_angle_alpha 90.000000
_cell_angle_beta 79.991539
_cell_angle_gamma 90.000000
_cell_volume 809.925233
_symmetry_space_group_name_H-M "P 21/C"
_symmetry_group_IT_number 14
_symmetry_cell_setting 'monoclinic'
loop_
_space_group_symop_operation_xyz
x,y,z
-x,1/2+y,1/2-z
-x,-y,-z
x,1/2-y,1/2+z
loop_
_atom_site_type_symbol
_atom_site_label
_atom_site_fract_x
_atom_site_fract_y
_atom_site_fract_z
Si Si1 0.862322 0.143606 0.494765
Si Si2 0.681643 0.481926 0.200630
Si Si3 0.146516 0.159593 0.876245
Si Si4 0.323307 0.051606 0.658076
Si Si5 0.668672 0.932162 0.937858
O O1 0.966186 0.288351 0.426151
O O2 0.772388 0.161227 0.619463
O O3 0.726363 0.076549 0.429695
O O4 0.000000 0.000000 0.500000
O O5 0.752891 0.664556 0.154790
O O6 0.491953 0.484133 0.196655
O O7 0.709723 0.467285 0.323901
O O8 0.180450 0.057677 0.763092
O O9 0.217288 0.069367 0.972509
O O10 0.338508 0.236425 0.601123
O O11 0.500000 0.000000 0.000000
#
# Coordination Sequence:
#
# PCOD9244290 Si02
#       5
#     4   4   4   4   4
#     4  10  20  40  65  94 134 180 220 267 344 400
#     4  10  21  38  70  96 129 180 224 273 335 399
#     4  10  22  41  68  98 134 174 220 282 337 403
#     4  11  21  40  69  98 132 175 231 271 330 410
#     4  11  21  39  67  98 136 163 227 284 325 397
#
# _framework density 24.693636999999999
#
# number of rings (size 3 to 8) (size 9 to 14) (size 15 to 20)
#    0.000    1.600    6.000    0.600    0.000    0.000 
#    0.000   14.000    4.400   12.000    0.000    0.000 
#    0.000    0.000    0.000    0.000    0.000    0.000 
#
# Total GULP energy -112026.342303 kJ/mol
# GULP energy per Si atom -5601.317115 kJ/mol
# Density = 2.463743 g / cm^3
# Si number density = 24.693637 Si / 1000 Ang^3
#
#
#
# Elastic Constant Matrix: (Units=GPa)
#
#
# Indices 1 2 3 4 5 6 
#
# 1 83.6539 27.2511 47.3931 0.0000 -11.7724 0.0000
# 2 27.2511 54.7309 42.6264 0.0000 -9.6944 0.0000
# 3 47.3931 42.6264 221.5162 0.0000 -25.8281 0.0000
# 4 0.0000 0.0000 0.0000 16.7557 0.0000 -5.6316
# 5 -11.7724 -9.6944 -25.8281 0.0000 44.4024 0.0000
# 6 0.0000 0.0000 0.0000 -5.6316 0.0000 36.1589
#
#
#
# Elastic Compliance Matrix: (Units=1/GPa)
#
#
# Indices 1 2 3 4 5 6 
#
# 1 0.015157 -0.005741 -0.001948 0.000000 0.001632 0.000000
# 2 -0.005741 0.023919 -0.003157 0.000000 0.001864 0.000000
# 3 -0.001948 -0.003157 0.005791 0.000000 0.002163 0.000000
# 4 0.000000 0.000000 0.000000 0.062978 0.000000 0.009808
# 5 0.001632 0.001864 0.002163 0.000000 0.024619 0.000000
# 6 0.000000 0.000000 0.000000 0.009808 0.000000 0.029183
#
#
# Mechanical properties :
#
#
# Convention : Reuss Voigt Hill
#
# Bulk Modulus (GPa) = 43.14976 66.04913 54.59944
# Shear Modulus (GPa) = 26.16928 35.63876 30.90402
#
# Velocity S-wave (km/s) = 3.25892 3.80312 3.54149
# Velocity P-wave (km/s) = 5.62786 6.78899 6.23551
#
# Compressibility (1/GPa) = 0.02317510
#
# Stress axis : x y z
#
# Youngs Moduli (GPa) = 65.97436 41.80847 172.68855
#
# Poissons Ratio (x) = 0.24002 0.33638
# Poissons Ratio (y) = 0.37875 0.54520
# Poissons Ratio (z) = 0.12851 0.13199
#
# Static dielectric constant tensor:
#      x y z
#    x 1.888090 0.000000 -0.054460 
#    y 0.000000 2.013870 0.000000 
#    z -0.054460 0.000000 1.990370 
# 
# From -- ./inp_files/22976.got.cif
#   From: 2010.05.17/outbox.cif.g08.bks.cpg/sg14_12_cif.got.tgz:22976.got - 2010.06.03 17:49:19.
