data_PCOD9244008
_publ_section_title
;
Structure prediction by ZEFSAII (Michael W. Deem and Ramdas Pophale) SiO2 
 PCOD9244008
Probable space group: P 21/C
;
_chemical_formula_sum "Si O2"
_cell_formula_units_Z 32
_cell_length_a 17.978307
_cell_length_b 11.781167
_cell_length_c 24.078222
_cell_angle_alpha 90.000000
_cell_angle_beta 18.311449
_cell_angle_gamma 90.000000
_cell_volume 1602.297108
_symmetry_space_group_name_H-M "P 21/C"
_symmetry_group_IT_number 14
_symmetry_cell_setting 'monoclinic'
loop_
_space_group_symop_operation_xyz
x,y,z
-x,1/2+y,1/2-z
-x,-y,-z
x,1/2-y,1/2+z
loop_
_atom_site_type_symbol
_atom_site_label
_atom_site_fract_x
_atom_site_fract_y
_atom_site_fract_z
Si Si1 0.279173 0.200837 0.402524
Si Si2 0.458592 0.036806 0.373260
Si Si3 0.090249 0.833558 0.662198
Si Si4 0.323089 0.490106 0.573302
Si Si5 0.384758 0.595758 0.120327
Si Si6 0.153925 0.777273 0.230281
Si Si7 0.366448 0.893048 0.930920
Si Si8 0.176235 0.048914 0.968709
O O1 0.366376 0.123847 0.391847
O O2 0.393875 0.156068 0.265445
O O3 0.320875 0.335013 0.379238
O O4 0.997370 0.199080 0.607447
O O5 0.490114 0.099080 0.409317
O O6 0.708604 0.992782 0.170774
O O7 0.283020 0.931260 0.510640
O O8 0.058155 0.810598 0.751287
O O9 0.200955 0.715293 0.562522
O O10 0.843795 0.880192 0.812285
O O11 0.500000 0.500000 0.500000
O O12 0.163195 0.601589 0.695709
O O13 0.424050 0.522867 0.441150
O O14 0.389385 0.715010 0.084195
O O15 0.106442 0.567625 0.329225
O O16 0.500000 0.500000 0.000000
O O17 0.237199 0.961208 0.973875
#
# Coordination Sequence:
#
# PCOD9244008 Si02
#       8
#     4   4   4   4   4   4   4   4
#     4  10  20  39  64  88 124 166 212 260 313 389
#     4  11  21  38  63  87 124 163 209 259 316 378
#     4  11  21  42  63  89 124 170 214 255 322 386
#     4  11  24  42  61  92 130 164 214 271 323 384
#     4  11  22  35  59  93 122 159 207 265 314 366
#     4  10  22  38  62  91 125 165 210 264 320 384
#     4  10  23  41  67  92 122 177 211 262 324 384
#     4  10  22  40  62  93 127 162 214 258 317 382
#
# _framework density 19.971326999999999
#
# number of rings (size 3 to 8) (size 9 to 14) (size 15 to 20)
#    0.000    1.500    3.750    1.875    0.000    3.000 
#    0.000    3.125    0.000    0.000    0.000    0.000 
#    0.000    0.000    0.000    0.000    0.000    0.000 
#
# Total GULP energy -178191.008849 kJ/mol
# GULP energy per Si atom -5568.469027 kJ/mol
# Density = 1.992587 g / cm^3
# Si number density = 19.971327 Si / 1000 Ang^3
#
#
#
# Elastic Constant Matrix: (Units=GPa)
#
#
# Indices 1 2 3 4 5 6 
#
# 1 87.3626 8.3126 19.7198 0.0000 8.5439 0.0000
# 2 8.3126 50.4144 5.6871 0.0000 2.8779 0.0000
# 3 19.7198 5.6871 80.2663 0.0000 14.0630 0.0000
# 4 0.0000 0.0000 0.0000 14.9551 0.0000 -3.2364
# 5 8.5439 2.8779 14.0630 0.0000 27.9711 0.0000
# 6 0.0000 0.0000 0.0000 -3.2364 0.0000 28.1393
#
#
#
# Elastic Compliance Matrix: (Units=1/GPa)
#
#
# Indices 1 2 3 4 5 6 
#
# 1 0.012400 -0.001626 -0.002519 0.000000 -0.002354 0.000000
# 2 -0.001626 0.020264 -0.000831 0.000000 -0.001170 0.000000
# 3 -0.002519 -0.000831 0.014241 0.000000 -0.006305 0.000000
# 4 0.000000 0.000000 0.000000 0.068573 0.000000 0.007887
# 5 -0.002354 -0.001170 -0.006305 0.000000 0.039761 0.000000
# 6 0.000000 0.000000 0.000000 0.007887 0.000000 0.036445
#
#
# Mechanical properties :
#
#
# Convention : Reuss Voigt Hill
#
# Bulk Modulus (GPa) = 27.06139 31.72027 29.39083
# Shear Modulus (GPa) = 23.36954 26.50137 24.93545
#
# Velocity S-wave (km/s) = 3.42446 3.64671 3.53733
# Velocity P-wave (km/s) = 5.40513 5.80075 5.60643
#
# Compressibility (1/GPa) = 0.03695301
#
# Stress axis : x y z
#
# Youngs Moduli (GPa) = 80.64492 49.34789 70.22023
#
# Poissons Ratio (x) = 0.08024 0.17687
# Poissons Ratio (y) = 0.13114 0.05837
# Poissons Ratio (z) = 0.20313 0.04102
#
# Static dielectric constant tensor:
#      x y z
#    x 1.708190 0.000000 0.018180 
#    y 0.000000 1.788790 0.000000 
#    z 0.018180 0.000000 1.769000 
# 
# From -- ./inp_files/72342.got.cif
#   From: 2010.05.17/outbox.cif.g08.bks.cpg/sg14_37_cif.got.tgz:72342.got - 2010.06.03 17:49:19.
