data_PCOD9244867
_publ_section_title
;
Structure prediction by ZEFSAII (Michael W. Deem and Ramdas Pophale) SiO2 
 PCOD9244867
Probable space group: P 21/C
;
_chemical_formula_sum "Si O2"
_cell_formula_units_Z 28
_cell_length_a 11.751634
_cell_length_b 14.208632
_cell_length_c 8.995945
_cell_angle_alpha 90.000000
_cell_angle_beta 139.111208
_cell_angle_gamma 90.000000
_cell_volume 983.260594
_symmetry_space_group_name_H-M "P 21/C"
_symmetry_group_IT_number 14
_symmetry_cell_setting 'monoclinic'
loop_
_space_group_symop_operation_xyz
x,y,z
-x,1/2+y,1/2-z
-x,-y,-z
x,1/2-y,1/2+z
loop_
_atom_site_type_symbol
_atom_site_label
_atom_site_fract_x
_atom_site_fract_y
_atom_site_fract_z
Si Si1 0.351095 0.783042 0.496688
Si Si2 0.123362 0.808223 0.518994
Si Si3 0.782913 0.991391 0.683610
Si Si4 0.766972 0.863867 0.232534
Si Si5 0.708820 0.668616 0.329252
Si Si6 0.487302 0.586164 0.688007
Si Si7 0.121682 0.905508 0.942471
O O1 0.247700 0.846431 0.512155
O O2 0.239386 0.723706 0.270837
O O3 0.509519 0.837593 0.583162
O O4 0.455501 0.698222 0.687065
O O5 0.073038 0.706410 0.393085
O O6 0.974243 0.879550 0.420310
O O7 0.805747 0.910904 0.834644
O O8 0.605194 0.967482 0.424076
O O9 0.808914 0.079574 0.818976
O O10 0.948146 0.965184 0.744889
O O11 0.777206 0.767752 0.339157
O O12 0.609517 0.917728 0.160583
O O13 0.716691 0.843564 0.012897
O O14 0.283419 0.557763 0.500692
#
# Coordination Sequence:
#
# PCOD9244867 Si02
#       7
#     4   4   4   4   4   4   4
#     4  10  21  33  57  90 123 157 199 259 313 375
#     4  11  21  36  58  93 124 156 207 254 320 371
#     4  11  22  41  69  92 125 170 218 253 309 381
#     4  11  22  35  63  91 128 165 198 268 326 373
#     4  11  20  38  58  93 124 162 207 255 322 380
#     4  10  22  39  62  92 126 161 208 257 320 365
#     4  10  23  40  66  93 126 169 216 258 303 382
#
# _framework density 28.476682
#
# number of rings (size 3 to 8) (size 9 to 14) (size 15 to 20)
#    0.000    1.429    1.429    6.429    4.000    0.000 
#    0.000    0.714    0.000    6.857    0.000    0.000 
#    0.000    0.000    0.000    0.000    0.000    0.000 
#
# Total GULP energy -156630.540357 kJ/mol
# GULP energy per Si atom -5593.947870 kJ/mol
# Density = 2.841187 g / cm^3
# Si number density = 28.476682 Si / 1000 Ang^3
#
#
#
# Elastic Constant Matrix: (Units=GPa)
#
#
# Indices 1 2 3 4 5 6 
#
# 1 223.4212 10.4768 51.4038 0.0000 17.4941 0.0000
# 2 10.4768 67.1290 6.3405 0.0000 -0.5884 0.0000
# 3 51.4038 6.3405 128.2099 0.0000 18.5690 0.0000
# 4 0.0000 0.0000 0.0000 26.3064 0.0000 8.7026
# 5 17.4941 -0.5884 18.5690 0.0000 70.6611 0.0000
# 6 0.0000 0.0000 0.0000 8.7026 0.0000 42.0936
#
#
#
# Elastic Compliance Matrix: (Units=1/GPa)
#
#
# Indices 1 2 3 4 5 6 
#
# 1 0.004992 -0.000610 -0.001862 0.000000 -0.000752 0.000000
# 2 -0.000610 0.015049 -0.000561 0.000000 0.000424 0.000000
# 3 -0.001862 -0.000561 0.008845 0.000000 -0.001868 0.000000
# 4 0.000000 0.000000 0.000000 0.040804 0.000000 -0.008436
# 5 -0.000752 0.000424 -0.001868 0.000000 0.014832 0.000000
# 6 0.000000 0.000000 0.000000 -0.008436 0.000000 0.025501
#
#
# Mechanical properties :
#
#
# Convention : Reuss Voigt Hill
#
# Bulk Modulus (GPa) = 43.82400 61.68916 52.75658
# Shear Modulus (GPa) = 40.42196 51.18149 45.80173
#
# Velocity S-wave (km/s) = 3.77168 4.24407 4.01483
# Velocity P-wave (km/s) = 5.86432 6.76212 6.32916
#
# Compressibility (1/GPa) = 0.02281855
#
# Stress axis : x y z
#
# Youngs Moduli (GPa) = 200.32945 66.45146 113.06234
#
# Poissons Ratio (x) = 0.04052 0.21056
# Poissons Ratio (y) = 0.12215 0.06344
# Poissons Ratio (z) = 0.37309 0.03729
#
# Static dielectric constant tensor:
#      x y z
#    x 2.292560 0.000000 0.047620 
#    y 0.000000 2.348300 0.000000 
#    z 0.047620 0.000000 2.258160 
# 
# From -- ./inp_files/14365.got.cif
#   From: 2010.05.17/outbox.cif.g08.bks.cpg/sg14_8_cif.got.tgz:14365.got - 2010.06.03 17:49:19.
