data_PCOD9244065
_publ_section_title
;
Structure prediction by ZEFSAII (Michael W. Deem and Ramdas Pophale) SiO2 
 PCOD9244065
Probable space group: P 21/C
;
_chemical_formula_sum "Si O2"
_cell_formula_units_Z 28
_cell_length_a 14.151244
_cell_length_b 11.474866
_cell_length_c 8.498554
_cell_angle_alpha 90.000000
_cell_angle_beta 48.906170
_cell_angle_gamma 90.000000
_cell_volume 1040.034789
_symmetry_space_group_name_H-M "P 21/C"
_symmetry_group_IT_number 14
_symmetry_cell_setting 'monoclinic'
loop_
_space_group_symop_operation_xyz
x,y,z
-x,1/2+y,1/2-z
-x,-y,-z
x,1/2-y,1/2+z
loop_
_atom_site_type_symbol
_atom_site_label
_atom_site_fract_x
_atom_site_fract_y
_atom_site_fract_z
Si Si1 0.828989 0.665516 0.852061
Si Si2 0.923621 0.878471 0.573333
Si Si3 0.529190 0.347498 0.130106
Si Si4 0.582836 0.381315 0.420480
Si Si5 0.822424 0.228521 0.831385
Si Si6 0.102384 0.894116 0.959558
Si Si7 0.683869 0.966007 0.264487
O O1 0.863425 0.800776 0.778936
O O2 0.823841 0.627449 0.039099
O O3 0.711842 0.622713 0.877144
O O4 0.955851 0.599897 0.648209
O O5 0.039393 0.801884 0.383826
O O6 0.000000 0.000000 0.500000
O O7 0.598095 0.345704 0.220811
O O8 0.397455 0.411986 0.284203
O O9 0.503585 0.219559 0.092833
O O10 0.605530 0.423470 0.917268
O O11 0.500000 0.500000 0.500000
O O12 0.714688 0.354373 0.371788
O O13 0.833646 0.365623 0.777202
O O14 0.837261 0.207693 0.998574
O O15 0.179620 0.000424 0.946221
#
# Coordination Sequence:
#
# PCOD9244065 Si02
#       7
#     4   4   4   4   4   4   4
#     4  10  24  42  69  98 136 186 230 285 352 417
#     4  10  24  42  67 102 139 177 232 285 356 413
#     4  11  28  44  69 103 136 186 235 289 355 416
#     4  12  26  45  73 100 139 186 238 280 356 417
#     4  10  21  37  62  94 132 172 229 274 333 414
#     4  10  20  39  65  97 130 179 224 278 344 411
#     4  11  24  43  68  95 146 174 238 294 346 412
#
# _framework density 26.922176
#
# number of rings (size 3 to 8) (size 9 to 14) (size 15 to 20)
#    0.000    1.429    1.429    2.143    6.000    8.000 
#    0.000    0.000    0.000    0.000    0.000    0.000 
#    0.000    0.000    0.000    0.000    0.000    0.000 
#
# Total GULP energy -156184.206358 kJ/mol
# GULP energy per Si atom -5578.007370 kJ/mol
# Density = 2.686090 g / cm^3
# Si number density = 26.922176 Si / 1000 Ang^3
#
#
#
# Elastic Constant Matrix: (Units=GPa)
#
#
# Indices 1 2 3 4 5 6 
#
# 1 142.6371 8.2057 -5.3712 0.0000 7.8347 0.0000
# 2 8.2057 107.6742 14.4946 0.0000 1.3266 0.0000
# 3 -5.3712 14.4946 38.8875 0.0000 4.6799 0.0000
# 4 0.0000 0.0000 0.0000 31.5694 0.0000 -3.9895
# 5 7.8347 1.3266 4.6799 0.0000 45.1848 0.0000
# 6 0.0000 0.0000 0.0000 -3.9895 0.0000 46.6133
#
#
#
# Elastic Compliance Matrix: (Units=1/GPa)
#
#
# Indices 1 2 3 4 5 6 
#
# 1 0.007181 -0.000722 0.001426 0.000000 -0.001372 0.000000
# 2 -0.000722 0.009851 -0.003799 0.000000 0.000230 0.000000
# 3 0.001426 -0.003799 0.027690 0.000000 -0.003004 0.000000
# 4 0.000000 0.000000 0.000000 0.032023 0.000000 0.002741
# 5 -0.001372 0.000230 -0.003004 0.000000 0.022674 0.000000
# 6 0.000000 0.000000 0.000000 0.002741 0.000000 0.021688
#
#
# Mechanical properties :
#
#
# Convention : Reuss Voigt Hill
#
# Bulk Modulus (GPa) = 25.95277 35.98409 30.96843
# Shear Modulus (GPa) = 35.67853 42.79814 39.23833
#
# Velocity S-wave (km/s) = 3.64434 3.99143 3.82183
# Velocity P-wave (km/s) = 5.23156 5.88532 5.56804
#
# Compressibility (1/GPa) = 0.03853153
#
# Stress axis : x y z
#
# Youngs Moduli (GPa) = 139.24848 101.51338 36.11445
#
# Poissons Ratio (x) = 0.07333 -0.05151
# Poissons Ratio (y) = 0.10059 0.13720
# Poissons Ratio (z) = -0.19860 0.38566
#
# Static dielectric constant tensor:
#      x y z
#    x 2.226930 0.000000 0.049630 
#    y 0.000000 2.579070 0.000000 
#    z 0.049630 0.000000 2.123090 
# 
# From -- ./inp_files/15697.got.cif
#   From: 2010.05.17/outbox.cif.g08.bks.cpg/sg14_8_cif.got.tgz:15697.got - 2010.06.03 17:49:19.
