data_PCOD9244914
_publ_section_title
;
Structure prediction by ZEFSAII (Michael W. Deem and Ramdas Pophale) SiO2 
 PCOD9244914
Probable space group: P 21/C
;
_chemical_formula_sum "Si O2"
_cell_formula_units_Z 32
_cell_length_a 28.143011
_cell_length_b 7.163318
_cell_length_c 9.688618
_cell_angle_alpha 90.000000
_cell_angle_beta 44.780545
_cell_angle_gamma 90.000000
_cell_volume 1375.820572
_symmetry_space_group_name_H-M "P 21/C"
_symmetry_group_IT_number 14
_symmetry_cell_setting 'monoclinic'
loop_
_space_group_symop_operation_xyz
x,y,z
-x,1/2+y,1/2-z
-x,-y,-z
x,1/2-y,1/2+z
loop_
_atom_site_type_symbol
_atom_site_label
_atom_site_fract_x
_atom_site_fract_y
_atom_site_fract_z
Si Si1 0.059096 0.814644 0.995446
Si Si2 0.224649 0.480266 0.800555
Si Si3 0.564123 0.429656 0.280922
Si Si4 0.189536 0.927893 0.849768
Si Si5 0.704456 0.456013 0.087838
Si Si6 0.434246 0.939887 0.549733
Si Si7 0.285782 0.503795 0.391929
Si Si8 0.919001 0.495647 0.838361
O O1 0.067473 0.610766 0.044838
O O2 0.110452 0.939584 0.982490
O O3 0.081914 0.849186 0.789841
O O4 0.982281 0.875480 0.172576
O O5 0.206436 0.704257 0.828706
O O6 0.284720 0.458336 0.785165
O O7 0.254638 0.421410 0.593976
O O8 0.152594 0.402445 0.996659
O O9 0.500000 0.500000 0.500000
O O10 0.637006 0.525961 0.150928
O O11 0.579909 0.243490 0.332507
O O12 0.550113 0.410696 0.145941
O O13 0.228961 0.997793 0.635131
O O14 0.229616 0.022014 0.891217
O O15 0.709503 0.230215 0.097082
O O16 0.363464 0.052426 0.701491
O O17 0.500000 0.000000 0.500000
#
# Coordination Sequence:
#
# PCOD9244914 Si02
#       8
#     4   4   4   4   4   4   4   4
#     4  10  21  35  55  77 112 140 178 219 269 318
#     4   9  17  28  50  77 104 134 176 227 267 312
#     4  11  23  37  58  84 113 148 183 225 277 329
#     4   9  15  30  48  78 100 137 170 230 263 313
#     4   9  16  29  51  76 105 133 180 223 274 306
#     4  11  23  38  57  83 115 147 183 226 275 330
#     4   9  18  29  51  78 107 132 180 224 271 309
#     4  10  21  36  52  81 108 144 176 220 267 321
#
# _framework density 23.258845999999998
#
# number of rings (size 3 to 8) (size 9 to 14) (size 15 to 20)
#    0.000    2.250    2.500    0.750   12.250    0.500 
#    0.000    0.000    0.000    3.000    0.000    0.000 
#    0.000    0.000    0.000    0.000    0.000    0.000 
#
# Total GULP energy -178340.699167 kJ/mol
# GULP energy per Si atom -5573.146849 kJ/mol
# Density = 2.320591 g / cm^3
# Si number density = 23.258846 Si / 1000 Ang^3
#
#
#
# Elastic Constant Matrix: (Units=GPa)
#
#
# Indices 1 2 3 4 5 6 
#
# 1 120.5434 10.0226 49.4037 0.0000 4.1717 0.0000
# 2 10.0226 40.8539 2.0649 0.0000 -1.5416 0.0000
# 3 49.4037 2.0649 122.2101 0.0000 -4.5100 0.0000
# 4 0.0000 0.0000 0.0000 5.1845 0.0000 -6.2446
# 5 4.1717 -1.5416 -4.5100 0.0000 48.1422 0.0000
# 6 0.0000 0.0000 0.0000 -6.2446 0.0000 19.6213
#
#
#
# Elastic Compliance Matrix: (Units=1/GPa)
#
#
# Indices 1 2 3 4 5 6 
#
# 1 0.010239 -0.002353 -0.004149 0.000000 -0.001351 0.000000
# 2 -0.002353 0.025066 0.000567 0.000000 0.001060 0.000000
# 3 -0.004149 0.000567 0.009899 0.000000 0.001305 0.000000
# 4 0.000000 0.000000 0.000000 0.312782 0.000000 0.099545
# 5 -0.001351 0.001060 0.001305 0.000000 0.021045 0.000000
# 6 0.000000 0.000000 0.000000 0.099545 0.000000 0.082646
#
#
# Mechanical properties :
#
#
# Convention : Reuss Voigt Hill
#
# Bulk Modulus (GPa) = 30.00076 45.17664 37.58870
# Shear Modulus (GPa) = 10.31656 29.39733 19.85694
#
# Velocity S-wave (km/s) = 2.10836 3.55902 2.92505
# Velocity P-wave (km/s) = 4.34207 6.02946 5.25395
#
# Compressibility (1/GPa) = 0.03333249
#
# Stress axis : x y z
#
# Youngs Moduli (GPa) = 97.66903 39.89452 101.02537
#
# Poissons Ratio (x) = 0.09388 0.41917
# Poissons Ratio (y) = 0.22983 -0.05726
# Poissons Ratio (z) = 0.40524 -0.02261
#
# Static dielectric constant tensor:
#      x y z
#    x 2.050750 0.000000 -0.054580 
#    y 0.000000 1.971920 0.000000 
#    z -0.054580 0.000000 1.870210 
# 
# From -- ./inp_files/19796.got.cif
#   From: 2010.05.17/outbox.cif.g08.bks.cpg/sg14_10_cif.got.tgz:19796.got - 2010.06.03 17:49:19.
