data_PCOD9244828
_publ_section_title
;
Structure prediction by ZEFSAII (Michael W. Deem and Ramdas Pophale) SiO2 
 PCOD9244828
Probable space group: P 21/C
;
_chemical_formula_sum "Si O2"
_cell_formula_units_Z 22
_cell_length_a 4.716175
_cell_length_b 12.855861
_cell_length_c 14.248338
_cell_angle_alpha 90.000000
_cell_angle_beta 90.928917
_cell_angle_gamma 90.000000
_cell_volume 863.770185
_symmetry_space_group_name_H-M "P 21/C"
_symmetry_group_IT_number 14
_symmetry_cell_setting 'monoclinic'
loop_
_space_group_symop_operation_xyz
x,y,z
-x,1/2+y,1/2-z
-x,-y,-z
x,1/2-y,1/2+z
loop_
_atom_site_type_symbol
_atom_site_label
_atom_site_fract_x
_atom_site_fract_y
_atom_site_fract_z
Si Si1 0.000000 0.000000 0.500000
Si Si2 0.052457 0.176454 0.063142
Si Si3 0.525593 0.917049 0.626077
Si Si4 0.188090 0.514750 0.691654
Si Si5 0.887343 0.610131 0.856578
Si Si6 0.544289 0.308825 0.430409
O O1 0.212601 0.086847 0.444382
O O2 0.853639 0.091534 0.570057
O O3 0.179513 0.270950 0.127424
O O4 0.067496 0.070776 0.121553
O O5 0.231329 0.173086 0.968356
O O6 0.734747 0.189521 0.025106
O O7 0.411381 0.800209 0.623106
O O8 0.632468 0.954100 0.727716
O O9 0.275766 0.004060 0.600663
O O10 0.369474 0.597211 0.635889
O O11 0.961627 0.579191 0.752737
#
# Coordination Sequence:
#
# PCOD9244828 Si02
#       6
#     2   4   4   4   4   4
#     4  10  20  46  68 116 142 204 244 332 372 476
#     4  12  29  50  79 110 158 211 256 321 397 482
#     4  11  26  44  81 112 155 200 271 329 394 466
#     4  11  30  47  77 114 162 200 266 328 396 467
#     4  11  25  43  76 108 153 193 267 315 397 452
#     4  12  29  51  80 110 158 210 261 315 405 473
#
# _framework density 25.469736000000001
#
# number of rings (size 3 to 8) (size 9 to 14) (size 15 to 20)
#    0.000    0.727    1.818    2.727   17.818    0.000 
#    0.000    0.000    0.000    0.000    0.000    0.000 
#    0.000    0.000    0.000    0.000    0.000    0.000 
#
# Total GULP energy -122774.533908 kJ/mol
# GULP energy per Si atom -5580.660632 kJ/mol
# Density = 2.541177 g / cm^3
# Si number density = 25.469736 Si / 1000 Ang^3
#
#
#
# Elastic Constant Matrix: (Units=GPa)
#
#
# Indices 1 2 3 4 5 6 
#
# 1 64.7541 14.4811 -5.1951 0.0000 4.7200 0.0000
# 2 14.4811 175.3981 72.4266 0.0000 -7.3536 0.0000
# 3 -5.1951 72.4266 95.1241 0.0000 -3.7424 0.0000
# 4 0.0000 0.0000 0.0000 51.2954 0.0000 -5.4602
# 5 4.7200 -7.3536 -3.7424 0.0000 45.5390 0.0000
# 6 0.0000 0.0000 0.0000 -5.4602 0.0000 28.7917
#
#
#
# Elastic Compliance Matrix: (Units=1/GPa)
#
#
# Indices 1 2 3 4 5 6 
#
# 1 0.016382 -0.002582 0.002787 0.000000 -0.001886 0.000000
# 2 -0.002582 0.008754 -0.006762 0.000000 0.001126 0.000000
# 3 0.002787 -0.006762 0.015810 0.000000 -0.000081 0.000000
# 4 0.000000 0.000000 0.000000 0.019897 0.000000 0.003773
# 5 -0.001886 0.001126 -0.000081 0.000000 0.022330 0.000000
# 6 0.000000 0.000000 0.000000 0.003773 0.000000 0.035448
#
#
# Mechanical properties :
#
#
# Convention : Reuss Voigt Hill
#
# Bulk Modulus (GPa) = 35.93203 55.41126 45.67164
# Shear Modulus (GPa) = 35.45818 42.02946 38.74382
#
# Velocity S-wave (km/s) = 3.73523 4.06664 3.90445
# Velocity P-wave (km/s) = 5.72197 6.62216 6.18845
#
# Compressibility (1/GPa) = 0.02783033
#
# Stress axis : x y z
#
# Youngs Moduli (GPa) = 61.04440 114.23571 63.25128
#
# Poissons Ratio (x) = 0.29498 -0.17625
# Poissons Ratio (y) = 0.15763 0.42769
# Poissons Ratio (z) = -0.17010 0.77244
#
# Static dielectric constant tensor:
#      x y z
#    x 2.170860 0.000000 0.124930 
#    y 0.000000 2.080160 0.000000 
#    z 0.124930 0.000000 2.043800 
# 
# From -- ./inp_files/37034.got.cif
#   From: 2010.05.17/outbox.cif.g08.bks.cpg/sg14_19_cif.got.tgz:37034.got - 2010.06.03 17:49:19.
