data_PCOD9244584
_publ_section_title
;
Structure prediction by ZEFSAII (Michael W. Deem and Ramdas Pophale) SiO2 
 PCOD9244584
Probable space group: P 21/C
;
_chemical_formula_sum "Si O2"
_cell_formula_units_Z 28
_cell_length_a 11.746052
_cell_length_b 14.588205
_cell_length_c 14.288399
_cell_angle_alpha 90.000000
_cell_angle_beta 30.374829
_cell_angle_gamma 90.000000
_cell_volume 1238.030885
_symmetry_space_group_name_H-M "P 21/C"
_symmetry_group_IT_number 14
_symmetry_cell_setting 'monoclinic'
loop_
_space_group_symop_operation_xyz
x,y,z
-x,1/2+y,1/2-z
-x,-y,-z
x,1/2-y,1/2+z
loop_
_atom_site_type_symbol
_atom_site_label
_atom_site_fract_x
_atom_site_fract_y
_atom_site_fract_z
Si Si1 0.849087 0.859006 0.041955
Si Si2 0.690158 0.921648 0.359042
Si Si3 0.341511 0.154429 0.337828
Si Si4 0.586504 0.390734 0.237101
Si Si5 0.874391 0.008706 0.401104
Si Si6 0.693625 0.541037 0.302273
Si Si7 0.641292 0.310926 0.785106
O O1 0.789124 0.897769 0.187779
O O2 0.752868 0.756222 0.095860
O O3 0.681679 0.908117 0.085673
O O4 0.120022 0.847838 0.845988
O O5 0.873482 0.968229 0.297706
O O6 0.561878 0.835229 0.499061
O O7 0.500000 0.000000 0.500000
O O8 0.167949 0.084550 0.509192
O O9 0.563295 0.140356 0.243730
O O10 0.377941 0.128909 0.204966
O O11 0.720928 0.463316 0.204169
O O12 0.640807 0.294445 0.249377
O O13 0.684226 0.415499 0.064002
O O14 0.096996 0.055565 0.280457
O O15 0.500000 0.500000 0.500000
#
# Coordination Sequence:
#
# PCOD9244584 Si02
#       7
#     4   4   4   4   4   4   4
#     4  11  22  41  67  88 127 161 204 256 310 371
#     4  11  24  41  62  95 124 161 205 253 314 367
#     4   9  21  41  58  89 120 164 202 249 308 357
#     4  10  21  43  62  89 123 168 201 251 317 357
#     4  10  20  42  63  83 130 162 199 259 305 363
#     4  11  23  35  63  91 121 159 211 247 301 370
#     4  10  23  40  65  90 125 162 206 254 305 369
#
# _framework density 22.61656
#
# number of rings (size 3 to 8) (size 9 to 14) (size 15 to 20)
#    0.000    1.714    1.429    3.429    4.000    1.714 
#    0.000    2.857    0.000    0.000    0.000    0.000 
#    0.000    0.000    0.000    0.000    0.000    0.000 
#
# Total GULP energy -155988.419733 kJ/mol
# GULP energy per Si atom -5571.014990 kJ/mol
# Density = 2.256508 g / cm^3
# Si number density = 22.616560 Si / 1000 Ang^3
#
#
#
# Elastic Constant Matrix: (Units=GPa)
#
#
# Indices 1 2 3 4 5 6 
#
# 1 101.2911 -5.7948 18.4973 0.0000 -28.5472 0.0000
# 2 -5.7948 52.7426 -8.9086 0.0000 10.7689 0.0000
# 3 18.4973 -8.9086 42.9084 0.0000 -17.5133 0.0000
# 4 0.0000 0.0000 0.0000 18.6687 0.0000 -0.1215
# 5 -28.5472 10.7689 -17.5133 0.0000 43.6106 0.0000
# 6 0.0000 0.0000 0.0000 -0.1215 0.0000 33.2916
#
#
#
# Elastic Compliance Matrix: (Units=1/GPa)
#
#
# Indices 1 2 3 4 5 6 
#
# 1 0.012326 -0.000536 -0.002485 0.000000 0.007203 0.000000
# 2 -0.000536 0.020226 0.002690 0.000000 -0.004265 0.000000
# 3 -0.002485 0.002690 0.028705 0.000000 0.009237 0.000000
# 4 0.000000 0.000000 0.000000 0.053567 0.000000 0.000196
# 5 0.007203 -0.004265 0.009237 0.000000 0.032408 0.000000
# 6 0.000000 0.000000 0.000000 0.000196 0.000000 0.030038
#
#
# Mechanical properties :
#
#
# Convention : Reuss Voigt Hill
#
# Bulk Modulus (GPa) = 16.50328 22.72554 19.61441
# Shear Modulus (GPa) = 25.23585 31.99074 28.61329
#
# Velocity S-wave (km/s) = 3.34400 3.76504 3.56075
# Velocity P-wave (km/s) = 4.71409 5.38244 5.05932
#
# Compressibility (1/GPa) = 0.06059401
#
# Stress axis : x y z
#
# Youngs Moduli (GPa) = 81.13176 49.44064 34.83700
#
# Poissons Ratio (x) = 0.02651 0.08657
# Poissons Ratio (y) = 0.04350 -0.09370
# Poissons Ratio (z) = 0.20160 -0.13297
#
# Static dielectric constant tensor:
#      x y z
#    x 2.114510 0.000000 0.047580 
#    y 0.000000 1.872080 0.000000 
#    z 0.047580 0.000000 1.863850 
# 
# From -- ./inp_files/45265.got.cif
#   From: 2010.05.17/outbox.cif.g08.bks.cpg/sg14_23_cif.got.tgz:45265.got - 2010.06.03 17:49:19.
