data_PCOD9244987
_publ_section_title
;
Structure prediction by ZEFSAII (Michael W. Deem and Ramdas Pophale) SiO2 
 PCOD9244987
Probable space group: P 21/C
;
_chemical_formula_sum "Si O2"
_cell_formula_units_Z 28
_cell_length_a 7.378867
_cell_length_b 12.789539
_cell_length_c 14.470627
_cell_angle_alpha 90.000000
_cell_angle_beta 125.072115
_cell_angle_gamma 90.000000
_cell_volume 1117.668934
_symmetry_space_group_name_H-M "P 21/C"
_symmetry_group_IT_number 14
_symmetry_cell_setting 'monoclinic'
loop_
_space_group_symop_operation_xyz
x,y,z
-x,1/2+y,1/2-z
-x,-y,-z
x,1/2-y,1/2+z
loop_
_atom_site_type_symbol
_atom_site_label
_atom_site_fract_x
_atom_site_fract_y
_atom_site_fract_z
Si Si1 0.420105 0.375685 0.281703
Si Si2 0.975990 0.327104 0.961032
Si Si3 0.661486 0.439693 0.618277
Si Si4 0.174648 0.521342 0.932750
Si Si5 0.906137 0.107388 0.014606
Si Si6 0.595638 0.485444 0.172176
Si Si7 0.521849 0.670209 0.269195
O O1 0.285355 0.470217 0.289078
O O2 0.656540 0.377712 0.402291
O O3 0.479093 0.391733 0.190902
O O4 0.346846 0.256957 0.252415
O O5 0.031974 0.209317 0.009435
O O6 0.730783 0.324407 0.844340
O O7 0.113786 0.399513 0.930529
O O8 0.976070 0.400045 0.052950
O O9 0.500000 0.500000 0.500000
O O10 0.860083 0.398861 0.611681
O O11 0.530166 0.350157 0.637253
O O12 0.207148 0.546726 0.835530
O O13 0.412085 0.537567 0.052793
O O14 0.000000 0.000000 0.000000
O O15 0.638172 0.564545 0.267695
#
# Coordination Sequence:
#
# PCOD9244987 Si02
#       7
#     4   4   4   4   4   4   4
#     4   9  19  36  54  80 109 143 185 227 275 337
#     4   9  19  35  53  77 111 145 181 223 277 337
#     4   9  19  36  56  80 109 147 186 230 277 334
#     4   9  18  34  55  81 104 137 182 226 275 327
#     4  10  21  36  53  78 112 150 184 224 276 335
#     4   9  18  33  54  82 104 133 181 231 270 323
#     4   9  18  34  56  76 110 145 176 227 284 329
#
# _framework density 25.052140999999999
#
# number of rings (size 3 to 8) (size 9 to 14) (size 15 to 20)
#    0.000    2.857    0.000    0.000    2.000    2.286 
#   10.286    0.000    0.000    0.000    0.000    0.000 
#    0.000    0.000    0.000    0.000    0.000    0.000 
#
# Total GULP energy -156073.479531 kJ/mol
# GULP energy per Si atom -5574.052840 kJ/mol
# Density = 2.499512 g / cm^3
# Si number density = 25.052141 Si / 1000 Ang^3
#
#
#
# Elastic Constant Matrix: (Units=GPa)
#
#
# Indices 1 2 3 4 5 6 
#
# 1 95.7518 15.6642 27.3753 0.0000 -22.8373 0.0000
# 2 15.6642 125.1426 12.7662 0.0000 -15.1211 0.0000
# 3 27.3753 12.7662 94.6741 0.0000 -23.3288 0.0000
# 4 0.0000 0.0000 0.0000 27.4035 0.0000 -0.9794
# 5 -22.8373 -15.1211 -23.3288 0.0000 49.9205 0.0000
# 6 0.0000 0.0000 0.0000 -0.9794 0.0000 23.3080
#
#
#
# Elastic Compliance Matrix: (Units=1/GPa)
#
#
# Indices 1 2 3 4 5 6 
#
# 1 0.012271 -0.000777 -0.002394 0.000000 0.004260 0.000000
# 2 -0.000777 0.008370 -0.000415 0.000000 0.001986 0.000000
# 3 -0.002394 -0.000415 0.012443 0.000000 0.004594 0.000000
# 4 0.000000 0.000000 0.000000 0.036547 0.000000 0.001536
# 5 0.004260 0.001986 0.004594 0.000000 0.024729 0.000000
# 6 0.000000 0.000000 0.000000 0.001536 0.000000 0.042968
#
#
# Mechanical properties :
#
#
# Convention : Reuss Voigt Hill
#
# Bulk Modulus (GPa) = 38.59032 47.46446 43.02739
# Shear Modulus (GPa) = 32.65056 37.44393 35.04724
#
# Velocity S-wave (km/s) = 3.61405 3.87025 3.74434
# Velocity P-wave (km/s) = 5.73171 6.24173 5.99215
#
# Compressibility (1/GPa) = 0.02591324
#
# Stress axis : x y z
#
# Youngs Moduli (GPa) = 81.49207 119.46805 80.36876
#
# Poissons Ratio (x) = 0.09284 0.19239
# Poissons Ratio (y) = 0.06333 0.03332
# Poissons Ratio (z) = 0.19508 0.04953
#
# Static dielectric constant tensor:
#      x y z
#    x 2.092140 0.000000 0.082750 
#    y 0.000000 2.009510 0.000000 
#    z 0.082750 0.000000 2.066720 
# 
# From -- ./inp_files/39704.got.cif
#   From: 2010.05.17/outbox.cif.g08.bks.cpg/sg14_20_cif.got.tgz:39704.got - 2010.06.03 17:49:19.
