data_PCOD9244155
_publ_section_title
;
Structure prediction by ZEFSAII (Michael W. Deem and Ramdas Pophale) SiO2 
 PCOD9244155
Probable space group: P 21/C
;
_chemical_formula_sum "Si O2"
_cell_formula_units_Z 24
_cell_length_a 14.879125
_cell_length_b 5.528334
_cell_length_c 24.879047
_cell_angle_alpha 90.000000
_cell_angle_beta 151.574536
_cell_angle_gamma 90.000000
_cell_volume 974.150685
_symmetry_space_group_name_H-M "P 21/C"
_symmetry_group_IT_number 14
_symmetry_cell_setting 'monoclinic'
loop_
_space_group_symop_operation_xyz
x,y,z
-x,1/2+y,1/2-z
-x,-y,-z
x,1/2-y,1/2+z
loop_
_atom_site_type_symbol
_atom_site_label
_atom_site_fract_x
_atom_site_fract_y
_atom_site_fract_z
Si Si1 0.486043 0.384885 0.164221
Si Si2 0.118118 0.390857 0.123954
Si Si3 0.740656 0.222646 0.391420
Si Si4 0.884837 0.590924 0.180945
Si Si5 0.244286 0.434367 0.777168
Si Si6 0.123733 0.280883 0.439789
O O1 0.622938 0.379458 0.287841
O O2 0.367269 0.628818 0.112912
O O3 0.614203 0.386681 0.178668
O O4 0.324532 0.179050 0.074285
O O5 0.227875 0.483547 0.130053
O O6 0.247831 0.294789 0.239705
O O7 0.001520 0.613033 0.087494
O O8 0.953768 0.204954 0.018864
O O9 0.726983 0.598791 0.144679
O O10 0.825249 0.637515 0.088346
O O11 0.982429 0.325350 0.235407
O O12 0.024485 0.517217 0.656863
#
# Coordination Sequence:
#
# PCOD9244155 Si02
#       6
#     4   4   4   4   4   4
#     4  11  23  38  60  93 123 168 213 266 315 389
#     4  10  20  40  60  84 123 167 209 259 323 379
#     4  10  22  37  56  89 127 162 213 264 309 388
#     4  10  21  41  70  96 129 173 216 270 335 393
#     4  11  22  39  67  86 124 168 205 268 325 388
#     4  10  22  41  61  91 127 160 216 262 325 388
#
# _framework density 24.636842999999999
#
# number of rings (size 3 to 8) (size 9 to 14) (size 15 to 20)
#    0.000    1.667    3.333    1.000    2.333    1.333 
#    0.000    0.000    0.000    6.000    0.000    0.000 
#    0.000    0.000    0.000    0.000    0.000    0.000 
#
# Total GULP energy -133948.575954 kJ/mol
# GULP energy per Si atom -5581.190665 kJ/mol
# Density = 2.458077 g / cm^3
# Si number density = 24.636843 Si / 1000 Ang^3
#
#
#
# Elastic Constant Matrix: (Units=GPa)
#
#
# Indices 1 2 3 4 5 6 
#
# 1 162.4471 3.5019 20.1936 0.0000 -6.8386 0.0000
# 2 3.5019 60.3833 12.8450 0.0000 1.6774 0.0000
# 3 20.1936 12.8450 56.9803 0.0000 5.3878 0.0000
# 4 0.0000 0.0000 0.0000 25.2752 0.0000 -9.9333
# 5 -6.8386 1.6774 5.3878 0.0000 36.9043 0.0000
# 6 0.0000 0.0000 0.0000 -9.9333 0.0000 26.1578
#
#
#
# Elastic Compliance Matrix: (Units=1/GPa)
#
#
# Indices 1 2 3 4 5 6 
#
# 1 0.006529 0.000107 -0.002486 0.000000 0.001568 0.000000
# 2 0.000107 0.017399 -0.003941 0.000000 -0.000196 0.000000
# 3 -0.002486 -0.003941 0.019617 0.000000 -0.003145 0.000000
# 4 0.000000 0.000000 0.000000 0.046505 0.000000 0.017660
# 5 0.001568 -0.000196 -0.003145 0.000000 0.027856 0.000000
# 6 0.000000 0.000000 0.000000 0.017660 0.000000 0.044936
#
#
# Mechanical properties :
#
#
# Convention : Reuss Voigt Hill
#
# Bulk Modulus (GPa) = 32.35988 39.21018 35.78503
# Shear Modulus (GPa) = 26.91313 33.88547 30.39930
#
# Velocity S-wave (km/s) = 3.30872 3.71266 3.51650
# Velocity P-wave (km/s) = 5.26879 5.85903 5.57173
#
# Compressibility (1/GPa) = 0.03090246
#
# Stress axis : x y z
#
# Youngs Moduli (GPa) = 153.17251 57.47598 50.97651
#
# Poissons Ratio (x) = -0.00613 0.12673
# Poissons Ratio (y) = -0.01634 0.20092
# Poissons Ratio (z) = 0.38079 0.22654
#
# Static dielectric constant tensor:
#      x y z
#    x 1.946690 0.000000 0.002760 
#    y 0.000000 2.046090 0.000000 
#    z 0.002760 0.000000 2.033750 
# 
# From -- ./inp_files/45793.got.cif
#   From: 2010.05.17/outbox.cif.g08.bks.cpg/sg14_23_cif.got.tgz:45793.got - 2010.06.03 17:49:19.
