data_PCOD9244911
_publ_section_title
;
Structure prediction by ZEFSAII (Michael W. Deem and Ramdas Pophale) SiO2 
 PCOD9244911
Probable space group: P 21/C
;
_chemical_formula_sum "Si O2"
_cell_formula_units_Z 32
_cell_length_a 8.671906
_cell_length_b 23.202666
_cell_length_c 8.978003
_cell_angle_alpha 90.000000
_cell_angle_beta 67.914887
_cell_angle_gamma 90.000000
_cell_volume 1673.928268
_symmetry_space_group_name_H-M "P 21/C"
_symmetry_group_IT_number 14
_symmetry_cell_setting 'monoclinic'
loop_
_space_group_symop_operation_xyz
x,y,z
-x,1/2+y,1/2-z
-x,-y,-z
x,1/2-y,1/2+z
loop_
_atom_site_type_symbol
_atom_site_label
_atom_site_fract_x
_atom_site_fract_y
_atom_site_fract_z
Si Si1 0.380555 0.951383 0.979354
Si Si2 0.939004 0.623899 0.811826
Si Si3 0.413889 0.174800 0.526164
Si Si4 0.422903 0.749948 0.774002
Si Si5 0.474028 0.050300 0.387903
Si Si6 0.092506 0.443072 0.906270
Si Si7 0.020941 0.993174 0.165890
Si Si8 0.720609 0.328813 0.431929
O O1 0.394442 0.955093 0.795125
O O2 0.401933 0.884471 0.014925
O O3 0.204670 0.966996 0.115135
O O4 0.500000 0.000000 0.000000
O O5 0.777494 0.663077 0.865390
O O6 0.902122 0.558678 0.764580
O O7 0.092452 0.649939 0.666610
O O8 0.974282 0.610548 0.973705
O O9 0.497805 0.208207 0.631704
O O10 0.442762 0.212684 0.367308
O O11 0.489753 0.111776 0.463859
O O12 0.304492 0.793762 0.906778
O O13 0.329312 0.711858 0.686151
O O14 0.290309 0.051586 0.372731
O O15 0.500000 0.000000 0.500000
O O16 0.034830 0.448004 0.755618
O O17 0.000000 0.500000 0.000000
O O18 0.000000 0.000000 0.000000
#
# Coordination Sequence:
#
# PCOD9244911 Si02
#       8
#     4   4   4   4   4   4   4   4
#     4  11  22  37  59  87 124 155 193 245 295 353
#     4   9  21  38  58  81 119 149 198 243 289 354
#     4  10  22  41  60  88 113 156 196 247 291 352
#     4  10  22  41  65  80 116 153 201 247 294 342
#     4  11  23  36  60  90 120 153 201 239 293 362
#     4   9  19  37  52  79 121 158 188 233 292 351
#     4  10  21  35  54  84 123 161 192 235 293 357
#     4  10  22  42  59  88 115 155 197 247 294 347
#
# _framework density 19.116710000000001
#
# number of rings (size 3 to 8) (size 9 to 14) (size 15 to 20)
#    0.000    2.000    2.500    0.000    7.000    1.000 
#    0.000    0.000    0.000    0.000    0.000    0.000 
#    0.000    0.000    0.000    0.000    0.000    0.000 
#
# Total GULP energy -178243.971187 kJ/mol
# GULP energy per Si atom -5570.124100 kJ/mol
# Density = 1.907320 g / cm^3
# Si number density = 19.116710 Si / 1000 Ang^3
#
#
#
# Elastic Constant Matrix: (Units=GPa)
#
#
# Indices 1 2 3 4 5 6 
#
# 1 8.4823 5.3499 7.2347 0.0000 -0.1060 0.0000
# 2 5.3499 94.7600 32.5636 0.0000 8.8728 0.0000
# 3 7.2347 32.5636 105.5898 0.0000 8.3727 0.0000
# 4 0.0000 0.0000 0.0000 38.6733 0.0000 0.4457
# 5 -0.1060 8.8728 8.3727 0.0000 32.9710 0.0000
# 6 0.0000 0.0000 0.0000 0.4457 0.0000 22.5006
#
#
#
# Elastic Compliance Matrix: (Units=1/GPa)
#
#
# Indices 1 2 3 4 5 6 
#
# 1 0.127459 -0.004963 -0.007492 0.000000 0.003648 0.000000
# 2 -0.004963 0.012170 -0.003217 0.000000 -0.002474 0.000000
# 3 -0.007492 -0.003217 0.011134 0.000000 -0.001986 0.000000
# 4 0.000000 0.000000 0.000000 0.025864 0.000000 -0.000512
# 5 0.003648 -0.002474 -0.001986 0.000000 0.031511 0.000000
# 6 0.000000 0.000000 0.000000 -0.000512 0.000000 0.044453
#
#
# Mechanical properties :
#
#
# Convention : Reuss Voigt Hill
#
# Bulk Modulus (GPa) = 8.37388 33.23650 20.80519
# Shear Modulus (GPa) = 15.44443 29.74122 22.59283
#
# Velocity S-wave (km/s) = 2.84545 3.94861 3.44151
# Velocity P-wave (km/s) = 3.89683 6.18163 5.16710
#
# Compressibility (1/GPa) = 0.11941893
#
# Stress axis : x y z
#
# Youngs Moduli (GPa) = 7.84567 82.16684 89.81886
#
# Poissons Ratio (x) = 0.40779 0.67291
# Poissons Ratio (y) = 0.03894 0.28895
# Poissons Ratio (z) = 0.05878 0.26434
#
# Static dielectric constant tensor:
#      x y z
#    x 1.690410 0.000000 -0.009420 
#    y 0.000000 1.684790 0.000000 
#    z -0.009420 0.000000 1.744530 
# 
# From -- ./inp_files/10650.got.cif
#   From: 2010.05.17/outbox.cif.g08.bks.cpg/sg14_6_cif.got.tgz:10650.got - 2010.06.03 17:49:19.
