data_PCOD9244422
_publ_section_title
;
Structure prediction by ZEFSAII (Michael W. Deem and Ramdas Pophale) SiO2 
 PCOD9244422
Probable space group: P 21/C
;
_chemical_formula_sum "Si O2"
_cell_formula_units_Z 20
_cell_length_a 9.804228
_cell_length_b 14.262733
_cell_length_c 8.300701
_cell_angle_alpha 90.000000
_cell_angle_beta 44.195799
_cell_angle_gamma 90.000000
_cell_volume 809.158904
_symmetry_space_group_name_H-M "P 21/C"
_symmetry_group_IT_number 14
_symmetry_cell_setting 'monoclinic'
loop_
_space_group_symop_operation_xyz
x,y,z
-x,1/2+y,1/2-z
-x,-y,-z
x,1/2-y,1/2+z
loop_
_atom_site_type_symbol
_atom_site_label
_atom_site_fract_x
_atom_site_fract_y
_atom_site_fract_z
Si Si1 0.559321 0.860676 0.115373
Si Si2 0.116627 0.204052 0.629803
Si Si3 0.414717 0.068891 0.442424
Si Si4 0.793516 0.951924 0.681415
Si Si5 0.653004 0.286378 0.527501
O O1 0.432652 0.817854 0.370369
O O2 0.753700 0.795419 0.972932
O O3 0.678461 0.951416 0.945347
O O4 0.427172 0.828838 0.072266
O O5 0.221624 0.127588 0.658524
O O6 0.163568 0.153363 0.419223
O O7 0.886646 0.214826 0.841211
O O8 0.337279 0.007868 0.354392
O O9 0.563765 0.144894 0.240984
O O10 0.500000 0.000000 0.500000
O O11 0.000000 0.000000 0.500000
#
# Coordination Sequence:
#
# PCOD9244422 Si02
#       5
#     4   4   4   4   4
#     4  10  20  41  60  91 129 168 224 276 319 410
#     4   9  21  39  63  91 129 164 226 264 327 398
#     4   8  18  39  58  90 130 156 212 263 325 396
#     4   9  20  42  64  94 134 170 219 278 337 397
#     4  10  21  37  63  87 123 170 217 268 331 386
#
# _framework density 24.717023999999999
#
# number of rings (size 3 to 8) (size 9 to 14) (size 15 to 20)
#    1.200    1.600    2.000    0.000    2.800    0.800 
#   10.800    6.000    0.000    0.000    0.000    0.000 
#    0.000    0.000    0.000    0.000    0.000    0.000 
#
# Total GULP energy -111518.875026 kJ/mol
# GULP energy per Si atom -5575.943751 kJ/mol
# Density = 2.466077 g / cm^3
# Si number density = 24.717024 Si / 1000 Ang^3
#
#
#
# Elastic Constant Matrix: (Units=GPa)
#
#
# Indices 1 2 3 4 5 6 
#
# 1 90.3610 0.4874 56.0293 0.0000 -35.0654 0.0000
# 2 0.4874 29.8998 -2.5946 0.0000 6.0919 0.0000
# 3 56.0293 -2.5946 104.8347 0.0000 -37.6628 0.0000
# 4 0.0000 0.0000 0.0000 33.4645 0.0000 9.2687
# 5 -35.0654 6.0919 -37.6628 0.0000 59.6358 0.0000
# 6 0.0000 0.0000 0.0000 9.2687 0.0000 49.0853
#
#
#
# Elastic Compliance Matrix: (Units=1/GPa)
#
#
# Indices 1 2 3 4 5 6 
#
# 1 0.018133 -0.002197 -0.007547 0.000000 0.006120 0.000000
# 2 -0.002197 0.034445 0.000386 0.000000 -0.004567 0.000000
# 3 -0.007547 0.000386 0.015487 0.000000 0.005304 0.000000
# 4 0.000000 0.000000 0.000000 0.031531 0.000000 -0.005954
# 5 0.006120 -0.004567 0.005304 0.000000 0.024183 0.000000
# 6 0.000000 0.000000 0.000000 -0.005954 0.000000 0.021497
#
#
# Mechanical properties :
#
#
# Convention : Reuss Voigt Hill
#
# Bulk Modulus (GPa) = 20.26377 36.99331 28.62854
# Shear Modulus (GPa) = 27.70954 39.84869 33.77912
#
# Velocity S-wave (km/s) = 3.35187 4.01957 3.70081
# Velocity P-wave (km/s) = 4.81624 6.04498 5.46525
#
# Compressibility (1/GPa) = 0.04934915
#
# Stress axis : x y z
#
# Youngs Moduli (GPa) = 55.14744 29.03196 64.56867
#
# Poissons Ratio (x) = 0.06380 0.48730
# Poissons Ratio (y) = 0.12119 -0.02494
# Poissons Ratio (z) = 0.41619 -0.01122
#
# Static dielectric constant tensor:
#      x y z
#    x 2.049080 0.000000 0.048430 
#    y 0.000000 -2.517220 0.000000 
#    z 0.048430 0.000000 2.238990 
# 
# From -- ./inp_files/9312.got.cif
#   From: 2010.05.17/outbox.cif.g08.bks.cpg/sg14_5_cif.got.tgz:9312.got - 2010.06.03 17:49:19.
