data_PCOD9244391
_publ_section_title
;
Structure prediction by ZEFSAII (Michael W. Deem and Ramdas Pophale) SiO2 
 PCOD9244391
Probable space group: P 21/C
;
_chemical_formula_sum "Si O2"
_cell_formula_units_Z 16
_cell_length_a 12.143001
_cell_length_b 11.254252
_cell_length_c 14.077154
_cell_angle_alpha 90.000000
_cell_angle_beta 160.814934
_cell_angle_gamma 90.000000
_cell_volume 632.196609
_symmetry_space_group_name_H-M "P 21/C"
_symmetry_group_IT_number 14
_symmetry_cell_setting 'monoclinic'
loop_
_space_group_symop_operation_xyz
x,y,z
-x,1/2+y,1/2-z
-x,-y,-z
x,1/2-y,1/2+z
loop_
_atom_site_type_symbol
_atom_site_label
_atom_site_fract_x
_atom_site_fract_y
_atom_site_fract_z
Si Si1 0.580984 0.386895 0.634486
Si Si2 0.302119 0.272845 0.243672
Si Si3 0.515377 0.510374 0.125656
Si Si4 0.238516 0.549358 0.489531
O O1 0.500000 0.500000 0.500000
O O2 0.367330 0.283358 0.410304
O O3 0.467138 0.436597 0.643004
O O4 0.962120 0.343439 0.944243
O O5 0.322884 0.139263 0.226348
O O6 0.610636 0.339112 0.443048
O O7 0.132155 0.486666 0.842722
O O8 0.500000 0.500000 0.000000
O O9 0.726633 0.428503 0.369495
#
# Coordination Sequence:
#
# PCOD9244391 Si02
#       4
#     4   4   4   4
#     4  10  20  40  70 101 127 167 230 289 338 407
#     4  11  23  42  68 100 135 175 225 292 350 401
#     4  12  27  43  62  99 140 178 224 279 344 414
#     4  11  23  43  67  94 128 178 230 274 336 420
#
# _framework density 25.308584
#
# number of rings (size 3 to 8) (size 9 to 14) (size 15 to 20)
#    0.000    1.000    0.000    9.750    0.000    6.000 
#    0.000    0.000    0.000    0.000    0.000    0.000 
#    0.000    0.000    0.000    0.000    0.000    0.000 
#
# Total GULP energy -89517.812145 kJ/mol
# GULP energy per Si atom -5594.863259 kJ/mol
# Density = 2.525098 g / cm^3
# Si number density = 25.308584 Si / 1000 Ang^3
#
#
#
# Elastic Constant Matrix: (Units=GPa)
#
#
# Indices 1 2 3 4 5 6 
#
# 1 104.5532 12.5188 16.3301 0.0000 -16.3009 0.0000
# 2 12.5188 35.0768 11.7039 0.0000 16.1570 0.0000
# 3 16.3301 11.7039 178.9987 0.0000 11.1226 0.0000
# 4 0.0000 0.0000 0.0000 24.0986 0.0000 -6.5808
# 5 -16.3009 16.1570 11.1226 0.0000 46.4554 0.0000
# 6 0.0000 0.0000 0.0000 -6.5808 0.0000 31.0553
#
#
#
# Elastic Compliance Matrix: (Units=1/GPa)
#
#
# Indices 1 2 3 4 5 6 
#
# 1 0.011595 -0.006887 -0.001024 0.000000 0.006709 0.000000
# 2 -0.006887 0.038444 -0.000918 0.000000 -0.015567 0.000000
# 3 -0.001024 -0.000918 0.005829 0.000000 -0.001436 0.000000
# 4 0.000000 0.000000 0.000000 0.044045 0.000000 0.009333
# 5 0.006709 -0.015567 -0.001436 0.000000 0.029638 0.000000
# 6 0.000000 0.000000 0.000000 0.009333 0.000000 0.034178
#
#
# Mechanical properties :
#
#
# Convention : Reuss Voigt Hill
#
# Bulk Modulus (GPa) = 26.17145 44.41492 35.29319
# Shear Modulus (GPa) = 25.75663 38.86026 32.30844
#
# Velocity S-wave (km/s) = 3.19361 3.92274 3.57680
# Velocity P-wave (km/s) = 4.89512 6.17290 5.57077
#
# Compressibility (1/GPa) = 0.03820957
#
# Stress axis : x y z
#
# Youngs Moduli (GPa) = 86.24307 26.01210 171.54601
#
# Poissons Ratio (x) = 0.17914 0.17574
# Poissons Ratio (y) = 0.59394 0.15749
# Poissons Ratio (z) = 0.08835 0.02388
#
# Static dielectric constant tensor:
#      x y z
#    x 2.142600 0.000000 -0.014090 
#    y 0.000000 2.055550 0.000000 
#    z -0.014090 0.000000 1.960870 
# 
# From -- ./inp_files/44732.got.cif
#   From: 2010.05.17/outbox.cif.g08.bks.cpg/sg14_23_cif.got.tgz:44732.got - 2010.06.03 17:49:19.
