data_PCOD9244799
_publ_section_title
;
Structure prediction by ZEFSAII (Michael W. Deem and Ramdas Pophale) SiO2 
 PCOD9244799
Probable space group: P 21/C
;
_chemical_formula_sum "Si O2"
_cell_formula_units_Z 30
_cell_length_a 14.114175
_cell_length_b 8.392216
_cell_length_c 13.630708
_cell_angle_alpha 90.000000
_cell_angle_beta 126.106303
_cell_angle_gamma 90.000000
_cell_volume 1304.432606
_symmetry_space_group_name_H-M "P 21/C"
_symmetry_group_IT_number 14
_symmetry_cell_setting 'monoclinic'
loop_
_space_group_symop_operation_xyz
x,y,z
-x,1/2+y,1/2-z
-x,-y,-z
x,1/2-y,1/2+z
loop_
_atom_site_type_symbol
_atom_site_label
_atom_site_fract_x
_atom_site_fract_y
_atom_site_fract_z
Si Si1 0.593865 0.692683 0.141665
Si Si2 0.175897 0.313059 0.593851
Si Si3 0.821414 0.445018 0.937496
Si Si4 0.987945 0.718792 0.344535
Si Si5 0.500000 0.000000 0.000000
Si Si6 0.303910 0.680317 0.330255
Si Si7 0.157061 0.036593 0.869642
Si Si8 0.350172 0.522980 0.987098
O O1 0.694436 0.676187 0.283139
O O2 0.483477 0.576476 0.088657
O O3 0.546430 0.870426 0.109072
O O4 0.650766 0.641978 0.071920
O O5 0.173190 0.399926 0.488719
O O6 0.083776 0.378692 0.617328
O O7 0.141460 0.125824 0.563827
O O8 0.773922 0.356755 0.811184
O O9 0.720361 0.468484 0.956230
O O10 0.919934 0.336558 0.047290
O O11 0.060612 0.603969 0.317356
O O12 0.895115 0.824904 0.228929
O O13 0.440625 0.851665 0.899170
O O14 0.273247 0.542416 0.393114
O O15 0.292498 0.849123 0.376005
#
# Coordination Sequence:
#
# PCOD9244799 Si02
#       8
#     4   4   4   4   2   4   4   4
#     4  10  23  47  70 107 139 186 230 287 348 425
#     4  12  27  44  70 104 137 185 239 286 351 437
#     4  12  25  44  69 103 137 185 235 290 355 420
#     4  12  27  46  70 102 139 185 235 296 357 422
#     4  10  20  44  70 100 144 176 222 288 350 406
#     4  11  24  45  69 103 141 184 233 290 354 424
#     4  12  27  46  70 101 140 187 231 296 360 419
#     4  10  25  45  72 101 142 183 230 291 350 417
#
# _framework density 22.998505999999999
#
# number of rings (size 3 to 8) (size 9 to 14) (size 15 to 20)
#    0.000    0.800    4.000    1.600    9.333    1.067 
#    4.800    0.000    0.000    0.000    0.000    0.000 
#    0.000    0.000    0.000    0.000    0.000    0.000 
#
# Total GULP energy -167468.436605 kJ/mol
# GULP energy per Si atom -5582.281220 kJ/mol
# Density = 2.294616 g / cm^3
# Si number density = 22.998506 Si / 1000 Ang^3
#
#
#
# Elastic Constant Matrix: (Units=GPa)
#
#
# Indices 1 2 3 4 5 6 
#
# 1 48.1828 -2.5066 23.4549 0.0000 -4.7215 0.0000
# 2 -2.5066 60.4223 18.0612 0.0000 -1.0534 0.0000
# 3 23.4549 18.0612 80.9806 0.0000 -1.9098 0.0000
# 4 0.0000 0.0000 0.0000 35.5275 0.0000 0.2096
# 5 -4.7215 -1.0534 -1.9098 0.0000 29.8995 0.0000
# 6 0.0000 0.0000 0.0000 0.2096 0.0000 39.6047
#
#
#
# Elastic Compliance Matrix: (Units=1/GPa)
#
#
# Indices 1 2 3 4 5 6 
#
# 1 0.025175 0.003494 -0.007986 0.000000 0.003588 0.000000
# 2 0.003494 0.018222 -0.005055 0.000000 0.000871 0.000000
# 3 -0.007986 -0.005055 0.015779 0.000000 -0.000431 0.000000
# 4 0.000000 0.000000 0.000000 0.028148 0.000000 -0.000149
# 5 0.003588 0.000871 -0.000431 0.000000 0.034015 0.000000
# 6 0.000000 0.000000 0.000000 -0.000149 0.000000 0.025250
#
#
# Mechanical properties :
#
#
# Convention : Reuss Voigt Hill
#
# Bulk Modulus (GPa) = 24.94967 29.73388 27.34177
# Shear Modulus (GPa) = 27.92590 31.04473 29.48532
#
# Velocity S-wave (km/s) = 3.48839 3.67803 3.58446
# Velocity P-wave (km/s) = 5.20548 5.56721 5.38938
#
# Compressibility (1/GPa) = 0.04008068
#
# Stress axis : x y z
#
# Youngs Moduli (GPa) = 39.72133 54.88022 63.37477
#
# Poissons Ratio (x) = -0.19176 0.50614
# Poissons Ratio (y) = -0.13879 0.32039
# Poissons Ratio (z) = 0.31723 0.27745
#
# Static dielectric constant tensor:
#      x y z
#    x 1.415170 0.000000 -0.066340 
#    y 0.000000 1.903240 0.000000 
#    z -0.066340 0.000000 1.828880 
# 
# From -- ./inp_files/31908.got.cif
#   From: 2010.05.17/outbox.cif.g08.bks.cpg/sg14_16_cif.got.tgz:31908.got - 2010.06.03 17:49:19.
