data_PCOD9244887
_publ_section_title
;
Structure prediction by ZEFSAII (Michael W. Deem and Ramdas Pophale) SiO2 
 PCOD9244887
Probable space group: P 21/C
;
_chemical_formula_sum "Si O2"
_cell_formula_units_Z 24
_cell_length_a 9.825621
_cell_length_b 6.770512
_cell_length_c 18.255780
_cell_angle_alpha 90.000000
_cell_angle_beta 130.875959
_cell_angle_gamma 90.000000
_cell_volume 918.284615
_symmetry_space_group_name_H-M "P 21/C"
_symmetry_group_IT_number 14
_symmetry_cell_setting 'monoclinic'
loop_
_space_group_symop_operation_xyz
x,y,z
-x,1/2+y,1/2-z
-x,-y,-z
x,1/2-y,1/2+z
loop_
_atom_site_type_symbol
_atom_site_label
_atom_site_fract_x
_atom_site_fract_y
_atom_site_fract_z
Si Si1 0.053675 0.454316 0.650790
Si Si2 0.599319 0.057129 0.365550
Si Si3 0.409792 0.106145 0.881117
Si Si4 0.747502 0.744902 0.531421
Si Si5 0.338518 0.535097 0.647713
Si Si6 0.073805 0.823890 0.747746
O O1 0.189410 0.402107 0.634239
O O2 0.977247 0.305841 0.684309
O O3 0.882304 0.566007 0.555803
O O4 0.144405 0.625126 0.733913
O O5 0.688892 0.904778 0.451679
O O6 0.505327 0.956191 0.263550
O O7 0.446277 0.186699 0.353059
O O8 0.728575 0.238116 0.385251
O O9 0.402774 0.169440 0.963279
O O10 0.564216 0.977595 0.893954
O O11 0.226583 0.989915 0.800759
O O12 0.890920 0.856981 0.637740
#
# Coordination Sequence:
#
# PCOD9244887 Si02
#       6
#     4   4   4   4   4   4
#     4   9  19  34  58  84 113 147 187 226 281 330
#     4  10  21  36  62  80 114 146 193 229 278 334
#     4   9  19  34  56  86 111 141 188 229 279 331
#     4   9  19  36  62  83 105 152 196 224 260 352
#     4  10  21  34  56  84 116 144 181 237 290 323
#     4   9  18  35  57  85 108 148 189 223 277 339
#
# _framework density 26.135688999999999
#
# number of rings (size 3 to 8) (size 9 to 14) (size 15 to 20)
#    2.000    0.667    0.000    2.500    0.000    0.667 
#    0.000    0.000    7.333    8.000    0.000    0.000 
#    0.000    0.000    0.000    0.000    0.000    0.000 
#
# Total GULP energy -133939.221606 kJ/mol
# GULP energy per Si atom -5580.800900 kJ/mol
# Density = 2.607620 g / cm^3
# Si number density = 26.135689 Si / 1000 Ang^3
#
#
#
# Elastic Constant Matrix: (Units=GPa)
#
#
# Indices 1 2 3 4 5 6 
#
# 1 160.0347 5.4990 45.0096 0.0000 -30.6600 0.0000
# 2 5.4990 58.3934 -12.7836 0.0000 -2.5558 0.0000
# 3 45.0096 -12.7836 78.5146 0.0000 -36.7882 0.0000
# 4 0.0000 0.0000 0.0000 29.9331 0.0000 -7.6496
# 5 -30.6600 -2.5558 -36.7882 0.0000 38.0419 0.0000
# 6 0.0000 0.0000 0.0000 -7.6496 0.0000 44.4861
#
#
#
# Elastic Compliance Matrix: (Units=1/GPa)
#
#
# Indices 1 2 3 4 5 6 
#
# 1 0.007792 -0.001313 -0.003254 0.000000 0.003045 0.000000
# 2 -0.001313 0.019160 0.007277 0.000000 0.007266 0.000000
# 3 -0.003254 0.007277 0.027038 0.000000 0.024014 0.000000
# 4 0.000000 0.000000 0.000000 0.034943 0.000000 0.006009
# 5 0.003045 0.007266 0.024014 0.000000 0.052452 0.000000
# 6 0.000000 0.000000 0.000000 0.006009 0.000000 0.023512
#
#
# Mechanical properties :
#
#
# Convention : Reuss Voigt Hill
#
# Bulk Modulus (GPa) = 16.83208 41.37697 29.10452
# Shear Modulus (GPa) = 27.88914 39.77339 33.83127
#
# Velocity S-wave (km/s) = 3.27018 3.90526 3.60175
# Velocity P-wave (km/s) = 4.55115 6.01670 5.33450
#
# Compressibility (1/GPa) = 0.05941035
#
# Stress axis : x y z
#
# Youngs Moduli (GPa) = 128.33069 52.19231 36.98470
#
# Poissons Ratio (x) = 0.06852 0.12035
# Poissons Ratio (y) = 0.16848 -0.26913
# Poissons Ratio (z) = 0.41758 -0.37979
#
# Static dielectric constant tensor:
#      x y z
#    x 2.057930 0.000000 0.046040 
#    y 0.000000 2.130610 0.000000 
#    z 0.046040 0.000000 2.135400 
# 
# From -- ./inp_files/39812.got.cif
#   From: 2010.05.17/outbox.cif.g08.bks.cpg/sg14_20_cif.got.tgz:39812.got - 2010.06.03 17:49:19.
