data_PCOD9244965
_publ_section_title
;
Structure prediction by ZEFSAII (Michael W. Deem and Ramdas Pophale) SiO2 
 PCOD9244965
Probable space group: P 21/C
;
_chemical_formula_sum "Si O2"
_cell_formula_units_Z 16
_cell_length_a 10.280022
_cell_length_b 16.059584
_cell_length_c 5.123426
_cell_angle_alpha 90.000000
_cell_angle_beta 92.959056
_cell_angle_gamma 90.000000
_cell_volume 844.713360
_symmetry_space_group_name_H-M "P 21/C"
_symmetry_group_IT_number 14
_symmetry_cell_setting 'monoclinic'
loop_
_space_group_symop_operation_xyz
x,y,z
-x,1/2+y,1/2-z
-x,-y,-z
x,1/2-y,1/2+z
loop_
_atom_site_type_symbol
_atom_site_label
_atom_site_fract_x
_atom_site_fract_y
_atom_site_fract_z
Si Si1 0.361488 0.540384 0.540315
Si Si2 0.754155 0.107188 0.461104
Si Si3 0.001865 0.201460 0.572508
Si Si4 0.111367 0.033667 0.817449
O O1 0.500000 0.500000 0.500000
O O2 0.341960 0.578614 0.822257
O O3 0.248262 0.471085 0.487206
O O4 0.323667 0.610013 0.318838
O O5 0.846987 0.181443 0.560420
O O6 0.858645 0.033331 0.407561
O O7 0.031177 0.223948 0.276654
O O8 0.076594 0.122172 0.694878
O O9 0.000000 0.000000 0.000000
#
# Coordination Sequence:
#
# PCOD9244965 Si02
#       4
#     4   4   4   4
#     4  10  21  35  63  88 110 148 201 244 282 333
#     4  10  21  37  59  82 121 146 198 238 284 336
#     4  12  23  34  56  91 121 151 187 241 301 345
#     4  10  21  37  63  85 120 145 200 244 286 337
#
# _framework density 18.941337999999998
#
# number of rings (size 3 to 8) (size 9 to 14) (size 15 to 20)
#    1.500    0.000    2.500    4.500    3.500    0.000 
#    0.000    0.000    0.000    9.000    0.000    0.000 
#    0.000    0.000    0.000    0.000    0.000    0.000 
#
# Total GULP energy -89120.767376 kJ/mol
# GULP energy per Si atom -5570.047961 kJ/mol
# Density = 1.889823 g / cm^3
# Si number density = 18.941338 Si / 1000 Ang^3
#
#
#
# Elastic Constant Matrix: (Units=GPa)
#
#
# Indices 1 2 3 4 5 6 
#
# 1 97.1617 5.6678 14.2695 0.0000 -9.7246 0.0000
# 2 5.6678 34.4263 9.4853 0.0000 6.5634 0.0000
# 3 14.2695 9.4853 114.2982 0.0000 -13.5560 0.0000
# 4 0.0000 0.0000 0.0000 33.4795 0.0000 9.9934
# 5 -9.7246 6.5634 -13.5560 0.0000 21.2028 0.0000
# 6 0.0000 0.0000 0.0000 9.9934 0.0000 23.8341
#
#
#
# Elastic Compliance Matrix: (Units=1/GPa)
#
#
# Indices 1 2 3 4 5 6 
#
# 1 0.011088 -0.002765 -0.000487 0.000000 0.005630 0.000000
# 2 -0.002765 0.033345 -0.004108 0.000000 -0.014217 0.000000
# 3 -0.000487 -0.004108 0.010036 0.000000 0.007465 0.000000
# 4 0.000000 0.000000 0.000000 0.034142 0.000000 -0.014315
# 5 0.005630 -0.014217 0.007465 0.000000 0.058919 0.000000
# 6 0.000000 0.000000 0.000000 -0.014315 0.000000 0.047959
#
#
# Mechanical properties :
#
#
# Convention : Reuss Voigt Hill
#
# Bulk Modulus (GPa) = 25.15755 33.85906 29.50831
# Shear Modulus (GPa) = 22.37540 30.13420 26.25480
#
# Velocity S-wave (km/s) = 3.44073 3.99296 3.72709
# Velocity P-wave (km/s) = 5.39403 6.25883 5.84245
#
# Compressibility (1/GPa) = 0.03974949
#
# Stress axis : x y z
#
# Youngs Moduli (GPa) = 90.18406 29.98946 99.63990
#
# Poissons Ratio (x) = 0.08291 0.04854
# Poissons Ratio (y) = 0.24933 0.40934
# Poissons Ratio (z) = 0.04393 0.12320
#
# Static dielectric constant tensor:
#      x y z
#    x 1.647010 0.000000 0.036370 
#    y 0.000000 1.686920 0.000000 
#    z 0.036370 0.000000 1.690980 
# 
# From -- ./inp_files/1257.got.cif
#   From: 2010.05.17/outbox.cif.g08.bks.cpg/sg14_1_cif.got.tgz:1257.got - 2010.06.03 17:49:19.
