data_PCOD9244866
_publ_section_title
;
Structure prediction by ZEFSAII (Michael W. Deem and Ramdas Pophale) SiO2 
 PCOD9244866
Probable space group: P 21/C
;
_chemical_formula_sum "Si O2"
_cell_formula_units_Z 28
_cell_length_a 21.279249
_cell_length_b 9.645631
_cell_length_c 18.362880
_cell_angle_alpha 90.000000
_cell_angle_beta 21.892742
_cell_angle_gamma 90.000000
_cell_volume 1405.353127
_symmetry_space_group_name_H-M "P 21/C"
_symmetry_group_IT_number 14
_symmetry_cell_setting 'monoclinic'
loop_
_space_group_symop_operation_xyz
x,y,z
-x,1/2+y,1/2-z
-x,-y,-z
x,1/2-y,1/2+z
loop_
_atom_site_type_symbol
_atom_site_label
_atom_site_fract_x
_atom_site_fract_y
_atom_site_fract_z
Si Si1 0.693435 0.549283 0.518557
Si Si2 0.900484 0.819107 0.328307
Si Si3 0.223603 0.599408 0.418857
Si Si4 0.886223 0.315442 0.256164
Si Si5 0.335274 0.562322 0.961488
Si Si6 0.561764 0.593871 0.001104
Si Si7 0.897415 0.619977 0.568558
O O1 0.768061 0.700914 0.451442
O O2 0.738788 0.460693 0.541948
O O3 0.794351 0.464074 0.348364
O O4 0.491494 0.558738 0.737750
O O5 0.815097 0.966749 0.405729
O O6 0.971061 0.815701 0.334236
O O7 0.061181 0.805244 0.102401
O O8 0.174179 0.465275 0.423934
O O9 0.390919 0.671966 0.207969
O O10 0.738929 0.212328 0.442069
O O11 0.977621 0.241997 0.089891
O O12 0.393172 0.498861 0.976922
O O13 0.734035 0.666120 0.790647
O O14 0.500000 0.500000 0.000000
O O15 0.000000 0.500000 0.500000
#
# Coordination Sequence:
#
# PCOD9244866 Si02
#       7
#     4   4   4   4   4   4   4
#     4  10  21  33  52  81 115 145 179 233 281 341
#     4  11  19  35  55  77 118 150 176 230 291 344
#     4   9  18  33  51  79 108 144 184 224 281 328
#     4  11  20  34  54  84 112 146 194 228 279 330
#     4  11  20  36  55  84 114 145 188 230 285 336
#     4   9  19  32  56  87 107 139 187 244 269 319
#     4  11  17  32  55  81 109 141 191 236 267 318
#
# _framework density 19.923818000000001
#
# number of rings (size 3 to 8) (size 9 to 14) (size 15 to 20)
#    0.000    1.714    4.286    1.714    0.000    0.000 
#    0.000    0.000    0.000    4.286    0.000    0.000 
#    0.000    0.000    0.000    0.000    0.000    0.000 
#
# Total GULP energy -156126.996363 kJ/mol
# GULP energy per Si atom -5575.964156 kJ/mol
# Density = 1.987847 g / cm^3
# Si number density = 19.923818 Si / 1000 Ang^3
#
#
#
# Elastic Constant Matrix: (Units=GPa)
#
#
# Indices 1 2 3 4 5 6 
#
# 1 33.2599 -16.3093 -5.0704 0.0000 -6.1018 0.0000
# 2 -16.3093 15.1367 -0.9793 0.0000 2.3269 0.0000
# 3 -5.0704 -0.9793 125.6089 0.0000 0.1448 0.0000
# 4 0.0000 0.0000 0.0000 24.6160 0.0000 5.2227
# 5 -6.1018 2.3269 0.1448 0.0000 22.8850 0.0000
# 6 0.0000 0.0000 0.0000 5.2227 0.0000 16.8146
#
#
#
# Elastic Compliance Matrix: (Units=1/GPa)
#
#
# Indices 1 2 3 4 5 6 
#
# 1 0.067479 0.071269 0.003267 0.000000 0.010725 0.000000
# 2 0.071269 0.142421 0.003982 0.000000 0.004496 0.000000
# 3 0.003267 0.003982 0.008124 0.000000 0.000415 0.000000
# 4 0.000000 0.000000 0.000000 0.043490 0.000000 -0.013508
# 5 0.010725 0.004496 0.000415 0.000000 0.046097 0.000000
# 6 0.000000 0.000000 0.000000 -0.013508 0.000000 0.063668
#
#
# Mechanical properties :
#
#
# Convention : Reuss Voigt Hill
#
# Bulk Modulus (GPa) = 2.66622 14.36527 8.51575
# Shear Modulus (GPa) = 14.73786 25.95406 20.34596
#
# Velocity S-wave (km/s) = 2.72271 3.61316 3.19907
# Velocity P-wave (km/s) = 3.35042 4.96310 4.23424
#
# Compressibility (1/GPa) = 0.37506218
#
# Stress axis : x y z
#
# Youngs Moduli (GPa) = 14.81933 7.02142 123.09698
#
# Poissons Ratio (x) = -0.50041 -0.40219
# Poissons Ratio (y) = -1.05617 -0.49019
# Poissons Ratio (z) = -0.04842 -0.02796
#
# Static dielectric constant tensor:
#      x y z
#    x 1.729480 0.000000 0.023480 
#    y 0.000000 1.683560 0.000000 
#    z 0.023480 0.000000 1.781390 
# 
# From -- ./inp_files/54927.got.cif
#   From: 2010.05.17/outbox.cif.g08.bks.cpg/sg14_28_cif.got.tgz:54927.got - 2010.06.03 17:49:19.
