data_PCOD9244147
_publ_section_title
;
Structure prediction by ZEFSAII (Michael W. Deem and Ramdas Pophale) SiO2 
 PCOD9244147
Probable space group: P 21/C
;
_chemical_formula_sum "Si O2"
_cell_formula_units_Z 32
_cell_length_a 10.967083
_cell_length_b 11.362333
_cell_length_c 11.411889
_cell_angle_alpha 90.000000
_cell_angle_beta 103.581134
_cell_angle_gamma 90.000000
_cell_volume 1382.291357
_symmetry_space_group_name_H-M "P 21/C"
_symmetry_group_IT_number 14
_symmetry_cell_setting 'monoclinic'
loop_
_space_group_symop_operation_xyz
x,y,z
-x,1/2+y,1/2-z
-x,-y,-z
x,1/2-y,1/2+z
loop_
_atom_site_type_symbol
_atom_site_label
_atom_site_fract_x
_atom_site_fract_y
_atom_site_fract_z
Si Si1 0.739329 0.589050 0.871498
Si Si2 0.145142 0.634730 0.154153
Si Si3 0.544356 0.654807 0.029111
Si Si4 0.230209 0.257959 0.816075
Si Si5 0.402531 0.759220 0.292782
Si Si6 0.974307 0.834494 0.060731
Si Si7 0.945499 0.947145 0.800011
Si Si8 0.500955 0.513081 0.246511
O O1 0.827438 0.480333 0.917427
O O2 0.800860 0.691977 0.811907
O O3 0.639672 0.529541 0.759732
O O4 0.652608 0.630016 0.957437
O O5 0.270456 0.705363 0.221529
O O6 0.056411 0.719894 0.061971
O O7 0.064039 0.593050 0.248627
O O8 0.622544 0.745518 0.126541
O O9 0.513634 0.551491 0.112813
O O10 0.424545 0.704047 0.933478
O O11 0.154374 0.198875 0.904023
O O12 0.177851 0.390662 0.786502
O O13 0.501465 0.645815 0.303805
O O14 0.423189 0.887455 0.230638
O O15 0.955344 0.896001 0.933209
O O16 0.047517 0.914887 0.172931
#
# Coordination Sequence:
#
# PCOD9244147 Si02
#       8
#     4   4   4   4   4   4   4   4
#     4  10  20  40  59  88 127 158 198 260 295 364
#     4  10  22  40  63  90 125 161 200 258 309 360
#     4  11  22  38  65  92 124 163 207 246 309 372
#     4  11  22  40  64  91 121 162 201 254 304 365
#     4  10  22  41  63  92 127 163 204 254 307 373
#     4  10  22  41  62  90 120 162 205 253 308 358
#     4  10  22  42  62  89 122 159 208 255 303 365
#     4  10  22  40  59  90 126 163 204 250 302 366
#
# _framework density 23.149968000000001
#
# number of rings (size 3 to 8) (size 9 to 14) (size 15 to 20)
#    0.000    1.750    1.250    3.750    1.750    3.000 
#    4.500    7.500    0.000    0.000    0.000    0.000 
#    0.000    0.000    0.000    0.000    0.000    0.000 
#
# Total GULP energy -178163.056067 kJ/mol
# GULP energy per Si atom -5567.595502 kJ/mol
# Density = 2.309728 g / cm^3
# Si number density = 23.149968 Si / 1000 Ang^3
#
#
#
# Elastic Constant Matrix: (Units=GPa)
#
#
# Indices 1 2 3 4 5 6 
#
# 1 35.3256 7.6504 -2.2808 0.0000 -2.5633 0.0000
# 2 7.6504 97.2283 4.0617 0.0000 1.1988 0.0000
# 3 -2.2808 4.0617 35.6502 0.0000 -6.3684 0.0000
# 4 0.0000 0.0000 0.0000 29.1696 0.0000 -3.0510
# 5 -2.5633 1.1988 -6.3684 0.0000 14.5053 0.0000
# 6 0.0000 0.0000 0.0000 -3.0510 0.0000 38.5813
#
#
#
# Elastic Compliance Matrix: (Units=1/GPa)
#
#
# Indices 1 2 3 4 5 6 
#
# 1 0.029587 -0.002557 0.003424 0.000000 0.006943 0.000000
# 2 -0.002557 0.010585 -0.001743 0.000000 -0.002092 0.000000
# 3 0.003424 -0.001743 0.031036 0.000000 0.014375 0.000000
# 4 0.000000 0.000000 0.000000 0.034568 0.000000 0.002734
# 5 0.006943 -0.002092 0.014375 0.000000 0.076652 0.000000
# 6 0.000000 0.000000 0.000000 0.002734 0.000000 0.026135
#
#
# Mechanical properties :
#
#
# Convention : Reuss Voigt Hill
#
# Bulk Modulus (GPa) = 14.39746 20.78518 17.59132
# Shear Modulus (GPa) = 21.41639 27.03608 24.22624
#
# Velocity S-wave (km/s) = 3.04487 3.42111 3.23846
# Velocity P-wave (km/s) = 4.31212 4.96018 4.64746
#
# Compressibility (1/GPa) = 0.06945671
#
# Stress axis : x y z
#
# Youngs Moduli (GPa) = 33.79899 94.47459 32.22063
#
# Poissons Ratio (x) = 0.24154 -0.11034
# Poissons Ratio (y) = 0.08641 0.05617
# Poissons Ratio (z) = -0.11574 0.16469
#
# Static dielectric constant tensor:
#      x y z
#    x 1.884860 0.000000 0.037650 
#    y 0.000000 1.999200 0.000000 
#    z 0.037650 0.000000 1.908240 
# 
# From -- ./inp_files/29136.got.cif
#   From: 2010.05.17/outbox.cif.g08.bks.cpg/sg14_15_cif.got.tgz:29136.got - 2010.06.03 17:49:19.
