data_PCOD9244278
_publ_section_title
;
Structure prediction by ZEFSAII (Michael W. Deem and Ramdas Pophale) SiO2 
 PCOD9244278
Probable space group: P 21/C
;
_chemical_formula_sum "Si O2"
_cell_formula_units_Z 28
_cell_length_a 9.006204
_cell_length_b 14.281782
_cell_length_c 13.916554
_cell_angle_alpha 90.000000
_cell_angle_beta 40.321405
_cell_angle_gamma 90.000000
_cell_volume 1158.271259
_symmetry_space_group_name_H-M "P 21/C"
_symmetry_group_IT_number 14
_symmetry_cell_setting 'monoclinic'
loop_
_space_group_symop_operation_xyz
x,y,z
-x,1/2+y,1/2-z
-x,-y,-z
x,1/2-y,1/2+z
loop_
_atom_site_type_symbol
_atom_site_label
_atom_site_fract_x
_atom_site_fract_y
_atom_site_fract_z
Si Si1 0.193038 0.746304 0.229116
Si Si2 0.836780 0.007122 0.490698
Si Si3 0.648344 0.352207 0.524187
Si Si4 0.866594 0.858026 0.765365
Si Si5 0.404487 0.396689 0.025724
Si Si6 0.562720 0.321973 0.204332
Si Si7 0.110252 0.168967 0.854122
O O1 0.226689 0.830528 0.137489
O O2 0.272564 0.786372 0.291834
O O3 0.954570 0.693690 0.319245
O O4 0.391032 0.673587 0.098403
O O5 0.646505 0.080005 0.620194
O O6 0.975422 0.053955 0.335125
O O7 0.739604 0.909673 0.501071
O O8 0.000000 0.000000 0.500000
O O9 0.397054 0.389916 0.619059
O O10 0.579912 0.258457 0.615498
O O11 0.867154 0.385700 0.480295
O O12 0.927691 0.779155 0.653882
O O13 0.250754 0.367298 0.191575
O O14 0.500000 0.500000 0.000000
O O15 0.288631 0.334593 0.354267
#
# Coordination Sequence:
#
# PCOD9244278 Si02
#       7
#     4   4   4   4   4   4   4
#     4  11  22  37  70  95 125 180 220 265 328 397
#     4  12  26  39  67 102 135 162 225 283 323 387
#     4  10  21  40  63  90 132 167 223 267 312 388
#     4  10  20  43  59  93 134 171 215 263 327 394
#     4  12  21  43  69  93 128 174 211 279 336 371
#     4  11  22  40  64  98 131 169 224 268 318 401
#     4  10  20  40  65  90 128 175 215 265 324 396
#
# _framework density 24.173959
#
# number of rings (size 3 to 8) (size 9 to 14) (size 15 to 20)
#    0.000    1.143    8.571    0.000    8.000    1.143 
#    0.000    0.714    0.000    1.714    0.000    0.000 
#    0.000    0.000    0.000    0.000    0.000    0.000 
#
# Total GULP energy -156190.396731 kJ/mol
# GULP energy per Si atom -5578.228455 kJ/mol
# Density = 2.411894 g / cm^3
# Si number density = 24.173959 Si / 1000 Ang^3
#
#
#
# Elastic Constant Matrix: (Units=GPa)
#
#
# Indices 1 2 3 4 5 6 
#
# 1 165.6062 -0.9511 31.6371 0.0000 -30.1298 0.0000
# 2 -0.9511 27.8579 2.0215 0.0000 -8.1307 0.0000
# 3 31.6371 2.0215 67.8856 0.0000 -30.7851 0.0000
# 4 0.0000 0.0000 0.0000 15.5657 0.0000 -2.3843
# 5 -30.1298 -8.1307 -30.7851 0.0000 56.6779 0.0000
# 6 0.0000 0.0000 0.0000 -2.3843 0.0000 40.2020
#
#
#
# Elastic Compliance Matrix: (Units=1/GPa)
#
#
# Indices 1 2 3 4 5 6 
#
# 1 0.006932 0.001189 -0.002014 0.000000 0.002762 0.000000
# 2 0.001189 0.037827 0.001416 0.000000 0.006827 0.000000
# 3 -0.002014 0.001416 0.020212 0.000000 0.010111 0.000000
# 4 0.000000 0.000000 0.000000 0.064833 0.000000 0.003845
# 5 0.002762 0.006827 0.010111 0.000000 0.025583 0.000000
# 6 0.000000 0.000000 0.000000 0.003845 0.000000 0.025102
#
#
# Mechanical properties :
#
#
# Convention : Reuss Voigt Hill
#
# Bulk Modulus (GPa) = 15.11637 36.30719 25.71178
# Shear Modulus (GPa) = 24.83122 37.73192 31.28157
#
# Velocity S-wave (km/s) = 3.20846 3.95505 3.60115
# Velocity P-wave (km/s) = 4.47128 5.99235 5.28680
#
# Compressibility (1/GPa) = 0.06615345
#
# Stress axis : x y z
#
# Youngs Moduli (GPa) = 144.24898 26.43619 49.47532
#
# Poissons Ratio (x) = -0.03143 0.09962
# Poissons Ratio (y) = -0.17151 -0.07004
# Poissons Ratio (z) = 0.29046 -0.03742
#
# Static dielectric constant tensor:
#      x y z
#    x 2.134430 0.000000 -0.090800 
#    y 0.000000 1.921000 0.000000 
#    z -0.090800 0.000000 1.964560 
# 
# From -- ./inp_files/25359.got.cif
#   From: 2010.05.17/outbox.cif.g08.bks.cpg/sg14_13_cif.got.tgz:25359.got - 2010.06.03 17:49:19.
