data_PCOD9244156
_publ_section_title
;
Structure prediction by ZEFSAII (Michael W. Deem and Ramdas Pophale) SiO2 
 PCOD9244156
Probable space group: P 21/C
;
_chemical_formula_sum "Si O2"
_cell_formula_units_Z 20
_cell_length_a 7.734659
_cell_length_b 11.108823
_cell_length_c 8.902620
_cell_angle_alpha 90.000000
_cell_angle_beta 94.237899
_cell_angle_gamma 90.000000
_cell_volume 762.847956
_symmetry_space_group_name_H-M "P 21/C"
_symmetry_group_IT_number 14
_symmetry_cell_setting 'monoclinic'
loop_
_space_group_symop_operation_xyz
x,y,z
-x,1/2+y,1/2-z
-x,-y,-z
x,1/2-y,1/2+z
loop_
_atom_site_type_symbol
_atom_site_label
_atom_site_fract_x
_atom_site_fract_y
_atom_site_fract_z
Si Si1 0.228779 0.397488 0.736458
Si Si2 0.168000 0.344480 0.381921
Si Si3 0.476567 0.090185 0.758140
Si Si4 0.122670 0.835868 0.697956
Si Si5 0.638365 0.253388 0.024386
O O1 0.191122 0.374643 0.557569
O O2 0.266031 0.275804 0.829565
O O3 0.393470 0.480902 0.763879
O O4 0.038273 0.427159 0.792388
O O5 0.277472 0.438209 0.287590
O O6 0.974142 0.296454 0.338748
O O7 0.500317 0.178321 0.618749
O O8 0.559889 0.153178 0.910657
O O9 0.252190 0.847868 0.567792
O O10 0.228861 0.810323 0.854177
#
# Coordination Sequence:
#
# PCOD9244156 Si02
#       5
#     4   4   4   4   4
#     4  10  21  39  66  85 117 161 203 233 304 352
#     4  10  20  40  60  85 122 156 197 249 287 351
#     4  11  23  38  63  92 117 156 204 245 293 349
#     4   9  18  39  59  80 123 160 186 246 298 345
#     4  10  21  38  59  89 125 151 195 254 290 343
#
# _framework density 26.217545000000001
#
# number of rings (size 3 to 8) (size 9 to 14) (size 15 to 20)
#    1.200    0.800    2.000    1.800    0.000    1.600 
#    0.000    8.000    0.000    0.000    0.000    0.000 
#    0.000    0.000    0.000    0.000    0.000    0.000 
#
# Total GULP energy -111838.973177 kJ/mol
# GULP energy per Si atom -5591.948659 kJ/mol
# Density = 2.615787 g / cm^3
# Si number density = 26.217545 Si / 1000 Ang^3
#
#
#
# Elastic Constant Matrix: (Units=GPa)
#
#
# Indices 1 2 3 4 5 6 
#
# 1 142.2486 3.1269 33.7906 0.0000 -12.6265 0.0000
# 2 3.1269 45.0422 18.0804 0.0000 -3.9188 0.0000
# 3 33.7906 18.0804 99.1158 0.0000 -13.0850 0.0000
# 4 0.0000 0.0000 0.0000 24.0759 0.0000 -1.7979
# 5 -12.6265 -3.9188 -13.0850 0.0000 31.9847 0.0000
# 6 0.0000 0.0000 0.0000 -1.7979 0.0000 34.6375
#
#
#
# Elastic Compliance Matrix: (Units=1/GPa)
#
#
# Indices 1 2 3 4 5 6 
#
# 1 0.007798 0.000646 -0.002494 0.000000 0.002137 0.000000
# 2 0.000646 0.024054 -0.004424 0.000000 0.001392 0.000000
# 3 -0.002494 -0.004424 0.012204 0.000000 0.003466 0.000000
# 4 0.000000 0.000000 0.000000 0.041697 0.000000 0.002164
# 5 0.002137 0.001392 0.003466 0.000000 0.033697 0.000000
# 6 0.000000 0.000000 0.000000 0.002164 0.000000 0.028983
#
#
# Mechanical properties :
#
#
# Convention : Reuss Voigt Hill
#
# Bulk Modulus (GPa) = 31.73534 44.04470 37.89002
# Shear Modulus (GPa) = 29.15774 33.56687 31.36230
#
# Velocity S-wave (km/s) = 3.33850 3.58204 3.46241
# Velocity P-wave (km/s) = 5.19535 5.82616 5.51978
#
# Compressibility (1/GPa) = 0.03151061
#
# Stress axis : x y z
#
# Youngs Moduli (GPa) = 128.23929 41.57382 81.93947
#
# Poissons Ratio (x) = -0.02685 0.20437
# Poissons Ratio (y) = -0.08281 0.36251
# Poissons Ratio (z) = 0.31985 0.18393
#
# Static dielectric constant tensor:
#      x y z
#    x 2.118010 0.000000 -0.008350 
#    y 0.000000 2.269040 0.000000 
#    z -0.008350 0.000000 1.955170 
# 
# From -- ./inp_files/7871.got.cif
#   From: 2010.05.17/outbox.cif.g08.bks.cpg/sg14_4_cif.got.tgz:7871.got - 2010.06.03 17:49:19.
