data_PCOD9244893
_publ_section_title
;
Structure prediction by ZEFSAII (Michael W. Deem and Ramdas Pophale) SiO2 
 PCOD9244893
Probable space group: P 21/C
;
_chemical_formula_sum "Si O2"
_cell_formula_units_Z 32
_cell_length_a 21.901651
_cell_length_b 5.398177
_cell_length_c 27.147166
_cell_angle_alpha 90.000000
_cell_angle_beta 151.147852
_cell_angle_gamma 90.000000
_cell_volume 1548.787151
_symmetry_space_group_name_H-M "P 21/C"
_symmetry_group_IT_number 14
_symmetry_cell_setting 'monoclinic'
loop_
_space_group_symop_operation_xyz
x,y,z
-x,1/2+y,1/2-z
-x,-y,-z
x,1/2-y,1/2+z
loop_
_atom_site_type_symbol
_atom_site_label
_atom_site_fract_x
_atom_site_fract_y
_atom_site_fract_z
Si Si1 0.846767 0.684673 0.115768
Si Si2 0.072679 0.195178 0.113783
Si Si3 0.857185 0.315511 0.685240
Si Si4 0.378268 0.820986 0.787152
Si Si5 0.800554 0.186349 0.256135
Si Si6 0.576030 0.784479 0.264373
Si Si7 0.183209 0.020273 0.094517
Si Si8 0.598410 0.916032 0.390322
O O1 0.829926 0.443238 0.138567
O O2 0.990737 0.680297 0.198593
O O3 0.827817 0.943041 0.131361
O O4 0.741986 0.649431 0.999907
O O5 0.141891 0.958929 0.189138
O O6 0.111912 0.199779 0.083236
O O7 0.109135 0.458748 0.162696
O O8 0.924224 0.130635 0.009688
O O9 0.789460 0.325340 0.689712
O O10 0.331909 0.872616 0.809350
O O11 0.377859 0.028846 0.745189
O O12 0.266069 0.646162 0.689343
O O13 0.513084 0.690892 0.874249
O O14 0.705626 0.626050 0.360491
O O15 0.545362 0.831596 0.299625
O O16 0.444794 0.698244 0.145973
#
# Coordination Sequence:
#
# PCOD9244893 Si02
#       8
#     4   4   4   4   4   4   4   4
#     4  10  24  45  69  92 127 158 215 268 319 368
#     4  10  21  34  59  91 127 170 201 254 315 377
#     4  10  23  46  68  96 120 161 212 277 317 371
#     4  10  22  39  57  88 132 166 203 263 303 380
#     4  11  22  40  64  91 126 167 210 262 327 363
#     4  11  21  39  58  90 129 166 215 250 311 384
#     4   9  21  34  53  87 130 164 209 250 305 381
#     4  11  24  39  64  91 124 179 206 259 313 377
#
# _framework density 20.661328999999999
#
# number of rings (size 3 to 8) (size 9 to 14) (size 15 to 20)
#    0.000    1.750    2.500    0.750    5.250    1.500 
#    0.000    1.250    0.000    0.000    0.000    0.000 
#    0.000    0.000    0.000    0.000    0.000    0.000 
#
# Total GULP energy -178139.315876 kJ/mol
# GULP energy per Si atom -5566.853621 kJ/mol
# Density = 2.061430 g / cm^3
# Si number density = 20.661329 Si / 1000 Ang^3
#
#
#
# Elastic Constant Matrix: (Units=GPa)
#
#
# Indices 1 2 3 4 5 6 
#
# 1 91.8081 8.7163 -14.1645 0.0000 -6.9751 0.0000
# 2 8.7163 65.1115 2.3537 0.0000 -12.4261 0.0000
# 3 -14.1645 2.3537 47.5266 0.0000 -6.2541 0.0000
# 4 0.0000 0.0000 0.0000 55.3283 0.0000 12.5867
# 5 -6.9751 -12.4261 -6.2541 0.0000 25.3773 0.0000
# 6 0.0000 0.0000 0.0000 12.5867 0.0000 27.6599
#
#
#
# Elastic Compliance Matrix: (Units=1/GPa)
#
#
# Indices 1 2 3 4 5 6 
#
# 1 0.011909 -0.001020 0.004098 0.000000 0.003783 0.000000
# 2 -0.001020 0.017032 -0.000090 0.000000 0.008037 0.000000
# 3 0.004098 -0.000090 0.023160 0.000000 0.006790 0.000000
# 4 0.000000 0.000000 0.000000 0.020161 0.000000 -0.009174
# 5 0.003783 0.008037 0.006790 0.000000 0.046054 0.000000
# 6 0.000000 0.000000 0.000000 -0.009174 0.000000 0.040328
#
#
# Mechanical properties :
#
#
# Convention : Reuss Voigt Hill
#
# Bulk Modulus (GPa) = 17.21898 22.02860 19.62379
# Shear Modulus (GPa) = 29.06510 35.50913 32.28711
#
# Velocity S-wave (km/s) = 3.75472 4.15013 3.95737
# Velocity P-wave (km/s) = 5.21049 5.80083 5.51357
#
# Compressibility (1/GPa) = 0.05807544
#
# Stress axis : x y z
#
# Youngs Moduli (GPa) = 83.97158 58.71322 43.17790
#
# Poissons Ratio (x) = 0.05990 -0.17693
# Poissons Ratio (y) = 0.08568 0.00388
# Poissons Ratio (z) = -0.34408 0.00528
#
# Static dielectric constant tensor:
#      x y z
#    x 1.845880 0.000000 0.024280 
#    y 0.000000 1.922350 0.000000 
#    z 0.024280 0.000000 1.715990 
# 
# From -- ./inp_files/77874.got.cif
#   From: 2010.05.17/outbox.cif.g08.bks.cpg/sg14_39_cif.got.tgz:77874.got - 2010.06.03 17:49:19.
