data_PCOD9244743
_publ_section_title
;
Structure prediction by ZEFSAII (Michael W. Deem and Ramdas Pophale) SiO2 
 PCOD9244743
Probable space group: P 21/C
;
_chemical_formula_sum "Si O2"
_cell_formula_units_Z 24
_cell_length_a 23.957464
_cell_length_b 8.100101
_cell_length_c 17.217352
_cell_angle_alpha 90.000000
_cell_angle_beta 162.910356
_cell_angle_gamma 90.000000
_cell_volume 981.859373
_symmetry_space_group_name_H-M "P 21/C"
_symmetry_group_IT_number 14
_symmetry_cell_setting 'monoclinic'
loop_
_space_group_symop_operation_xyz
x,y,z
-x,1/2+y,1/2-z
-x,-y,-z
x,1/2-y,1/2+z
loop_
_atom_site_type_symbol
_atom_site_label
_atom_site_fract_x
_atom_site_fract_y
_atom_site_fract_z
Si Si1 0.883720 0.779771 0.641598
Si Si2 0.338520 0.168107 0.386254
Si Si3 0.497757 0.680196 0.534319
Si Si4 0.758372 0.321480 0.181004
Si Si5 0.110042 0.351528 0.189219
Si Si6 0.067250 0.654546 0.741678
O O1 0.686083 0.781414 0.333443
O O2 0.878155 0.643398 0.702554
O O3 0.050608 0.744609 0.802071
O O4 0.902499 0.962605 0.700751
O O5 0.501323 0.199068 0.539423
O O6 0.307753 0.310498 0.409826
O O7 0.342217 0.993822 0.434318
O O8 0.141126 0.175463 0.074397
O O9 0.500000 0.500000 0.500000
O O10 0.334575 0.698035 0.380845
O O11 0.776035 0.286441 0.112710
O O12 0.978076 0.310377 0.499029
O O13 0.000000 0.500000 0.000000
#
# Coordination Sequence:
#
# PCOD9244743 Si02
#       6
#     4   4   4   4   4   4
#     4  11  24  43  65 101 135 177 237 287 344 420
#     4  10  20  43  67  90 128 180 223 276 355 408
#     4  11  26  43  64 100 141 178 230 286 359 415
#     4  11  21  44  64  92 133 184 221 288 355 407
#     4  11  22  40  71  98 129 177 236 287 344 410
#     4  10  22  40  66  92 130 173 235 285 329 422
#
# _framework density 24.443418000000001
#
# number of rings (size 3 to 8) (size 9 to 14) (size 15 to 20)
#    0.000    1.333    3.333    2.500    9.333    0.000 
#    6.000    0.000    0.000    0.000    0.000    0.000 
#    0.000    0.000    0.000    0.000    0.000    0.000 
#
# Total GULP energy -134058.181165 kJ/mol
# GULP energy per Si atom -5585.757549 kJ/mol
# Density = 2.438778 g / cm^3
# Si number density = 24.443418 Si / 1000 Ang^3
#
#
#
# Elastic Constant Matrix: (Units=GPa)
#
#
# Indices 1 2 3 4 5 6 
#
# 1 254.4420 58.0346 38.6779 0.0000 22.9452 0.0000
# 2 58.0346 74.6817 -4.6867 0.0000 7.5933 0.0000
# 3 38.6779 -4.6867 44.5411 0.0000 1.9900 0.0000
# 4 0.0000 0.0000 0.0000 19.0383 0.0000 2.9697
# 5 22.9452 7.5933 1.9900 0.0000 31.2400 0.0000
# 6 0.0000 0.0000 0.0000 2.9697 0.0000 51.0208
#
#
#
# Elastic Compliance Matrix: (Units=1/GPa)
#
#
# Indices 1 2 3 4 5 6 
#
# 1 0.006182 -0.004860 -0.005746 0.000000 -0.002993 0.000000
# 2 -0.004860 0.017665 0.006129 0.000000 -0.001114 0.000000
# 3 -0.005746 0.006129 0.028044 0.000000 0.000944 0.000000
# 4 0.000000 0.000000 0.000000 0.053007 0.000000 -0.003085
# 5 -0.002993 -0.001114 0.000944 0.000000 0.034419 0.000000
# 6 0.000000 0.000000 0.000000 -0.003085 0.000000 0.019779
#
#
# Mechanical properties :
#
#
# Convention : Reuss Voigt Hill
#
# Bulk Modulus (GPa) = 23.29042 61.96850 42.62946
# Shear Modulus (GPa) = 27.41785 39.03577 33.22681
#
# Velocity S-wave (km/s) = 3.35279 4.00056 3.69092
# Velocity P-wave (km/s) = 4.95351 6.83712 5.97007
#
# Compressibility (1/GPa) = 0.04293611
#
# Stress axis : x y z
#
# Youngs Moduli (GPa) = 161.75671 56.60909 35.65882
#
# Poissons Ratio (x) = 0.27514 0.20490
# Poissons Ratio (y) = 0.78619 -0.21855
# Poissons Ratio (z) = 0.92946 -0.34696
#
# Static dielectric constant tensor:
#      x y z
#    x 2.060810 0.000000 0.041310 
#    y 0.000000 1.979990 0.000000 
#    z 0.041310 0.000000 1.907530 
# 
# From -- ./inp_files/61735.got.cif
#   From: 2010.05.17/outbox.cif.g08.bks.cpg/sg14_31_cif.got.tgz:61735.got - 2010.06.03 17:49:19.
