data_PCOD9244951
_publ_section_title
;
Structure prediction by ZEFSAII (Michael W. Deem and Ramdas Pophale) SiO2 
 PCOD9244951
Probable space group: P 21/C
;
_chemical_formula_sum "Si O2"
_cell_formula_units_Z 28
_cell_length_a 8.479754
_cell_length_b 8.632008
_cell_length_c 26.653397
_cell_angle_alpha 90.000000
_cell_angle_beta 140.511041
_cell_angle_gamma 90.000000
_cell_volume 1240.671020
_symmetry_space_group_name_H-M "P 21/C"
_symmetry_group_IT_number 14
_symmetry_cell_setting 'monoclinic'
loop_
_space_group_symop_operation_xyz
x,y,z
-x,1/2+y,1/2-z
-x,-y,-z
x,1/2-y,1/2+z
loop_
_atom_site_type_symbol
_atom_site_label
_atom_site_fract_x
_atom_site_fract_y
_atom_site_fract_z
Si Si1 0.164659 0.819645 0.415718
Si Si2 0.590946 0.277327 0.425200
Si Si3 0.524205 0.120803 0.075246
Si Si4 0.968562 0.786600 0.530819
Si Si5 0.252995 0.416509 0.128599
Si Si6 0.234708 0.688271 0.774637
Si Si7 0.848225 0.933416 0.671609
O O1 0.290816 0.823730 0.500856
O O2 0.275168 0.669018 0.416600
O O3 0.875562 0.818478 0.358664
O O4 0.228697 0.962066 0.394842
O O5 0.497862 0.439535 0.422774
O O6 0.805721 0.311238 0.437705
O O7 0.366877 0.166955 0.354691
O O8 0.623213 0.203480 0.149887
O O9 0.252058 0.193639 0.996630
O O10 0.833062 0.861455 0.448423
O O11 0.116725 0.917042 0.598158
O O12 0.548007 0.395983 0.202862
O O13 0.082318 0.560716 0.769277
O O14 0.050988 0.809361 0.704033
#
# Coordination Sequence:
#
# PCOD9244951 Si02
#       7
#     4   4   4   4   4   4   4
#     4  10  23  36  59  90 123 153 192 251 305 349
#     4  11  20  36  57  91 121 151 194 251 302 347
#     4  10  21  35  59  90 121 152 194 247 296 358
#     4   9  18  32  60  89 115 153 192 238 297 343
#     4   9  18  36  59  85 119 151 193 244 290 355
#     4  10  21  40  59  83 113 157 206 237 292 360
#     4  11  22  38  61  82 112 160 198 247 289 358
#
# _framework density 22.568432000000001
#
# number of rings (size 3 to 8) (size 9 to 14) (size 15 to 20)
#    0.000    2.000    1.429    2.143    8.000    0.000 
#    0.000    4.286    0.000    0.000    0.000    0.000 
#    0.000    0.000    0.000    0.000    0.000    0.000 
#
# Total GULP energy -156181.397409 kJ/mol
# GULP energy per Si atom -5577.907050 kJ/mol
# Density = 2.251707 g / cm^3
# Si number density = 22.568432 Si / 1000 Ang^3
#
#
#
# Elastic Constant Matrix: (Units=GPa)
#
#
# Indices 1 2 3 4 5 6 
#
# 1 88.9553 35.1530 0.5553 0.0000 10.1344 0.0000
# 2 35.1530 116.2734 24.1183 0.0000 12.6169 0.0000
# 3 0.5553 24.1183 20.7741 0.0000 11.4796 0.0000
# 4 0.0000 0.0000 0.0000 32.7314 0.0000 11.2900
# 5 10.1344 12.6169 11.4796 0.0000 16.0989 0.0000
# 6 0.0000 0.0000 0.0000 11.2900 0.0000 23.3879
#
#
#
# Elastic Compliance Matrix: (Units=1/GPa)
#
#
# Indices 1 2 3 4 5 6 
#
# 1 0.015390 -0.006145 0.015538 0.000000 -0.015952 0.000000
# 2 -0.006145 0.013789 -0.019820 0.000000 0.007195 0.000000
# 3 0.015538 -0.019820 0.111481 0.000000 -0.073741 0.000000
# 4 0.000000 0.000000 0.000000 0.036655 0.000000 -0.017694
# 5 -0.015952 0.007195 -0.073741 0.000000 0.119102 0.000000
# 6 0.000000 0.000000 0.000000 -0.017694 0.000000 0.051299
#
#
# Mechanical properties :
#
#
# Convention : Reuss Voigt Hill
#
# Bulk Modulus (GPa) = 8.34688 38.40620 23.37654
# Shear Modulus (GPa) = 12.23976 25.52205 18.88090
#
# Velocity S-wave (km/s) = 2.33135 3.36650 2.89555
# Velocity P-wave (km/s) = 3.30959 5.67148 4.64322
#
# Compressibility (1/GPa) = 0.11980521
#
# Stress axis : x y z
#
# Youngs Moduli (GPa) = 64.97604 72.52319 8.97016
#
# Poissons Ratio (x) = 0.44565 -0.13937
# Poissons Ratio (y) = 0.39927 0.17779
# Poissons Ratio (z) = -1.00957 1.43740
#
# Static dielectric constant tensor:
#      x y z
#    x 1.887330 0.000000 0.017420 
#    y 0.000000 1.825220 0.000000 
#    z 0.017420 0.000000 1.895100 
# 
# From -- ./inp_files/79499.got.cif
#   From: 2010.05.17/outbox.cif.g08.bks.cpg/sg14_40_cif.got.tgz:79499.got - 2010.06.03 17:49:19.
