data_PCOD9244545
_publ_section_title
;
Structure prediction by ZEFSAII (Michael W. Deem and Ramdas Pophale) SiO2 
 PCOD9244545
Probable space group: P 21/C
;
_chemical_formula_sum "Si O2"
_cell_formula_units_Z 32
_cell_length_a 26.777132
_cell_length_b 5.899168
_cell_length_c 14.322140
_cell_angle_alpha 90.000000
_cell_angle_beta 137.638218
_cell_angle_gamma 90.000000
_cell_volume 1524.403633
_symmetry_space_group_name_H-M "P 21/C"
_symmetry_group_IT_number 14
_symmetry_cell_setting 'monoclinic'
loop_
_space_group_symop_operation_xyz
x,y,z
-x,1/2+y,1/2-z
-x,-y,-z
x,1/2-y,1/2+z
loop_
_atom_site_type_symbol
_atom_site_label
_atom_site_fract_x
_atom_site_fract_y
_atom_site_fract_z
Si Si1 0.756039 0.445726 0.688702
Si Si2 0.326954 0.258313 0.066182
Si Si3 0.913606 0.244416 0.918356
Si Si4 0.360348 0.934016 0.434489
Si Si5 0.512148 0.581850 0.216457
Si Si6 0.002277 0.842791 0.633512
Si Si7 0.262312 0.237753 0.166275
Si Si8 0.107126 0.456399 0.423684
O O1 0.731908 0.597285 0.567706
O O2 0.829396 0.301138 0.771889
O O3 0.685163 0.297229 0.621059
O O4 0.770696 0.600535 0.799615
O O5 0.402171 0.118592 0.190289
O O6 0.296584 0.351669 0.121829
O O7 0.346116 0.446113 0.015258
O O8 0.962484 0.177955 0.896023
O O9 0.954965 0.466609 0.015197
O O10 0.906082 0.082339 0.996329
O O11 0.448663 0.911777 0.549656
O O12 0.323727 0.087431 0.304056
O O13 0.505819 0.323473 0.251916
O O14 0.946109 0.758349 0.635123
O O15 0.074289 0.925356 0.788270
O O16 0.193459 0.090072 0.036346
#
# Coordination Sequence:
#
# PCOD9244545 Si02
#       8
#     4   4   4   4   4   4   4   4
#     4  11  21  43  62  90 126 164 208 263 321 383
#     4  10  23  41  64  94 126 169 216 257 325 390
#     4  11  23  41  62  85 120 162 205 256 311 382
#     4  10  22  41  65  92 129 171 207 265 324 379
#     4  10  20  41  69  96 137 181 222 274 329 397
#     4  11  24  40  62  87 117 161 206 251 319 377
#     4  11  24  40  64  95 127 160 214 270 317 385
#     4  12  22  43  59  90 123 157 205 262 316 374
#
# _framework density 20.991814999999999
#
# number of rings (size 3 to 8) (size 9 to 14) (size 15 to 20)
#    0.000    1.250    5.000    1.125    0.000    1.500 
#    4.500    0.625    0.000    0.000    0.000    0.000 
#    0.000    0.000    0.000    0.000    0.000    0.000 
#
# Total GULP energy -178374.051783 kJ/mol
# GULP energy per Si atom -5574.189118 kJ/mol
# Density = 2.094404 g / cm^3
# Si number density = 20.991815 Si / 1000 Ang^3
#
#
#
# Elastic Constant Matrix: (Units=GPa)
#
#
# Indices 1 2 3 4 5 6 
#
# 1 71.2094 -8.9135 25.6860 0.0000 -10.0442 0.0000
# 2 -8.9135 26.4942 1.7379 0.0000 -3.5005 0.0000
# 3 25.6860 1.7379 120.5257 0.0000 18.2650 0.0000
# 4 0.0000 0.0000 0.0000 28.6252 0.0000 3.6249
# 5 -10.0442 -3.5005 18.2650 0.0000 27.8092 0.0000
# 6 0.0000 0.0000 0.0000 3.6249 0.0000 26.2352
#
#
#
# Elastic Compliance Matrix: (Units=1/GPa)
#
#
# Indices 1 2 3 4 5 6 
#
# 1 0.018875 0.008291 -0.005923 0.000000 0.011751 0.000000
# 2 0.008291 0.042247 -0.004038 0.000000 0.010965 0.000000
# 3 -0.005923 -0.004038 0.011126 0.000000 -0.009955 0.000000
# 4 0.000000 0.000000 0.000000 0.035556 0.000000 -0.004913
# 5 0.011751 0.010965 -0.009955 0.000000 0.048122 0.000000
# 6 0.000000 0.000000 0.000000 -0.004913 0.000000 0.038795
#
#
# Mechanical properties :
#
#
# Convention : Reuss Voigt Hill
#
# Bulk Modulus (GPa) = 14.51186 28.36111 21.43648
# Shear Modulus (GPa) = 22.62127 29.84853 26.23490
#
# Velocity S-wave (km/s) = 3.28628 3.77492 3.53904
# Velocity P-wave (km/s) = 4.61818 5.70437 5.18977
#
# Compressibility (1/GPa) = 0.06890917
#
# Stress axis : x y z
#
# Youngs Moduli (GPa) = 52.98043 23.67029 89.87859
#
# Poissons Ratio (x) = -0.19626 0.53234
# Poissons Ratio (y) = -0.43927 0.36291
# Poissons Ratio (z) = 0.31380 0.09558
#
# Static dielectric constant tensor:
#      x y z
#    x 1.727760 0.000000 -0.000850 
#    y 0.000000 1.823750 0.000000 
#    z -0.000850 0.000000 1.745490 
# 
# From -- ./inp_files/52175.got.cif
#   From: 2010.05.17/outbox.cif.g08.bks.cpg/sg14_27_cif.got.tgz:52175.got - 2010.06.03 17:49:19.
