data_PCOD9244993
_publ_section_title
;
Structure prediction by ZEFSAII (Michael W. Deem and Ramdas Pophale) SiO2 
 PCOD9244993
Probable space group: P 21/C
;
_chemical_formula_sum "Si O2"
_cell_formula_units_Z 24
_cell_length_a 6.561068
_cell_length_b 11.239557
_cell_length_c 12.234632
_cell_angle_alpha 90.000000
_cell_angle_beta 89.999422
_cell_angle_gamma 90.000000
_cell_volume 902.224558
_symmetry_space_group_name_H-M "P 21/C"
_symmetry_group_IT_number 14
_symmetry_cell_setting 'monoclinic'
loop_
_space_group_symop_operation_xyz
x,y,z
-x,1/2+y,1/2-z
-x,-y,-z
x,1/2-y,1/2+z
loop_
_atom_site_type_symbol
_atom_site_label
_atom_site_fract_x
_atom_site_fract_y
_atom_site_fract_z
Si Si1 0.680961 0.926323 0.557962
Si Si2 0.933295 0.954369 0.135293
Si Si3 0.680962 0.573678 0.442038
Si Si4 0.312942 0.703251 0.373276
Si Si5 0.066701 0.454370 0.135293
Si Si6 0.312939 0.796748 0.626725
O O1 0.553099 0.830637 0.623628
O O2 0.828914 0.015352 0.622845
O O3 0.500000 0.000000 0.500000
O O4 0.833514 0.883278 0.463286
O O5 0.823421 0.083359 0.132357
O O6 0.885909 0.896456 0.250000
O O7 0.833512 0.883276 0.036715
O O8 0.171081 0.984649 0.122844
O O9 0.500000 0.500000 0.500000
O O10 0.553102 0.669364 0.376373
O O11 0.277343 0.749999 0.500001
O O12 0.279709 0.758371 0.250001
O O13 0.176573 0.583360 0.132358
#
# Coordination Sequence:
#
# PCOD9244993 Si02
#       6
#     4   4   4   4   4   4
#     4   9  18  34  56  80 105 140 182 227 278 328
#     4   9  18  34  55  79 108 142 183 231 279 328
#     4   9  18  34  56  80 105 140 182 227 278 328
#     4  10  21  36  54  79 113 151 187 226 274 328
#     4   9  18  34  55  79 108 142 183 231 279 328
#     4  10  21  36  54  79 113 151 187 226 274 328
#
# _framework density 26.600915000000001
#
# number of rings (size 3 to 8) (size 9 to 14) (size 15 to 20)
#    0.000    2.667    0.000    1.000    0.000    4.000 
#    0.000   18.333    0.000    0.000    0.000    0.000 
#    0.000    0.000    0.000    0.000    0.000    0.000 
#
# Total GULP energy -133718.481320 kJ/mol
# GULP energy per Si atom -5571.603388 kJ/mol
# Density = 2.654037 g / cm^3
# Si number density = 26.600915 Si / 1000 Ang^3
#
#
#
# Elastic Constant Matrix: (Units=GPa)
#
#
# Indices 1 2 3 4 5 6 
#
# 1 158.4612 39.3287 41.9269 0.0000 0.0026 0.0000
# 2 39.3287 68.7548 51.5747 0.0000 0.0004 0.0000
# 3 41.9269 51.5747 235.2623 0.0000 0.0048 0.0000
# 4 0.0000 0.0000 0.0000 25.6374 0.0000 0.0006
# 5 0.0026 0.0004 0.0048 0.0000 12.5115 0.0000
# 6 0.0000 0.0000 0.0000 0.0006 0.0000 47.1304
#
#
#
# Elastic Compliance Matrix: (Units=1/GPa)
#
#
# Indices 1 2 3 4 5 6 
#
# 1 0.007398 -0.003881 -0.000468 0.000000 -0.000001 0.000000
# 2 -0.003881 0.019443 -0.003571 0.000000 0.000002 0.000000
# 3 -0.000468 -0.003571 0.005117 0.000000 -0.000002 0.000000
# 4 0.000000 0.000000 0.000000 0.039005 0.000000 -0.000001
# 5 -0.000001 0.000002 -0.000002 0.000000 0.079927 0.000000
# 6 0.000000 0.000000 0.000000 -0.000001 0.000000 0.021218
#
#
# Mechanical properties :
#
#
# Convention : Reuss Voigt Hill
#
# Bulk Modulus (GPa) = 62.03888 80.90433 71.47161
# Shear Modulus (GPa) = 25.86415 39.03240 32.44827
#
# Velocity S-wave (km/s) = 3.12156 3.83473 3.49638
# Velocity P-wave (km/s) = 6.03033 7.07722 6.57465
#
# Compressibility (1/GPa) = 0.01611892
#
# Stress axis : x y z
#
# Youngs Moduli (GPa) = 135.17929 51.43310 195.43923
#
# Poissons Ratio (x) = 0.19960 0.09139
# Poissons Ratio (y) = 0.52460 0.69785
# Poissons Ratio (z) = 0.06321 0.18365
#
# Static dielectric constant tensor:
#      x y z
#    x 2.057090 0.000000 0.000000 
#    y 0.000000 2.179390 0.000000 
#    z 0.000000 0.000000 2.152640 
# 
# From -- ./inp_files/21227.got.cif
#   From: 2010.05.17/outbox.cif.g08.bks.cpg/sg14_11_cif.got.tgz:21227.got - 2010.06.03 17:49:19.
