data_PCOD9244794
_publ_section_title
;
Structure prediction by ZEFSAII (Michael W. Deem and Ramdas Pophale) SiO2 
 PCOD9244794
Probable space group: P 21/C
;
_chemical_formula_sum "Si O2"
_cell_formula_units_Z 30
_cell_length_a 11.183508
_cell_length_b 8.988665
_cell_length_c 15.779728
_cell_angle_alpha 90.000000
_cell_angle_beta 58.953371
_cell_angle_gamma 90.000000
_cell_volume 1359.019821
_symmetry_space_group_name_H-M "P 21/C"
_symmetry_group_IT_number 14
_symmetry_cell_setting 'monoclinic'
loop_
_space_group_symop_operation_xyz
x,y,z
-x,1/2+y,1/2-z
-x,-y,-z
x,1/2-y,1/2+z
loop_
_atom_site_type_symbol
_atom_site_label
_atom_site_fract_x
_atom_site_fract_y
_atom_site_fract_z
Si Si1 0.852880 0.093265 0.931921
Si Si2 0.751276 0.093083 0.219831
Si Si3 0.191175 0.250633 0.038305
Si Si4 0.000000 0.500000 0.500000
Si Si5 0.839378 0.975289 0.587519
Si Si6 0.399274 0.109897 0.591546
Si Si7 0.908649 0.118160 0.719668
Si Si8 0.363698 0.749334 0.890573
O O1 0.906647 0.087068 0.818967
O O2 0.851035 0.920870 0.967158
O O3 0.706497 0.167329 0.003081
O O4 0.953087 0.157372 0.966948
O O5 0.806167 0.244626 0.241437
O O6 0.636813 0.141727 0.190653
O O7 0.876922 0.027942 0.118691
O O8 0.703838 0.989698 0.313974
O O9 0.317999 0.280032 0.056629
O O10 0.058872 0.328775 0.131444
O O11 0.218397 0.333110 0.940383
O O12 0.851531 0.981877 0.684560
O O13 0.736585 0.109970 0.596411
O O14 0.000000 0.000000 0.500000
O O15 0.490065 0.195225 0.628267
O O16 0.500000 0.000000 0.500000
#
# Coordination Sequence:
#
# PCOD9244794 Si02
#       8
#     4   4   4   2   4   4   4   4
#     4  11  23  40  66 101 133 174 224 294 340 407
#     4  10  22  44  69  99 134 180 231 286 343 407
#     4  11  23  40  65 102 132 178 231 278 350 411
#     4  10  20  44  68  98 134 170 218 290 350 394
#     4   9  20  40  65  93 133 174 227 284 342 399
#     4  12  24  45  69  98 141 192 229 272 349 427
#     4  10  21  40  66 101 134 167 231 292 350 389
#     4  10  23  45  65  95 139 184 224 281 345 409
#
# _framework density 22.074735
#
# number of rings (size 3 to 8) (size 9 to 14) (size 15 to 20)
#    0.000    1.600    2.667    1.600    1.867    1.600 
#   14.400    0.000    0.000    0.000    0.000    0.000 
#    0.000    0.000    0.000    0.000    0.000    0.000 
#
# Total GULP energy -167131.251845 kJ/mol
# GULP energy per Si atom -5571.041728 kJ/mol
# Density = 2.202449 g / cm^3
# Si number density = 22.074735 Si / 1000 Ang^3
#
#
#
# Elastic Constant Matrix: (Units=GPa)
#
#
# Indices 1 2 3 4 5 6 
#
# 1 93.3202 4.3338 1.0707 0.0000 9.8883 0.0000
# 2 4.3338 54.4329 14.7591 0.0000 -2.0202 0.0000
# 3 1.0707 14.7591 121.5420 0.0000 16.7264 0.0000
# 4 0.0000 0.0000 0.0000 30.2422 0.0000 0.9435
# 5 9.8883 -2.0202 16.7264 0.0000 13.0734 0.0000
# 6 0.0000 0.0000 0.0000 0.9435 0.0000 23.6188
#
#
#
# Elastic Compliance Matrix: (Units=1/GPa)
#
#
# Indices 1 2 3 4 5 6 
#
# 1 0.012006 -0.001848 0.001708 0.000000 -0.011552 0.000000
# 2 -0.001848 0.019847 -0.003651 0.000000 0.009136 0.000000
# 3 0.001708 -0.003651 0.010816 0.000000 -0.015694 0.000000
# 4 0.000000 0.000000 0.000000 0.033108 0.000000 -0.001323
# 5 -0.011552 0.009136 -0.015694 0.000000 0.106721 0.000000
# 6 0.000000 0.000000 0.000000 -0.001323 0.000000 0.042392
#
#
# Mechanical properties :
#
#
# Convention : Reuss Voigt Hill
#
# Bulk Modulus (GPa) = 28.49962 34.40248 31.45105
# Shear Modulus (GPa) = 20.47780 29.99564 25.23672
#
# Velocity S-wave (km/s) = 3.04905 3.69022 3.38485
# Velocity P-wave (km/s) = 5.03331 5.81166 5.43643
#
# Compressibility (1/GPa) = 0.03508818
#
# Stress axis : x y z
#
# Youngs Moduli (GPa) = 83.29081 50.38431 92.45757
#
# Poissons Ratio (x) = 0.09311 -0.15796
# Poissons Ratio (y) = 0.15391 0.33758
# Poissons Ratio (z) = -0.14230 0.18396
#
# Static dielectric constant tensor:
#      x y z
#    x 1.411300 0.000000 -0.143180 
#    y 0.000000 1.806500 0.000000 
#    z -0.143180 0.000000 1.725740 
# 
# From -- ./inp_files/43653.got.cif
#   From: 2010.05.17/outbox.cif.g08.bks.cpg/sg14_22_cif.got.tgz:43653.got - 2010.06.03 17:49:19.
