data_PCOD9244702
_publ_section_title
;
Structure prediction by ZEFSAII (Michael W. Deem and Ramdas Pophale) SiO2 
 PCOD9244702
Probable space group: P 21/C
;
_chemical_formula_sum "Si O2"
_cell_formula_units_Z 30
_cell_length_a 13.787695
_cell_length_b 13.044365
_cell_length_c 8.887083
_cell_angle_alpha 90.000000
_cell_angle_beta 130.375815
_cell_angle_gamma 90.000000
_cell_volume 1217.647415
_symmetry_space_group_name_H-M "P 21/C"
_symmetry_group_IT_number 14
_symmetry_cell_setting 'monoclinic'
loop_
_space_group_symop_operation_xyz
x,y,z
-x,1/2+y,1/2-z
-x,-y,-z
x,1/2-y,1/2+z
loop_
_atom_site_type_symbol
_atom_site_label
_atom_site_fract_x
_atom_site_fract_y
_atom_site_fract_z
Si Si1 0.153993 0.980034 0.825813
Si Si2 0.593010 0.678009 0.851066
Si Si3 0.949747 0.665612 0.589872
Si Si4 0.265139 0.981310 0.414371
Si Si5 0.678842 0.163212 0.794293
Si Si6 0.746091 0.812169 0.224824
Si Si7 0.133764 0.845582 0.533084
Si Si8 0.000000 0.000000 0.000000
O O1 0.077484 0.040587 0.884797
O O2 0.206759 0.076979 0.784760
O O3 0.087967 0.903905 0.638752
O O4 0.255080 0.910450 0.014262
O O5 0.630978 0.565138 0.941085
O O6 0.696478 0.752949 0.029938
O O7 0.452666 0.700311 0.765358
O O8 0.622144 0.681083 0.704815
O O9 0.851161 0.745464 0.422772
O O10 0.044542 0.624419 0.558825
O O11 0.021781 0.698269 0.812925
O O12 0.332159 0.903968 0.366749
O O13 0.207548 0.927913 0.503856
O O14 0.142597 0.036460 0.217852
O O15 0.761700 0.260927 0.833691
#
# Coordination Sequence:
#
# PCOD9244702 Si02
#       8
#     4   4   4   4   4   4   4   2
#     4  12  25  49  73 110 145 194 245 299 373 436
#     4  12  27  47  74 104 145 189 249 300 361 442
#     4  11  24  46  76 107 147 185 238 303 364 442
#     4  11  23  46  70 102 140 190 231 295 368 421
#     4  12  28  47  72 103 149 195 244 298 365 436
#     4  12  26  47  76 109 143 194 245 303 367 432
#     4  11  27  44  72 109 145 187 242 303 361 431
#     4  10  20  42  72 100 142 180 230 292 362 428
#
# _framework density 24.637674000000001
#
# number of rings (size 3 to 8) (size 9 to 14) (size 15 to 20)
#    0.000    0.533    5.333    1.600    3.733    6.933 
#    0.000    0.000    0.000    0.000    0.000    0.000 
#    0.000    0.000    0.000    0.000    0.000    0.000 
#
# Total GULP energy -167432.677611 kJ/mol
# GULP energy per Si atom -5581.089254 kJ/mol
# Density = 2.458160 g / cm^3
# Si number density = 24.637674 Si / 1000 Ang^3
#
#
#
# Elastic Constant Matrix: (Units=GPa)
#
#
# Indices 1 2 3 4 5 6 
#
# 1 112.3746 36.6509 24.3836 0.0000 -14.2591 0.0000
# 2 36.6509 100.0227 41.8171 0.0000 -9.5042 0.0000
# 3 24.3836 41.8171 57.1195 0.0000 -19.1985 0.0000
# 4 0.0000 0.0000 0.0000 28.7452 0.0000 -11.0511
# 5 -14.2591 -9.5042 -19.1985 0.0000 37.6610 0.0000
# 6 0.0000 0.0000 0.0000 -11.0511 0.0000 40.3678
#
#
#
# Elastic Compliance Matrix: (Units=1/GPa)
#
#
# Indices 1 2 3 4 5 6 
#
# 1 0.010510 -0.003009 -0.001450 0.000000 0.002481 0.000000
# 2 -0.003009 0.015408 -0.010947 0.000000 -0.002832 0.000000
# 3 -0.001450 -0.010947 0.030202 0.000000 0.012085 0.000000
# 4 0.000000 0.000000 0.000000 0.038881 0.000000 0.010644
# 5 0.002481 -0.002832 0.012085 0.000000 0.032938 0.000000
# 6 0.000000 0.000000 0.000000 0.010644 0.000000 0.027686
#
#
# Mechanical properties :
#
#
# Convention : Reuss Voigt Hill
#
# Bulk Modulus (GPa) = 39.51366 52.80220 46.15793
# Shear Modulus (GPa) = 25.65775 32.46581 29.06178
#
# Velocity S-wave (km/s) = 3.23058 3.63399 3.43821
# Velocity P-wave (km/s) = 5.47615 6.25187 5.87682
#
# Compressibility (1/GPa) = 0.02530770
#
# Stress axis : x y z
#
# Youngs Moduli (GPa) = 95.15131 64.90050 33.11003
#
# Poissons Ratio (x) = 0.19530 0.04799
# Poissons Ratio (y) = 0.28633 0.36247
# Poissons Ratio (z) = 0.13792 0.71049
#
# Static dielectric constant tensor:
#      x y z
#    x 2.262670 0.000000 -0.178040 
#    y 0.000000 2.059330 0.000000 
#    z -0.178040 0.000000 2.104440 
# 
# From -- ./inp_files/16306.got.cif
#   From: 2010.05.17/outbox.cif.g08.bks.cpg/sg14_9_cif.got.tgz:16306.got - 2010.06.03 17:49:19.
