data_PCOD9244013
_publ_section_title
;
Structure prediction by ZEFSAII (Michael W. Deem and Ramdas Pophale) SiO2 
 PCOD9244013
Probable space group: P 21/C
;
_chemical_formula_sum "Si O2"
_cell_formula_units_Z 24
_cell_length_a 9.323252
_cell_length_b 10.348498
_cell_length_c 10.017103
_cell_angle_alpha 90.000000
_cell_angle_beta 94.540137
_cell_angle_gamma 90.000000
_cell_volume 963.434023
_symmetry_space_group_name_H-M "P 21/C"
_symmetry_group_IT_number 14
_symmetry_cell_setting 'monoclinic'
loop_
_space_group_symop_operation_xyz
x,y,z
-x,1/2+y,1/2-z
-x,-y,-z
x,1/2-y,1/2+z
loop_
_atom_site_type_symbol
_atom_site_label
_atom_site_fract_x
_atom_site_fract_y
_atom_site_fract_z
Si Si1 0.171034 0.358671 0.477497
Si Si2 0.571148 0.313730 0.384261
Si Si3 0.912033 0.098820 0.139819
Si Si4 0.172252 0.665072 0.966286
Si Si5 0.567717 0.616843 0.336909
Si Si6 0.886916 0.907128 0.603436
O O1 0.203128 0.488158 0.396910
O O2 0.266321 0.353074 0.615804
O O3 0.187608 0.231370 0.392862
O O4 0.006729 0.376485 0.513901
O O5 0.725649 0.247235 0.429822
O O6 0.563907 0.459571 0.321069
O O7 0.493967 0.207463 0.284311
O O8 0.505011 0.338540 0.527553
O O9 0.018638 0.055401 0.262252
O O10 0.846540 0.239493 0.160576
O O11 0.012086 0.625519 0.004085
O O12 0.224450 0.520525 0.938490
#
# Coordination Sequence:
#
# PCOD9244013 Si02
#       6
#     4   4   4   4   4   4
#     4  10  22  39  60  96 125 165 230 275 340 410
#     4  11  27  47  71  99 139 188 236 290 348 416
#     4  10  20  39  64  89 128 172 211 288 346 396
#     4  10  22  41  59  99 129 167 223 274 344 410
#     4  11  27  48  69 100 137 189 236 292 347 416
#     4  10  22  36  66  95 127 169 213 280 346 413
#
# _framework density 24.910892
#
# number of rings (size 3 to 8) (size 9 to 14) (size 15 to 20)
#    0.000    1.667    1.667    1.000    7.000    2.000 
#    0.000    0.000    0.000    0.000    0.000    0.000 
#    0.000    0.000    0.000    0.000    0.000    0.000 
#
# Total GULP energy -133841.606026 kJ/mol
# GULP energy per Si atom -5576.733584 kJ/mol
# Density = 2.485419 g / cm^3
# Si number density = 24.910892 Si / 1000 Ang^3
#
#
#
# Elastic Constant Matrix: (Units=GPa)
#
#
# Indices 1 2 3 4 5 6 
#
# 1 74.5863 47.9508 34.3624 0.0000 14.8116 0.0000
# 2 47.9508 267.4287 81.8621 0.0000 20.3622 0.0000
# 3 34.3624 81.8621 102.3240 0.0000 14.0547 0.0000
# 4 0.0000 0.0000 0.0000 44.1027 0.0000 22.2564
# 5 14.8116 20.3622 14.0547 0.0000 43.7031 0.0000
# 6 0.0000 0.0000 0.0000 22.2564 0.0000 18.4736
#
#
#
# Elastic Compliance Matrix: (Units=1/GPa)
#
#
# Indices 1 2 3 4 5 6 
#
# 1 0.016966 -0.001549 -0.003942 0.000000 -0.003761 0.000000
# 2 -0.001549 0.005143 -0.003491 0.000000 -0.000748 0.000000
# 3 -0.003942 -0.003491 0.014106 0.000000 -0.001574 0.000000
# 4 0.000000 0.000000 0.000000 0.057841 0.000000 -0.069685
# 5 -0.003761 -0.000748 -0.001574 0.000000 0.025011 0.000000
# 6 0.000000 0.000000 0.000000 -0.069685 0.000000 0.138086
#
#
# Mechanical properties :
#
#
# Convention : Reuss Voigt Hill
#
# Bulk Modulus (GPa) = 54.79322 85.85440 70.32381
# Shear Modulus (GPa) = 17.78091 39.93344 28.85718
#
# Velocity S-wave (km/s) = 2.67457 4.00816 3.40724
# Velocity P-wave (km/s) = 5.61971 7.48063 6.61593
#
# Compressibility (1/GPa) = 0.01825043
#
# Stress axis : x y z
#
# Youngs Moduli (GPa) = 58.94158 194.44685 70.89233
#
# Poissons Ratio (x) = 0.30123 0.27943
# Poissons Ratio (y) = 0.09131 0.24751
# Poissons Ratio (z) = 0.23232 0.67888
#
# Static dielectric constant tensor:
#      x y z
#    x 2.108140 0.000000 -0.086440 
#    y 0.000000 2.186240 0.000000 
#    z -0.086440 0.000000 1.937650 
# 
# From -- ./inp_files/28181.got.cif
#   From: 2010.05.17/outbox.cif.g08.bks.cpg/sg14_15_cif.got.tgz:28181.got - 2010.06.03 17:49:19.
