data_PCOD9244062
_publ_section_title
;
Structure prediction by ZEFSAII (Michael W. Deem and Ramdas Pophale) SiO2 
 PCOD9244062
Probable space group: P 21/C
;
_chemical_formula_sum "Si O2"
_cell_formula_units_Z 28
_cell_length_a 8.678694
_cell_length_b 12.816117
_cell_length_c 12.339681
_cell_angle_alpha 90.000000
_cell_angle_beta 70.473419
_cell_angle_gamma 90.000000
_cell_volume 1293.569965
_symmetry_space_group_name_H-M "P 21/C"
_symmetry_group_IT_number 14
_symmetry_cell_setting 'monoclinic'
loop_
_space_group_symop_operation_xyz
x,y,z
-x,1/2+y,1/2-z
-x,-y,-z
x,1/2-y,1/2+z
loop_
_atom_site_type_symbol
_atom_site_label
_atom_site_fract_x
_atom_site_fract_y
_atom_site_fract_z
Si Si1 0.283853 0.893613 0.076013
Si Si2 0.240258 0.301340 0.991652
Si Si3 0.258038 0.599043 0.344642
Si Si4 0.989571 0.738857 0.138920
Si Si5 0.905200 0.895392 0.863763
Si Si6 0.713498 0.893336 0.295772
Si Si7 0.467571 0.778602 0.212324
O O1 0.413219 0.862850 0.136262
O O2 0.164814 0.792997 0.091599
O O3 0.180440 0.994763 0.134198
O O4 0.344264 0.917055 0.940203
O O5 0.079600 0.310743 0.955132
O O6 0.396189 0.294252 0.876939
O O7 0.217783 0.189326 0.056665
O O8 0.259604 0.384507 0.082529
O O9 0.295862 0.507772 0.251385
O O10 0.316387 0.708936 0.284767
O O11 0.062078 0.594976 0.405269
O O12 0.974917 0.653752 0.236968
O O13 0.862653 0.831186 0.202772
O O14 0.552516 0.831841 0.295282
#
# Coordination Sequence:
#
# PCOD9244062 Si02
#       7
#     4   4   4   4   4   4   4
#     4  12  22  39  67  96 124 163 214 263 312 372
#     4  10  22  43  63  90 133 173 206 260 319 372
#     4  12  23  40  68  94 126 169 214 261 317 373
#     4  10  20  39  65  94 125 164 211 257 316 372
#     4  11  22  39  69  96 123 167 213 264 314 377
#     4  10  23  41  64  92 128 171 212 257 314 379
#     4  11  25  40  63  98 133 165 209 265 315 375
#
# _framework density 21.645524999999999
#
# number of rings (size 3 to 8) (size 9 to 14) (size 15 to 20)
#    0.000    1.143    4.286    3.000    0.000    6.286 
#    0.000    2.143    0.000    0.000    0.000    0.000 
#    0.000    0.000    0.000    0.000    0.000    0.000 
#
# Total GULP energy -156584.949917 kJ/mol
# GULP energy per Si atom -5592.319640 kJ/mol
# Density = 2.159626 g / cm^3
# Si number density = 21.645525 Si / 1000 Ang^3
#
#
#
# Elastic Constant Matrix: (Units=GPa)
#
#
# Indices 1 2 3 4 5 6 
#
# 1 45.5395 -4.3662 2.9267 0.0000 8.3696 0.0000
# 2 -4.3662 56.1076 14.7779 0.0000 3.6201 0.0000
# 3 2.9267 14.7779 63.8488 0.0000 22.9924 0.0000
# 4 0.0000 0.0000 0.0000 26.7749 0.0000 1.8437
# 5 8.3696 3.6201 22.9924 0.0000 36.6298 0.0000
# 6 0.0000 0.0000 0.0000 1.8437 0.0000 25.0729
#
#
#
# Elastic Compliance Matrix: (Units=1/GPa)
#
#
# Indices 1 2 3 4 5 6 
#
# 1 0.023194 0.002031 0.000578 0.000000 -0.005863 0.000000
# 2 0.002031 0.019195 -0.004762 0.000000 0.000628 0.000000
# 3 0.000578 -0.004762 0.021468 0.000000 -0.013137 0.000000
# 4 0.000000 0.000000 0.000000 0.037538 0.000000 -0.002760
# 5 -0.005863 0.000628 -0.013137 0.000000 0.036824 0.000000
# 6 0.000000 0.000000 0.000000 -0.002760 0.000000 0.040087
#
#
# Mechanical properties :
#
#
# Convention : Reuss Voigt Hill
#
# Bulk Modulus (GPa) = 16.79214 21.35252 19.07233
# Shear Modulus (GPa) = 24.69598 27.83938 26.26768
#
# Velocity S-wave (km/s) = 3.38143 3.59018 3.48737
# Velocity P-wave (km/s) = 4.79792 5.20307 5.00460
#
# Compressibility (1/GPa) = 0.05955168
#
# Stress axis : x y z
#
# Youngs Moduli (GPa) = 43.11438 52.09798 46.58010
#
# Poissons Ratio (x) = -0.10581 -0.02693
# Poissons Ratio (y) = -0.08756 0.22181
# Poissons Ratio (z) = -0.02493 0.24808
#
# Static dielectric constant tensor:
#      x y z
#    x 1.797760 0.000000 0.004590 
#    y 0.000000 1.752180 0.000000 
#    z 0.004590 0.000000 1.799030 
# 
# From -- ./inp_files/25176.got.cif
#   From: 2010.05.17/outbox.cif.g08.bks.cpg/sg14_13_cif.got.tgz:25176.got - 2010.06.03 17:49:19.
