data_PCOD9244977
_publ_section_title
;
Structure prediction by ZEFSAII (Michael W. Deem and Ramdas Pophale) SiO2 
 PCOD9244977
Probable space group: P 21/C
;
_chemical_formula_sum "Si O2"
_cell_formula_units_Z 28
_cell_length_a 10.853948
_cell_length_b 16.309969
_cell_length_c 9.995567
_cell_angle_alpha 90.000000
_cell_angle_beta 138.618193
_cell_angle_gamma 90.000000
_cell_volume 1169.763737
_symmetry_space_group_name_H-M "P 21/C"
_symmetry_group_IT_number 14
_symmetry_cell_setting 'monoclinic'
loop_
_space_group_symop_operation_xyz
x,y,z
-x,1/2+y,1/2-z
-x,-y,-z
x,1/2-y,1/2+z
loop_
_atom_site_type_symbol
_atom_site_label
_atom_site_fract_x
_atom_site_fract_y
_atom_site_fract_z
Si Si1 0.675616 0.193670 0.398782
Si Si2 0.920871 0.721776 0.690998
Si Si3 0.900104 0.651805 0.392940
Si Si4 0.710144 0.923415 0.143126
Si Si5 0.688905 0.371134 0.350761
Si Si6 0.290049 0.598833 0.336813
Si Si7 0.590335 0.953762 0.741258
O O1 0.589077 0.282478 0.287518
O O2 0.746209 0.159323 0.313462
O O3 0.560135 0.121162 0.378479
O O4 0.856671 0.215906 0.630411
O O5 0.852846 0.647927 0.732293
O O6 0.849969 0.706854 0.483296
O O7 0.860808 0.801575 0.723032
O O8 0.121511 0.635082 0.581204
O O9 0.768236 0.573495 0.299981
O O10 0.766139 0.007824 0.257994
O O11 0.514189 0.895153 0.042980
O O12 0.652449 0.950482 0.946637
O O13 0.780660 0.388157 0.572468
O O14 0.563422 0.448218 0.199032
#
# Coordination Sequence:
#
# PCOD9244977 Si02
#       7
#     4   4   4   4   4   4   4
#     4  10  22  35  63  89 126 153 205 255 307 360
#     4  10  22  38  61  91 126 156 205 255 308 361
#     4  10  22  39  63  88 122 165 207 250 304 368
#     4   8  17  36  63  85 121 155 206 247 298 369
#     4  10  21  35  66  84 125 159 205 246 312 363
#     4   9  18  36  61  90 114 164 200 244 307 366
#     4   9  19  41  60  92 114 167 210 247 298 378
#
# _framework density 23.936457999999998
#
# number of rings (size 3 to 8) (size 9 to 14) (size 15 to 20)
#    0.000    2.571    0.000    1.286   10.000    0.571 
#    0.000    0.714    3.143    0.000    0.000    0.000 
#    0.000    0.000    0.000    0.000    0.000    0.000 
#
# Total GULP energy -156007.445824 kJ/mol
# GULP energy per Si atom -5571.694494 kJ/mol
# Density = 2.388198 g / cm^3
# Si number density = 23.936458 Si / 1000 Ang^3
#
#
#
# Elastic Constant Matrix: (Units=GPa)
#
#
# Indices 1 2 3 4 5 6 
#
# 1 98.6533 45.5315 10.9602 0.0000 -2.0524 0.0000
# 2 45.5315 69.4747 -3.6303 0.0000 14.0767 0.0000
# 3 10.9602 -3.6303 27.5428 0.0000 -1.1456 0.0000
# 4 0.0000 0.0000 0.0000 21.8738 0.0000 -1.9589
# 5 -2.0524 14.0767 -1.1456 0.0000 28.3842 0.0000
# 6 0.0000 0.0000 0.0000 -1.9589 0.0000 43.6905
#
#
#
# Elastic Compliance Matrix: (Units=1/GPa)
#
#
# Indices 1 2 3 4 5 6 
#
# 1 0.017391 -0.013364 -0.008368 0.000000 0.007547 0.000000
# 2 -0.013364 0.026359 0.008222 0.000000 -0.013707 0.000000
# 3 -0.008368 0.008222 0.040594 0.000000 -0.003044 0.000000
# 4 0.000000 0.000000 0.000000 0.045901 0.000000 0.002058
# 5 0.007547 -0.013707 -0.003044 0.000000 0.042451 0.000000
# 6 0.000000 0.000000 0.000000 0.002058 0.000000 0.022981
#
#
# Mechanical properties :
#
#
# Convention : Reuss Voigt Hill
#
# Bulk Modulus (GPa) = 17.44455 33.48818 25.46637
# Shear Modulus (GPa) = 20.67778 28.31033 24.49405
#
# Velocity S-wave (km/s) = 2.94234 3.44281 3.20237
# Velocity P-wave (km/s) = 4.34129 5.46121 4.93313
#
# Compressibility (1/GPa) = 0.05732448
#
# Stress axis : x y z
#
# Youngs Moduli (GPa) = 57.50044 37.93770 24.63401
#
# Poissons Ratio (x) = 0.50700 0.20614
# Poissons Ratio (y) = 0.76844 -0.20255
# Poissons Ratio (z) = 0.48117 -0.31193
#
# Static dielectric constant tensor:
#      x y z
#    x 1.965620 0.000000 0.000060 
#    y 0.000000 2.042140 0.000000 
#    z 0.000060 0.000000 1.895170 
# 
# From -- ./inp_files/29862.got.cif
#   From: 2010.05.17/outbox.cif.g08.bks.cpg/sg14_15_cif.got.tgz:29862.got - 2010.06.03 17:49:19.
