data_PCOD9244010
_publ_section_title
;
Structure prediction by ZEFSAII (Michael W. Deem and Ramdas Pophale) SiO2 
 PCOD9244010
Probable space group: P 21/C
;
_chemical_formula_sum "Si O2"
_cell_formula_units_Z 20
_cell_length_a 13.101086
_cell_length_b 8.147028
_cell_length_c 10.284957
_cell_angle_alpha 90.000000
_cell_angle_beta 44.081781
_cell_angle_gamma 90.000000
_cell_volume 763.697305
_symmetry_space_group_name_H-M "P 21/C"
_symmetry_group_IT_number 14
_symmetry_cell_setting 'monoclinic'
loop_
_space_group_symop_operation_xyz
x,y,z
-x,1/2+y,1/2-z
-x,-y,-z
x,1/2-y,1/2+z
loop_
_atom_site_type_symbol
_atom_site_label
_atom_site_fract_x
_atom_site_fract_y
_atom_site_fract_z
Si Si1 0.253008 0.986730 0.142251
Si Si2 0.302353 0.921070 0.371217
Si Si3 0.422668 0.208272 0.783672
Si Si4 0.009531 0.976392 0.774931
Si Si5 0.172528 0.183464 0.844478
O O1 0.318746 0.884847 0.201806
O O2 0.171028 0.132651 0.296500
O O3 0.122083 0.922760 0.172529
O O4 0.367789 0.088789 0.949821
O O5 0.362361 0.105766 0.348202
O O6 0.402726 0.799588 0.364768
O O7 0.132634 0.915580 0.563836
O O8 0.340869 0.142693 0.729333
O O9 0.101081 0.073906 0.799586
O O10 0.917976 0.841763 0.940438
#
# Coordination Sequence:
#
# PCOD9244010 Si02
#       5
#     4   4   4   4   4
#     4  10  20  41  65  89 124 163 207 264 308 367
#     4  11  22  41  61  95 124 172 203 260 305 374
#     4  10  22  41  62  88 133 164 209 246 317 367
#     4  10  20  39  64  89 121 158 212 252 319 363
#     4   9  20  40  62  88 123 164 196 270 312 361
#
# _framework density 26.188386999999999
#
# number of rings (size 3 to 8) (size 9 to 14) (size 15 to 20)
#    0.000    2.000    2.000    1.200    0.000    0.800 
#   10.800    0.000    0.000    0.000    0.000    0.000 
#    0.000    0.000    0.000    0.000    0.000    0.000 
#
# Total GULP energy -111926.104807 kJ/mol
# GULP energy per Si atom -5596.305240 kJ/mol
# Density = 2.612878 g / cm^3
# Si number density = 26.188387 Si / 1000 Ang^3
#
#
#
# Elastic Constant Matrix: (Units=GPa)
#
#
# Indices 1 2 3 4 5 6 
#
# 1 163.8963 4.7729 53.7824 0.0000 -19.6539 0.0000
# 2 4.7729 37.6104 -0.2385 0.0000 -1.5100 0.0000
# 3 53.7824 -0.2385 83.3125 0.0000 -22.7310 0.0000
# 4 0.0000 0.0000 0.0000 34.1711 0.0000 -9.3251
# 5 -19.6539 -1.5100 -22.7310 0.0000 49.0974 0.0000
# 6 0.0000 0.0000 0.0000 -9.3251 0.0000 23.8036
#
#
#
# Elastic Compliance Matrix: (Units=1/GPa)
#
#
# Indices 1 2 3 4 5 6 
#
# 1 0.007813 -0.000987 -0.004809 0.000000 0.000871 0.000000
# 2 -0.000987 0.026754 0.000951 0.000000 0.000868 0.000000
# 3 -0.004809 0.000951 0.016703 0.000000 0.005837 0.000000
# 4 0.000000 0.000000 0.000000 0.032768 0.000000 0.012837
# 5 0.000871 0.000868 0.005837 0.000000 0.023445 0.000000
# 6 0.000000 0.000000 0.000000 0.012837 0.000000 0.047039
#
#
# Mechanical properties :
#
#
# Convention : Reuss Voigt Hill
#
# Bulk Modulus (GPa) = 24.05038 44.60586 34.32812
# Shear Modulus (GPa) = 28.07859 36.51459 32.29659
#
# Velocity S-wave (km/s) = 3.27796 3.73809 3.51556
# Velocity P-wave (km/s) = 4.85080 5.97501 5.44201
#
# Compressibility (1/GPa) = 0.04157939
#
# Stress axis : x y z
#
# Youngs Moduli (GPa) = 127.99965 37.37692 59.87109
#
# Poissons Ratio (x) = 0.03689 0.28790
# Poissons Ratio (y) = 0.12633 -0.05691
# Poissons Ratio (z) = 0.61550 -0.03553
#
# Static dielectric constant tensor:
#      x y z
#    x 2.125400 0.000000 0.028410 
#    y 0.000000 2.069440 0.000000 
#    z 0.028410 0.000000 2.067490 
# 
# From -- ./inp_files/23109.got.cif
#   From: 2010.05.17/outbox.cif.g08.bks.cpg/sg14_12_cif.got.tgz:23109.got - 2010.06.03 17:49:19.
