data_PCOD9244241
_publ_section_title
;
Structure prediction by ZEFSAII (Michael W. Deem and Ramdas Pophale) SiO2 
 PCOD9244241
Probable space group: P 21/C
;
_chemical_formula_sum "Si O2"
_cell_formula_units_Z 32
_cell_length_a 11.689874
_cell_length_b 14.891226
_cell_length_c 14.612621
_cell_angle_alpha 90.000000
_cell_angle_beta 149.493692
_cell_angle_gamma 90.000000
_cell_volume 1291.274104
_symmetry_space_group_name_H-M "P 21/C"
_symmetry_group_IT_number 14
_symmetry_cell_setting 'monoclinic'
loop_
_space_group_symop_operation_xyz
x,y,z
-x,1/2+y,1/2-z
-x,-y,-z
x,1/2-y,1/2+z
loop_
_atom_site_type_symbol
_atom_site_label
_atom_site_fract_x
_atom_site_fract_y
_atom_site_fract_z
Si Si1 0.854727 0.627737 0.392674
Si Si2 0.105206 0.706735 0.002426
Si Si3 0.530615 0.204566 0.099009
Si Si4 0.237789 0.807561 0.390781
Si Si5 0.214491 0.273381 0.008400
Si Si6 0.915802 0.490289 0.291220
Si Si7 0.194572 0.427071 0.125804
Si Si8 0.632293 0.986803 0.995001
O O1 0.730307 0.704090 0.369248
O O2 0.941382 0.560041 0.530202
O O3 0.046410 0.689994 0.479313
O O4 0.782594 0.567895 0.255242
O O5 0.232171 0.694436 0.995611
O O6 0.880116 0.645407 0.847898
O O7 0.247525 0.679490 0.190061
O O8 0.582517 0.242476 0.035030
O O9 0.416649 0.282914 0.077634
O O10 0.368557 0.120859 0.006847
O O11 0.234405 0.911078 0.355762
O O12 0.004689 0.764703 0.192919
O O13 0.172877 0.370665 0.019484
O O14 0.115132 0.518862 0.356263
O O15 0.444573 0.467624 0.301224
O O16 0.000000 0.500000 0.000000
O O17 0.500000 0.000000 0.000000
#
# Coordination Sequence:
#
# PCOD9244241 Si02
#       8
#     4   4   4   4   4   4   4   4
#     4   9  19  39  63  88 119 169 206 263 321 374
#     4  11  23  42  65  91 131 174 209 264 337 380
#     4  12  23  44  63  98 133 166 217 270 327 391
#     4  11  22  43  64  92 130 171 212 272 321 395
#     4  10  22  42  65  90 130 165 215 267 325 390
#     4  10  20  40  64  92 123 162 223 267 310 387
#     4  11  22  41  65  92 130 172 207 270 333 374
#     4  12  25  38  64  98 128 168 226 269 314 399
#
# _framework density 24.781724000000001
#
# number of rings (size 3 to 8) (size 9 to 14) (size 15 to 20)
#    0.000    1.250    7.500    0.750    3.500    0.000 
#    4.500    0.000    0.000    1.500    0.000    0.000 
#    0.000    0.000    0.000    0.000    0.000    0.000 
#
# Total GULP energy -178539.503717 kJ/mol
# GULP energy per Si atom -5579.359491 kJ/mol
# Density = 2.472532 g / cm^3
# Si number density = 24.781724 Si / 1000 Ang^3
#
#
#
# Elastic Constant Matrix: (Units=GPa)
#
#
# Indices 1 2 3 4 5 6 
#
# 1 113.5261 15.7837 7.2708 0.0000 -8.9291 0.0000
# 2 15.7837 45.3903 5.9394 0.0000 2.3469 0.0000
# 3 7.2708 5.9394 52.6139 0.0000 10.8390 0.0000
# 4 0.0000 0.0000 0.0000 1.5199 0.0000 -7.7015
# 5 -8.9291 2.3469 10.8390 0.0000 33.5150 0.0000
# 6 0.0000 0.0000 0.0000 -7.7015 0.0000 37.3936
#
#
#
# Elastic Compliance Matrix: (Units=1/GPa)
#
#
# Indices 1 2 3 4 5 6 
#
# 1 0.009636 -0.003308 -0.001644 0.000000 0.003331 0.000000
# 2 -0.003308 0.023517 -0.001797 0.000000 -0.001947 0.000000
# 3 -0.001644 -0.001797 0.020893 0.000000 -0.007069 0.000000
# 4 0.000000 0.000000 0.000000-15.090777 0.000000 -3.108055
# 5 0.003331 -0.001947 -0.007069 0.000000 0.033147 0.000000
# 6 0.000000 0.000000 0.000000 -3.108055 0.000000 -0.613384
#
#
# Mechanical properties :
#
#
# Convention : Reuss Voigt Hill
#
# Bulk Modulus (GPa) = 24.66189 29.94644 27.30416
# Shear Modulus (GPa) = -0.32072 26.65481 13.16704
#
# Velocity S-wave (km/s) = -0.36014 3.28317 2.30754
# Velocity P-wave (km/s) = 3.13055 5.14612 4.25928
#
# Compressibility (1/GPa) = 0.04054840
#
# Stress axis : x y z
#
# Youngs Moduli (GPa) = 103.78094 42.52231 47.86357
#
# Poissons Ratio (x) = 0.14065 0.07870
# Poissons Ratio (y) = 0.34327 0.08599
# Poissons Ratio (z) = 0.17065 0.07639
#
# Static dielectric constant tensor:
#      x y z
#    x 1.951790 0.000000 -0.141970 
#    y 0.000000 2.096670 0.000000 
#    z -0.141970 0.000000 1.923000 
# 
# From -- ./inp_files/45094.got.cif
#   From: 2010.05.17/outbox.cif.g08.bks.cpg/sg14_23_cif.got.tgz:45094.got - 2010.06.03 17:49:19.
