data_PCOD9244834
_publ_section_title
;
Structure prediction by ZEFSAII (Michael W. Deem and Ramdas Pophale) SiO2 
 PCOD9244834
Probable space group: P 21/C
;
_chemical_formula_sum "Si O2"
_cell_formula_units_Z 30
_cell_length_a 18.511466
_cell_length_b 12.196909
_cell_length_c 11.063523
_cell_angle_alpha 90.000000
_cell_angle_beta 27.658125
_cell_angle_gamma 90.000000
_cell_volume 1159.536264
_symmetry_space_group_name_H-M "P 21/C"
_symmetry_group_IT_number 14
_symmetry_cell_setting 'monoclinic'
loop_
_space_group_symop_operation_xyz
x,y,z
-x,1/2+y,1/2-z
-x,-y,-z
x,1/2-y,1/2+z
loop_
_atom_site_type_symbol
_atom_site_label
_atom_site_fract_x
_atom_site_fract_y
_atom_site_fract_z
Si Si1 0.190569 0.586913 0.807368
Si Si2 0.202620 0.246732 0.285901
Si Si3 0.546180 0.257538 0.314081
Si Si4 0.894862 0.969718 0.028059
Si Si5 0.288471 0.812023 0.684048
Si Si6 0.782063 0.570666 0.035832
Si Si7 0.163493 0.443383 0.649690
Si Si8 0.500000 0.000000 0.000000
O O1 0.167829 0.711053 0.875655
O O2 0.294275 0.519426 0.749735
O O3 0.239147 0.548167 0.603204
O O4 0.021883 0.534593 0.076188
O O5 0.095653 0.351857 0.421819
O O6 0.166133 0.174617 0.460965
O O7 0.195139 0.161520 0.185523
O O8 0.376079 0.289277 0.043194
O O9 0.622738 0.197360 0.318178
O O10 0.518473 0.383338 0.393962
O O11 0.627735 0.269795 0.062188
O O12 0.792182 0.072561 0.220296
O O13 0.808277 0.934864 0.031778
O O14 0.070928 0.014453 0.744552
O O15 0.616534 0.576648 0.219189
#
# Coordination Sequence:
#
# PCOD9244834 Si02
#       8
#     4   4   4   4   4   4   4   2
#     4   9  18  40  70  99 133 189 245 295 378 451
#     4  10  24  45  68 105 145 198 254 312 378 452
#     4  11  27  46  74 104 156 205 252 313 393 455
#     4  11  25  42  72 109 146 187 262 323 368 460
#     4  12  26  47  73 114 146 203 254 318 380 464
#     4   9  20  40  72 100 142 193 244 311 384 446
#     4   9  20  42  69  96 139 193 241 310 377 445
#     4  10  20  46  72 102 146 198 246 306 384 456
#
# _framework density 25.872413000000002
#
# number of rings (size 3 to 8) (size 9 to 14) (size 15 to 20)
#    0.000    1.867    1.333    1.600    5.600    2.667 
#    2.400    1.333    0.000    0.000    0.000    0.000 
#    0.000    0.000    0.000    0.000    0.000    0.000 
#
# Total GULP energy -167068.481528 kJ/mol
# GULP energy per Si atom -5568.949384 kJ/mol
# Density = 2.581353 g / cm^3
# Si number density = 25.872413 Si / 1000 Ang^3
#
#
#
# Elastic Constant Matrix: (Units=GPa)
#
#
# Indices 1 2 3 4 5 6 
#
# 1 132.8049 45.7824 44.4954 0.0000 3.5729 0.0000
# 2 45.7824 154.8345 47.4552 0.0000 0.8656 0.0000
# 3 44.4954 47.4552 115.4180 0.0000 -11.9388 0.0000
# 4 0.0000 0.0000 0.0000 28.0993 0.0000 3.3917
# 5 3.5729 0.8656 -11.9388 0.0000 27.1987 0.0000
# 6 0.0000 0.0000 0.0000 3.3917 0.0000 39.1430
#
#
#
# Elastic Compliance Matrix: (Units=1/GPa)
#
#
# Indices 1 2 3 4 5 6 
#
# 1 0.009245 -0.001771 -0.003097 0.000000 -0.002517 0.000000
# 2 -0.001771 0.007800 -0.002646 0.000000 -0.001177 0.000000
# 3 -0.003097 -0.002646 0.011520 0.000000 0.005548 0.000000
# 4 0.000000 0.000000 0.000000 0.035964 0.000000 -0.003116
# 5 -0.002517 -0.001177 0.005548 0.000000 0.039570 0.000000
# 6 0.000000 0.000000 0.000000 -0.003116 0.000000 0.025817
#
#
# Mechanical properties :
#
#
# Convention : Reuss Voigt Hill
#
# Bulk Modulus (GPa) = 73.86501 75.39149 74.62825
# Shear Modulus (GPa) = 33.45478 36.57650 35.01564
#
# Velocity S-wave (km/s) = 3.59983 3.76403 3.68285
# Velocity P-wave (km/s) = 6.77422 6.93495 6.85506
#
# Compressibility (1/GPa) = 0.01353821
#
# Stress axis : x y z
#
# Youngs Moduli (GPa) = 108.16104 128.21146 86.80727
#
# Poissons Ratio (x) = 0.22701 0.26881
# Poissons Ratio (y) = 0.19151 0.22970
# Poissons Ratio (z) = 0.33494 0.33926
#
# Static dielectric constant tensor:
#      x y z
#    x 2.269740 0.000000 0.117270 
#    y 0.000000 2.099580 0.000000 
#    z 0.117270 0.000000 2.256340 
# 
# From -- ./inp_files/35244.got.cif
#   From: 2010.05.17/outbox.cif.g08.bks.cpg/sg14_18_cif.got.tgz:35244.got - 2010.06.03 17:49:19.
