data_PCOD9244873
_publ_section_title
;
Structure prediction by ZEFSAII (Michael W. Deem and Ramdas Pophale) SiO2 
 PCOD9244873
Probable space group: P 21/C
;
_chemical_formula_sum "Si O2"
_cell_formula_units_Z 28
_cell_length_a 5.079368
_cell_length_b 30.245344
_cell_length_c 8.878590
_cell_angle_alpha 90.000000
_cell_angle_beta 90.989100
_cell_angle_gamma 90.000000
_cell_volume 1363.789971
_symmetry_space_group_name_H-M "P 21/C"
_symmetry_group_IT_number 14
_symmetry_cell_setting 'monoclinic'
loop_
_space_group_symop_operation_xyz
x,y,z
-x,1/2+y,1/2-z
-x,-y,-z
x,1/2-y,1/2+z
loop_
_atom_site_type_symbol
_atom_site_label
_atom_site_fract_x
_atom_site_fract_y
_atom_site_fract_z
Si Si1 0.692197 0.588876 0.658011
Si Si2 0.215553 0.717020 0.039792
Si Si3 0.292060 0.269369 0.751488
Si Si4 0.247217 0.995150 0.890957
Si Si5 0.085823 0.809094 0.956185
Si Si6 0.910748 0.825599 0.287790
Si Si7 0.812692 0.098029 0.053407
O O1 0.737484 0.538392 0.714084
O O2 0.759183 0.628104 0.773778
O O3 0.405297 0.594258 0.581210
O O4 0.900643 0.594266 0.521899
O O5 0.469506 0.713903 0.145546
O O6 0.240334 0.762976 0.945568
O O7 0.966428 0.724521 0.146001
O O8 0.119342 0.679640 0.924196
O O9 0.284786 0.217155 0.708638
O O10 0.207009 0.298285 0.606660
O O11 0.233918 0.944149 0.839041
O O12 0.500000 0.000000 0.000000
O O13 0.000000 0.000000 0.000000
O O14 0.198894 0.852804 0.879565
O O15 0.066709 0.820218 0.132221
#
# Coordination Sequence:
#
# PCOD9244873 Si02
#       7
#     4   4   4   4   4   4   4
#     4   9  16  26  42  65  90 115 145 184 227 267
#     4  10  21  34  47  67  96 125 153 188 229 270
#     4  10  21  34  47  67  96 125 153 188 229 270
#     4   8  14  24  38  60  90 114 136 178 231 268
#     4   9  19  32  50  70  92 122 157 190 225 269
#     4   9  19  32  50  70  92 122 157 190 225 269
#     4   9  16  26  42  65  90 115 145 184 227 267
#
# _framework density 20.531020000000002
#
# number of rings (size 3 to 8) (size 9 to 14) (size 15 to 20)
#    0.000    2.857    0.000    0.857    0.000   14.857 
#    0.000    0.000    0.000    0.000    0.000    2.000 
#    0.000    0.000    0.000    0.000    0.000    0.000 
#
# Total GULP energy -156060.870710 kJ/mol
# GULP energy per Si atom -5573.602525 kJ/mol
# Density = 2.048429 g / cm^3
# Si number density = 20.531020 Si / 1000 Ang^3
#
#
#
# Elastic Constant Matrix: (Units=GPa)
#
#
# Indices 1 2 3 4 5 6 
#
# 1 91.9441 -0.5884 18.3098 0.0000 24.9417 0.0000
# 2 -0.5884 86.0699 -17.1712 0.0000 0.5492 0.0000
# 3 18.3098 -17.1712 50.4590 0.0000 17.2176 0.0000
# 4 0.0000 0.0000 0.0000 19.4567 0.0000 8.3522
# 5 24.9417 0.5492 17.2176 0.0000 26.0777 0.0000
# 6 0.0000 0.0000 0.0000 8.3522 0.0000 23.7079
#
#
#
# Elastic Compliance Matrix: (Units=1/GPa)
#
#
# Indices 1 2 3 4 5 6 
#
# 1 0.014706 0.000054 -0.000669 0.000000 -0.013625 0.000000
# 2 0.000054 0.012789 0.005734 0.000000 -0.004107 0.000000
# 3 -0.000669 0.005734 0.028185 0.000000 -0.018090 0.000000
# 4 0.000000 0.000000 0.000000 0.060554 0.000000 -0.021333
# 5 -0.013625 -0.004107 -0.018090 0.000000 0.063408 0.000000
# 6 0.000000 0.000000 0.000000 -0.021333 0.000000 0.049695
#
#
# Mechanical properties :
#
#
# Convention : Reuss Voigt Hill
#
# Bulk Modulus (GPa) = 15.17056 25.50815 20.33936
# Shear Modulus (GPa) = 20.74079 29.04331 24.89205
#
# Velocity S-wave (km/s) = 3.18184 3.76521 3.48575
# Velocity P-wave (km/s) = 4.57208 5.59942 5.11163
#
# Compressibility (1/GPa) = 0.06591714
#
# Stress axis : x y z
#
# Youngs Moduli (GPa) = 68.00110 78.19266 35.48045
#
# Poissons Ratio (x) = -0.00423 0.02373
# Poissons Ratio (y) = -0.00368 -0.20344
# Poissons Ratio (z) = 0.04548 -0.44834
#
# Static dielectric constant tensor:
#      x y z
#    x 1.782880 0.000000 -0.030790 
#    y 0.000000 1.881110 0.000000 
#    z -0.030790 0.000000 1.734740 
# 
# From -- ./inp_files/6809.got.cif
#   From: 2010.05.17/outbox.cif.g08.bks.cpg/sg14_4_cif.got.tgz:6809.got - 2010.06.03 17:49:19.
