data_PCOD9244579
_publ_section_title
;
Structure prediction by ZEFSAII (Michael W. Deem and Ramdas Pophale) SiO2 
 PCOD9244579
Probable space group: P 21/C
;
_chemical_formula_sum "Si O2"
_cell_formula_units_Z 28
_cell_length_a 5.921066
_cell_length_b 27.389509
_cell_length_c 7.712342
_cell_angle_alpha 90.000000
_cell_angle_beta 116.305962
_cell_angle_gamma 90.000000
_cell_volume 1121.222518
_symmetry_space_group_name_H-M "P 21/C"
_symmetry_group_IT_number 14
_symmetry_cell_setting 'monoclinic'
loop_
_space_group_symop_operation_xyz
x,y,z
-x,1/2+y,1/2-z
-x,-y,-z
x,1/2-y,1/2+z
loop_
_atom_site_type_symbol
_atom_site_label
_atom_site_fract_x
_atom_site_fract_y
_atom_site_fract_z
Si Si1 0.036714 0.896905 0.753617
Si Si2 0.796039 0.692075 0.723674
Si Si3 0.265318 0.197055 0.384192
Si Si4 0.271106 0.860351 0.476015
Si Si5 0.561704 0.898537 0.043607
Si Si6 0.609844 0.557166 0.917866
Si Si7 0.300803 0.013758 0.094218
O O1 0.178000 0.882157 0.623860
O O2 0.264115 0.910346 0.957023
O O3 0.897266 0.846659 0.753684
O O4 0.850975 0.940004 0.626313
O O5 0.741937 0.689898 0.910725
O O6 0.814251 0.748208 0.680669
O O7 0.592119 0.659590 0.553528
O O8 0.052260 0.662177 0.785016
O O9 0.547169 0.185214 0.422356
O O10 0.418829 0.903113 0.430048
O O11 0.683534 0.927555 0.925127
O O12 0.694848 0.918985 0.262421
O O13 0.459088 0.509102 0.807633
O O14 0.500000 0.000000 0.000000
O O15 0.000000 0.000000 0.000000
#
# Coordination Sequence:
#
# PCOD9244579 Si02
#       7
#     4   4   4   4   4   4   4
#     4  10  23  42  62  98 131 167 226 272 333 407
#     4  11  23  39  61  88 128 168 221 270 339 395
#     4  10  24  39  58  92 123 175 215 276 331 401
#     4  10  20  42  62  84 135 171 207 284 335 388
#     4  11  22  43  66  97 130 175 222 276 341 403
#     4  10  21  45  67  91 136 171 217 278 336 398
#     4  10  23  42  73 104 136 179 234 278 345 412
#
# _framework density 24.972740000000002
#
# number of rings (size 3 to 8) (size 9 to 14) (size 15 to 20)
#    0.000    1.714    4.286    0.857    6.000    2.857 
#   12.857    0.714    0.000    0.000    0.000    0.000 
#    0.000    0.000    0.000    0.000    0.000    0.000 
#
# Total GULP energy -156513.702463 kJ/mol
# GULP energy per Si atom -5589.775088 kJ/mol
# Density = 2.491590 g / cm^3
# Si number density = 24.972740 Si / 1000 Ang^3
#
#
#
# Elastic Constant Matrix: (Units=GPa)
#
#
# Indices 1 2 3 4 5 6 
#
# 1 85.3853 29.8453 25.0447 0.0000 20.7881 0.0000
# 2 29.8453 117.2569 11.7929 0.0000 7.1880 0.0000
# 3 25.0447 11.7929 102.9967 0.0000 15.8421 0.0000
# 4 0.0000 0.0000 0.0000 37.8265 0.0000 -1.2828
# 5 20.7881 7.1880 15.8421 0.0000 45.5755 0.0000
# 6 0.0000 0.0000 0.0000 -1.2828 0.0000 34.0464
#
#
#
# Elastic Compliance Matrix: (Units=1/GPa)
#
#
# Indices 1 2 3 4 5 6 
#
# 1 0.014863 -0.003207 -0.002411 0.000000 -0.005436 0.000000
# 2 -0.003207 0.009370 -0.000307 0.000000 0.000092 0.000000
# 3 -0.002411 -0.000307 0.010727 0.000000 -0.002581 0.000000
# 4 0.000000 0.000000 0.000000 0.026470 0.000000 0.000997
# 5 -0.005436 0.000092 -0.002581 0.000000 0.025303 0.000000
# 6 0.000000 0.000000 0.000000 0.000997 0.000000 0.029409
#
#
# Mechanical properties :
#
#
# Convention : Reuss Voigt Hill
#
# Bulk Modulus (GPa) = 43.27160 48.77831 46.02495
# Shear Modulus (GPa) = 36.84666 39.42010 38.13338
#
# Velocity S-wave (km/s) = 3.84536 3.97738 3.91192
# Velocity P-wave (km/s) = 6.08941 6.37712 6.23493
#
# Compressibility (1/GPa) = 0.02310985
#
# Stress axis : x y z
#
# Youngs Moduli (GPa) = 67.28012 106.72455 93.21946
#
# Poissons Ratio (x) = 0.34231 0.22474
# Poissons Ratio (y) = 0.21580 0.02862
# Poissons Ratio (z) = 0.16220 0.03277
#
# Static dielectric constant tensor:
#      x y z
#    x 2.034160 0.000000 0.012370 
#    y 0.000000 2.012440 0.000000 
#    z 0.012370 0.000000 2.014450 
# 
# From -- ./inp_files/6851.got.cif
#   From: 2010.05.17/outbox.cif.g08.bks.cpg/sg14_4_cif.got.tgz:6851.got - 2010.06.03 17:49:19.
