data_PCOD9244426
_publ_section_title
;
Structure prediction by ZEFSAII (Michael W. Deem and Ramdas Pophale) SiO2 
 PCOD9244426
Probable space group: P 21/C
;
_chemical_formula_sum "Si O2"
_cell_formula_units_Z 32
_cell_length_a 9.825185
_cell_length_b 19.436259
_cell_length_c 11.050349
_cell_angle_alpha 90.000000
_cell_angle_beta 39.977543
_cell_angle_gamma 90.000000
_cell_volume 1355.794797
_symmetry_space_group_name_H-M "P 21/C"
_symmetry_group_IT_number 14
_symmetry_cell_setting 'monoclinic'
loop_
_space_group_symop_operation_xyz
x,y,z
-x,1/2+y,1/2-z
-x,-y,-z
x,1/2-y,1/2+z
loop_
_atom_site_type_symbol
_atom_site_label
_atom_site_fract_x
_atom_site_fract_y
_atom_site_fract_z
Si Si1 0.629552 0.774446 0.166317
Si Si2 0.279846 0.765214 0.086733
Si Si3 0.466860 0.382833 0.478227
Si Si4 0.129553 0.158878 0.623680
Si Si5 0.981373 0.922997 0.735014
Si Si6 0.988179 0.052655 0.893019
Si Si7 0.917488 0.329301 0.601605
Si Si8 0.866387 0.431631 0.110023
O O1 0.432617 0.773130 0.390955
O O2 0.584765 0.833879 0.100280
O O3 0.854504 0.793293 0.077725
O O4 0.680102 0.702516 0.062576
O O5 0.403684 0.836314 0.018737
O O6 0.039507 0.783584 0.212931
O O7 0.247288 0.727028 0.238077
O O8 0.239165 0.404061 0.677896
O O9 0.632006 0.440025 0.322786
O O10 0.166058 0.100776 0.702546
O O11 0.999824 0.120709 0.603329
O O12 0.155956 0.909811 0.514577
O O13 0.940817 0.998941 0.818140
O O14 0.038309 0.875203 0.808934
O O15 0.852621 0.115446 0.043541
O O16 0.000000 0.000000 0.000000
O O17 0.000000 0.500000 0.000000
#
# Coordination Sequence:
#
# PCOD9244426 Si02
#       8
#     4   4   4   4   4   4   4   4
#     4  10  21  39  61  89 120 155 204 263 305 369
#     4  10  21  38  59  91 121 156 201 260 311 361
#     4  10  23  37  58  90 116 156 206 252 313 366
#     4  10  22  39  60  93 119 161 210 254 315 361
#     4  10  20  41  61  85 122 163 202 256 307 366
#     4  10  21  40  64  89 127 168 205 248 310 384
#     4   9  21  38  62  88 121 163 200 248 316 374
#     4  11  21  39  61  86 121 160 205 253 307 372
#
# _framework density 23.60239
#
# number of rings (size 3 to 8) (size 9 to 14) (size 15 to 20)
#    0.000    2.000    1.250    1.500    3.500    0.500 
#    6.750    1.250    0.000    6.750    0.000    0.000 
#    0.000    0.000    0.000    0.000    0.000    0.000 
#
# Total GULP energy -178272.310521 kJ/mol
# GULP energy per Si atom -5571.009704 kJ/mol
# Density = 2.354867 g / cm^3
# Si number density = 23.602390 Si / 1000 Ang^3
#
#
#
# Elastic Constant Matrix: (Units=GPa)
#
#
# Indices 1 2 3 4 5 6 
#
# 1 58.4142 9.7749 13.1384 0.0000 6.7236 0.0000
# 2 9.7749 85.6301 22.8038 0.0000 3.9578 0.0000
# 3 13.1384 22.8038 95.4683 0.0000 9.4486 0.0000
# 4 0.0000 0.0000 0.0000 45.6851 0.0000 9.2216
# 5 6.7236 3.9578 9.4486 0.0000 29.8205 0.0000
# 6 0.0000 0.0000 0.0000 9.2216 0.0000 30.2737
#
#
#
# Elastic Compliance Matrix: (Units=1/GPa)
#
#
# Indices 1 2 3 4 5 6 
#
# 1 0.018152 -0.001432 -0.001827 0.000000 -0.003324 0.000000
# 2 -0.001432 0.012600 -0.002766 0.000000 -0.000473 0.000000
# 3 -0.001827 -0.002766 0.011676 0.000000 -0.002920 0.000000
# 4 0.000000 0.000000 0.000000 0.023323 0.000000 -0.007104
# 5 -0.003324 -0.000473 -0.002920 0.000000 0.035272 0.000000
# 6 0.000000 0.000000 0.000000 -0.007104 0.000000 0.035196
#
#
# Mechanical properties :
#
#
# Convention : Reuss Voigt Hill
#
# Bulk Modulus (GPa) = 32.91810 36.77185 34.84498
# Shear Modulus (GPa) = 31.56677 34.07557 32.82117
#
# Velocity S-wave (km/s) = 3.66107 3.80377 3.73310
# Velocity P-wave (km/s) = 5.64344 5.90805 5.77726
#
# Compressibility (1/GPa) = 0.03037842
#
# Stress axis : x y z
#
# Youngs Moduli (GPa) = 55.08948 79.36504 85.64713
#
# Poissons Ratio (x) = 0.11364 0.15649
# Poissons Ratio (y) = 0.07888 0.23688
# Poissons Ratio (z) = 0.10066 0.21951
#
# Static dielectric constant tensor:
#      x y z
#    x 1.970710 0.000000 0.080460 
#    y 0.000000 1.966980 0.000000 
#    z 0.080460 0.000000 1.969550 
# 
# From -- ./inp_files/30724.got.cif
#   From: 2010.05.17/outbox.cif.g08.bks.cpg/sg14_16_cif.got.tgz:30724.got - 2010.06.03 17:49:19.
