data_PCOD9244823
_publ_section_title
;
Structure prediction by ZEFSAII (Michael W. Deem and Ramdas Pophale) SiO2 
 PCOD9244823
Probable space group: P 21/C
;
_chemical_formula_sum "Si O2"
_cell_formula_units_Z 20
_cell_length_a 8.783599
_cell_length_b 14.728492
_cell_length_c 7.505226
_cell_angle_alpha 90.000000
_cell_angle_beta 125.998552
_cell_angle_gamma 90.000000
_cell_volume 785.525299
_symmetry_space_group_name_H-M "P 21/C"
_symmetry_group_IT_number 14
_symmetry_cell_setting 'monoclinic'
loop_
_space_group_symop_operation_xyz
x,y,z
-x,1/2+y,1/2-z
-x,-y,-z
x,1/2-y,1/2+z
loop_
_atom_site_type_symbol
_atom_site_label
_atom_site_fract_x
_atom_site_fract_y
_atom_site_fract_z
Si Si1 0.613739 0.565170 0.917945
Si Si2 0.893042 0.595104 0.429123
Si Si3 0.306951 0.636209 0.165665
Si Si4 0.721034 0.168705 0.934354
Si Si5 0.096069 0.090512 0.662595
O O1 0.272486 0.410497 0.826959
O O2 0.619906 0.459217 0.861347
O O3 0.403104 0.600709 0.769518
O O4 0.736628 0.616030 0.851656
O O5 0.822005 0.596330 0.582800
O O6 0.000000 0.500000 0.500000
O O7 0.062511 0.662425 0.485149
O O8 0.294689 0.635210 0.372297
O O9 0.381657 0.733768 0.156046
O O10 0.092645 0.646749 0.950639
O O11 0.000000 0.000000 0.500000
#
# Coordination Sequence:
#
# PCOD9244823 Si02
#       5
#     4   4   4   4   4
#     4  11  25  51  76 107 147 200 249 300 374 439
#     4  12  22  46  78 105 140 192 243 300 372 441
#     4  11  23  48  72 104 154 194 238 317 365 433
#     4  12  27  48  73 112 150 192 252 309 367 439
#     4  10  20  45  76 103 142 191 238 300 371 433
#
# _framework density 25.460667999999998
#
# number of rings (size 3 to 8) (size 9 to 14) (size 15 to 20)
#    0.000    0.800    6.000    3.000    0.000    0.800 
#   10.800    0.000    0.000    0.000    0.000    0.000 
#    0.000    0.000    0.000    0.000    0.000    0.000 
#
# Total GULP energy -111780.252466 kJ/mol
# GULP energy per Si atom -5589.012623 kJ/mol
# Density = 2.540272 g / cm^3
# Si number density = 25.460668 Si / 1000 Ang^3
#
#
#
# Elastic Constant Matrix: (Units=GPa)
#
#
# Indices 1 2 3 4 5 6 
#
# 1 91.6272 -2.8653 67.9611 0.0000 -9.3112 0.0000
# 2 -2.8653 124.7836 25.8519 0.0000 6.0371 0.0000
# 3 67.9611 25.8519 202.5701 0.0000 -48.6197 0.0000
# 4 0.0000 0.0000 0.0000 22.6479 0.0000 2.8365
# 5 -9.3112 6.0371 -48.6197 0.0000 52.3115 0.0000
# 6 0.0000 0.0000 0.0000 2.8365 0.0000 28.9225
#
#
#
# Elastic Compliance Matrix: (Units=1/GPa)
#
#
# Indices 1 2 3 4 5 6 
#
# 1 0.015142 0.001754 -0.006057 0.000000 -0.003137 0.000000
# 2 0.001754 0.008692 -0.002399 0.000000 -0.002920 0.000000
# 3 -0.006057 -0.002399 0.009116 0.000000 0.007671 0.000000
# 4 0.000000 0.000000 0.000000 0.044703 0.000000 -0.004384
# 5 -0.003137 -0.002920 0.007671 0.000000 0.026025 0.000000
# 6 0.000000 0.000000 0.000000 -0.004384 0.000000 0.035005
#
#
# Mechanical properties :
#
#
# Convention : Reuss Voigt Hill
#
# Bulk Modulus (GPa) = 51.15632 66.76405 58.96018
# Shear Modulus (GPa) = 31.52524 42.64526 37.08525
#
# Velocity S-wave (km/s) = 3.52262 4.09705 3.82064
# Velocity P-wave (km/s) = 6.05648 6.97570 6.53228
#
# Compressibility (1/GPa) = 0.01954793
#
# Stress axis : x y z
#
# Youngs Moduli (GPa) = 66.03976 115.04280 109.69726
#
# Poissons Ratio (x) = -0.20182 0.66443
# Poissons Ratio (y) = -0.11585 0.26314
# Poissons Ratio (z) = 0.40000 0.27597
#
# Static dielectric constant tensor:
#      x y z
#    x 1.985900 0.000000 -0.006140 
#    y 0.000000 2.187990 0.000000 
#    z -0.006140 0.000000 1.980170 
# 
# From -- ./inp_files/9268.got.cif
#   From: 2010.05.17/outbox.cif.g08.bks.cpg/sg14_5_cif.got.tgz:9268.got - 2010.06.03 17:49:19.
