data_PCOD9244159
_publ_section_title
;
Structure prediction by ZEFSAII (Michael W. Deem and Ramdas Pophale) SiO2 
 PCOD9244159
Probable space group: P 21/C
;
_chemical_formula_sum "Si O2"
_cell_formula_units_Z 28
_cell_length_a 11.553187
_cell_length_b 7.820305
_cell_length_c 13.776985
_cell_angle_alpha 90.000000
_cell_angle_beta 68.433449
_cell_angle_gamma 90.000000
_cell_volume 1157.600048
_symmetry_space_group_name_H-M "P 21/C"
_symmetry_group_IT_number 14
_symmetry_cell_setting 'monoclinic'
loop_
_space_group_symop_operation_xyz
x,y,z
-x,1/2+y,1/2-z
-x,-y,-z
x,1/2-y,1/2+z
loop_
_atom_site_type_symbol
_atom_site_label
_atom_site_fract_x
_atom_site_fract_y
_atom_site_fract_z
Si Si1 0.569289 0.755489 0.959682
Si Si2 0.653247 0.198188 0.615729
Si Si3 0.619632 0.116563 0.841876
Si Si4 0.795765 0.984957 0.122973
Si Si5 0.181924 0.356824 0.179499
Si Si6 0.056097 0.070164 0.107671
Si Si7 0.158203 0.704687 0.110399
O O1 0.464383 0.686693 0.918687
O O2 0.689956 0.639894 0.920472
O O3 0.613845 0.937258 0.900903
O O4 0.504773 0.786449 0.083101
O O5 0.634444 0.100692 0.722342
O O6 0.677430 0.397264 0.638572
O O7 0.775028 0.164855 0.512799
O O8 0.734947 0.223895 0.849898
O O9 0.778273 0.865839 0.220829
O O10 0.846623 0.896853 0.010569
O O11 0.915777 0.101980 0.116276
O O12 0.104322 0.191753 0.176334
O O13 0.110233 0.528087 0.169226
O O14 0.068625 0.867174 0.124127
#
# Coordination Sequence:
#
# PCOD9244159 Si02
#       7
#     4   4   4   4   4   4   4
#     4  10  24  37  61  97 129 172 212 267 327 391
#     4  10  22  39  65  92 134 171 214 271 321 390
#     4  10  20  40  60  87 134 171 205 264 326 382
#     4  10  24  44  68  96 131 178 214 269 337 381
#     4  12  24  41  72  99 123 176 223 263 333 395
#     4  10  24  48  65  95 139 165 217 280 320 391
#     4  10  22  42  64  99 129 166 217 272 320 384
#
# _framework density 24.187973
#
# number of rings (size 3 to 8) (size 9 to 14) (size 15 to 20)
#    0.000    1.714    2.857    0.000    6.000    4.571 
#    0.000    6.429    0.000    0.000    0.000    0.000 
#    0.000    0.000    0.000    0.000    0.000    0.000 
#
# Total GULP energy -156687.859493 kJ/mol
# GULP energy per Si atom -5595.994982 kJ/mol
# Density = 2.413292 g / cm^3
# Si number density = 24.187973 Si / 1000 Ang^3
#
#
#
# Elastic Constant Matrix: (Units=GPa)
#
#
# Indices 1 2 3 4 5 6 
#
# 1 67.9695 17.0309 6.3366 0.0000 -9.1402 0.0000
# 2 17.0309 64.5778 35.7675 0.0000 -4.9532 0.0000
# 3 6.3366 35.7675 122.7071 0.0000 15.3398 0.0000
# 4 0.0000 0.0000 0.0000 35.3867 0.0000 6.5379
# 5 -9.1402 -4.9532 15.3398 0.0000 30.2238 0.0000
# 6 0.0000 0.0000 0.0000 6.5379 0.0000 38.3733
#
#
#
# Elastic Compliance Matrix: (Units=1/GPa)
#
#
# Indices 1 2 3 4 5 6 
#
# 1 0.016289 -0.003792 -0.000292 0.000000 0.004453 0.000000
# 2 -0.003792 0.020485 -0.006462 0.000000 0.005490 0.000000
# 3 -0.000292 -0.006462 0.010882 0.000000 -0.006670 0.000000
# 4 0.000000 0.000000 0.000000 0.029178 0.000000 -0.004971
# 5 0.004453 0.005490 -0.006670 0.000000 0.038718 0.000000
# 6 0.000000 0.000000 0.000000 -0.004971 0.000000 0.026907
#
#
# Mechanical properties :
#
#
# Convention : Reuss Voigt Hill
#
# Bulk Modulus (GPa) = 37.64590 41.50270 39.57430
# Shear Modulus (GPa) = 29.00131 33.87139 31.43635
#
# Velocity S-wave (km/s) = 3.46641 3.74617 3.60900
# Velocity P-wave (km/s) = 5.62308 5.99228 5.81061
#
# Compressibility (1/GPa) = 0.02656332
#
# Stress axis : x y z
#
# Youngs Moduli (GPa) = 61.39200 48.81544 91.89522
#
# Poissons Ratio (x) = 0.18512 0.02687
# Poissons Ratio (y) = 0.23282 0.59380
# Poissons Ratio (z) = 0.01795 0.31543
#
# Static dielectric constant tensor:
#      x y z
#    x 1.906370 0.000000 -0.018180 
#    y 0.000000 1.958180 0.000000 
#    z -0.018180 0.000000 1.991020 
# 
# From -- ./inp_files/43286.got.cif
#   From: 2010.05.17/outbox.cif.g08.bks.cpg/sg14_22_cif.got.tgz:43286.got - 2010.06.03 17:49:19.
