data_PCOD9244675
_publ_section_title
;
Structure prediction by ZEFSAII (Michael W. Deem and Ramdas Pophale) SiO2 
 PCOD9244675
Probable space group: P 21/C
;
_chemical_formula_sum "Si O2"
_cell_formula_units_Z 20
_cell_length_a 18.815836
_cell_length_b 10.267256
_cell_length_c 9.496396
_cell_angle_alpha 90.000000
_cell_angle_beta 149.914499
_cell_angle_gamma 90.000000
_cell_volume 919.660043
_symmetry_space_group_name_H-M "P 21/C"
_symmetry_group_IT_number 14
_symmetry_cell_setting 'monoclinic'
loop_
_space_group_symop_operation_xyz
x,y,z
-x,1/2+y,1/2-z
-x,-y,-z
x,1/2-y,1/2+z
loop_
_atom_site_type_symbol
_atom_site_label
_atom_site_fract_x
_atom_site_fract_y
_atom_site_fract_z
Si Si1 0.341145 0.052207 0.203192
Si Si2 0.120771 0.901916 0.657573
Si Si3 0.491555 0.737162 0.626068
Si Si4 0.653170 0.016773 0.491424
Si Si5 0.198200 0.838132 0.479402
O O1 0.373221 0.201000 0.222299
O O2 0.269165 0.018713 0.228421
O O3 0.500000 0.000000 0.500000
O O4 0.264468 0.977769 0.946747
O O5 0.119680 0.870749 0.490206
O O6 0.123161 0.770425 0.754398
O O7 0.000000 0.000000 0.500000
O O8 0.546493 0.601290 0.779312
O O9 0.435936 0.848591 0.638898
O O10 0.352537 0.715109 0.293709
O O11 0.762781 0.041233 0.554106
#
# Coordination Sequence:
#
# PCOD9244675 Si02
#       5
#     4   4   4   4   4
#     4  10  20  42  69 104 141 176 231 289 343 418
#     4  12  26  48  72  98 141 189 234 290 356 423
#     4  11  21  38  74 108 143 179 230 291 352 412
#     4  11  22  39  71 106 144 182 230 288 358 410
#     4  12  22  46  70  99 137 187 231 292 356 413
#
# _framework density 21.747166
#
# number of rings (size 3 to 8) (size 9 to 14) (size 15 to 20)
#    0.000    0.800    6.000    4.200    0.000    1.600 
#    7.200    2.000    0.000    0.000    0.000    0.000 
#    0.000    0.000    0.000    0.000    0.000    0.000 
#
# Total GULP energy -111686.664085 kJ/mol
# GULP energy per Si atom -5584.333204 kJ/mol
# Density = 2.169767 g / cm^3
# Si number density = 21.747166 Si / 1000 Ang^3
#
#
#
# Elastic Constant Matrix: (Units=GPa)
#
#
# Indices 1 2 3 4 5 6 
#
# 1 182.7163 65.3791 28.7001 0.0000 -30.3980 0.0000
# 2 65.3791 102.9053 16.5599 0.0000 -10.5576 0.0000
# 3 28.7001 16.5599 23.9061 0.0000 -3.0120 0.0000
# 4 0.0000 0.0000 0.0000 27.2233 0.0000 3.4071
# 5 -30.3980 -10.5576 -3.0120 0.0000 22.4995 0.0000
# 6 0.0000 0.0000 0.0000 3.4071 0.0000 36.8454
#
#
#
# Elastic Compliance Matrix: (Units=1/GPa)
#
#
# Indices 1 2 3 4 5 6 
#
# 1 0.009828 -0.003927 -0.007769 0.000000 0.010395 0.000000
# 2 -0.003927 0.012909 -0.004203 0.000000 0.000188 0.000000
# 3 -0.007769 -0.004203 0.053398 0.000000 -0.005320 0.000000
# 4 0.000000 0.000000 0.000000 0.037163 0.000000 -0.003437
# 5 0.010395 0.000188 -0.005320 0.000000 0.057866 0.000000
# 6 0.000000 0.000000 0.000000 -0.003437 0.000000 0.027458
#
#
# Mechanical properties :
#
#
# Convention : Reuss Voigt Hill
#
# Bulk Modulus (GPa) = 22.55483 58.97845 40.76664
# Shear Modulus (GPa) = 20.39157 30.57286 25.48221
#
# Velocity S-wave (km/s) = 3.06545 3.75351 3.42680
# Velocity P-wave (km/s) = 4.78782 6.77968 5.86887
#
# Compressibility (1/GPa) = 0.04433640
#
# Stress axis : x y z
#
# Youngs Moduli (GPa) = 101.75113 77.46788 18.72726
#
# Poissons Ratio (x) = 0.30424 0.14548
# Poissons Ratio (y) = 0.39961 0.07871
# Poissons Ratio (z) = 0.79046 0.32561
#
# Static dielectric constant tensor:
#      x y z
#    x 1.948970 0.000000 -0.018250 
#    y 0.000000 1.844470 0.000000 
#    z -0.018250 0.000000 1.792560 
# 
# From -- ./inp_files/17714.got.cif
#   From: 2010.05.17/outbox.cif.g08.bks.cpg/sg14_9_cif.got.tgz:17714.got - 2010.06.03 17:49:19.
