data_PCOD9244421
_publ_section_title
;
Structure prediction by ZEFSAII (Michael W. Deem and Ramdas Pophale) SiO2 
 PCOD9244421
Probable space group: P 21/C
;
_chemical_formula_sum "Si O2"
_cell_formula_units_Z 32
_cell_length_a 17.781566
_cell_length_b 5.544300
_cell_length_c 14.410945
_cell_angle_alpha 90.000000
_cell_angle_beta 81.849884
_cell_angle_gamma 90.000000
_cell_volume 1406.373025
_symmetry_space_group_name_H-M "P 21/C"
_symmetry_group_IT_number 14
_symmetry_cell_setting 'monoclinic'
loop_
_space_group_symop_operation_xyz
x,y,z
-x,1/2+y,1/2-z
-x,-y,-z
x,1/2-y,1/2+z
loop_
_atom_site_type_symbol
_atom_site_label
_atom_site_fract_x
_atom_site_fract_y
_atom_site_fract_z
Si Si1 0.483790 0.291676 0.098393
Si Si2 0.570281 0.848695 0.691696
Si Si3 0.735744 0.024435 0.671266
Si Si4 0.382974 0.030265 0.977774
Si Si5 0.991245 0.355437 0.353404
Si Si6 0.880520 0.537081 0.222815
Si Si7 0.073364 0.767190 0.958087
Si Si8 0.771125 0.519001 0.563015
O O1 0.467400 0.175563 0.201913
O O2 0.508338 0.553392 0.129436
O O3 0.557668 0.189071 0.031548
O O4 0.412599 0.226683 0.046468
O O5 0.645049 0.010329 0.694810
O O6 0.605102 0.623416 0.630128
O O7 0.759439 0.795298 0.599940
O O8 0.790150 0.962795 0.749383
O O9 0.751716 0.300452 0.638063
O O10 0.293984 0.979370 0.003223
O O11 0.925784 0.383719 0.290056
O O12 0.961791 0.177583 0.439329
O O13 0.010856 0.594508 0.407507
O O14 0.070181 0.280295 0.291387
O O15 0.891902 0.425124 0.118165
O O16 0.141288 0.955543 0.973733
#
# Coordination Sequence:
#
# PCOD9244421 Si02
#       8
#     4   4   4   4   4   4   4   4
#     4  11  21  37  60  90 117 158 210 251 309 364
#     4  11  21  39  60  89 122 162 205 260 308 377
#     4  10  22  37  66  85 128 166 206 253 322 365
#     4  10  22  37  61  83 123 158 205 254 307 367
#     4  11  21  37  60  90 117 158 210 251 309 364
#     4  11  21  39  60  89 122 162 205 260 308 377
#     4  10  22  37  61  83 123 158 205 254 307 367
#     4  10  20  41  60  91 124 168 204 257 314 375
#
# _framework density 22.753567
#
# number of rings (size 3 to 8) (size 9 to 14) (size 15 to 20)
#    0.000    1.500    5.000    0.750    0.000    1.000 
#    0.000    0.000    0.000    7.500    0.000    0.000 
#    0.000    0.000    0.000    0.000    0.000    0.000 
#
# Total GULP energy -178161.398829 kJ/mol
# GULP energy per Si atom -5567.543713 kJ/mol
# Density = 2.270178 g / cm^3
# Si number density = 22.753567 Si / 1000 Ang^3
#
#
#
# Elastic Constant Matrix: (Units=GPa)
#
#
# Indices 1 2 3 4 5 6 
#
# 1 116.9695 3.9141 32.0089 0.0000 35.0107 0.0000
# 2 3.9141 43.5775 18.0868 0.0000 -2.7661 0.0000
# 3 32.0089 18.0868 78.9924 0.0000 12.5471 0.0000
# 4 0.0000 0.0000 0.0000 24.0135 0.0000 3.3185
# 5 35.0107 -2.7661 12.5471 0.0000 35.1507 0.0000
# 6 0.0000 0.0000 0.0000 3.3185 0.0000 34.6637
#
#
#
# Elastic Compliance Matrix: (Units=1/GPa)
#
#
# Indices 1 2 3 4 5 6 
#
# 1 0.013001 -0.000566 -0.003260 0.000000 -0.011830 0.000000
# 2 -0.000566 0.026014 -0.006511 0.000000 0.004935 0.000000
# 3 -0.003260 -0.006511 0.015941 0.000000 -0.002956 0.000000
# 4 0.000000 0.000000 0.000000 0.042202 0.000000 -0.004040
# 5 -0.011830 0.004935 -0.002956 0.000000 0.041676 0.000000
# 6 0.000000 0.000000 0.000000 -0.004040 0.000000 0.029235
#
#
# Mechanical properties :
#
#
# Convention : Reuss Voigt Hill
#
# Bulk Modulus (GPa) = 29.16891 38.61769 33.89330
# Shear Modulus (GPa) = 24.97890 31.13421 28.05655
#
# Velocity S-wave (km/s) = 3.31690 3.70310 3.51531
# Velocity P-wave (km/s) = 5.24561 5.94078 5.60399
#
# Compressibility (1/GPa) = 0.03428308
#
# Stress axis : x y z
#
# Youngs Moduli (GPa) = 76.91605 38.44073 62.73289
#
# Poissons Ratio (x) = 0.02175 0.20448
# Poissons Ratio (y) = 0.04352 0.40845
# Poissons Ratio (z) = 0.25071 0.25029
#
# Static dielectric constant tensor:
#      x y z
#    x 1.947320 0.000000 -0.008880 
#    y 0.000000 1.952920 0.000000 
#    z -0.008880 0.000000 1.860030 
# 
# From -- ./inp_files/37881.got.cif
#   From: 2010.05.17/outbox.cif.g08.bks.cpg/sg14_19_cif.got.tgz:37881.got - 2010.06.03 17:49:19.
