data_PCOD9244956
_publ_section_title
;
Structure prediction by ZEFSAII (Michael W. Deem and Ramdas Pophale) SiO2 
 PCOD9244956
Probable space group: P 21/C
;
_chemical_formula_sum "Si O2"
_cell_formula_units_Z 32
_cell_length_a 25.087225
_cell_length_b 5.106577
_cell_length_c 14.415941
_cell_angle_alpha 90.000000
_cell_angle_beta 137.134615
_cell_angle_gamma 90.000000
_cell_volume 1256.354063
_symmetry_space_group_name_H-M "P 21/C"
_symmetry_group_IT_number 14
_symmetry_cell_setting 'monoclinic'
loop_
_space_group_symop_operation_xyz
x,y,z
-x,1/2+y,1/2-z
-x,-y,-z
x,1/2-y,1/2+z
loop_
_atom_site_type_symbol
_atom_site_label
_atom_site_fract_x
_atom_site_fract_y
_atom_site_fract_z
Si Si1 0.226891 0.288155 0.813978
Si Si2 0.294501 0.925110 0.109077
Si Si3 0.611588 0.542230 0.431477
Si Si4 0.154684 0.629678 0.858866
Si Si5 0.008538 0.349979 0.319789
Si Si6 0.536408 0.748165 0.994616
Si Si7 0.328251 0.867573 0.342913
Si Si8 0.177233 0.325819 0.064302
O O1 0.166999 0.366479 0.816015
O O2 0.245793 0.551453 0.780560
O O3 0.203296 0.100151 0.700809
O O4 0.309994 0.220431 0.964560
O O5 0.317596 0.746667 0.227498
O O6 0.242603 0.156866 0.090369
O O7 0.377359 0.968650 0.161759
O O8 0.234363 0.798614 0.957641
O O9 0.538381 0.689946 0.385602
O O10 0.626106 0.304690 0.523087
O O11 0.069740 0.738717 0.724626
O O12 0.155500 0.563529 0.969212
O O13 0.094928 0.327906 0.471393
O O14 0.992910 0.646613 0.268108
O O15 0.626541 0.645291 0.118733
O O16 0.500000 0.500000 0.000000
O O17 0.500000 0.000000 0.000000
#
# Coordination Sequence:
#
# PCOD9244956 Si02
#       8
#     4   4   4   4   4   4   4   4
#     4  10  21  35  59  92 123 168 220 273 325 386
#     4  11  21  38  63  95 128 167 219 276 323 378
#     4  11  21  40  66  97 132 168 219 260 327 385
#     4  11  20  36  61  86 130 170 223 278 338 387
#     4  10  21  37  60  86 123 176 220 268 341 397
#     4  11  23  45  72  94 131 174 201 253 316 376
#     4  10  22  39  65  97 127 172 216 262 319 391
#     4  10  21  38  56  84 128 170 219 277 332 386
#
# _framework density 25.470524999999999
#
# number of rings (size 3 to 8) (size 9 to 14) (size 15 to 20)
#    0.000    1.500    5.000    0.750    0.000    0.500 
#    0.000    1.250    0.000    4.500    0.000    0.000 
#    0.000    0.000    0.000    0.000    0.000    0.000 
#
# Total GULP energy -178215.229446 kJ/mol
# GULP energy per Si atom -5569.225920 kJ/mol
# Density = 2.541255 g / cm^3
# Si number density = 25.470525 Si / 1000 Ang^3
#
#
#
# Elastic Constant Matrix: (Units=GPa)
#
#
# Indices 1 2 3 4 5 6 
#
# 1 91.0842 18.6160 14.7191 0.0000 -0.6973 0.0000
# 2 18.6160 97.9741 3.0606 0.0000 5.4684 0.0000
# 3 14.7191 3.0606 37.5975 0.0000 -0.6834 0.0000
# 4 0.0000 0.0000 0.0000 25.2844 0.0000 6.0974
# 5 -0.6973 5.4684 -0.6834 0.0000 43.9163 0.0000
# 6 0.0000 0.0000 0.0000 6.0974 0.0000 43.3006
#
#
#
# Elastic Compliance Matrix: (Units=1/GPa)
#
#
# Indices 1 2 3 4 5 6 
#
# 1 0.012170 -0.002191 -0.004579 0.000000 0.000395 0.000000
# 2 -0.002191 0.010701 -0.000038 0.000000 -0.001368 0.000000
# 3 -0.004579 -0.000038 0.028400 0.000000 0.000374 0.000000
# 4 0.000000 0.000000 0.000000 0.040940 0.000000 -0.005765
# 5 0.000395 -0.001368 0.000374 0.000000 0.022953 0.000000
# 6 0.000000 0.000000 0.000000 -0.005765 0.000000 0.023906
#
#
# Mechanical properties :
#
#
# Convention : Reuss Voigt Hill
#
# Bulk Modulus (GPa) = 26.55762 33.27191 29.91477
# Shear Modulus (GPa) = 30.25949 35.18426 32.72188
#
# Velocity S-wave (km/s) = 3.45051 3.72071 3.58815
# Velocity P-wave (km/s) = 5.13070 5.61690 5.37930
#
# Compressibility (1/GPa) = 0.03765398
#
# Stress axis : x y z
#
# Youngs Moduli (GPa) = 82.17150 93.45192 35.21135
#
# Poissons Ratio (x) = 0.20479 0.16122
# Poissons Ratio (y) = 0.18007 0.00134
# Poissons Ratio (z) = 0.37624 0.00356
#
# Static dielectric constant tensor:
#      x y z
#    x 2.190530 0.000000 0.000570 
#    y 0.000000 2.171860 0.000000 
#    z 0.000570 0.000000 2.129650 
# 
# From -- ./inp_files/50999.got.cif
#   From: 2010.05.17/outbox.cif.g08.bks.cpg/sg14_26_cif.got.tgz:50999.got - 2010.06.03 17:49:19.
