data_PCOD9244250
_publ_section_title
;
Structure prediction by ZEFSAII (Michael W. Deem and Ramdas Pophale) SiO2 
 PCOD9244250
Probable space group: P 21/C
;
_chemical_formula_sum "Si O2"
_cell_formula_units_Z 22
_cell_length_a 8.122061
_cell_length_b 4.863773
_cell_length_c 22.451993
_cell_angle_alpha 90.000000
_cell_angle_beta 82.992348
_cell_angle_gamma 90.000000
_cell_volume 880.314848
_symmetry_space_group_name_H-M "P 21/C"
_symmetry_group_IT_number 14
_symmetry_cell_setting 'monoclinic'
loop_
_space_group_symop_operation_xyz
x,y,z
-x,1/2+y,1/2-z
-x,-y,-z
x,1/2-y,1/2+z
loop_
_atom_site_type_symbol
_atom_site_label
_atom_site_fract_x
_atom_site_fract_y
_atom_site_fract_z
Si Si1 0.938129 0.078149 0.719115
Si Si2 0.946993 0.251872 0.087295
Si Si3 0.500000 0.000000 0.000000
Si Si4 0.421699 0.527771 0.913279
Si Si5 0.790453 0.834624 0.013510
Si Si6 0.567886 0.652239 0.217882
O O1 0.989307 0.212236 0.653906
O O2 0.755318 0.947826 0.720542
O O3 0.946297 0.326455 0.765755
O O4 0.776466 0.417903 0.085166
O O5 0.891864 0.951418 0.064976
O O6 0.095823 0.326213 0.036711
O O7 0.489669 0.215666 0.063084
O O8 0.705591 0.089584 0.983047
O O9 0.398913 0.273177 0.960867
O O10 0.481799 0.423775 0.847160
O O11 0.544952 0.972531 0.232425
#
# Coordination Sequence:
#
# PCOD9244250 Si02
#       6
#     4   4   2   4   4   4
#     4  11  25  45  68 100 136 177 231 288 331 404
#     4   9  22  39  65  92 123 172 223 264 341 400
#     4  10  22  36  56 100 122 166 204 278 326 402
#     4  10  22  40  66  87 134 166 224 270 337 399
#     4  10  20  40  64  93 129 166 216 273 338 392
#     4  11  26  45  71  98 136 188 230 276 348 412
#
# _framework density 24.991060999999998
#
# number of rings (size 3 to 8) (size 9 to 14) (size 15 to 20)
#    0.000    1.818    0.000    2.182   12.727    2.909 
#    3.273    0.000    0.000    0.000    0.000    0.000 
#    0.000    0.000    0.000    0.000    0.000    0.000 
#
# Total GULP energy -122643.349577 kJ/mol
# GULP energy per Si atom -5574.697708 kJ/mol
# Density = 2.493418 g / cm^3
# Si number density = 24.991061 Si / 1000 Ang^3
#
#
#
# Elastic Constant Matrix: (Units=GPa)
#
#
# Indices 1 2 3 4 5 6 
#
# 1 52.8094 -0.7057 16.1927 0.0000 12.6430 0.0000
# 2 -0.7057 68.5324 11.1607 0.0000 9.6760 0.0000
# 3 16.1927 11.1607 76.4364 0.0000 19.5797 0.0000
# 4 0.0000 0.0000 0.0000 33.3584 0.0000 3.6326
# 5 12.6430 9.6760 19.5797 0.0000 35.1193 0.0000
# 6 0.0000 0.0000 0.0000 3.6326 0.0000 48.2642
#
#
#
# Elastic Compliance Matrix: (Units=1/GPa)
#
#
# Indices 1 2 3 4 5 6 
#
# 1 0.021459 0.001640 -0.003139 0.000000 -0.006427 0.000000
# 2 0.001640 0.015425 -0.001586 0.000000 -0.003956 0.000000
# 3 -0.003139 -0.001586 0.015840 0.000000 -0.007264 0.000000
# 4 0.000000 0.000000 0.000000 0.030225 0.000000 -0.002275
# 5 -0.006427 -0.003956 -0.007264 0.000000 0.035928 0.000000
# 6 0.000000 0.000000 0.000000 -0.002275 0.000000 0.020891
#
#
# Mechanical properties :
#
#
# Convention : Reuss Voigt Hill
#
# Bulk Modulus (GPa) = 21.48092 27.89707 24.68899
# Shear Modulus (GPa) = 30.96790 34.75709 32.86249
#
# Velocity S-wave (km/s) = 3.52399 3.73336 3.63019
# Velocity P-wave (km/s) = 5.01718 5.45629 5.24133
#
# Compressibility (1/GPa) = 0.04655293
#
# Stress axis : x y z
#
# Youngs Moduli (GPa) = 46.60019 64.82819 63.13084
#
# Poissons Ratio (x) = -0.10629 0.19818
# Poissons Ratio (y) = -0.07641 0.10015
# Poissons Ratio (z) = 0.14628 0.10284
#
# Static dielectric constant tensor:
#      x y z
#    x 2.026920 0.000000 -0.038170 
#    y 0.000000 2.214590 0.000000 
#    z -0.038170 0.000000 2.131260 
# 
# From -- ./inp_files/64165.got.cif
#   From: 2010.05.17/outbox.cif.g08.bks.cpg/sg14_33_cif.got.tgz:64165.got - 2010.06.03 17:49:19.
