data_PCOD9244807
_publ_section_title
;
Structure prediction by ZEFSAII (Michael W. Deem and Ramdas Pophale) SiO2 
 PCOD9244807
Probable space group: P 21/C
;
_chemical_formula_sum "Si O2"
_cell_formula_units_Z 28
_cell_length_a 16.433647
_cell_length_b 9.071959
_cell_length_c 17.678296
_cell_angle_alpha 90.000000
_cell_angle_beta 147.716582
_cell_angle_gamma 90.000000
_cell_volume 1407.681077
_symmetry_space_group_name_H-M "P 21/C"
_symmetry_group_IT_number 14
_symmetry_cell_setting 'monoclinic'
loop_
_space_group_symop_operation_xyz
x,y,z
-x,1/2+y,1/2-z
-x,-y,-z
x,1/2-y,1/2+z
loop_
_atom_site_type_symbol
_atom_site_label
_atom_site_fract_x
_atom_site_fract_y
_atom_site_fract_z
Si Si1 0.201527 0.145793 0.437393
Si Si2 0.372219 0.251705 0.220945
Si Si3 0.070033 0.074531 0.756869
Si Si4 0.594080 0.328130 0.629475
Si Si5 0.373495 0.928282 0.008603
Si Si6 0.847128 0.930119 0.348650
Si Si7 0.496895 0.028102 0.588353
O O1 0.298301 0.223317 0.580856
O O2 0.092328 0.275303 0.320385
O O3 0.327045 0.077743 0.479215
O O4 0.090983 0.009510 0.372484
O O5 0.515803 0.363895 0.341144
O O6 0.236415 0.302765 0.170520
O O7 0.437792 0.097955 0.304877
O O8 0.120097 0.113074 0.711197
O O9 0.198534 0.958964 0.888169
O O10 0.603974 0.320272 0.546044
O O11 0.441654 0.415901 0.532899
O O12 0.727847 0.436629 0.756440
O O13 0.599615 0.174485 0.675275
O O14 0.000000 0.000000 0.500000
O O15 0.500000 0.000000 0.500000
#
# Coordination Sequence:
#
# PCOD9244807 Si02
#       7
#     4   4   4   4   4   4   4
#     4  12  28  43  65 101 139 182 223 285 346 404
#     4  11  24  41  69 102 131 175 230 285 333 399
#     4  11  24  45  66  96 140 177 226 273 354 405
#     4   9  18  36  68  95 120 175 219 266 324 404
#     4   9  18  39  69  90 128 172 226 261 328 411
#     4  10  20  44  71  93 128 179 227 271 333 417
#     4  12  24  44  69 102 137 172 230 286 338 398
#
# _framework density 19.89087
#
# number of rings (size 3 to 8) (size 9 to 14) (size 15 to 20)
#    0.000    1.429    4.286    1.714    4.000    0.000 
#    2.571    0.714    0.000    0.000    0.000    0.000 
#    0.000    0.000    0.000    0.000    0.000    0.000 
#
# Total GULP energy -156147.215457 kJ/mol
# GULP energy per Si atom -5576.686266 kJ/mol
# Density = 1.984560 g / cm^3
# Si number density = 19.890870 Si / 1000 Ang^3
#
#
#
# Elastic Constant Matrix: (Units=GPa)
#
#
# Indices 1 2 3 4 5 6 
#
# 1 79.9479 33.8765 19.1642 0.0000 0.4242 0.0000
# 2 33.8765 77.2786 19.9744 0.0000 -9.4881 0.0000
# 3 19.1642 19.9744 89.3278 0.0000 -0.4204 0.0000
# 4 0.0000 0.0000 0.0000 28.8879 0.0000 0.3625
# 5 0.4242 -9.4881 -0.4204 0.0000 19.9162 0.0000
# 6 0.0000 0.0000 0.0000 0.3625 0.0000 18.6648
#
#
#
# Elastic Compliance Matrix: (Units=1/GPa)
#
#
# Indices 1 2 3 4 5 6 
#
# 1 0.015922 -0.006947 -0.001880 0.000000 -0.003688 0.000000
# 2 -0.006947 0.017655 -0.002417 0.000000 0.008508 0.000000
# 3 -0.001880 -0.002417 0.012135 0.000000 -0.000855 0.000000
# 4 0.000000 0.000000 0.000000 0.034625 0.000000 -0.000672
# 5 -0.003688 0.008508 -0.000855 0.000000 0.054324 0.000000
# 6 0.000000 0.000000 0.000000 -0.000672 0.000000 0.053590
#
#
# Mechanical properties :
#
#
# Convention : Reuss Voigt Hill
#
# Bulk Modulus (GPa) = 43.05997 43.62051 43.34024
# Shear Modulus (GPa) = 22.88552 25.06307 23.97430
#
# Velocity S-wave (km/s) = 3.39566 3.55354 3.47550
# Velocity P-wave (km/s) = 6.08844 6.23012 6.15969
#
# Compressibility (1/GPa) = 0.02322343
#
# Stress axis : x y z
#
# Youngs Moduli (GPa) = 62.80688 56.64199 82.40928
#
# Poissons Ratio (x) = 0.39347 0.15492
# Poissons Ratio (y) = 0.43629 0.19922
# Poissons Ratio (z) = 0.11807 0.13693
#
# Static dielectric constant tensor:
#      x y z
#    x 1.728860 0.000000 -0.000590 
#    y 0.000000 1.759090 0.000000 
#    z -0.000590 0.000000 1.808290 
# 
# From -- ./inp_files/46750.got.cif
#   From: 2010.05.17/outbox.cif.g08.bks.cpg/sg14_24_cif.got.tgz:46750.got - 2010.06.03 17:49:19.
