data_PCOD9244800
_publ_section_title
;
Structure prediction by ZEFSAII (Michael W. Deem and Ramdas Pophale) SiO2 
 PCOD9244800
Probable space group: P 21/C
;
_chemical_formula_sum "Si O2"
_cell_formula_units_Z 30
_cell_length_a 5.375181
_cell_length_b 11.723853
_cell_length_c 20.947611
_cell_angle_alpha 90.000000
_cell_angle_beta 86.362262
_cell_angle_gamma 90.000000
_cell_volume 1317.413286
_symmetry_space_group_name_H-M "P 21/C"
_symmetry_group_IT_number 14
_symmetry_cell_setting 'monoclinic'
loop_
_space_group_symop_operation_xyz
x,y,z
-x,1/2+y,1/2-z
-x,-y,-z
x,1/2-y,1/2+z
loop_
_atom_site_type_symbol
_atom_site_label
_atom_site_fract_x
_atom_site_fract_y
_atom_site_fract_z
Si Si1 0.663302 0.699805 0.750131
Si Si2 0.254405 0.278557 0.956905
Si Si3 0.754731 0.973701 0.360118
Si Si4 0.035853 0.780951 0.413177
Si Si5 0.549983 0.391296 0.380277
Si Si6 0.500000 0.000000 0.500000
Si Si7 0.944603 0.281951 0.843618
Si Si8 0.457444 0.339953 0.636514
O O1 0.664120 0.599464 0.801759
O O2 0.543137 0.655632 0.686975
O O3 0.542307 0.806665 0.788526
O O4 0.939052 0.738289 0.724012
O O5 0.376504 0.156760 0.939879
O O6 0.157884 0.319615 0.889841
O O7 0.028659 0.286064 0.010789
O O8 0.454044 0.366982 0.979867
O O9 0.004305 0.906885 0.382268
O O10 0.581851 0.969419 0.424880
O O11 0.787285 0.104058 0.339176
O O12 0.799652 0.712306 0.387294
O O13 0.295567 0.719450 0.395745
O O14 0.811355 0.324747 0.380215
O O15 0.549858 0.526302 0.377058
#
# Coordination Sequence:
#
# PCOD9244800 Si02
#       8
#     4   4   4   4   4   2   4   4
#     4  10  27  42  67 101 138 194 238 302 363 437
#     4  10  24  44  69 108 140 187 243 300 380 441
#     4  10  23  43  74 104 147 182 253 304 380 438
#     4  10  26  46  73 106 140 192 238 305 371 446
#     4  11  26  44  69  99 147 190 247 299 367 447
#     4  10  20  44  70 106 144 180 238 322 368 446
#     4  11  25  43  68 105 139 192 241 307 368 441
#     4  11  27  46  71 103 144 188 246 296 373 447
#
# _framework density 22.771898
#
# number of rings (size 3 to 8) (size 9 to 14) (size 15 to 20)
#    0.000    1.600    1.333    0.000   13.067    7.467 
#    0.000    0.000    0.000    0.000    0.000    0.000 
#    0.000    0.000    0.000    0.000    0.000    0.000 
#
# Total GULP energy -167107.392705 kJ/mol
# GULP energy per Si atom -5570.246424 kJ/mol
# Density = 2.272007 g / cm^3
# Si number density = 22.771898 Si / 1000 Ang^3
#
#
#
# Elastic Constant Matrix: (Units=GPa)
#
#
# Indices 1 2 3 4 5 6 
#
# 1 71.7605 38.0144 20.4249 0.0000 -11.1821 0.0000
# 2 38.0144 112.6456 3.5572 0.0000 -1.5479 0.0000
# 3 20.4249 3.5572 92.0883 0.0000 -2.7748 0.0000
# 4 0.0000 0.0000 0.0000 30.9065 0.0000 -4.1491
# 5 -11.1821 -1.5479 -2.7748 0.0000 22.9229 0.0000
# 6 0.0000 0.0000 0.0000 -4.1491 0.0000 10.0571
#
#
#
# Elastic Compliance Matrix: (Units=1/GPa)
#
#
# Indices 1 2 3 4 5 6 
#
# 1 0.019821 -0.006446 -0.003883 0.000000 0.008763 0.000000
# 2 -0.006446 0.010992 0.000936 0.000000 -0.002289 0.000000
# 3 -0.003883 0.000936 0.011672 0.000000 -0.000418 0.000000
# 4 0.000000 0.000000 0.000000 0.034253 0.000000 0.014131
# 5 0.008763 -0.002289 -0.000418 0.000000 0.047694 0.000000
# 6 0.000000 0.000000 0.000000 0.014131 0.000000 0.105263
#
#
# Mechanical properties :
#
#
# Convention : Reuss Voigt Hill
#
# Bulk Modulus (GPa) = 42.19709 44.49861 43.34785
# Shear Modulus (GPa) = 19.50241 27.07715 23.28978
#
# Velocity S-wave (km/s) = 2.92965 3.45202 3.20150
# Velocity P-wave (km/s) = 5.47854 5.95584 5.72216
#
# Compressibility (1/GPa) = 0.02369832
#
# Stress axis : x y z
#
# Youngs Moduli (GPa) = 50.45246 90.97818 85.67772
#
# Poissons Ratio (x) = 0.58643 0.33270
# Poissons Ratio (y) = 0.32521 -0.08020
# Poissons Ratio (z) = 0.19591 -0.08516
#
# Static dielectric constant tensor:
#      x y z
#    x 1.981050 0.000000 0.000390 
#    y 0.000000 1.817070 0.000000 
#    z 0.000390 0.000000 1.830910 
# 
# From -- ./inp_files/63515.got.cif
#   From: 2010.05.17/outbox.cif.g08.bks.cpg/sg14_32_cif.got.tgz:63515.got - 2010.06.03 17:49:19.
