data_PCOD9244733
_publ_section_title
;
Structure prediction by ZEFSAII (Michael W. Deem and Ramdas Pophale) SiO2 
 PCOD9244733
Probable space group: P 21/C
;
_chemical_formula_sum "Si O2"
_cell_formula_units_Z 28
_cell_length_a 16.887474
_cell_length_b 9.340192
_cell_length_c 15.273340
_cell_angle_alpha 90.000000
_cell_angle_beta 28.256624
_cell_angle_gamma 90.000000
_cell_volume 1140.518930
_symmetry_space_group_name_H-M "P 21/C"
_symmetry_group_IT_number 14
_symmetry_cell_setting 'monoclinic'
loop_
_space_group_symop_operation_xyz
x,y,z
-x,1/2+y,1/2-z
-x,-y,-z
x,1/2-y,1/2+z
loop_
_atom_site_type_symbol
_atom_site_label
_atom_site_fract_x
_atom_site_fract_y
_atom_site_fract_z
Si Si1 0.639491 0.670563 0.385691
Si Si2 0.034145 0.333312 0.472381
Si Si3 0.975604 0.817598 0.817941
Si Si4 0.839936 0.420499 0.115520
Si Si5 0.514754 0.775371 0.817435
Si Si6 0.175204 0.040482 0.559984
Si Si7 0.639670 0.557527 0.570605
O O1 0.691693 0.510925 0.302271
O O2 0.543630 0.732637 0.394058
O O3 0.575500 0.642148 0.546066
O O4 0.805569 0.770396 0.235284
O O5 0.077832 0.295116 0.529839
O O6 0.000000 0.500000 0.500000
O O7 0.868827 0.244362 0.607754
O O8 0.967759 0.660234 0.784932
O O9 0.829226 0.901548 0.909472
O O10 0.141230 0.915026 0.662198
O O11 0.845867 0.449188 0.007745
O O12 0.000000 0.500000 0.000000
O O13 0.663502 0.864107 0.620869
O O14 0.526873 0.621063 0.759685
O O15 0.368495 0.888288 0.940215
#
# Coordination Sequence:
#
# PCOD9244733 Si02
#       7
#     4   4   4   4   4   4   4
#     4  10  20  43  65  86 122 173 212 251 316 383
#     4  11  22  35  59  94 136 155 206 268 319 367
#     4  11  22  37  61  96 125 159 208 263 313 375
#     4   9  16  36  55  83 118 162 199 241 296 383
#     4  10  23  45  60  93 126 162 216 260 304 386
#     4  10  21  37  61  88 125 158 207 260 310 372
#     4  11  23  42  68  87 125 171 207 263 312 371
#
# _framework density 24.550228000000001
#
# number of rings (size 3 to 8) (size 9 to 14) (size 15 to 20)
#    0.000    1.714    5.714    2.143    6.000    1.143 
#    2.571    0.714    0.000    0.000    0.000    0.000 
#    0.000    0.000    0.000    0.000    0.000    0.000 
#
# Total GULP energy -156274.006927 kJ/mol
# GULP energy per Si atom -5581.214533 kJ/mol
# Density = 2.449435 g / cm^3
# Si number density = 24.550228 Si / 1000 Ang^3
#
#
#
# Elastic Constant Matrix: (Units=GPa)
#
#
# Indices 1 2 3 4 5 6 
#
# 1 61.0815 -1.5089 -5.6513 0.0000 -0.1625 0.0000
# 2 -1.5089 127.0828 -18.4927 0.0000 -14.4560 0.0000
# 3 -5.6513 -18.4927 36.7337 0.0000 -10.5163 0.0000
# 4 0.0000 0.0000 0.0000 29.9691 0.0000 -7.3540
# 5 -0.1625 -14.4560 -10.5163 0.0000 22.1172 0.0000
# 6 0.0000 0.0000 0.0000 -7.3540 0.0000 35.4671
#
#
#
# Elastic Compliance Matrix: (Units=1/GPa)
#
#
# Indices 1 2 3 4 5 6 
#
# 1 0.016764 0.001067 0.003879 0.000000 0.002665 0.000000
# 2 0.001067 0.010339 0.008457 0.000000 0.010787 0.000000
# 3 0.003879 0.008457 0.038973 0.000000 0.024087 0.000000
# 4 0.000000 0.000000 0.000000 0.035156 0.000000 0.007290
# 5 0.002665 0.010787 0.024087 0.000000 0.063737 0.000000
# 6 0.000000 0.000000 0.000000 0.007290 0.000000 0.029707
#
#
# Mechanical properties :
#
#
# Convention : Reuss Voigt Hill
#
# Bulk Modulus (GPa) = 10.76636 19.28800 15.02718
# Shear Modulus (GPa) = 25.14695 34.21408 29.68051
#
# Velocity S-wave (km/s) = 3.20395 3.73719 3.48080
# Velocity P-wave (km/s) = 4.25230 5.14740 4.72111
#
# Compressibility (1/GPa) = 0.09288193
#
# Stress axis : x y z
#
# Youngs Moduli (GPa) = 59.65201 96.71853 25.65865
#
# Poissons Ratio (x) = -0.10316 -0.09953
# Poissons Ratio (y) = -0.06362 -0.21700
# Poissons Ratio (z) = -0.23138 -0.81798
#
# Static dielectric constant tensor:
#      x y z
#    x 2.009370 0.000000 -0.177970 
#    y 0.000000 2.036220 0.000000 
#    z -0.177970 0.000000 2.313040 
# 
# From -- ./inp_files/48525.got.cif
#   From: 2010.05.17/outbox.cif.g08.bks.cpg/sg14_25_cif.got.tgz:48525.got - 2010.06.03 17:49:19.
