data_PCOD9244175
_publ_section_title
;
Structure prediction by ZEFSAII (Michael W. Deem and Ramdas Pophale) SiO2 
 PCOD9244175
Probable space group: P 21/C
;
_chemical_formula_sum "Si O2"
_cell_formula_units_Z 28
_cell_length_a 18.241048
_cell_length_b 5.532222
_cell_length_c 12.391256
_cell_angle_alpha 90.000000
_cell_angle_beta 109.888549
_cell_angle_gamma 90.000000
_cell_volume 1175.863955
_symmetry_space_group_name_H-M "P 21/C"
_symmetry_group_IT_number 14
_symmetry_cell_setting 'monoclinic'
loop_
_space_group_symop_operation_xyz
x,y,z
-x,1/2+y,1/2-z
-x,-y,-z
x,1/2-y,1/2+z
loop_
_atom_site_type_symbol
_atom_site_label
_atom_site_fract_x
_atom_site_fract_y
_atom_site_fract_z
Si Si1 0.762923 0.556719 0.853279
Si Si2 0.401037 0.657720 0.229186
Si Si3 0.535387 0.822109 0.431135
Si Si4 0.667609 0.946053 0.941624
Si Si5 0.175257 0.847826 0.991738
Si Si6 0.897653 0.957623 0.255990
Si Si7 0.066708 0.966411 0.121677
O O1 0.688593 0.390527 0.785144
O O2 0.718334 0.767550 0.893122
O O3 0.814605 0.583023 0.773753
O O4 0.821285 0.432655 0.970772
O O5 0.432717 0.470629 0.156308
O O6 0.462499 0.664598 0.355567
O O7 0.393763 0.913979 0.164355
O O8 0.500000 0.000000 0.500000
O O9 0.614068 0.681240 0.503648
O O10 0.737036 0.121115 0.011149
O O11 0.119300 0.959842 0.874094
O O12 0.146960 0.966868 0.090898
O O13 0.936443 0.197565 0.328767
O O14 0.936451 0.695770 0.298668
O O15 0.000000 0.000000 0.000000
#
# Coordination Sequence:
#
# PCOD9244175 Si02
#       7
#     4   4   4   4   4   4   4
#     4   9  21  39  62  91 127 167 216 273 324 387
#     4  10  21  39  58  85 124 165 212 274 324 390
#     4  11  23  38  59  85 118 164 217 266 333 385
#     4  10  20  40  61  84 129 161 208 279 323 387
#     4  10  23  41  66  95 131 168 223 265 328 398
#     4  11  24  42  72  99 130 180 214 263 334 389
#     4  11  25  45  68 103 139 171 216 268 321 395
#
# _framework density 23.812280000000001
#
# number of rings (size 3 to 8) (size 9 to 14) (size 15 to 20)
#    0.000    1.714    2.857    0.429    2.000    6.286 
#    0.000    0.000    0.000    0.000    0.000    0.000 
#    0.000    0.000    0.000    0.000    0.000    0.000 
#
# Total GULP energy -156123.505327 kJ/mol
# GULP energy per Si atom -5575.839476 kJ/mol
# Density = 2.375808 g / cm^3
# Si number density = 23.812280 Si / 1000 Ang^3
#
#
#
# Elastic Constant Matrix: (Units=GPa)
#
#
# Indices 1 2 3 4 5 6 
#
# 1 106.9354 6.8455 1.1359 0.0000 -9.8840 0.0000
# 2 6.8455 81.8012 3.4329 0.0000 -0.7087 0.0000
# 3 1.1359 3.4329 38.2469 0.0000 -3.7652 0.0000
# 4 0.0000 0.0000 0.0000 4.0200 0.0000 5.8249
# 5 -9.8840 -0.7087 -3.7652 0.0000 29.7518 0.0000
# 6 0.0000 0.0000 0.0000 5.8249 0.0000 5.5848
#
#
#
# Elastic Compliance Matrix: (Units=1/GPa)
#
#
# Indices 1 2 3 4 5 6 
#
# 1 0.009698 -0.000788 0.000099 0.000000 0.003216 0.000000
# 2 -0.000788 0.012336 -0.001094 0.000000 -0.000106 0.000000
# 3 0.000099 -0.001094 0.026573 0.000000 0.003370 0.000000
# 4 0.000000 0.000000 0.000000 -0.486564 0.000000 0.507478
# 5 0.003216 -0.000106 0.003370 0.000000 0.035104 0.000000
# 6 0.000000 0.000000 0.000000 0.507478 0.000000 -0.350234
#
#
# Mechanical properties :
#
#
# Convention : Reuss Voigt Hill
#
# Bulk Modulus (GPa) = 22.20208 27.75689 24.97948
# Shear Modulus (GPa) = -6.80728 22.24260 7.71766
#
# Velocity S-wave (km/s) = -1.69261 3.05959 1.80224
# Velocity P-wave (km/s) = 2.35035 4.91562 3.85275
#
# Compressibility (1/GPa) = 0.04504083
#
# Stress axis : x y z
#
# Youngs Moduli (GPa) = 103.11359 81.06552 37.63233
#
# Poissons Ratio (x) = 0.06387 -0.00374
# Poissons Ratio (y) = 0.08124 0.04118
# Poissons Ratio (z) = -0.01024 0.08871
#
# Static dielectric constant tensor:
#      x y z
#    x 1.960730 0.000000 0.014160 
#    y 0.000000 2.088750 0.000000 
#    z 0.014160 0.000000 1.930440 
# 
# From -- ./inp_files/34733.got.cif
#   From: 2010.05.17/outbox.cif.g08.bks.cpg/sg14_18_cif.got.tgz:34733.got - 2010.06.03 17:49:19.
