data_PCOD9244641
_publ_section_title
;
Structure prediction by ZEFSAII (Michael W. Deem and Ramdas Pophale) SiO2 
 PCOD9244641
Probable space group: P 21/C
;
_chemical_formula_sum "Si O2"
_cell_formula_units_Z 30
_cell_length_a 8.746278
_cell_length_b 6.393259
_cell_length_c 24.620389
_cell_angle_alpha 90.000000
_cell_angle_beta 113.581570
_cell_angle_gamma 90.000000
_cell_volume 1261.737204
_symmetry_space_group_name_H-M "P 21/C"
_symmetry_group_IT_number 14
_symmetry_cell_setting 'monoclinic'
loop_
_space_group_symop_operation_xyz
x,y,z
-x,1/2+y,1/2-z
-x,-y,-z
x,1/2-y,1/2+z
loop_
_atom_site_type_symbol
_atom_site_label
_atom_site_fract_x
_atom_site_fract_y
_atom_site_fract_z
Si Si1 0.183605 0.987455 0.858665
Si Si2 0.000000 0.000000 0.500000
Si Si3 0.718352 0.424378 0.914711
Si Si4 0.251242 0.936919 0.747022
Si Si5 0.462360 0.712973 0.938503
Si Si6 0.247675 0.166994 0.446552
Si Si7 0.115844 0.271447 0.135664
Si Si8 0.629206 0.404431 0.309728
O O1 0.368245 0.896010 0.894802
O O2 0.047487 0.856450 0.872934
O O3 0.159161 0.963376 0.791038
O O4 0.183920 0.217840 0.883704
O O5 0.832753 0.172646 0.476601
O O6 0.893099 0.847040 0.528561
O O7 0.568417 0.565756 0.913079
O O8 0.867924 0.595437 0.918258
O O9 0.659505 0.269729 0.860283
O O10 0.147112 0.055060 0.686053
O O11 0.434419 0.045893 0.775348
O O12 0.291052 0.700778 0.732995
O O13 0.323595 0.556575 0.941832
O O14 0.593187 0.780227 0.003018
O O15 0.269685 0.110858 0.160026
#
# Coordination Sequence:
#
# PCOD9244641 Si02
#       8
#     4   2   4   4   4   4   4   4
#     4  12  25  40  65  95 131 169 213 267 325 391
#     4  10  20  42  66  94 136 168 206 274 318 386
#     4  10  22  41  67  95 128 170 215 260 325 382
#     4  11  25  41  65  89 125 167 216 268 319 379
#     4  10  22  41  68  96 131 164 215 264 317 391
#     4  10  22  42  66  98 129 173 213 265 331 381
#     4  11  25  42  61  94 127 170 215 265 321 384
#     4  11  22  43  65  88 122 166 217 263 314 383
#
# _framework density 23.776741999999999
#
# number of rings (size 3 to 8) (size 9 to 14) (size 15 to 20)
#    0.000    1.333    1.333    3.600    3.733    2.133 
#    0.000   16.000    0.000    0.000    0.000    0.000 
#    0.000    0.000    0.000    0.000    0.000    0.000 
#
# Total GULP energy -167442.210971 kJ/mol
# GULP energy per Si atom -5581.407032 kJ/mol
# Density = 2.372263 g / cm^3
# Si number density = 23.776742 Si / 1000 Ang^3
#
#
#
# Elastic Constant Matrix: (Units=GPa)
#
#
# Indices 1 2 3 4 5 6 
#
# 1 108.9532 34.8442 22.2453 0.0000 -12.1348 0.0000
# 2 34.8442 53.2184 23.8401 0.0000 -7.2866 0.0000
# 3 22.2453 23.8401 78.5104 0.0000 -19.1418 0.0000
# 4 0.0000 0.0000 0.0000 34.6831 0.0000 -3.2143
# 5 -12.1348 -7.2866 -19.1418 0.0000 42.2039 0.0000
# 6 0.0000 0.0000 0.0000 -3.2143 0.0000 22.1893
#
#
#
# Elastic Compliance Matrix: (Units=1/GPa)
#
#
# Indices 1 2 3 4 5 6 
#
# 1 0.011822 -0.007163 -0.000728 0.000000 0.001832 0.000000
# 2 -0.007163 0.026117 -0.005963 0.000000 -0.000255 0.000000
# 3 -0.000728 -0.005963 0.016249 0.000000 0.006131 0.000000
# 4 0.000000 0.000000 0.000000 0.029225 0.000000 0.004233
# 5 0.001832 -0.000255 0.006131 0.000000 0.026958 0.000000
# 6 0.000000 0.000000 0.000000 0.004233 0.000000 0.045680
#
#
# Mechanical properties :
#
#
# Convention : Reuss Voigt Hill
#
# Bulk Modulus (GPa) = 37.76515 44.72678 41.24597
# Shear Modulus (GPa) = 25.96254 30.46542 28.21398
#
# Velocity S-wave (km/s) = 3.30802 3.58342 3.44847
# Velocity P-wave (km/s) = 5.52344 5.99777 5.76548
#
# Compressibility (1/GPa) = 0.02647944
#
# Stress axis : x y z
#
# Youngs Moduli (GPa) = 84.58948 38.28933 61.54276
#
# Poissons Ratio (x) = 0.27428 0.04478
# Poissons Ratio (y) = 0.60594 0.36698
# Poissons Ratio (z) = 0.06156 0.22832
#
# Static dielectric constant tensor:
#      x y z
#    x 1.908540 0.000000 0.028120 
#    y 0.000000 1.915130 0.000000 
#    z 0.028120 0.000000 2.210550 
# 
# From -- ./inp_files/79160.got.cif
#   From: 2010.05.17/outbox.cif.g08.bks.cpg/sg14_40_cif.got.tgz:79160.got - 2010.06.03 17:49:19.
