data_PCOD9244547
_publ_section_title
;
Structure prediction by ZEFSAII (Michael W. Deem and Ramdas Pophale) SiO2 
 PCOD9244547
Probable space group: P 21/C
;
_chemical_formula_sum "Si O2"
_cell_formula_units_Z 26
_cell_length_a 15.734778
_cell_length_b 5.088518
_cell_length_c 14.724960
_cell_angle_alpha 90.000000
_cell_angle_beta 124.035537
_cell_angle_gamma 90.000000
_cell_volume 977.008768
_symmetry_space_group_name_H-M "P 21/C"
_symmetry_group_IT_number 14
_symmetry_cell_setting 'monoclinic'
loop_
_space_group_symop_operation_xyz
x,y,z
-x,1/2+y,1/2-z
-x,-y,-z
x,1/2-y,1/2+z
loop_
_atom_site_type_symbol
_atom_site_label
_atom_site_fract_x
_atom_site_fract_y
_atom_site_fract_z
Si Si1 0.000000 0.500000 0.500000
Si Si2 0.043338 0.806967 0.826559
Si Si3 0.256983 0.242271 0.092668
Si Si4 0.225344 0.156867 0.885286
Si Si5 0.168220 0.524294 0.692429
Si Si6 0.351233 0.919219 0.813821
Si Si7 0.464407 0.979254 0.181854
O O1 0.022639 0.678021 0.421182
O O2 0.071378 0.701289 0.613911
O O3 0.159793 0.906285 0.877041
O O4 0.982993 0.031058 0.733354
O O5 0.158507 0.126362 0.087213
O O6 0.307975 0.420447 0.200159
O O7 0.343556 0.026171 0.117360
O O8 0.233176 0.341249 0.978436
O O9 0.171472 0.308863 0.771281
O O10 0.327083 0.057623 0.894598
O O11 0.278025 0.664595 0.766408
O O12 0.471451 0.906904 0.864678
O O13 0.509589 0.174123 0.287603
#
# Coordination Sequence:
#
# PCOD9244547 Si02
#       7
#     2   4   4   4   4   4   4
#     4  12  24  44  74 100 142 192 234 288 364 408
#     4  12  27  47  70 104 139 184 240 291 349 422
#     4  10  22  41  66  96 133 180 225 280 347 399
#     4  11  24  42  64 100 138 176 228 291 339 416
#     4  11  22  44  63  97 134 181 228 282 341 417
#     4  10  23  41  68  96 138 178 230 282 345 415
#     4  10  20  41  70 100 136 183 230 280 342 414
#
# _framework density 26.611837000000001
#
# number of rings (size 3 to 8) (size 9 to 14) (size 15 to 20)
#    0.000    1.231    4.615    0.923    0.000    3.692 
#    0.000    0.769    0.000    0.000    0.000    0.000 
#    0.000    0.000    0.000    0.000    0.000    0.000 
#
# Total GULP energy -144739.664635 kJ/mol
# GULP energy per Si atom -5566.910178 kJ/mol
# Density = 2.655127 g / cm^3
# Si number density = 26.611837 Si / 1000 Ang^3
#
#
#
# Elastic Constant Matrix: (Units=GPa)
#
#
# Indices 1 2 3 4 5 6 
#
# 1 142.7064 29.2671 39.4165 0.0000 -47.9605 0.0000
# 2 29.2671 76.4646 21.1113 0.0000 -7.7944 0.0000
# 3 39.4165 21.1113 145.9814 0.0000 -28.7791 0.0000
# 4 0.0000 0.0000 0.0000 17.8741 0.0000 -0.7654
# 5 -47.9605 -7.7944 -28.7791 0.0000 52.0892 0.0000
# 6 0.0000 0.0000 0.0000 -0.7654 0.0000 39.3963
#
#
#
# Elastic Compliance Matrix: (Units=1/GPa)
#
#
# Indices 1 2 3 4 5 6 
#
# 1 0.010922 -0.003050 -0.000691 0.000000 0.009218 0.000000
# 2 -0.003050 0.014527 -0.001574 0.000000 -0.001504 0.000000
# 3 -0.000691 -0.001574 0.007959 0.000000 0.003526 0.000000
# 4 0.000000 0.000000 0.000000 0.055993 0.000000 0.001088
# 5 0.009218 -0.001504 0.003526 0.000000 0.029408 0.000000
# 6 0.000000 0.000000 0.000000 0.001088 0.000000 0.025404
#
#
# Mechanical properties :
#
#
# Convention : Reuss Voigt Hill
#
# Bulk Modulus (GPa) = 43.90034 60.52689 52.21362
# Shear Modulus (GPa) = 30.78150 40.22908 35.50529
#
# Velocity S-wave (km/s) = 3.40470 3.89228 3.65662
# Velocity P-wave (km/s) = 5.65582 6.55694 6.12298
#
# Compressibility (1/GPa) = 0.02277886
#
# Stress axis : x y z
#
# Youngs Moduli (GPa) = 91.56152 68.83963 125.63741
#
# Poissons Ratio (x) = 0.20996 0.08677
# Poissons Ratio (y) = 0.27926 0.19772
# Poissons Ratio (z) = 0.06323 0.10834
#
# Static dielectric constant tensor:
#      x y z
#    x 2.200200 0.000000 -0.086110 
#    y 0.000000 1.974490 0.000000 
#    z -0.086110 0.000000 1.998780 
# 
# From -- ./inp_files/48039.got.cif
#   From: 2010.05.17/outbox.cif.g08.bks.cpg/sg14_25_cif.got.tgz:48039.got - 2010.06.03 17:49:19.
