data_PCOD9244826
_publ_section_title
;
Structure prediction by ZEFSAII (Michael W. Deem and Ramdas Pophale) SiO2 
 PCOD9244826
Probable space group: P 21/C
;
_chemical_formula_sum "Si O2"
_cell_formula_units_Z 32
_cell_length_a 14.586294
_cell_length_b 11.089850
_cell_length_c 16.757609
_cell_angle_alpha 90.000000
_cell_angle_beta 149.627896
_cell_angle_gamma 90.000000
_cell_volume 1370.571124
_symmetry_space_group_name_H-M "P 21/C"
_symmetry_group_IT_number 14
_symmetry_cell_setting 'monoclinic'
loop_
_space_group_symop_operation_xyz
x,y,z
-x,1/2+y,1/2-z
-x,-y,-z
x,1/2-y,1/2+z
loop_
_atom_site_type_symbol
_atom_site_label
_atom_site_fract_x
_atom_site_fract_y
_atom_site_fract_z
Si Si1 0.516530 0.597617 0.746450
Si Si2 0.022202 0.635767 0.927123
Si Si3 0.477795 0.369159 0.075548
Si Si4 0.895589 0.130011 0.093505
Si Si5 0.102990 0.881789 0.717761
Si Si6 0.615316 0.115835 0.202364
Si Si7 0.820468 0.756357 0.910112
Si Si8 0.786304 0.965720 0.759698
O O1 0.575917 0.564968 0.881735
O O2 0.304743 0.624943 0.592242
O O3 0.540062 0.495946 0.696312
O O4 0.633242 0.714136 0.808392
O O5 0.017148 0.739283 0.858035
O O6 0.011094 0.500626 0.889947
O O7 0.863302 0.662165 0.870574
O O8 0.207388 0.653293 0.114134
O O9 0.479053 0.227306 0.093827
O O10 0.680916 0.413294 0.204770
O O11 0.350074 0.402006 0.905912
O O12 0.879175 0.117968 0.175018
O O13 0.024907 0.034322 0.146151
O O14 0.296128 0.899480 0.818810
O O15 0.984550 0.769819 0.594996
O O16 0.812447 0.883035 0.858102
#
# Coordination Sequence:
#
# PCOD9244826 Si02
#       8
#     4   4   4   4   4   4   4   4
#     4  12  24  42  70 107 135 182 236 293 341 417
#     4  10  20  46  66  96 144 183 225 292 347 414
#     4  11  26  47  73  99 142 188 230 289 353 424
#     4  11  26  42  68 107 143 183 239 285 351 422
#     4  11  22  44  73 101 139 191 225 298 346 416
#     4  11  23  44  72 104 135 178 242 287 352 408
#     4  10  21  43  73  96 133 183 233 279 351 406
#     4  10  26  49  69 101 143 189 228 290 356 418
#
# _framework density 23.347932
#
# number of rings (size 3 to 8) (size 9 to 14) (size 15 to 20)
#    0.000    1.250    3.750    1.500    3.500    4.000 
#    2.250    0.000    0.000    0.000    0.000    0.000 
#    0.000    0.000    0.000    0.000    0.000    0.000 
#
# Total GULP energy -178975.794253 kJ/mol
# GULP energy per Si atom -5592.993570 kJ/mol
# Density = 2.329479 g / cm^3
# Si number density = 23.347932 Si / 1000 Ang^3
#
#
#
# Elastic Constant Matrix: (Units=GPa)
#
#
# Indices 1 2 3 4 5 6 
#
# 1 145.9452 33.9448 29.8916 0.0000 0.1059 0.0000
# 2 33.9448 61.0768 9.3644 0.0000 -10.8426 0.0000
# 3 29.8916 9.3644 60.7172 0.0000 0.2476 0.0000
# 4 0.0000 0.0000 0.0000 14.5564 0.0000 -2.6509
# 5 0.1059 -10.8426 0.2476 0.0000 45.0373 0.0000
# 6 0.0000 0.0000 0.0000 -2.6509 0.0000 24.7287
#
#
#
# Elastic Compliance Matrix: (Units=1/GPa)
#
#
# Indices 1 2 3 4 5 6 
#
# 1 0.008610 -0.004430 -0.003551 0.000000 -0.001067 0.000000
# 2 -0.004430 0.019822 -0.000896 0.000000 0.004788 0.000000
# 3 -0.003551 -0.000896 0.018358 0.000000 -0.000308 0.000000
# 4 0.000000 0.000000 0.000000 0.070066 0.000000 0.007511
# 5 -0.001067 0.004788 -0.000308 0.000000 0.023361 0.000000
# 6 0.000000 0.000000 0.000000 0.007511 0.000000 0.041244
#
#
# Mechanical properties :
#
#
# Convention : Reuss Voigt Hill
#
# Bulk Modulus (GPa) = 34.44043 46.01564 40.22803
# Shear Modulus (GPa) = 23.93553 29.83370 26.88462
#
# Velocity S-wave (km/s) = 3.20530 3.57849 3.39702
# Velocity P-wave (km/s) = 5.33681 6.06841 5.71433
#
# Compressibility (1/GPa) = 0.02903564
#
# Stress axis : x y z
#
# Youngs Moduli (GPa) = 116.13734 50.44803 54.47348
#
# Poissons Ratio (x) = 0.22351 0.19346
# Poissons Ratio (y) = 0.51454 0.04879
# Poissons Ratio (z) = 0.41245 0.04518
#
# Static dielectric constant tensor:
#      x y z
#    x 1.902460 0.000000 0.022300 
#    y 0.000000 1.874030 0.000000 
#    z 0.022300 0.000000 1.873730 
# 
# From -- ./inp_files/59424.got.cif
#   From: 2010.05.17/outbox.cif.g08.bks.cpg/sg14_30_cif.got.tgz:59424.got - 2010.06.03 17:49:19.
