data_PCOD9244046
_publ_section_title
;
Structure prediction by ZEFSAII (Michael W. Deem and Ramdas Pophale) SiO2 
 PCOD9244046
Probable space group: P 21/C
;
_chemical_formula_sum "Si O2"
_cell_formula_units_Z 28
_cell_length_a 16.513282
_cell_length_b 16.313322
_cell_length_c 5.192762
_cell_angle_alpha 90.000000
_cell_angle_beta 120.942592
_cell_angle_gamma 90.000000
_cell_volume 1199.778249
_symmetry_space_group_name_H-M "P 21/C"
_symmetry_group_IT_number 14
_symmetry_cell_setting 'monoclinic'
loop_
_space_group_symop_operation_xyz
x,y,z
-x,1/2+y,1/2-z
-x,-y,-z
x,1/2-y,1/2+z
loop_
_atom_site_type_symbol
_atom_site_label
_atom_site_fract_x
_atom_site_fract_y
_atom_site_fract_z
Si Si1 0.709637 0.720185 0.207261
Si Si2 0.550101 0.066362 0.900762
Si Si3 0.359644 0.051530 0.342704
Si Si4 0.078673 0.220664 0.598996
Si Si5 0.099942 0.034433 0.751035
Si Si6 0.206345 0.527345 0.929865
Si Si7 0.694097 0.193030 0.342138
O O1 0.664768 0.778964 0.348755
O O2 0.703307 0.630657 0.321133
O O3 0.815567 0.748065 0.303792
O O4 0.462768 0.088858 0.571245
O O5 0.625081 0.018991 0.842152
O O6 0.598754 0.140084 0.132163
O O7 0.500000 0.000000 0.000000
O O8 0.305412 0.010662 0.493255
O O9 0.032382 0.222142 0.240853
O O10 0.084766 0.131673 0.732401
O O11 0.170284 0.013420 0.631828
O O12 0.000000 0.000000 0.500000
O O13 0.136740 0.995747 0.078664
O O14 0.224706 0.623302 0.009868
O O15 0.698612 0.244357 0.611571
#
# Coordination Sequence:
#
# PCOD9244046 Si02
#       7
#     4   4   4   4   4   4   4
#     4  10  21  35  58  96 134 172 222 281 346 424
#     4  11  25  45  68 103 147 190 244 305 364 433
#     4  11  24  41  71 102 141 193 248 288 372 451
#     4  10  20  39  64  99 143 175 215 287 365 421
#     4  12  26  46  75 111 144 190 245 303 376 450
#     4  12  24  47  76 101 140 194 247 298 358 458
#     4  12  27  48  72 103 146 197 253 310 359 420
#
# _framework density 23.337644999999998
#
# number of rings (size 3 to 8) (size 9 to 14) (size 15 to 20)
#    0.000    0.857    1.429    7.286    4.000    1.143 
#    0.000    4.286    0.000    0.000    0.000    0.000 
#    0.000    0.000    0.000    0.000    0.000    0.000 
#
# Total GULP energy -156433.814503 kJ/mol
# GULP energy per Si atom -5586.921947 kJ/mol
# Density = 2.328453 g / cm^3
# Si number density = 23.337645 Si / 1000 Ang^3
#
#
#
# Elastic Constant Matrix: (Units=GPa)
#
#
# Indices 1 2 3 4 5 6 
#
# 1 21.3072 4.5895 25.6699 0.0000 -14.3052 0.0000
# 2 4.5895 109.1589 20.6115 0.0000 6.5861 0.0000
# 3 25.6699 20.6115 114.5056 0.0000 -8.7453 0.0000
# 4 0.0000 0.0000 0.0000 52.8994 0.0000 -10.3108
# 5 -14.3052 6.5861 -8.7453 0.0000 39.8717 0.0000
# 6 0.0000 0.0000 0.0000 -10.3108 0.0000 33.5193
#
#
#
# Elastic Compliance Matrix: (Units=1/GPa)
#
#
# Indices 1 2 3 4 5 6 
#
# 1 0.086183 -0.002109 -0.016835 0.000000 0.027576 0.000000
# 2 -0.002109 0.009690 -0.001476 0.000000 -0.002681 0.000000
# 3 -0.016835 -0.001476 0.012540 0.000000 -0.003046 0.000000
# 4 0.000000 0.000000 0.000000 0.020110 0.000000 0.006186
# 5 0.027576 -0.002681 -0.003046 0.000000 0.034749 0.000000
# 6 0.000000 0.000000 0.000000 0.006186 0.000000 0.031736
#
#
# Mechanical properties :
#
#
# Convention : Reuss Voigt Hill
#
# Bulk Modulus (GPa) = 14.79864 38.52372 26.66118
# Shear Modulus (GPa) = 19.35195 38.19813 28.77504
#
# Velocity S-wave (km/s) = 2.88273 4.05008 3.51520
# Velocity P-wave (km/s) = 4.17553 6.19789 5.28436
#
# Compressibility (1/GPa) = 0.06757378
#
# Stress axis : x y z
#
# Youngs Moduli (GPa) = 11.60327 103.19783 79.74253
#
# Poissons Ratio (x) = 0.21760 1.34245
# Poissons Ratio (y) = 0.02447 0.11773
# Poissons Ratio (z) = 0.19534 0.15235
#
# Static dielectric constant tensor:
#      x y z
#    x 1.851170 0.000000 0.040260 
#    y 0.000000 2.055570 0.000000 
#    z 0.040260 0.000000 2.103350 
# 
# From -- ./inp_files/4166.got.cif
#   From: 2010.05.17/outbox.cif.g08.bks.cpg/sg14_3_cif.got.tgz:4166.got - 2010.06.03 17:49:19.
