data_PCOD9244698
_publ_section_title
;
Structure prediction by ZEFSAII (Michael W. Deem and Ramdas Pophale) SiO2 
 PCOD9244698
Probable space group: P 21/C
;
_chemical_formula_sum "Si O2"
_cell_formula_units_Z 26
_cell_length_a 7.725485
_cell_length_b 20.930597
_cell_length_c 9.125686
_cell_angle_alpha 90.000000
_cell_angle_beta 131.088428
_cell_angle_gamma 90.000000
_cell_volume 1112.164903
_symmetry_space_group_name_H-M "P 21/C"
_symmetry_group_IT_number 14
_symmetry_cell_setting 'monoclinic'
loop_
_space_group_symop_operation_xyz
x,y,z
-x,1/2+y,1/2-z
-x,-y,-z
x,1/2-y,1/2+z
loop_
_atom_site_type_symbol
_atom_site_label
_atom_site_fract_x
_atom_site_fract_y
_atom_site_fract_z
Si Si1 0.865637 0.384682 0.340840
Si Si2 0.369455 0.441012 0.122876
Si Si3 0.177779 0.147905 0.759123
Si Si4 0.029580 0.551487 0.311123
Si Si5 0.500000 0.500000 0.500000
Si Si6 0.670888 0.331793 0.650763
Si Si7 0.145415 0.750562 0.999131
O O1 0.604566 0.409128 0.198026
O O2 0.994588 0.428199 0.533452
O O3 0.880060 0.312707 0.413496
O O4 0.975443 0.381442 0.243005
O O5 0.232082 0.386267 0.137094
O O6 0.428936 0.490837 0.283900
O O7 0.205994 0.463566 0.901488
O O8 0.097439 0.220498 0.684188
O O9 0.415564 0.142086 0.982257
O O10 0.228215 0.500740 0.394198
O O11 0.155055 0.613365 0.305230
O O12 0.710960 0.274105 0.559590
O O13 0.725637 0.304727 0.839515
#
# Coordination Sequence:
#
# PCOD9244698 Si02
#       7
#     4   4   4   4   2   4   4
#     4  10  24  39  58  96 127 165 211 250 306 380
#     4  11  22  43  67  91 126 163 212 264 316 379
#     4  12  23  39  62  86 131 166 206 264 304 375
#     4  10  21  42  66  91 126 165 206 265 317 370
#     4  10  20  42  70  98 118 162 216 264 330 368
#     4  11  23  38  59  91 123 167 210 250 309 378
#     4  11  22  37  55  91 124 166 208 246 309 364
#
# _framework density 23.377829999999999
#
# number of rings (size 3 to 8) (size 9 to 14) (size 15 to 20)
#    0.000    1.231    7.692    0.462    2.154    3.692 
#    0.000    3.077    0.000    5.538    0.000    0.000 
#    0.000    0.000    0.000    0.000    0.000    0.000 
#
# Total GULP energy -144944.180896 kJ/mol
# GULP energy per Si atom -5574.776188 kJ/mol
# Density = 2.332462 g / cm^3
# Si number density = 23.377830 Si / 1000 Ang^3
#
#
#
# Elastic Constant Matrix: (Units=GPa)
#
#
# Indices 1 2 3 4 5 6 
#
# 1 101.8969 19.3180 43.2477 0.0000 -9.6686 0.0000
# 2 19.3180 56.0545 26.2208 0.0000 -15.1246 0.0000
# 3 43.2477 26.2208 132.7394 0.0000 20.9252 0.0000
# 4 0.0000 0.0000 0.0000 19.4314 0.0000 -18.2690
# 5 -9.6686 -15.1246 20.9252 0.0000 -10.5924 0.0000
# 6 0.0000 0.0000 0.0000 -18.2690 0.0000 -21.4070
#
#
#
# Elastic Compliance Matrix: (Units=1/GPa)
#
#
# Indices 1 2 3 4 5 6 
#
# 1 0.010777 -0.004672 -0.001593 0.000000 -0.006313 0.000000
# 2 -0.004672 0.014917 0.000962 0.000000 -0.015135 0.000000
# 3 -0.001593 0.000962 0.005986 0.000000 0.011906 0.000000
# 4 0.000000 0.000000 0.000000 0.028553 0.000000 -0.024368
# 5 -0.006313 -0.015135 0.011906 0.000000 -0.043514 0.000000
# 6 0.000000 0.000000 0.000000 -0.024368 0.000000 -0.025918
#
#
# Mechanical properties :
#
#
# Convention : Reuss Voigt Hill
#
# Bulk Modulus (GPa) = 47.45702 52.02932 49.74317
# Shear Modulus (GPa) = 593.04502 10.94668 301.99585
#
# Velocity S-wave (km/s) = 15.94456 2.16626 11.37809
# Velocity P-wave (km/s) = 18.95564 5.34425 13.92619
#
# Compressibility (1/GPa) = 0.02107170
#
# Stress axis : x y z
#
# Youngs Moduli (GPa) = 92.79235 67.03981 167.06237
#
# Poissons Ratio (x) = 0.31322 0.26615
# Poissons Ratio (y) = 0.43353 -0.16063
# Poissons Ratio (z) = 0.14783 -0.06446
#
# Static dielectric constant tensor:
#      x y z
#    x 1.834690 0.000000 -0.028440 
#    y 0.000000 2.004630 0.000000 
#    z -0.028440 0.000000 1.871280 
# 
# From -- ./inp_files/26855.got.cif
#   From: 2010.05.17/outbox.cif.g08.bks.cpg/sg14_14_cif.got.tgz:26855.got - 2010.06.03 17:49:19.
