data_PCOD9244947
_publ_section_title
;
Structure prediction by ZEFSAII (Michael W. Deem and Ramdas Pophale) SiO2 
 PCOD9244947
Probable space group: P 21/C
;
_chemical_formula_sum "Si O2"
_cell_formula_units_Z 20
_cell_length_a 14.469664
_cell_length_b 6.861373
_cell_length_c 24.454545
_cell_angle_alpha 90.000000
_cell_angle_beta 19.548583
_cell_angle_gamma 90.000000
_cell_volume 812.386754
_symmetry_space_group_name_H-M "P 21/C"
_symmetry_group_IT_number 14
_symmetry_cell_setting 'monoclinic'
loop_
_space_group_symop_operation_xyz
x,y,z
-x,1/2+y,1/2-z
-x,-y,-z
x,1/2-y,1/2+z
loop_
_atom_site_type_symbol
_atom_site_label
_atom_site_fract_x
_atom_site_fract_y
_atom_site_fract_z
Si Si1 0.622233 0.368465 0.733660
Si Si2 0.761446 0.761945 0.317355
Si Si3 0.022797 0.211846 0.594998
Si Si4 0.175539 0.708033 0.181513
Si Si5 0.032559 0.858079 0.059337
O O1 0.779146 0.570255 0.661750
O O2 0.762971 0.218708 0.698745
O O3 0.725643 0.301520 0.616721
O O4 0.298516 0.393209 0.921880
O O5 0.442011 0.707492 0.501929
O O6 0.905948 0.728946 0.178203
O O7 0.936204 0.686610 0.270909
O O8 0.756317 0.998049 0.329774
O O9 0.925239 0.168593 0.710433
O O10 0.124025 0.439090 0.536448
#
# Coordination Sequence:
#
# PCOD9244947 Si02
#       5
#     4   4   4   4   4
#     4   9  17  34  55  74 103 142 178 220 274 330
#     4  10  21  38  55  84 113 148 186 232 277 334
#     4   9  17  32  54  77 103 143 178 221 277 333
#     4  10  21  35  59  81 115 149 186 228 282 327
#     4   8  19  35  54  76 109 141 180 225 280 322
#
# _framework density 24.618817
#
# number of rings (size 3 to 8) (size 9 to 14) (size 15 to 20)
#    1.200    1.600    0.000    1.200    2.800    2.400 
#    0.000    1.000    0.000    0.000    0.000    0.000 
#    0.000    0.000    0.000    0.000    0.000    0.000 
#
# Total GULP energy -111669.309852 kJ/mol
# GULP energy per Si atom -5583.465493 kJ/mol
# Density = 2.456278 g / cm^3
# Si number density = 24.618817 Si / 1000 Ang^3
#
#
#
# Elastic Constant Matrix: (Units=GPa)
#
#
# Indices 1 2 3 4 5 6 
#
# 1 87.7493 13.2798 63.1103 0.0000 35.4275 0.0000
# 2 13.2798 51.2227 21.6714 0.0000 10.2323 0.0000
# 3 63.1103 21.6714 172.2775 0.0000 31.1379 0.0000
# 4 0.0000 0.0000 0.0000 29.0406 0.0000 27.0787
# 5 35.4275 10.2323 31.1379 0.0000 57.7645 0.0000
# 6 0.0000 0.0000 0.0000 27.0787 0.0000 124.8684
#
#
#
# Elastic Compliance Matrix: (Units=1/GPa)
#
#
# Indices 1 2 3 4 5 6 
#
# 1 0.018713 -0.000953 -0.005198 0.000000 -0.008506 0.000000
# 2 -0.000953 0.020999 -0.001912 0.000000 -0.002104 0.000000
# 3 -0.005198 -0.001912 0.008101 0.000000 -0.000840 0.000000
# 4 0.000000 0.000000 0.000000 0.043162 0.000000 -0.009360
# 5 -0.008506 -0.002104 -0.000840 0.000000 0.023354 0.000000
# 6 0.000000 0.000000 0.000000 -0.009360 0.000000 0.010038
#
#
# Mechanical properties :
#
#
# Convention : Reuss Voigt Hill
#
# Bulk Modulus (GPa) = 31.55855 56.37474 43.96664
# Shear Modulus (GPa) = 33.10027 56.54723 44.82375
#
# Velocity S-wave (km/s) = 3.67074 4.79781 4.27161
# Velocity P-wave (km/s) = 5.55089 7.32398 6.49820
#
# Compressibility (1/GPa) = 0.03168714
#
# Stress axis : x y z
#
# Youngs Moduli (GPa) = 53.43918 47.62122 123.44021
#
# Poissons Ratio (x) = 0.04539 0.64161
# Poissons Ratio (y) = 0.05094 0.23602
# Poissons Ratio (z) = 0.27776 0.09105
#
# Static dielectric constant tensor:
#      x y z
#    x 1.866070 0.000000 0.025470 
#    y 0.000000 2.141370 0.000000 
#    z 0.025470 0.000000 1.903370 
# 
# From -- ./inp_files/15256.got.cif
#   From: 2010.05.17/outbox.cif.g08.bks.cpg/sg14_8_cif.got.tgz:15256.got - 2010.06.03 17:49:19.
