data_PCOD9244379
_publ_section_title
;
Structure prediction by ZEFSAII (Michael W. Deem and Ramdas Pophale) SiO2 
 PCOD9244379
Probable space group: P 21/C
;
_chemical_formula_sum "Si O2"
_cell_formula_units_Z 16
_cell_length_a 9.756039
_cell_length_b 4.958818
_cell_length_c 17.507880
_cell_angle_alpha 90.000000
_cell_angle_beta 137.874517
_cell_angle_gamma 90.000000
_cell_volume 568.133220
_symmetry_space_group_name_H-M "P 21/C"
_symmetry_group_IT_number 14
_symmetry_cell_setting 'monoclinic'
loop_
_space_group_symop_operation_xyz
x,y,z
-x,1/2+y,1/2-z
-x,-y,-z
x,1/2-y,1/2+z
loop_
_atom_site_type_symbol
_atom_site_label
_atom_site_fract_x
_atom_site_fract_y
_atom_site_fract_z
Si Si1 0.361212 0.622503 0.202479
Si Si2 0.300218 0.324602 0.431940
Si Si3 0.154590 0.983472 0.249654
Si Si4 0.889048 0.149995 0.020756
O O1 0.530213 0.839091 0.243736
O O2 0.257217 0.764049 0.234039
O O3 0.220295 0.610166 0.068008
O O4 0.500000 0.500000 0.500000
O O5 0.310691 0.058711 0.381899
O O6 0.258091 0.427146 0.501029
O O7 0.064409 0.387273 0.307895
O O8 0.064379 0.214330 0.154741
O O9 0.000000 0.000000 0.000000
#
# Coordination Sequence:
#
# PCOD9244379 Si02
#       4
#     4   4   4   4
#     4  11  23  45  74 106 146 198 253 306 374 446
#     4  10  20  40  69  95 150 187 247 297 386 433
#     4   9  22  41  67 106 148 186 252 307 373 444
#     4   8  19  42  61  96 142 185 242 301 357 432
#
# _framework density 28.162412
#
# number of rings (size 3 to 8) (size 9 to 14) (size 15 to 20)
#    1.500    1.000    0.000    1.500    0.000    4.000 
#    4.500    8.750    0.000    0.000    0.000    0.000 
#    0.000    0.000    0.000    0.000    0.000    0.000 
#
# Total GULP energy -89070.524980 kJ/mol
# GULP energy per Si atom -5566.907811 kJ/mol
# Density = 2.809831 g / cm^3
# Si number density = 28.162412 Si / 1000 Ang^3
#
#
#
# Elastic Constant Matrix: (Units=GPa)
#
#
# Indices 1 2 3 4 5 6 
#
# 1 216.6051 32.8404 43.3081 0.0000 -6.3791 0.0000
# 2 32.8404 93.1736 29.6264 0.0000 8.6223 0.0000
# 3 43.3081 29.6264 104.5355 0.0000 -2.5215 0.0000
# 4 0.0000 0.0000 0.0000 31.0573 0.0000 2.1681
# 5 -6.3791 8.6223 -2.5215 0.0000 38.7171 0.0000
# 6 0.0000 0.0000 0.0000 2.1681 0.0000 14.9566
#
#
#
# Elastic Compliance Matrix: (Units=1/GPa)
#
#
# Indices 1 2 3 4 5 6 
#
# 1 0.005205 -0.001378 -0.001740 0.000000 0.001051 0.000000
# 2 -0.001378 0.012483 -0.003044 0.000000 -0.003205 0.000000
# 3 -0.001740 -0.003044 0.011177 0.000000 0.001119 0.000000
# 4 0.000000 0.000000 0.000000 0.032528 0.000000 -0.004715
# 5 0.001051 -0.003205 0.001119 0.000000 0.026788 0.000000
# 6 0.000000 0.000000 0.000000 -0.004715 0.000000 0.067544
#
#
# Mechanical properties :
#
#
# Convention : Reuss Voigt Hill
#
# Bulk Modulus (GPa) = 60.46286 69.54044 65.00165
# Shear Modulus (GPa) = 28.80809 37.51549 33.16179
#
# Velocity S-wave (km/s) = 3.20179 3.65377 3.43522
# Velocity P-wave (km/s) = 5.93166 6.52275 6.23422
#
# Compressibility (1/GPa) = 0.01653908
#
# Stress axis : x y z
#
# Youngs Moduli (GPa) = 192.13879 80.10878 89.47111
#
# Poissons Ratio (x) = 0.11042 0.15570
# Poissons Ratio (y) = 0.26484 0.27236
# Poissons Ratio (z) = 0.33436 0.24386
#
# Static dielectric constant tensor:
#      x y z
#    x 2.234910 0.000000 -0.043380 
#    y 0.000000 2.474270 0.000000 
#    z -0.043380 0.000000 2.637340 
# 
# From -- ./inp_files/42532.got.cif
#   From: 2010.05.17/outbox.cif.g08.bks.cpg/sg14_22_cif.got.tgz:42532.got - 2010.06.03 17:49:19.
