data_PCOD9244404
_publ_section_title
;
Structure prediction by ZEFSAII (Michael W. Deem and Ramdas Pophale) SiO2 
 PCOD9244404
Probable space group: P 21/C
;
_chemical_formula_sum "Si O2"
_cell_formula_units_Z 22
_cell_length_a 6.689283
_cell_length_b 17.874675
_cell_length_c 8.011471
_cell_angle_alpha 90.000000
_cell_angle_beta 60.907671
_cell_angle_gamma 90.000000
_cell_volume 837.067695
_symmetry_space_group_name_H-M "P 21/C"
_symmetry_group_IT_number 14
_symmetry_cell_setting 'monoclinic'
loop_
_space_group_symop_operation_xyz
x,y,z
-x,1/2+y,1/2-z
-x,-y,-z
x,1/2-y,1/2+z
loop_
_atom_site_type_symbol
_atom_site_label
_atom_site_fract_x
_atom_site_fract_y
_atom_site_fract_z
Si Si1 0.146234 0.711504 0.483307
Si Si2 0.500000 0.500000 0.500000
Si Si3 0.235741 0.107849 0.938277
Si Si4 0.583083 0.409440 0.802546
Si Si5 0.129233 0.029509 0.648672
Si Si6 0.771971 0.361845 0.186650
O O1 0.341265 0.672198 0.289459
O O2 0.160767 0.800408 0.474294
O O3 0.180122 0.679892 0.655854
O O4 0.907705 0.683659 0.498955
O O5 0.729792 0.557506 0.413689
O O6 0.586066 0.459246 0.634028
O O7 0.110320 0.064018 0.842047
O O8 0.503805 0.120262 0.788146
O O9 0.762659 0.447930 0.858573
O O10 0.335871 0.421437 0.983061
O O11 0.904701 0.059340 0.643465
#
# Coordination Sequence:
#
# PCOD9244404 Si02
#       6
#     4   2   4   4   4   4
#     4  11  26  40  66  92 133 172 215 269 321 391
#     4  10  20  40  72  92 126 166 216 264 326 374
#     4  10  23  41  65  95 125 172 211 269 320 387
#     4  10  21  44  67  99 128 170 220 276 317 384
#     4   9  23  43  66  95 132 165 218 272 320 382
#     4  11  25  43  64  95 132 176 212 263 327 396
#
# _framework density 26.282222999999998
#
# number of rings (size 3 to 8) (size 9 to 14) (size 15 to 20)
#    0.000    1.818    1.818    0.000    7.636    5.091 
#    0.000    2.727    0.000    0.000    0.000    0.000 
#    0.000    0.000    0.000    0.000    0.000    0.000 
#
# Total GULP energy -122656.085167 kJ/mol
# GULP energy per Si atom -5575.276599 kJ/mol
# Density = 2.622240 g / cm^3
# Si number density = 26.282223 Si / 1000 Ang^3
#
#
#
# Elastic Constant Matrix: (Units=GPa)
#
#
# Indices 1 2 3 4 5 6 
#
# 1 145.0107 13.5214 24.2059 0.0000 4.3546 0.0000
# 2 13.5214 112.3251 15.8799 0.0000 -6.8498 0.0000
# 3 24.2059 15.8799 62.9218 0.0000 9.9368 0.0000
# 4 0.0000 0.0000 0.0000 139.4429 0.0000 -90.6371
# 5 4.3546 -6.8498 9.9368 0.0000 51.8463 0.0000
# 6 0.0000 0.0000 0.0000 -90.6371 0.0000 119.7992
#
#
#
# Elastic Compliance Matrix: (Units=1/GPa)
#
#
# Indices 1 2 3 4 5 6 
#
# 1 0.007398 -0.000521 -0.002687 0.000000 -0.000175 0.000000
# 2 -0.000521 0.009420 -0.002454 0.000000 0.001759 0.000000
# 3 -0.002687 -0.002454 0.018110 0.000000 -0.003569 0.000000
# 4 0.000000 0.000000 0.000000 0.014111 0.000000 0.010676
# 5 -0.000175 0.001759 -0.003569 0.000000 0.020219 0.000000
# 6 0.000000 0.000000 0.000000 0.010676 0.000000 0.016424
#
#
# Mechanical properties :
#
#
# Convention : Reuss Voigt Hill
#
# Bulk Modulus (GPa) = 42.36899 47.49687 44.93293
# Shear Modulus (GPa) = 47.67607 79.99437 63.83522
#
# Velocity S-wave (km/s) = 4.26373 5.52293 4.93367
# Velocity P-wave (km/s) = 6.35571 7.66691 7.04189
#
# Compressibility (1/GPa) = 0.02360217
#
# Stress axis : x y z
#
# Youngs Moduli (GPa) = 135.16374 106.15993 55.21955
#
# Poissons Ratio (x) = 0.05536 0.14837
# Poissons Ratio (y) = 0.07048 0.13553
# Poissons Ratio (z) = 0.36317 0.26057
#
# Static dielectric constant tensor:
#      x y z
#    x 2.016820 0.000000 -0.072160 
#    y 0.000000 2.056240 0.000000 
#    z -0.072160 0.000000 2.319810 
# 
# From -- ./inp_files/5888.got.cif
#   From: 2010.05.17/outbox.cif.g08.bks.cpg/sg14_3_cif.got.tgz:5888.got - 2010.06.03 17:49:19.
