data_PCOD9244689
_publ_section_title
;
Structure prediction by ZEFSAII (Michael W. Deem and Ramdas Pophale) SiO2 
 PCOD9244689
Probable space group: P 21/C
;
_chemical_formula_sum "Si O2"
_cell_formula_units_Z 30
_cell_length_a 14.262008
_cell_length_b 7.602561
_cell_length_c 14.008956
_cell_angle_alpha 90.000000
_cell_angle_beta 53.303178
_cell_angle_gamma 90.000000
_cell_volume 1217.915546
_symmetry_space_group_name_H-M "P 21/C"
_symmetry_group_IT_number 14
_symmetry_cell_setting 'monoclinic'
loop_
_space_group_symop_operation_xyz
x,y,z
-x,1/2+y,1/2-z
-x,-y,-z
x,1/2-y,1/2+z
loop_
_atom_site_type_symbol
_atom_site_label
_atom_site_fract_x
_atom_site_fract_y
_atom_site_fract_z
Si Si1 0.034069 0.781862 0.584020
Si Si2 0.455539 0.575411 0.179175
Si Si3 0.358696 0.423332 0.777547
Si Si4 0.752325 0.196098 0.923773
Si Si5 0.133068 0.610677 0.840217
Si Si6 0.000000 0.000000 0.000000
Si Si7 0.487430 0.246576 0.536296
Si Si8 0.738405 0.944007 0.089723
O O1 0.154927 0.797343 0.566025
O O2 0.977425 0.592693 0.628372
O O3 0.955367 0.953585 0.634655
O O4 0.064140 0.751930 0.450379
O O5 0.547656 0.508378 0.202424
O O6 0.428930 0.428436 0.115618
O O7 0.336389 0.597527 0.310709
O O8 0.505424 0.731630 0.082575
O O9 0.238950 0.526039 0.834992
O O10 0.418464 0.396643 0.636566
O O11 0.324447 0.235377 0.844031
O O12 0.812094 0.193742 0.785297
O O13 0.620598 0.259210 0.992459
O O14 0.741620 0.002595 0.977907
O O15 0.868727 0.934999 0.046977
#
# Coordination Sequence:
#
# PCOD9244689 Si02
#       8
#     4   4   4   4   4   2   4   4
#     4  10  24  47  66  99 133 177 218 279 336 395
#     4  10  22  41  63  92 133 175 220 275 331 406
#     4  11  22  42  66  93 135 170 216 282 331 399
#     4  11  24  40  66 101 129 170 227 272 330 402
#     4  11  25  44  69 101 135 174 227 271 340 393
#     4  10  20  42  70  88 130 174 224 268 324 408
#     4  10  23  40  62  95 127 176 225 264 341 392
#     4  10  22  40  64  95 128 176 220 268 342 381
#
# _framework density 24.632252000000001
#
# number of rings (size 3 to 8) (size 9 to 14) (size 15 to 20)
#    0.000    1.600    2.667    0.800    5.600    4.800 
#    0.000    0.000    0.000    0.000    0.000    0.000 
#    0.000    0.000    0.000    0.000    0.000    0.000 
#
# Total GULP energy -167292.154766 kJ/mol
# GULP energy per Si atom -5576.405159 kJ/mol
# Density = 2.457619 g / cm^3
# Si number density = 24.632252 Si / 1000 Ang^3
#
#
#
# Elastic Constant Matrix: (Units=GPa)
#
#
# Indices 1 2 3 4 5 6 
#
# 1 148.3888 11.6382 22.8576 0.0000 -7.6749 0.0000
# 2 11.6382 63.5539 12.1459 0.0000 -5.4710 0.0000
# 3 22.8576 12.1459 92.4334 0.0000 13.8466 0.0000
# 4 0.0000 0.0000 0.0000 26.5752 0.0000 -5.7247
# 5 -7.6749 -5.4710 13.8466 0.0000 35.1007 0.0000
# 6 0.0000 0.0000 0.0000 -5.7247 0.0000 37.1390
#
#
#
# Elastic Compliance Matrix: (Units=1/GPa)
#
#
# Indices 1 2 3 4 5 6 
#
# 1 0.007227 -0.000741 -0.002029 0.000000 0.002265 0.000000
# 2 -0.000741 0.016646 -0.002517 0.000000 0.003426 0.000000
# 3 -0.002029 -0.002517 0.012516 0.000000 -0.005773 0.000000
# 4 0.000000 0.000000 0.000000 0.038921 0.000000 0.005999
# 5 0.002265 0.003426 -0.005773 0.000000 0.031796 0.000000
# 6 0.000000 0.000000 0.000000 0.005999 0.000000 0.027851
#
#
# Mechanical properties :
#
#
# Convention : Reuss Voigt Hill
#
# Bulk Modulus (GPa) = 38.73722 44.18437 41.46079
# Shear Modulus (GPa) = 32.43876 36.94528 34.69202
#
# Velocity S-wave (km/s) = 3.63288 3.87702 3.75693
# Velocity P-wave (km/s) = 5.77559 6.16590 5.97393
#
# Compressibility (1/GPa) = 0.02581496
#
# Stress axis : x y z
#
# Youngs Moduli (GPa) = 138.37259 60.07339 79.89763
#
# Poissons Ratio (x) = 0.04449 0.16212
# Poissons Ratio (y) = 0.10248 0.20113
# Poissons Ratio (z) = 0.28077 0.15123
#
# Static dielectric constant tensor:
#      x y z
#    x 3.279090 0.000000 -1.254150 
#    y 0.000000 8.412360 0.000000 
#    z -1.254150 0.000000 3.214810 
# 
# From -- ./inp_files/46459.got.cif
#   From: 2010.05.17/outbox.cif.g08.bks.cpg/sg14_24_cif.got.tgz:46459.got - 2010.06.03 17:49:19.
