data_PCOD9244713
_publ_section_title
;
Structure prediction by ZEFSAII (Michael W. Deem and Ramdas Pophale) SiO2 
 PCOD9244713
Probable space group: P 21/C
;
_chemical_formula_sum "Si O2"
_cell_formula_units_Z 22
_cell_length_a 8.853801
_cell_length_b 9.707506
_cell_length_c 10.371612
_cell_angle_alpha 90.000000
_cell_angle_beta 74.689672
_cell_angle_gamma 90.000000
_cell_volume 859.785957
_symmetry_space_group_name_H-M "P 21/C"
_symmetry_group_IT_number 14
_symmetry_cell_setting 'monoclinic'
loop_
_space_group_symop_operation_xyz
x,y,z
-x,1/2+y,1/2-z
-x,-y,-z
x,1/2-y,1/2+z
loop_
_atom_site_type_symbol
_atom_site_label
_atom_site_fract_x
_atom_site_fract_y
_atom_site_fract_z
Si Si1 0.181655 0.300108 0.693002
Si Si2 0.986332 0.563318 0.676196
Si Si3 0.777866 0.208941 0.033863
Si Si4 0.608544 0.753281 0.604372
Si Si5 0.710498 0.372140 0.808717
Si Si6 0.500000 0.500000 0.500000
O O1 0.039331 0.194146 0.726578
O O2 0.277003 0.284602 0.803724
O O3 0.297105 0.262687 0.550892
O O4 0.112547 0.451981 0.692609
O O5 0.814644 0.494876 0.726539
O O6 0.056756 0.630537 0.529654
O O7 0.776386 0.334692 0.934397
O O8 0.636782 0.108549 0.019563
O O9 0.739553 0.240494 0.189309
O O10 0.475728 0.870468 0.632128
O O11 0.530019 0.601842 0.620081
#
# Coordination Sequence:
#
# PCOD9244713 Si02
#       6
#     4   4   4   4   4   2
#     4  12  28  47  76 108 154 198 256 308 380 446
#     4  12  26  47  75 109 150 203 247 313 379 449
#     4  11  23  44  74 104 144 193 249 298 373 446
#     4  11  25  48  74 113 146 199 252 312 367 455
#     4  11  25  45  75 106 143 195 249 308 368 449
#     4  10  20  42  78  98 142 196 244 280 374 452
#
# _framework density 25.587762999999999
#
# number of rings (size 3 to 8) (size 9 to 14) (size 15 to 20)
#    0.000    0.727    3.636    3.818    2.545    1.455 
#    3.273    0.000    0.000    0.000    0.000    0.000 
#    0.000    0.000    0.000    0.000    0.000    0.000 
#
# Total GULP energy -122495.843837 kJ/mol
# GULP energy per Si atom -5567.992902 kJ/mol
# Density = 2.552952 g / cm^3
# Si number density = 25.587763 Si / 1000 Ang^3
#
#
#
# Elastic Constant Matrix: (Units=GPa)
#
#
# Indices 1 2 3 4 5 6 
#
# 1 123.6208 3.7174 27.7921 0.0000 7.7981 0.0000
# 2 3.7174 57.1879 -18.1175 0.0000 -13.4934 0.0000
# 3 27.7921 -18.1175 191.3685 0.0000 0.3197 0.0000
# 4 0.0000 0.0000 0.0000 33.9378 0.0000 4.0461
# 5 7.7981 -13.4934 0.3197 0.0000 52.6059 0.0000
# 6 0.0000 0.0000 0.0000 4.0461 0.0000 16.7184
#
#
#
# Elastic Compliance Matrix: (Units=1/GPa)
#
#
# Indices 1 2 3 4 5 6 
#
# 1 0.008539 -0.001368 -0.001367 0.000000 -0.001608 0.000000
# 2 -0.001368 0.019440 0.002030 0.000000 0.005177 0.000000
# 3 -0.001367 0.002030 0.005615 0.000000 0.000689 0.000000
# 4 0.000000 0.000000 0.000000 0.030341 0.000000 -0.007343
# 5 -0.001608 0.005177 0.000689 0.000000 0.020571 0.000000
# 6 0.000000 0.000000 0.000000 -0.007343 0.000000 0.061591
#
#
# Mechanical properties :
#
#
# Convention : Reuss Voigt Hill
#
# Bulk Modulus (GPa) = 31.06960 44.32901 37.69931
# Shear Modulus (GPa) = 31.59867 44.57146 38.08506
#
# Velocity S-wave (km/s) = 3.51795 4.17814 3.86218
# Velocity P-wave (km/s) = 5.35444 6.37477 5.88675
#
# Compressibility (1/GPa) = 0.03218580
#
# Stress axis : x y z
#
# Youngs Moduli (GPa) = 117.10788 51.44093 178.09093
#
# Poissons Ratio (x) = 0.07035 0.24343
# Poissons Ratio (y) = 0.16016 -0.36160
# Poissons Ratio (z) = 0.16008 -0.10445
#
# Static dielectric constant tensor:
#      x y z
#    x 2.160310 0.000000 -0.130780 
#    y 0.000000 2.125970 0.000000 
#    z -0.130780 0.000000 2.157170 
# 
# From -- ./inp_files/23837.got.cif
#   From: 2010.05.17/outbox.cif.g08.bks.cpg/sg14_12_cif.got.tgz:23837.got - 2010.06.03 17:49:19.
