data_PCOD9244611
_publ_section_title
;
Structure prediction by ZEFSAII (Michael W. Deem and Ramdas Pophale) SiO2 
 PCOD9244611
Probable space group: P 21/C
;
_chemical_formula_sum "Si O2"
_cell_formula_units_Z 16
_cell_length_a 9.906026
_cell_length_b 6.670372
_cell_length_c 17.238757
_cell_angle_alpha 90.000000
_cell_angle_beta 30.910901
_cell_angle_gamma 90.000000
_cell_volume 585.152188
_symmetry_space_group_name_H-M "P 21/C"
_symmetry_group_IT_number 14
_symmetry_cell_setting 'monoclinic'
loop_
_space_group_symop_operation_xyz
x,y,z
-x,1/2+y,1/2-z
-x,-y,-z
x,1/2-y,1/2+z
loop_
_atom_site_type_symbol
_atom_site_label
_atom_site_fract_x
_atom_site_fract_y
_atom_site_fract_z
Si Si1 0.119200 0.466197 0.132285
Si Si2 0.306764 0.623605 0.539599
Si Si3 0.682062 0.966783 0.728943
Si Si4 0.946800 0.803849 0.974028
O O1 0.151897 0.262965 0.065426
O O2 0.979060 0.416379 0.282123
O O3 0.902526 0.580950 0.185266
O O4 0.341688 0.634831 0.029344
O O5 0.401130 0.569744 0.406258
O O6 0.755978 0.667415 0.120368
O O7 0.765444 0.194337 0.670274
O O8 0.500000 0.000000 0.000000
O O9 0.000000 0.000000 0.000000
#
# Coordination Sequence:
#
# PCOD9244611 Si02
#       4
#     4   4   4   4
#     4   9  20  38  62  97 137 184 239 292 347 429
#     4  10  20  42  64  99 148 188 237 293 361 430
#     4   8  19  40  66  93 134 178 235 300 357 414
#     4   9  18  39  68  94 130 174 242 302 353 423
#
# _framework density 27.343315
#
# number of rings (size 3 to 8) (size 9 to 14) (size 15 to 20)
#    1.500    1.500    0.000    0.000    0.000    2.000 
#    4.500    8.750    0.000    0.000    0.000    0.000 
#    0.000    0.000    0.000    0.000    0.000    0.000 
#
# Total GULP energy -89147.871893 kJ/mol
# GULP energy per Si atom -5571.741993 kJ/mol
# Density = 2.728108 g / cm^3
# Si number density = 27.343315 Si / 1000 Ang^3
#
#
#
# Elastic Constant Matrix: (Units=GPa)
#
#
# Indices 1 2 3 4 5 6 
#
# 1 94.1322 53.1722 15.7057 0.0000 9.1908 0.0000
# 2 53.1722 195.8312 77.1420 0.0000 19.4789 0.0000
# 3 15.7057 77.1420 194.5710 0.0000 45.3773 0.0000
# 4 0.0000 0.0000 0.0000 44.3443 0.0000 16.0777
# 5 9.1908 19.4789 45.3773 0.0000 46.5782 0.0000
# 6 0.0000 0.0000 0.0000 16.0777 0.0000 51.8589
#
#
#
# Elastic Compliance Matrix: (Units=1/GPa)
#
#
# Indices 1 2 3 4 5 6 
#
# 1 0.012690 -0.003589 0.000818 0.000000 -0.001800 0.000000
# 2 -0.003589 0.007069 -0.002573 0.000000 0.000259 0.000000
# 3 0.000818 -0.002573 0.007609 0.000000 -0.006498 0.000000
# 4 0.000000 0.000000 0.000000 0.025407 0.000000 -0.007877
# 5 -0.001800 0.000259 -0.006498 0.000000 0.028047 0.000000
# 6 0.000000 0.000000 0.000000 -0.007877 0.000000 0.021725
#
#
# Mechanical properties :
#
#
# Convention : Reuss Voigt Hill
#
# Bulk Modulus (GPa) = 59.95035 86.28602 73.11818
# Shear Modulus (GPa) = 42.08959 51.12391 46.60675
#
# Velocity S-wave (km/s) = 3.92765 4.32870 4.13304
# Velocity P-wave (km/s) = 6.52236 7.52387 7.04094
#
# Compressibility (1/GPa) = 0.01668047
#
# Stress axis : x y z
#
# Youngs Moduli (GPa) = 78.80332 141.46668 131.41961
#
# Poissons Ratio (x) = 0.50771 -0.10756
# Poissons Ratio (y) = 0.28281 0.33818
# Poissons Ratio (z) = -0.06450 0.36403
#
# Static dielectric constant tensor:
#      x y z
#    x 2.008180 0.000000 -0.071420 
#    y 0.000000 2.466580 0.000000 
#    z -0.071420 0.000000 2.120300 
# 
# From -- ./inp_files/68059.got.cif
#   From: 2010.05.17/outbox.cif.g08.bks.cpg/sg14_35_cif.got.tgz:68059.got - 2010.06.03 17:49:19.
