data_PCOD9244424
_publ_section_title
;
Structure prediction by ZEFSAII (Michael W. Deem and Ramdas Pophale) SiO2 
 PCOD9244424
Probable space group: P 21/C
;
_chemical_formula_sum "Si O2"
_cell_formula_units_Z 24
_cell_length_a 5.727623
_cell_length_b 7.710843
_cell_length_c 26.309889
_cell_angle_alpha 90.000000
_cell_angle_beta 57.029203
_cell_angle_gamma 90.000000
_cell_volume 974.833337
_symmetry_space_group_name_H-M "P 21/C"
_symmetry_group_IT_number 14
_symmetry_cell_setting 'monoclinic'
loop_
_space_group_symop_operation_xyz
x,y,z
-x,1/2+y,1/2-z
-x,-y,-z
x,1/2-y,1/2+z
loop_
_atom_site_type_symbol
_atom_site_label
_atom_site_fract_x
_atom_site_fract_y
_atom_site_fract_z
Si Si1 0.283818 0.344301 0.222680
Si Si2 0.973576 0.371461 0.357908
Si Si3 0.155847 0.014713 0.298986
Si Si4 0.054682 0.602867 0.441441
Si Si5 0.485161 0.736114 0.037787
Si Si6 0.280021 0.608049 0.963648
O O1 0.271225 0.139634 0.239300
O O2 0.593494 0.413907 0.201774
O O3 0.089728 0.428861 0.290503
O O4 0.102972 0.402161 0.194008
O O5 0.640667 0.369923 0.407157
O O6 0.055560 0.167409 0.349276
O O7 0.096891 0.483440 0.388510
O O8 0.287362 0.751468 0.418869
O O9 0.000000 0.500000 0.500000
O O10 0.763904 0.708651 0.475623
O O11 0.504116 0.546699 0.060090
O O12 0.279760 0.717860 0.015140
O O13 0.000000 0.500000 0.000000
#
# Coordination Sequence:
#
# PCOD9244424 Si02
#       6
#     4   4   4   4   4   4
#     4  10  23  46  70  95 134 174 235 295 350 409
#     4  10  24  39  71  94 129 178 231 269 368 396
#     4  10  23  46  70  97 135 174 234 302 343 409
#     4  11  21  37  65 100 137 175 217 271 323 424
#     4  10  20  41  60  96 136 172 214 275 321 420
#     4   9  20  38  59  85 146 167 213 262 324 383
#
# _framework density 24.619593999999999
#
# number of rings (size 3 to 8) (size 9 to 14) (size 15 to 20)
#    1.000    1.000    1.667    1.500    0.000    2.667 
#    3.000    6.667    0.000    0.000    0.000    0.000 
#    0.000    0.000    0.000    0.000    0.000    0.000 
#
# Total GULP energy -133622.467936 kJ/mol
# GULP energy per Si atom -5567.602831 kJ/mol
# Density = 2.456356 g / cm^3
# Si number density = 24.619594 Si / 1000 Ang^3
#
#
#
# Elastic Constant Matrix: (Units=GPa)
#
#
# Indices 1 2 3 4 5 6 
#
# 1 125.0326 54.6159 20.8488 0.0000 9.9206 0.0000
# 2 54.6159 70.3539 -2.8445 0.0000 14.4456 0.0000
# 3 20.8488 -2.8445 62.6907 0.0000 8.5664 0.0000
# 4 0.0000 0.0000 0.0000 44.7292 0.0000 7.1047
# 5 9.9206 14.4456 8.5664 0.0000 23.2827 0.0000
# 6 0.0000 0.0000 0.0000 7.1047 0.0000 53.6632
#
#
#
# Elastic Compliance Matrix: (Units=1/GPa)
#
#
# Indices 1 2 3 4 5 6 
#
# 1 0.013700 -0.011551 -0.005541 0.000000 0.003368 0.000000
# 2 -0.011551 0.026330 0.006945 0.000000 -0.013970 0.000000
# 3 -0.005541 0.006945 0.019348 0.000000 -0.009067 0.000000
# 4 0.000000 0.000000 0.000000 0.022837 0.000000 -0.003023
# 5 0.003368 -0.013970 -0.009067 0.000000 0.053519 0.000000
# 6 0.000000 0.000000 0.000000 -0.003023 0.000000 0.019035
#
#
# Mechanical properties :
#
#
# Convention : Reuss Voigt Hill
#
# Bulk Modulus (GPa) = 25.58492 44.81305 35.19898
# Shear Modulus (GPa) = 26.58292 36.69883 31.64088
#
# Velocity S-wave (km/s) = 3.28951 3.86506 3.58884
# Velocity P-wave (km/s) = 4.98423 6.17738 5.61260
#
# Compressibility (1/GPa) = 0.03908553
#
# Stress axis : x y z
#
# Youngs Moduli (GPa) = 72.99167 37.97926 51.68490
#
# Poissons Ratio (x) = 0.43870 0.28636
# Poissons Ratio (y) = 0.84313 -0.35896
# Poissons Ratio (z) = 0.40441 -0.26377
#
# Static dielectric constant tensor:
#      x y z
#    x 2.125950 0.000000 -0.060520 
#    y 0.000000 2.013340 0.000000 
#    z -0.060520 0.000000 2.033820 
# 
# From -- ./inp_files/75578.got.cif
#   From: 2010.05.17/outbox.cif.g08.bks.cpg/sg14_38_cif.got.tgz:75578.got - 2010.06.03 17:49:19.
