data_PCOD9244837
_publ_section_title
;
Structure prediction by ZEFSAII (Michael W. Deem and Ramdas Pophale) SiO2 
 PCOD9244837
Probable space group: P 21/C
;
_chemical_formula_sum "Si O2"
_cell_formula_units_Z 22
_cell_length_a 9.759111
_cell_length_b 16.740695
_cell_length_c 8.517745
_cell_angle_alpha 90.000000
_cell_angle_beta 148.256015
_cell_angle_gamma 90.000000
_cell_volume 732.144873
_symmetry_space_group_name_H-M "P 21/C"
_symmetry_group_IT_number 14
_symmetry_cell_setting 'monoclinic'
loop_
_space_group_symop_operation_xyz
x,y,z
-x,1/2+y,1/2-z
-x,-y,-z
x,1/2-y,1/2+z
loop_
_atom_site_type_symbol
_atom_site_label
_atom_site_fract_x
_atom_site_fract_y
_atom_site_fract_z
Si Si1 0.231414 0.308956 0.540443
Si Si2 0.000000 0.000000 0.000000
Si Si3 0.931550 0.642497 0.201150
Si Si4 0.204258 0.598464 0.182414
Si Si5 0.590484 0.525611 0.361618
Si Si6 0.295333 0.716327 0.774517
O O1 0.245891 0.390653 0.456977
O O2 0.237527 0.224139 0.457420
O O3 0.960552 0.305215 0.370071
O O4 0.467466 0.312845 0.891142
O O5 0.125354 0.070348 0.238464
O O6 0.274446 0.996274 0.165795
O O7 0.943496 0.613679 0.032694
O O8 0.215129 0.675885 0.532803
O O9 0.294271 0.555097 0.107870
O O10 0.344250 0.541587 0.447113
O O11 0.303424 0.688819 0.258447
#
# Coordination Sequence:
#
# PCOD9244837 Si02
#       6
#     4   2   4   4   4   4
#     4  11  26  46  78 112 159 206 271 335 412 484
#     4  10  20  46  80 118 158 220 270 344 400 502
#     4  10  23  47  78 116 158 211 273 340 413 488
#     4   9  23  42  70 111 155 206 260 337 400 484
#     4  10  21  45  73 111 157 208 265 331 408 482
#     4  11  25  48  76 115 153 213 266 337 406 494
#
# _framework density 30.048696
#
# number of rings (size 3 to 8) (size 9 to 14) (size 15 to 20)
#    0.000    1.818    1.818    0.000    7.636    0.000 
#    3.273    2.727    0.000    0.000    0.000    0.000 
#    0.000    0.000    0.000    0.000    0.000    0.000 
#
# Total GULP energy -122686.519081 kJ/mol
# GULP energy per Si atom -5576.659958 kJ/mol
# Density = 2.998030 g / cm^3
# Si number density = 30.048696 Si / 1000 Ang^3
#
#
#
# Elastic Constant Matrix: (Units=GPa)
#
#
# Indices 1 2 3 4 5 6 
#
# 1 158.1644 64.7058 51.5398 0.0000 3.9031 0.0000
# 2 64.7058 209.6960 68.9000 0.0000 4.0023 0.0000
# 3 51.5398 68.9000 151.9231 0.0000 -3.5665 0.0000
# 4 0.0000 0.0000 0.0000 48.3694 0.0000 -9.4870
# 5 3.9031 4.0023 -3.5665 0.0000 31.4257 0.0000
# 6 0.0000 0.0000 0.0000 -9.4870 0.0000 64.3422
#
#
#
# Elastic Compliance Matrix: (Units=1/GPa)
#
#
# Indices 1 2 3 4 5 6 
#
# 1 0.007655 -0.001743 -0.001828 0.000000 -0.000936 0.000000
# 2 -0.001743 0.006033 -0.002163 0.000000 -0.000797 0.000000
# 3 -0.001828 -0.002163 0.008217 0.000000 0.001435 0.000000
# 4 0.000000 0.000000 0.000000 0.021290 0.000000 0.003139
# 5 -0.000936 -0.000797 0.001435 0.000000 0.032202 0.000000
# 6 0.000000 0.000000 0.000000 0.003139 0.000000 0.016005
#
#
# Mechanical properties :
#
#
# Convention : Reuss Voigt Hill
#
# Bulk Modulus (GPa) = 95.83113 98.89718 97.36416
# Shear Modulus (GPa) = 47.01503 51.13664 49.07584
#
# Velocity S-wave (km/s) = 3.95983 4.12975 4.04568
# Velocity P-wave (km/s) = 7.27105 7.46482 7.36857
#
# Compressibility (1/GPa) = 0.01043502
#
# Stress axis : x y z
#
# Youngs Moduli (GPa) = 130.64037 165.76117 121.69561
#
# Poissons Ratio (x) = 0.28900 0.22247
# Poissons Ratio (y) = 0.22776 0.26326
# Poissons Ratio (z) = 0.23883 0.35858
#
# Static dielectric constant tensor:
#      x y z
#    x 2.393140 0.000000 -0.054870 
#    y 0.000000 2.374490 0.000000 
#    z -0.054870 0.000000 2.634350 
# 
# From -- ./inp_files/9018.got.cif
#   From: 2010.05.17/outbox.cif.g08.bks.cpg/sg14_5_cif.got.tgz:9018.got - 2010.06.03 17:49:19.
