data_PCOD9244789
_publ_section_title
;
Structure prediction by ZEFSAII (Michael W. Deem and Ramdas Pophale) SiO2 
 PCOD9244789
Probable space group: P 21/C
;
_chemical_formula_sum "Si O2"
_cell_formula_units_Z 28
_cell_length_a 20.140085
_cell_length_b 9.409035
_cell_length_c 10.570558
_cell_angle_alpha 90.000000
_cell_angle_beta 138.140719
_cell_angle_gamma 90.000000
_cell_volume 1336.680606
_symmetry_space_group_name_H-M "P 21/C"
_symmetry_group_IT_number 14
_symmetry_cell_setting 'monoclinic'
loop_
_space_group_symop_operation_xyz
x,y,z
-x,1/2+y,1/2-z
-x,-y,-z
x,1/2-y,1/2+z
loop_
_atom_site_type_symbol
_atom_site_label
_atom_site_fract_x
_atom_site_fract_y
_atom_site_fract_z
Si Si1 0.700797 0.215326 0.904157
Si Si2 0.555992 0.456416 0.741036
Si Si3 0.940472 0.981330 0.281551
Si Si4 0.388354 0.483331 0.896419
Si Si5 0.771530 0.445792 0.714033
Si Si6 0.369064 0.347574 0.360829
Si Si7 0.097140 0.729861 0.910317
O O1 0.620138 0.333964 0.765102
O O2 0.684555 0.093060 0.777205
O O3 0.687276 0.143030 0.021463
O O4 0.810672 0.285409 0.057708
O O5 0.444632 0.395840 0.579695
O O6 0.574123 0.596443 0.683360
O O7 0.600371 0.480062 0.940989
O O8 0.830119 0.971906 0.184501
O O9 0.937953 0.113615 0.180879
O O10 0.000000 0.000000 0.500000
O O11 0.995724 0.858918 0.281674
O O12 0.354681 0.320043 0.835554
O O13 0.500000 0.500000 0.000000
O O14 0.729760 0.560519 0.752777
O O15 0.842072 0.328139 0.880637
#
# Coordination Sequence:
#
# PCOD9244789 Si02
#       7
#     4   4   4   4   4   4   4
#     4  11  22  42  68  94 137 176 225 272 332 402
#     4  11  25  40  65  94 134 181 222 275 331 391
#     4   9  21  42  69  95 131 169 217 279 334 400
#     4  12  26  41  66  96 135 181 229 272 336 391
#     4  10  21  42  69  94 133 174 219 280 333 395
#     4  11  25  42  63  96 135 178 231 278 327 402
#     4  10  20  44  68  96 129 173 214 272 341 396
#
# _framework density 20.947413999999998
#
# number of rings (size 3 to 8) (size 9 to 14) (size 15 to 20)
#    0.000    1.429    2.857    1.714    4.000    0.000 
#   12.857    6.429    0.000    0.000    0.000    0.000 
#    0.000    0.000    0.000    0.000    0.000    0.000 
#
# Total GULP energy -155897.920219 kJ/mol
# GULP energy per Si atom -5567.782865 kJ/mol
# Density = 2.089974 g / cm^3
# Si number density = 20.947414 Si / 1000 Ang^3
#
#
#
# Elastic Constant Matrix: (Units=GPa)
#
#
# Indices 1 2 3 4 5 6 
#
# 1 71.5235 48.0687 6.5003 0.0000 3.6265 0.0000
# 2 48.0687 115.9776 28.7854 0.0000 -10.1875 0.0000
# 3 6.5003 28.7854 53.1751 0.0000 -16.7385 0.0000
# 4 0.0000 0.0000 0.0000 25.6450 0.0000 2.2323
# 5 3.6265 -10.1875 -16.7385 0.0000 32.6204 0.0000
# 6 0.0000 0.0000 0.0000 2.2323 0.0000 33.8516
#
#
#
# Elastic Compliance Matrix: (Units=1/GPa)
#
#
# Indices 1 2 3 4 5 6 
#
# 1 0.020175 -0.009004 0.000974 0.000000 -0.004555 0.000000
# 2 -0.009004 0.013983 -0.005700 0.000000 0.002443 0.000000
# 3 0.000974 -0.005700 0.025258 0.000000 0.011072 0.000000
# 4 0.000000 0.000000 0.000000 0.039219 0.000000 -0.002586
# 5 -0.004555 0.002443 0.011072 0.000000 0.037607 0.000000
# 6 0.000000 0.000000 0.000000 -0.002586 0.000000 0.029711
#
#
# Mechanical properties :
#
#
# Convention : Reuss Voigt Hill
#
# Bulk Modulus (GPa) = 31.29260 45.26499 38.27880
# Shear Modulus (GPa) = 24.50208 28.91152 26.70680
#
# Velocity S-wave (km/s) = 3.42379 3.71913 3.57451
# Velocity P-wave (km/s) = 5.53181 6.33232 5.94555
#
# Compressibility (1/GPa) = 0.03195643
#
# Stress axis : x y z
#
# Youngs Moduli (GPa) = 49.56649 71.51355 39.59206
#
# Poissons Ratio (x) = 0.64388 -0.03856
# Poissons Ratio (y) = 0.44628 0.22567
# Poissons Ratio (z) = -0.04827 0.40762
#
# Static dielectric constant tensor:
#      x y z
#    x 1.812490 0.000000 0.035470 
#    y 0.000000 1.875400 0.000000 
#    z 0.035470 0.000000 1.827520 
# 
# From -- ./inp_files/31613.got.cif
#   From: 2010.05.17/outbox.cif.g08.bks.cpg/sg14_16_cif.got.tgz:31613.got - 2010.06.03 17:49:19.
