data_PCOD9244772
_publ_section_title
;
Structure prediction by ZEFSAII (Michael W. Deem and Ramdas Pophale) SiO2 
 PCOD9244772
Probable space group: P 21/C
;
_chemical_formula_sum "Si O2"
_cell_formula_units_Z 20
_cell_length_a 12.032711
_cell_length_b 10.966020
_cell_length_c 14.867483
_cell_angle_alpha 90.000000
_cell_angle_beta 25.036958
_cell_angle_gamma 90.000000
_cell_volume 830.230109
_symmetry_space_group_name_H-M "P 21/C"
_symmetry_group_IT_number 14
_symmetry_cell_setting 'monoclinic'
loop_
_space_group_symop_operation_xyz
x,y,z
-x,1/2+y,1/2-z
-x,-y,-z
x,1/2-y,1/2+z
loop_
_atom_site_type_symbol
_atom_site_label
_atom_site_fract_x
_atom_site_fract_y
_atom_site_fract_z
Si Si1 0.772403 0.235464 0.767504
Si Si2 0.814687 0.980813 0.528054
Si Si3 0.299933 0.355495 0.722933
Si Si4 0.763070 0.484509 0.864756
Si Si5 0.012615 0.628277 0.540961
O O1 0.845253 0.347005 0.780355
O O2 0.001435 0.137758 0.606002
O O3 0.757573 0.295714 0.678259
O O4 0.515424 0.163933 0.988761
O O5 0.625772 0.947683 0.750300
O O6 0.698731 0.999446 0.515790
O O7 0.022272 0.089761 0.392470
O O8 0.233697 0.216725 0.799938
O O9 0.971215 0.585605 0.674602
O O10 0.500000 0.500000 0.000000
O O11 0.000000 0.500000 0.500000
#
# Coordination Sequence:
#
# PCOD9244772 Si02
#       5
#     4   4   4   4   4
#     4  10  21  41  68  92 129 176 220 269 340 397
#     4  10  24  40  65  99 133 172 222 277 333 399
#     4  10  20  44  65  93 136 171 223 274 330 404
#     4  11  22  41  66  94 136 172 221 277 336 399
#     4   9  20  38  65  93 130 169 218 277 323 394
#
# _framework density 24.089706
#
# number of rings (size 3 to 8) (size 9 to 14) (size 15 to 20)
#    0.000    2.000    2.000    0.600    2.800    0.000 
#   10.800    0.000    0.000    0.000    0.000    0.000 
#    0.000    0.000    0.000    0.000    0.000    0.000 
#
# Total GULP energy -111533.692158 kJ/mol
# GULP energy per Si atom -5576.684608 kJ/mol
# Density = 2.403488 g / cm^3
# Si number density = 24.089706 Si / 1000 Ang^3
#
#
#
# Elastic Constant Matrix: (Units=GPa)
#
#
# Indices 1 2 3 4 5 6 
#
# 1 123.6791 33.2294 30.6238 0.0000 26.5090 0.0000
# 2 33.2294 124.9940 42.5327 0.0000 11.0740 0.0000
# 3 30.6238 42.5327 111.6919 0.0000 28.5919 0.0000
# 4 0.0000 0.0000 0.0000 50.2860 0.0000 3.1415
# 5 26.5090 11.0740 28.5919 0.0000 31.2204 0.0000
# 6 0.0000 0.0000 0.0000 3.1415 0.0000 1.0467
#
#
#
# Elastic Compliance Matrix: (Units=1/GPa)
#
#
# Indices 1 2 3 4 5 6 
#
# 1 0.010365 -0.002041 0.000004 0.000000 -0.008080 0.000000
# 2 -0.002041 0.009593 -0.003483 0.000000 0.001519 0.000000
# 3 0.000004 -0.003483 0.013014 0.000000 -0.010686 0.000000
# 4 0.000000 0.000000 0.000000 0.024475 0.000000 -0.073459
# 5 -0.008080 0.001519 -0.010686 0.000000 0.048139 0.000000
# 6 0.000000 0.000000 0.000000 -0.073459 0.000000 1.175850
#
#
# Mechanical properties :
#
#
# Convention : Reuss Voigt Hill
#
# Bulk Modulus (GPa) = 45.59408 63.68186 54.63797
# Shear Modulus (GPa) = 3.84678 33.44254 18.64466
#
# Velocity S-wave (km/s) = 1.26504 3.72997 2.78505
# Velocity P-wave (km/s) = 4.59365 6.71140 5.75085
#
# Compressibility (1/GPa) = 0.02193267
#
# Stress axis : x y z
#
# Youngs Moduli (GPa) = 96.48123 104.23852 76.84088
#
# Poissons Ratio (x) = 0.21274 -0.00029
# Poissons Ratio (y) = 0.19691 0.26761
# Poissons Ratio (z) = -0.00037 0.36302
#
# Static dielectric constant tensor:
#      x y z
#    x 1.950860 0.000000 0.083600 
#    y 0.000000 1.957820 0.000000 
#    z 0.083600 0.000000 2.094620 
# 
# From -- ./inp_files/44555.got.cif
#   From: 2010.05.17/outbox.cif.g08.bks.cpg/sg14_23_cif.got.tgz:44555.got - 2010.06.03 17:49:19.
