data_PCOD9244170
_publ_section_title
;
Structure prediction by ZEFSAII (Michael W. Deem and Ramdas Pophale) SiO2 
 PCOD9244170
Probable space group: P 21/C
;
_chemical_formula_sum "Si O2"
_cell_formula_units_Z 30
_cell_length_a 14.599178
_cell_length_b 9.993859
_cell_length_c 8.972572
_cell_angle_alpha 90.000000
_cell_angle_beta 66.036437
_cell_angle_gamma 90.000000
_cell_volume 1196.276572
_symmetry_space_group_name_H-M "P 21/C"
_symmetry_group_IT_number 14
_symmetry_cell_setting 'monoclinic'
loop_
_space_group_symop_operation_xyz
x,y,z
-x,1/2+y,1/2-z
-x,-y,-z
x,1/2-y,1/2+z
loop_
_atom_site_type_symbol
_atom_site_label
_atom_site_fract_x
_atom_site_fract_y
_atom_site_fract_z
Si Si1 0.848347 0.568644 0.530832
Si Si2 0.688844 0.796369 0.918802
Si Si3 0.285121 0.982975 0.643317
Si Si4 0.002747 0.846726 0.152900
Si Si5 0.728395 0.457392 0.184886
Si Si6 0.489190 0.587557 0.658547
Si Si7 0.063152 0.872037 0.411894
Si Si8 0.500000 0.000000 0.500000
O O1 0.777499 0.654095 0.470340
O O2 0.781713 0.460803 0.667781
O O3 0.940770 0.489396 0.394359
O O4 0.899499 0.649386 0.632956
O O5 0.581993 0.811999 0.073706
O O6 0.689353 0.642642 0.870440
O O7 0.699246 0.896470 0.770324
O O8 0.238868 0.962991 0.510039
O O9 0.393955 0.918664 0.572840
O O10 0.995685 0.808781 0.327539
O O11 0.070109 0.734798 0.035557
O O12 0.627697 0.371406 0.265623
O O13 0.824526 0.406837 0.211224
O O14 0.500000 0.500000 0.500000
O O15 0.503682 0.516775 0.809380
O O16 0.000000 0.000000 0.500000
#
# Coordination Sequence:
#
# PCOD9244170 Si02
#       8
#     4   4   4   4   4   4   4   2
#     4  11  24  45  70  99 141 178 237 294 349 426
#     4  11  21  41  68 102 134 188 224 297 349 419
#     4  11  23  38  70 101 136 181 238 283 353 421
#     4  11  29  46  70 105 137 188 236 293 360 423
#     4  10  23  42  64  99 136 178 225 288 353 421
#     4   9  20  40  63  92 137 173 229 280 350 411
#     4  12  28  49  73 101 143 185 237 293 360 427
#     4  10  20  40  60  98 134 178 228 286 334 430
#
# _framework density 25.077811000000001
#
# number of rings (size 3 to 8) (size 9 to 14) (size 15 to 20)
#    0.000    1.333    2.667    1.600   11.200    0.000 
#    2.400    0.000    0.000    0.000    0.000    0.000 
#    0.000    0.000    0.000    0.000    0.000    0.000 
#
# Total GULP energy -167186.287642 kJ/mol
# GULP energy per Si atom -5572.876255 kJ/mol
# Density = 2.502073 g / cm^3
# Si number density = 25.077811 Si / 1000 Ang^3
#
#
#
# Elastic Constant Matrix: (Units=GPa)
#
#
# Indices 1 2 3 4 5 6 
#
# 1 126.4336 10.3295 11.0855 0.0000 3.6871 0.0000
# 2 10.3295 70.0085 3.3483 0.0000 1.2936 0.0000
# 3 11.0855 3.3483 102.2510 0.0000 18.4570 0.0000
# 4 0.0000 0.0000 0.0000 28.5440 0.0000 -0.1790
# 5 3.6871 1.2936 18.4570 0.0000 45.5997 0.0000
# 6 0.0000 0.0000 0.0000 -0.1790 0.0000 6.3756
#
#
#
# Elastic Compliance Matrix: (Units=1/GPa)
#
#
# Indices 1 2 3 4 5 6 
#
# 1 0.008081 -0.001149 -0.000784 0.000000 -0.000304 0.000000
# 2 -0.001149 0.014472 -0.000315 0.000000 -0.000190 0.000000
# 3 -0.000784 -0.000315 0.010639 0.000000 -0.004234 0.000000
# 4 0.000000 0.000000 0.000000 0.035040 0.000000 0.000984
# 5 -0.000304 -0.000190 -0.004234 0.000000 0.023674 0.000000
# 6 0.000000 0.000000 0.000000 0.000984 0.000000 0.156874
#
#
# Mechanical properties :
#
#
# Convention : Reuss Voigt Hill
#
# Bulk Modulus (GPa) = 34.84732 38.69108 36.76920
# Shear Modulus (GPa) = 19.02287 34.36585 26.69436
#
# Velocity S-wave (km/s) = 2.75717 3.70587 3.26615
# Velocity P-wave (km/s) = 4.90529 5.81147 5.37750
#
# Compressibility (1/GPa) = 0.02869661
#
# Stress axis : x y z
#
# Youngs Moduli (GPa) = 123.75107 69.09842 93.99014
#
# Poissons Ratio (x) = 0.07941 0.07365
# Poissons Ratio (y) = 0.14221 0.02961
# Poissons Ratio (z) = 0.09698 0.02177
#
# Static dielectric constant tensor:
#      x y z
#    x 2.217430 0.000000 -0.308140 
#    y 0.000000 1.960310 0.000000 
#    z -0.308140 0.000000 2.482810 
# 
# From -- ./inp_files/15751.got.cif
#   From: 2010.05.17/outbox.cif.g08.bks.cpg/sg14_8_cif.got.tgz:15751.got - 2010.06.03 17:49:19.
