data_PCOD9244019
_publ_section_title
;
Structure prediction by ZEFSAII (Michael W. Deem and Ramdas Pophale) SiO2 
 PCOD9244019
Probable space group: P 21/C
;
_chemical_formula_sum "Si O2"
_cell_formula_units_Z 32
_cell_length_a 11.564107
_cell_length_b 13.825991
_cell_length_c 15.295503
_cell_angle_alpha 90.000000
_cell_angle_beta 36.168325
_cell_angle_gamma 90.000000
_cell_volume 1443.249814
_symmetry_space_group_name_H-M "P 21/C"
_symmetry_group_IT_number 14
_symmetry_cell_setting 'monoclinic'
loop_
_space_group_symop_operation_xyz
x,y,z
-x,1/2+y,1/2-z
-x,-y,-z
x,1/2-y,1/2+z
loop_
_atom_site_type_symbol
_atom_site_label
_atom_site_fract_x
_atom_site_fract_y
_atom_site_fract_z
Si Si1 0.176316 0.132381 0.031050
Si Si2 0.591334 0.937803 0.561266
Si Si3 0.422725 0.881290 0.303324
Si Si4 0.216054 0.939042 0.700225
Si Si5 0.053319 0.323188 0.153477
Si Si6 0.842430 0.476287 0.168688
Si Si7 0.726016 0.248275 0.457317
Si Si8 0.597085 0.606029 0.425474
O O1 0.039185 0.226874 0.103334
O O2 0.284181 0.136144 0.060162
O O3 0.010894 0.049680 0.138016
O O4 0.346092 0.124500 0.856666
O O5 0.361726 0.922194 0.691415
O O6 0.716329 0.842833 0.499911
O O7 0.620028 0.022190 0.613891
O O8 0.692788 0.971110 0.408098
O O9 0.315379 0.903561 0.277581
O O10 0.340302 0.789508 0.407130
O O11 0.253816 0.849915 0.611289
O O12 0.946950 0.417926 0.182086
O O13 0.939439 0.297519 0.312648
O O14 0.751850 0.576845 0.256297
O O15 0.000000 0.500000 0.000000
O O16 0.562004 0.317681 0.513133
O O17 0.500000 0.500000 0.500000
#
# Coordination Sequence:
#
# PCOD9244019 Si02
#       8
#     4   4   4   4   4   4   4   4
#     4  11  24  41  64  95 134 172 215 278 335 398
#     4  10  20  39  64  90 123 176 220 272 319 400
#     4  11  24  42  63  99 136 165 223 282 328 395
#     4   9  21  40  61  89 131 171 220 262 332 399
#     4  11  22  40  66  91 129 178 215 265 343 390
#     4  12  25  41  67 102 130 169 222 281 329 390
#     4  10  23  41  64  97 131 171 217 272 332 399
#     4  12  23  43  71  94 130 174 224 269 330 403
#
# _framework density 22.172184000000001
#
# number of rings (size 3 to 8) (size 9 to 14) (size 15 to 20)
#    0.000    1.250    3.750    1.500    5.250    1.500 
#    0.000    1.250    0.000    0.000    0.000    0.000 
#    0.000    0.000    0.000    0.000    0.000    0.000 
#
# Total GULP energy -178452.895497 kJ/mol
# GULP energy per Si atom -5576.652984 kJ/mol
# Density = 2.212172 g / cm^3
# Si number density = 22.172184 Si / 1000 Ang^3
#
#
#
# Elastic Constant Matrix: (Units=GPa)
#
#
# Indices 1 2 3 4 5 6 
#
# 1 49.0430 -1.8633 13.2675 0.0000 -6.8160 0.0000
# 2 -1.8633 43.5596 16.6070 0.0000 6.3619 0.0000
# 3 13.2675 16.6070 145.9770 0.0000 7.5855 0.0000
# 4 0.0000 0.0000 0.0000 37.8202 0.0000 -1.2808
# 5 -6.8160 6.3619 7.5855 0.0000 26.9797 0.0000
# 6 0.0000 0.0000 0.0000 -1.2808 0.0000 24.8253
#
#
#
# Elastic Compliance Matrix: (Units=1/GPa)
#
#
# Indices 1 2 3 4 5 6 
#
# 1 0.021912 0.000984 -0.002414 0.000000 0.005983 0.000000
# 2 0.000984 0.024715 -0.002650 0.000000 -0.004834 0.000000
# 3 -0.002414 -0.002650 0.007480 0.000000 -0.002088 0.000000
# 4 0.000000 0.000000 0.000000 0.026487 0.000000 0.001367
# 5 0.005983 -0.004834 -0.002088 0.000000 0.040303 0.000000
# 6 0.000000 0.000000 0.000000 0.001367 0.000000 0.040352
#
#
# Mechanical properties :
#
#
# Convention : Reuss Voigt Hill
#
# Bulk Modulus (GPa) = 21.76425 32.73356 27.24891
# Shear Modulus (GPa) = 27.06707 31.96293 29.51500
#
# Velocity S-wave (km/s) = 3.49774 3.80093 3.65248
# Velocity P-wave (km/s) = 5.11366 5.83594 5.48670
#
# Compressibility (1/GPa) = 0.04594690
#
# Stress axis : x y z
#
# Youngs Moduli (GPa) = 45.63656 40.46050 133.69324
#
# Poissons Ratio (x) = -0.03981 0.32279
# Poissons Ratio (y) = -0.04491 0.35428
# Poissons Ratio (z) = 0.11018 0.10722
#
# Static dielectric constant tensor:
#      x y z
#    x 1.875270 0.000000 -0.055920 
#    y 0.000000 1.893030 0.000000 
#    z -0.055920 0.000000 1.926530 
# 
# From -- ./inp_files/57985.got.cif
#   From: 2010.05.17/outbox.cif.g08.bks.cpg/sg14_29_cif.got.tgz:57985.got - 2010.06.03 17:49:19.
