data_PCOD9244715
_publ_section_title
;
Structure prediction by ZEFSAII (Michael W. Deem and Ramdas Pophale) SiO2 
 PCOD9244715
Probable space group: P 21/C
;
_chemical_formula_sum "Si O2"
_cell_formula_units_Z 20
_cell_length_a 6.709067
_cell_length_b 13.165237
_cell_length_c 13.999338
_cell_angle_alpha 90.000000
_cell_angle_beta 140.749136
_cell_angle_gamma 90.000000
_cell_volume 782.362125
_symmetry_space_group_name_H-M "P 21/C"
_symmetry_group_IT_number 14
_symmetry_cell_setting 'monoclinic'
loop_
_space_group_symop_operation_xyz
x,y,z
-x,1/2+y,1/2-z
-x,-y,-z
x,1/2-y,1/2+z
loop_
_atom_site_type_symbol
_atom_site_label
_atom_site_fract_x
_atom_site_fract_y
_atom_site_fract_z
Si Si1 0.000571 0.232541 0.019580
Si Si2 0.190759 0.111102 0.830592
Si Si3 0.816205 0.931954 0.754265
Si Si4 0.555974 0.304447 0.008541
Si Si5 0.501573 0.610555 0.765359
O O1 0.114295 0.157742 0.146064
O O2 0.276645 0.310084 0.096506
O O3 0.722932 0.296755 0.965588
O O4 0.835125 0.163196 0.880161
O O5 0.405152 0.193303 0.964858
O O6 0.344480 0.096226 0.782432
O O7 0.844247 0.160253 0.680583
O O8 0.120452 0.003803 0.853266
O O9 0.711141 0.887210 0.613277
O O10 0.553894 0.005734 0.702085
#
# Coordination Sequence:
#
# PCOD9244715 Si02
#       5
#     4   4   4   4   4
#     4  10  20  43  61  88 129 154 198 260 292 353
#     4  10  23  41  64  90 123 161 200 249 302 356
#     4  12  22  40  68  88 120 164 204 242 308 358
#     4  10  20  43  61  88 129 154 198 260 292 353
#     4  10  23  41  64  90 123 161 200 249 302 356
#
# _framework density 25.563609
#
# number of rings (size 3 to 8) (size 9 to 14) (size 15 to 20)
#    0.000    1.600    6.000    1.200    0.000    8.000 
#    3.600    0.000    0.000    0.000    0.000    0.000 
#    0.000    0.000    0.000    0.000    0.000    0.000 
#
# Total GULP energy -112030.355495 kJ/mol
# GULP energy per Si atom -5601.517775 kJ/mol
# Density = 2.550543 g / cm^3
# Si number density = 25.563609 Si / 1000 Ang^3
#
#
#
# Elastic Constant Matrix: (Units=GPa)
#
#
# Indices 1 2 3 4 5 6 
#
# 1 80.6127 26.3985 12.5284 0.0000 5.3149 0.0000
# 2 26.3985 97.5485 28.7067 0.0000 12.7634 0.0000
# 3 12.5284 28.7067 108.5203 0.0000 5.6775 0.0000
# 4 0.0000 0.0000 0.0000 40.0308 0.0000 8.5086
# 5 5.3149 12.7634 5.6775 0.0000 43.7847 0.0000
# 6 0.0000 0.0000 0.0000 8.5086 0.0000 56.9289
#
#
#
# Elastic Compliance Matrix: (Units=1/GPa)
#
#
# Indices 1 2 3 4 5 6 
#
# 1 0.013667 -0.003435 -0.000639 0.000000 -0.000575 0.000000
# 2 -0.003435 0.012353 -0.002723 0.000000 -0.002831 0.000000
# 3 -0.000639 -0.002723 0.010031 0.000000 -0.000429 0.000000
# 4 0.000000 0.000000 0.000000 0.025800 0.000000 -0.003856
# 5 -0.000575 -0.002831 -0.000429 0.000000 0.023790 0.000000
# 6 0.000000 0.000000 0.000000 -0.003856 0.000000 0.018142
#
#
# Mechanical properties :
#
#
# Convention : Reuss Voigt Hill
#
# Bulk Modulus (GPa) = 44.53025 46.88319 45.70672
# Shear Modulus (GPa) = 40.04371 42.75209 41.39790
#
# Velocity S-wave (km/s) = 3.96211 4.09391 4.02855
# Velocity P-wave (km/s) = 6.19583 6.38173 6.28947
#
# Compressibility (1/GPa) = 0.02245665
#
# Stress axis : x y z
#
# Youngs Moduli (GPa) = 73.16791 80.95412 99.68703
#
# Poissons Ratio (x) = 0.27811 0.06370
# Poissons Ratio (y) = 0.25136 0.27144
# Poissons Ratio (z) = 0.04676 0.22043
#
# Static dielectric constant tensor:
#      x y z
#    x 2.118300 0.000000 0.020790 
#    y 0.000000 1.970660 0.000000 
#    z 0.020790 0.000000 1.987920 
# 
# From -- ./inp_files/23722.got.cif
#   From: 2010.05.17/outbox.cif.g08.bks.cpg/sg14_12_cif.got.tgz:23722.got - 2010.06.03 17:49:19.
