data_PCOD9244420
_publ_section_title
;
Structure prediction by ZEFSAII (Michael W. Deem and Ramdas Pophale) SiO2 
 PCOD9244420
Probable space group: P 21/C
;
_chemical_formula_sum "Si O2"
_cell_formula_units_Z 28
_cell_length_a 8.415709
_cell_length_b 7.716414
_cell_length_c 19.647170
_cell_angle_alpha 90.000000
_cell_angle_beta 111.172988
_cell_angle_gamma 90.000000
_cell_volume 1189.740828
_symmetry_space_group_name_H-M "P 21/C"
_symmetry_group_IT_number 14
_symmetry_cell_setting 'monoclinic'
loop_
_space_group_symop_operation_xyz
x,y,z
-x,1/2+y,1/2-z
-x,-y,-z
x,1/2-y,1/2+z
loop_
_atom_site_type_symbol
_atom_site_label
_atom_site_fract_x
_atom_site_fract_y
_atom_site_fract_z
Si Si1 0.077561 0.722896 0.039439
Si Si2 0.060484 0.793998 0.290693
Si Si3 0.734273 0.957340 0.497280
Si Si4 0.622204 0.521719 0.124299
Si Si5 0.090011 0.542092 0.658727
Si Si6 0.238706 0.992366 0.689760
Si Si7 0.421490 0.157349 0.234977
O O1 0.057484 0.903249 0.076108
O O2 0.168000 0.606239 0.113009
O O3 0.889024 0.657196 0.993660
O O4 0.195896 0.658326 0.995249
O O5 0.243675 0.873357 0.335955
O O6 0.050741 0.803850 0.206754
O O7 0.010643 0.621279 0.324377
O O8 0.918039 0.930707 0.293207
O O9 0.557837 0.951272 0.430262
O O10 0.702372 0.894236 0.569097
O O11 0.597618 0.647523 0.185213
O O12 0.289261 0.489511 0.690850
O O13 0.353012 0.164674 0.694037
O O14 0.382246 0.879255 0.750021
#
# Coordination Sequence:
#
# PCOD9244420 Si02
#       7
#     4   4   4   4   4   4   4
#     4  11  21  39  61  90 117 164 211 249 314 380
#     4  10  21  38  63  91 124 159 200 266 323 373
#     4  10  22  37  64  81 122 171 211 247 300 381
#     4  10  20  41  60  89 120 163 216 248 310 377
#     4  10  22  38  61  94 125 156 201 263 325 370
#     4  11  20  36  59  92 122 153 204 258 318 366
#     4  10  22  35  62  92 122 155 202 267 319 362
#
# _framework density 23.534534000000001
#
# number of rings (size 3 to 8) (size 9 to 14) (size 15 to 20)
#    0.000    1.714    2.857    1.714    4.000    1.143 
#    0.000    1.429    0.000    0.000    0.000    0.000 
#    0.000    0.000    0.000    0.000    0.000    0.000 
#
# Total GULP energy -156302.533282 kJ/mol
# GULP energy per Si atom -5582.233331 kJ/mol
# Density = 2.348097 g / cm^3
# Si number density = 23.534534 Si / 1000 Ang^3
#
#
#
# Elastic Constant Matrix: (Units=GPa)
#
#
# Indices 1 2 3 4 5 6 
#
# 1 117.3322 25.0640 20.4262 0.0000 22.2955 0.0000
# 2 25.0640 80.1507 6.1250 0.0000 1.0870 0.0000
# 3 20.4262 6.1250 73.3370 0.0000 -3.0196 0.0000
# 4 0.0000 0.0000 0.0000 37.3095 0.0000 -5.2833
# 5 22.2955 1.0870 -3.0196 0.0000 46.9656 0.0000
# 6 0.0000 0.0000 0.0000 -5.2833 0.0000 30.6116
#
#
#
# Elastic Compliance Matrix: (Units=1/GPa)
#
#
# Indices 1 2 3 4 5 6 
#
# 1 0.010667 -0.003042 -0.002930 0.000000 -0.005182 0.000000
# 2 -0.003042 0.013430 -0.000228 0.000000 0.001118 0.000000
# 3 -0.002930 -0.000228 0.014567 0.000000 0.002333 0.000000
# 4 0.000000 0.000000 0.000000 0.027474 0.000000 0.004742
# 5 -0.005182 0.001118 0.002333 0.000000 0.023876 0.000000
# 6 0.000000 0.000000 0.000000 0.004742 0.000000 0.033486
#
#
# Mechanical properties :
#
#
# Convention : Reuss Voigt Hill
#
# Bulk Modulus (GPa) = 38.07587 41.56115 39.81851
# Shear Modulus (GPa) = 34.56473 37.59100 36.07786
#
# Velocity S-wave (km/s) = 3.83650 4.00092 3.91957
# Velocity P-wave (km/s) = 5.98655 6.24829 6.11882
#
# Compressibility (1/GPa) = 0.02626335
#
# Stress axis : x y z
#
# Youngs Moduli (GPa) = 93.74356 74.46052 68.64814
#
# Poissons Ratio (x) = 0.22648 0.20117
# Poissons Ratio (y) = 0.28513 0.01568
# Poissons Ratio (z) = 0.27471 0.01701
#
# Static dielectric constant tensor:
#      x y z
#    x 1.920370 0.000000 -0.070770 
#    y 0.000000 1.996880 0.000000 
#    z -0.070770 0.000000 1.926170 
# 
# From -- ./inp_files/64617.got.cif
#   From: 2010.05.17/outbox.cif.g08.bks.cpg/sg14_33_cif.got.tgz:64617.got - 2010.06.03 17:49:19.
