data_PCOD9244565
_publ_section_title
;
Structure prediction by ZEFSAII (Michael W. Deem and Ramdas Pophale) SiO2 
 PCOD9244565
Probable space group: P 21/C
;
_chemical_formula_sum "Si O2"
_cell_formula_units_Z 30
_cell_length_a 13.399530
_cell_length_b 17.453178
_cell_length_c 7.240918
_cell_angle_alpha 90.000000
_cell_angle_beta 128.646089
_cell_angle_gamma 90.000000
_cell_volume 1322.570892
_symmetry_space_group_name_H-M "P 21/C"
_symmetry_group_IT_number 14
_symmetry_cell_setting 'monoclinic'
loop_
_space_group_symop_operation_xyz
x,y,z
-x,1/2+y,1/2-z
-x,-y,-z
x,1/2-y,1/2+z
loop_
_atom_site_type_symbol
_atom_site_label
_atom_site_fract_x
_atom_site_fract_y
_atom_site_fract_z
Si Si1 0.663325 0.309418 0.005793
Si Si2 0.000000 0.000000 0.500000
Si Si3 0.864618 0.070128 0.744946
Si Si4 0.257818 0.493809 0.541274
Si Si5 0.383325 0.156154 0.115293
Si Si6 0.395135 0.856190 0.144212
Si Si7 0.681072 0.675167 0.864536
Si Si8 0.068828 0.087349 0.292715
O O1 0.786033 0.357397 0.084316
O O2 0.633192 0.339367 0.174990
O O3 0.533335 0.330504 0.748689
O O4 0.670220 0.217843 0.025241
O O5 0.007828 0.908385 0.605983
O O6 0.867704 0.976597 0.223294
O O7 0.783329 0.022751 0.802579
O O8 0.899757 0.005809 0.631970
O O9 0.985833 0.092089 0.011153
O O10 0.349390 0.421424 0.677471
O O11 0.335888 0.561928 0.531921
O O12 0.317203 0.148724 0.842979
O O13 0.330222 0.232821 0.147974
O O14 0.547177 0.853197 0.293185
O O15 0.808634 0.639089 0.093679
#
# Coordination Sequence:
#
# PCOD9244565 Si02
#       8
#     4   2   4   4   4   4   4   4
#     4  10  21  40  60  89 122 159 196 259 299 361
#     4  10  20  42  58  86 122 146 208 250 292 358
#     4   9  22  39  63  88 118 159 203 243 309 364
#     4  10  22  39  63  88 119 165 196 255 299 365
#     4  11  23  38  60  91 122 156 202 248 307 351
#     4  10  22  38  61  90 124 156 205 249 308 361
#     4  11  23  39  60  91 124 161 200 256 303 364
#     4  10  21  40  62  88 120 159 204 252 301 368
#
# _framework density 22.683093
#
# number of rings (size 3 to 8) (size 9 to 14) (size 15 to 20)
#    0.000    1.867    1.333    3.200    5.600    3.733 
#    2.400    0.000    0.000    0.000    0.000    0.000 
#    0.000    0.000    0.000    0.000    0.000    0.000 
#
# Total GULP energy -167126.351402 kJ/mol
# GULP energy per Si atom -5570.878380 kJ/mol
# Density = 2.263147 g / cm^3
# Si number density = 22.683093 Si / 1000 Ang^3
#
#
#
# Elastic Constant Matrix: (Units=GPa)
#
#
# Indices 1 2 3 4 5 6 
#
# 1 40.1695 38.3481 0.9189 0.0000 16.2589 0.0000
# 2 38.3481 130.2229 47.4356 0.0000 41.2585 0.0000
# 3 0.9189 47.4356 58.3932 0.0000 13.8277 0.0000
# 4 0.0000 0.0000 0.0000 31.9159 0.0000 14.7196
# 5 16.2589 41.2585 13.8277 0.0000 33.4004 0.0000
# 6 0.0000 0.0000 0.0000 14.7196 0.0000 35.6205
#
#
#
# Elastic Compliance Matrix: (Units=1/GPa)
#
#
# Indices 1 2 3 4 5 6 
#
# 1 0.041580 -0.014551 0.012975 0.000000 -0.007638 0.000000
# 2 -0.014551 0.021283 -0.013872 0.000000 -0.013464 0.000000
# 3 0.012975 -0.013872 0.028413 0.000000 -0.000944 0.000000
# 4 0.000000 0.000000 0.000000 0.038710 0.000000 -0.015996
# 5 -0.007638 -0.013464 -0.000944 0.000000 0.050680 0.000000
# 6 0.000000 0.000000 0.000000 -0.015996 0.000000 0.034684
#
#
# Mechanical properties :
#
#
# Convention : Reuss Voigt Hill
#
# Bulk Modulus (GPa) = 16.56154 44.68786 30.62470
# Shear Modulus (GPa) = 18.77063 29.65956 24.21509
#
# Velocity S-wave (km/s) = 2.87978 3.61995 3.27087
# Velocity P-wave (km/s) = 4.28656 6.10047 5.27211
#
# Compressibility (1/GPa) = 0.06038086
#
# Stress axis : x y z
#
# Youngs Moduli (GPa) = 24.04976 46.98603 35.19475
#
# Poissons Ratio (x) = 0.68369 -0.45665
# Poissons Ratio (y) = 0.34995 0.48822
# Poissons Ratio (z) = -0.31204 0.65178
#
# Static dielectric constant tensor:
#      x y z
#    x -1.094230 0.000000 0.858650 
#    y 0.000000 1.814600 0.000000 
#    z 0.858650 0.000000 1.649010 
# 
# From -- ./inp_files/16697.got.cif
#   From: 2010.05.17/outbox.cif.g08.bks.cpg/sg14_9_cif.got.tgz:16697.got - 2010.06.03 17:49:19.
