data_PCOD9244435
_publ_section_title
;
Structure prediction by ZEFSAII (Michael W. Deem and Ramdas Pophale) SiO2 
 PCOD9244435
Probable space group: P 21/C
;
_chemical_formula_sum "Si O2"
_cell_formula_units_Z 30
_cell_length_a 19.951279
_cell_length_b 4.999862
_cell_length_c 13.631249
_cell_angle_alpha 90.000000
_cell_angle_beta 62.904286
_cell_angle_gamma 90.000000
_cell_volume 1210.528087
_symmetry_space_group_name_H-M "P 21/C"
_symmetry_group_IT_number 14
_symmetry_cell_setting 'monoclinic'
loop_
_space_group_symop_operation_xyz
x,y,z
-x,1/2+y,1/2-z
-x,-y,-z
x,1/2-y,1/2+z
loop_
_atom_site_type_symbol
_atom_site_label
_atom_site_fract_x
_atom_site_fract_y
_atom_site_fract_z
Si Si1 0.273179 0.840855 0.721350
Si Si2 0.627942 0.662569 0.976794
Si Si3 0.889672 0.332799 0.594228
Si Si4 0.318558 0.281593 0.366840
Si Si5 0.046104 0.038172 0.751634
Si Si6 0.592143 0.480227 0.340302
Si Si7 0.500000 0.500000 0.000000
Si Si8 0.146914 0.345168 0.008009
O O1 0.297984 0.037590 0.619143
O O2 0.302082 0.981011 0.802493
O O3 0.186412 0.792477 0.791273
O O4 0.323459 0.580416 0.674561
O O5 0.570218 0.772551 0.927583
O O6 0.651363 0.854879 0.046794
O O7 0.569018 0.427340 0.036893
O O8 0.944612 0.442570 0.641988
O O9 0.874172 0.555424 0.521523
O O10 0.897427 0.054955 0.531991
O O11 0.237592 0.131452 0.433464
O O12 0.385191 0.100073 0.278207
O O13 0.120172 0.109352 0.637445
O O14 0.995497 0.300546 0.777670
O O15 0.542941 0.223148 0.387689
#
# Coordination Sequence:
#
# PCOD9244435 Si02
#       8
#     4   4   4   4   4   4   2   4
#     4   9  20  38  62  93 123 165 218 273 337 382
#     4  10  21  39  63  88 128 175 213 272 333 395
#     4  11  23  44  70  97 142 180 223 295 340 398
#     4  10  21  40  64  96 126 168 225 282 326 401
#     4  12  27  45  66 104 140 184 235 276 344 426
#     4  10  20  41  62  90 131 163 221 270 329 408
#     4  10  22  40  60  90 128 176 206 258 344 400
#     4  11  24  44  71 102 133 183 236 284 353 408
#
# _framework density 24.782571000000001
#
# number of rings (size 3 to 8) (size 9 to 14) (size 15 to 20)
#    0.000    1.600    1.333    2.800    0.000    5.333 
#   14.400    0.000    0.000    0.000    0.000    0.000 
#    0.000    0.000    0.000    0.000    0.000    0.000 
#
# Total GULP energy -167195.206552 kJ/mol
# GULP energy per Si atom -5573.173552 kJ/mol
# Density = 2.472616 g / cm^3
# Si number density = 24.782571 Si / 1000 Ang^3
#
#
#
# Elastic Constant Matrix: (Units=GPa)
#
#
# Indices 1 2 3 4 5 6 
#
# 1 59.9896 -0.0817 30.3117 0.0000 -0.3393 0.0000
# 2 -0.0817 100.5877 9.8584 0.0000 -4.6799 0.0000
# 3 30.3117 9.8584 109.6559 0.0000 -27.6656 0.0000
# 4 0.0000 0.0000 0.0000 28.0631 0.0000 -10.6055
# 5 -0.3393 -4.6799 -27.6656 0.0000 71.2514 0.0000
# 6 0.0000 0.0000 0.0000 -10.6055 0.0000 20.6653
#
#
#
# Elastic Compliance Matrix: (Units=1/GPa)
#
#
# Indices 1 2 3 4 5 6 
#
# 1 0.019718 0.000506 -0.006057 0.000000 -0.002225 0.000000
# 2 0.000506 0.010050 -0.000972 0.000000 0.000285 0.000000
# 3 -0.006057 -0.000972 0.012037 0.000000 0.004581 0.000000
# 4 0.000000 0.000000 0.000000 0.044208 0.000000 0.022688
# 5 -0.002225 0.000285 0.004581 0.000000 0.015822 0.000000
# 6 0.000000 0.000000 0.000000 0.022688 0.000000 0.060034
#
#
# Mechanical properties :
#
#
# Convention : Reuss Voigt Hill
#
# Bulk Modulus (GPa) = 34.77023 38.93446 36.85234
# Shear Modulus (GPa) = 27.09997 39.33892 33.21945
#
# Velocity S-wave (km/s) = 3.31041 3.98849 3.66517
# Velocity P-wave (km/s) = 5.35466 6.07909 5.72834
#
# Compressibility (1/GPa) = 0.02876024
#
# Stress axis : x y z
#
# Youngs Moduli (GPa) = 50.71405 99.49780 83.07707
#
# Poissons Ratio (x) = -0.05036 0.50324
# Poissons Ratio (y) = -0.02567 0.08071
# Poissons Ratio (z) = 0.30720 0.09666
#
# Static dielectric constant tensor:
#      x y z
#    x 1.984630 0.000000 -0.030720 
#    y 0.000000 2.048720 0.000000 
#    z -0.030720 0.000000 2.134470 
# 
# From -- ./inp_files/34711.got.cif
#   From: 2010.05.17/outbox.cif.g08.bks.cpg/sg14_18_cif.got.tgz:34711.got - 2010.06.03 17:49:19.
