data_PCOD9244498
_publ_section_title
;
Structure prediction by ZEFSAII (Michael W. Deem and Ramdas Pophale) SiO2 
 PCOD9244498
Probable space group: P 21/C
;
_chemical_formula_sum "Si O2"
_cell_formula_units_Z 30
_cell_length_a 10.488608
_cell_length_b 12.970018
_cell_length_c 12.731780
_cell_angle_alpha 90.000000
_cell_angle_beta 49.466015
_cell_angle_gamma 90.000000
_cell_volume 1316.354703
_symmetry_space_group_name_H-M "P 21/C"
_symmetry_group_IT_number 14
_symmetry_cell_setting 'monoclinic'
loop_
_space_group_symop_operation_xyz
x,y,z
-x,1/2+y,1/2-z
-x,-y,-z
x,1/2-y,1/2+z
loop_
_atom_site_type_symbol
_atom_site_label
_atom_site_fract_x
_atom_site_fract_y
_atom_site_fract_z
Si Si1 0.840116 0.204711 0.765206
Si Si2 0.434516 0.775594 0.418811
Si Si3 0.849563 0.534196 0.210511
Si Si4 0.371851 0.154613 0.502480
Si Si5 0.000000 0.000000 0.000000
Si Si6 0.228736 0.527701 0.970820
Si Si7 0.162911 0.162425 0.082847
Si Si8 0.678436 0.145564 0.200807
O O1 0.700500 0.234182 0.924347
O O2 0.860014 0.083799 0.742970
O O3 0.776758 0.253729 0.690307
O O4 0.012480 0.261642 0.699383
O O5 0.600113 0.807690 0.393862
O O6 0.360392 0.881311 0.412130
O O7 0.434183 0.684919 0.334826
O O8 0.755691 0.529530 0.149484
O O9 0.781126 0.598302 0.344757
O O10 0.039452 0.569649 0.082348
O O11 0.308042 0.256427 0.474759
O O12 0.549411 0.115366 0.361638
O O13 0.252329 0.057813 0.548708
O O14 0.181219 0.938278 0.898211
O O15 0.086430 0.087109 0.035991
#
# Coordination Sequence:
#
# PCOD9244498 Si02
#       8
#     4   4   4   4   2   4   4   4
#     4  10  20  41  66  92 134 170 237 280 340 424
#     4  11  22  43  65  95 137 181 217 291 352 416
#     4  11  22  40  69 100 131 179 241 286 342 426
#     4  11  26  43  67 103 143 176 237 286 364 416
#     4  10  24  46  74  94 144 186 246 280 350 418
#     4  11  23  41  67 100 134 185 228 289 348 424
#     4  11  23  44  68 107 131 185 232 296 350 420
#     4  10  23  44  66 100 133 185 226 291 342 420
#
# _framework density 22.790209000000001
#
# number of rings (size 3 to 8) (size 9 to 14) (size 15 to 20)
#    0.000    1.333    4.000    1.200    1.867    1.067 
#    4.800    3.333    0.000    0.000    0.000    0.000 
#    0.000    0.000    0.000    0.000    0.000    0.000 
#
# Total GULP energy -167082.229751 kJ/mol
# GULP energy per Si atom -5569.407658 kJ/mol
# Density = 2.273834 g / cm^3
# Si number density = 22.790209 Si / 1000 Ang^3
#
#
#
# Elastic Constant Matrix: (Units=GPa)
#
#
# Indices 1 2 3 4 5 6 
#
# 1 78.4884 7.4183 5.3665 0.0000 12.8549 0.0000
# 2 7.4183 61.5099 12.6562 0.0000 -3.0730 0.0000
# 3 5.3665 12.6562 37.4436 0.0000 3.5745 0.0000
# 4 0.0000 0.0000 0.0000 32.1956 0.0000 -6.3917
# 5 12.8549 -3.0730 3.5745 0.0000 19.4402 0.0000
# 6 0.0000 0.0000 0.0000 -6.3917 0.0000 38.0087
#
#
#
# Elastic Compliance Matrix: (Units=1/GPa)
#
#
# Indices 1 2 3 4 5 6 
#
# 1 0.014599 -0.002172 -0.000411 0.000000 -0.009921 0.000000
# 2 -0.002172 0.018094 -0.006326 0.000000 0.005459 0.000000
# 3 -0.000411 -0.006326 0.029491 0.000000 -0.006151 0.000000
# 4 0.000000 0.000000 0.000000 0.032133 0.000000 0.005404
# 5 -0.009921 0.005459 -0.006151 0.000000 0.059994 0.000000
# 6 0.000000 0.000000 0.000000 0.005404 0.000000 0.027218
#
#
# Mechanical properties :
#
#
# Convention : Reuss Voigt Hill
#
# Bulk Modulus (GPa) = 22.53949 25.36932 23.95441
# Shear Modulus (GPa) = 23.34967 28.06229 25.70598
#
# Velocity S-wave (km/s) = 3.20433 3.51284 3.36212
# Velocity P-wave (km/s) = 4.85816 5.25445 5.06019
#
# Compressibility (1/GPa) = 0.04436657
#
# Stress axis : x y z
#
# Youngs Moduli (GPa) = 68.49765 55.26754 33.90855
#
# Poissons Ratio (x) = 0.12003 0.01394
# Poissons Ratio (y) = 0.14876 0.21450
# Poissons Ratio (z) = 0.02816 0.34961
#
# Static dielectric constant tensor:
#      x y z
#    x 1.914520 0.000000 0.023570 
#    y 0.000000 1.818870 0.000000 
#    z 0.023570 0.000000 1.846090 
# 
# From -- ./inp_files/25452.got.cif
#   From: 2010.05.17/outbox.cif.g08.bks.cpg/sg14_13_cif.got.tgz:25452.got - 2010.06.03 17:49:19.
