data_PCOD9244561
_publ_section_title
;
Structure prediction by ZEFSAII (Michael W. Deem and Ramdas Pophale) SiO2 
 PCOD9244561
Probable space group: P 21/C
;
_chemical_formula_sum "Si O2"
_cell_formula_units_Z 32
_cell_length_a 11.054523
_cell_length_b 8.209288
_cell_length_c 15.070902
_cell_angle_alpha 90.000000
_cell_angle_beta 95.687779
_cell_angle_gamma 90.000000
_cell_volume 1360.947326
_symmetry_space_group_name_H-M "P 21/C"
_symmetry_group_IT_number 14
_symmetry_cell_setting 'monoclinic'
loop_
_space_group_symop_operation_xyz
x,y,z
-x,1/2+y,1/2-z
-x,-y,-z
x,1/2-y,1/2+z
loop_
_atom_site_type_symbol
_atom_site_label
_atom_site_fract_x
_atom_site_fract_y
_atom_site_fract_z
Si Si1 0.310938 0.572540 0.740408
Si Si2 0.470784 0.313819 0.494750
Si Si3 0.886402 0.572148 0.799004
Si Si4 0.663950 0.900372 0.390443
Si Si5 0.982134 0.309734 0.028544
Si Si6 0.053860 0.808391 0.156645
Si Si7 0.278428 0.629990 0.945610
Si Si8 0.514148 0.828482 0.688460
O O1 0.184276 0.600703 0.678880
O O2 0.277763 0.579134 0.842886
O O3 0.407194 0.715622 0.721006
O O4 0.385672 0.403484 0.738677
O O5 0.500000 0.500000 0.500000
O O6 0.377536 0.261470 0.563456
O O7 0.597320 0.222196 0.524604
O O8 0.430771 0.262828 0.392905
O O9 0.744375 0.591564 0.808029
O O10 0.917739 0.382052 0.818596
O O11 0.938401 0.694606 0.878023
O O12 0.952251 0.622489 0.714524
O O13 0.728413 0.993367 0.477899
O O14 0.548400 0.010441 0.357318
O O15 0.844526 0.272584 0.047473
O O16 0.002173 0.197213 0.945650
O O17 0.000000 0.500000 0.000000
#
# Coordination Sequence:
#
# PCOD9244561 Si02
#       8
#     4   4   4   4   4   4   4   4
#     4  12  23  41  69 103 141 189 236 302 365 431
#     4  11  24  43  67  99 141 185 236 300 364 440
#     4  11  23  44  72 101 141 189 242 300 369 437
#     4  11  20  45  69  96 136 194 239 290 366 446
#     4  10  20  41  72  96 131 186 235 284 362 429
#     4  11  23  44  70 103 142 183 249 303 355 442
#     4  11  19  40  72  96 132 188 234 283 363 432
#     4  11  24  42  67  98 145 182 236 299 367 437
#
# _framework density 23.513033
#
# number of rings (size 3 to 8) (size 9 to 14) (size 15 to 20)
#    0.000    1.000    7.500    1.500    1.750    0.000 
#    6.750    1.875    0.000    0.000    0.000    0.000 
#    0.000    0.000    0.000    0.000    0.000    0.000 
#
# Total GULP energy -178810.473768 kJ/mol
# GULP energy per Si atom -5587.827305 kJ/mol
# Density = 2.345952 g / cm^3
# Si number density = 23.513033 Si / 1000 Ang^3
#
#
#
# Elastic Constant Matrix: (Units=GPa)
#
#
# Indices 1 2 3 4 5 6 
#
# 1 48.8798 23.5181 17.8261 0.0000 -25.3600 0.0000
# 2 23.5181 49.3343 4.4107 0.0000 -1.7817 0.0000
# 3 17.8261 4.4107 84.0132 0.0000 -5.8953 0.0000
# 4 0.0000 0.0000 0.0000 40.7115 0.0000 -6.6488
# 5 -25.3600 -1.7817 -5.8953 0.0000 42.7997 0.0000
# 6 0.0000 0.0000 0.0000 -6.6488 0.0000 23.9785
#
#
#
# Elastic Compliance Matrix: (Units=1/GPa)
#
#
# Indices 1 2 3 4 5 6 
#
# 1 0.045988 -0.020387 -0.006902 0.000000 0.025450 0.000000
# 2 -0.020387 0.029424 0.002039 0.000000 -0.010574 0.000000
# 3 -0.006902 0.002039 0.013106 0.000000 -0.002199 0.000000
# 4 0.000000 0.000000 0.000000 0.025728 0.000000 0.007134
# 5 0.025450 -0.010574 -0.002199 0.000000 0.037701 0.000000
# 6 0.000000 0.000000 0.000000 0.007134 0.000000 0.043682
#
#
# Mechanical properties :
#
#
# Convention : Reuss Voigt Hill
#
# Bulk Modulus (GPa) = 26.30240 30.41522 28.35881
# Shear Modulus (GPa) = 19.31972 30.59611 24.95791
#
# Velocity S-wave (km/s) = 2.86957 3.61118 3.26153
# Velocity P-wave (km/s) = 4.71061 5.50918 5.12547
#
# Compressibility (1/GPa) = 0.03801934
#
# Stress axis : x y z
#
# Youngs Moduli (GPa) = 21.74459 33.98553 76.30125
#
# Poissons Ratio (x) = 0.69286 0.52661
# Poissons Ratio (y) = 0.44330 -0.15558
# Poissons Ratio (z) = 0.15008 -0.06930
#
# Static dielectric constant tensor:
#      x y z
#    x 1.927670 0.000000 0.028920 
#    y 0.000000 1.916830 0.000000 
#    z 0.028920 0.000000 1.929240 
# 
# From -- ./inp_files/43749.got.cif
#   From: 2010.05.17/outbox.cif.g08.bks.cpg/sg14_22_cif.got.tgz:43749.got - 2010.06.03 17:49:19.
