data_PCOD9244242
_publ_section_title
;
Structure prediction by ZEFSAII (Michael W. Deem and Ramdas Pophale) SiO2 
 PCOD9244242
Probable space group: P 21/C
;
_chemical_formula_sum "Si O2"
_cell_formula_units_Z 28
_cell_length_a 11.711119
_cell_length_b 8.766988
_cell_length_c 13.936224
_cell_angle_alpha 90.000000
_cell_angle_beta 128.882730
_cell_angle_gamma 90.000000
_cell_volume 1113.819519
_symmetry_space_group_name_H-M "P 21/C"
_symmetry_group_IT_number 14
_symmetry_cell_setting 'monoclinic'
loop_
_space_group_symop_operation_xyz
x,y,z
-x,1/2+y,1/2-z
-x,-y,-z
x,1/2-y,1/2+z
loop_
_atom_site_type_symbol
_atom_site_label
_atom_site_fract_x
_atom_site_fract_y
_atom_site_fract_z
Si Si1 0.993882 0.328309 0.038506
Si Si2 0.868771 0.772619 0.064446
Si Si3 0.673027 0.186419 0.362607
Si Si4 0.031470 0.520494 0.776110
Si Si5 0.353065 0.602039 0.928257
Si Si6 0.454734 0.086554 0.818350
Si Si7 0.577318 0.680038 0.495222
O O1 0.836069 0.256964 0.928609
O O2 0.112478 0.236999 0.039663
O O3 0.000209 0.356601 0.155094
O O4 0.000000 0.500000 0.000000
O O5 0.967967 0.642291 0.169384
O O6 0.704287 0.731421 0.007867
O O7 0.915044 0.934700 0.133605
O O8 0.669615 0.143024 0.472949
O O9 0.645412 0.032433 0.289576
O O10 0.540768 0.306822 0.289541
O O11 0.193754 0.542164 0.815369
O O12 0.500000 0.500000 0.000000
O O13 0.413753 0.750183 0.904671
O O14 0.381157 0.172217 0.869787
O O15 0.570353 0.982325 0.938948
#
# Coordination Sequence:
#
# PCOD9244242 Si02
#       7
#     4   4   4   4   4   4   4
#     4   9  22  41  61  91 127 170 210 257 319 389
#     4  11  23  41  65  96 129 175 207 263 330 380
#     4  10  23  40  63  96 125 165 218 256 327 376
#     4  10  23  40  65  94 130 169 219 261 321 390
#     4  10  20  40  64  92 123 166 220 264 312 380
#     4  10  24  41  66  94 128 166 211 272 317 380
#     4  10  23  42  65  94 130 166 216 266 320 378
#
# _framework density 25.138725000000001
#
# number of rings (size 3 to 8) (size 9 to 14) (size 15 to 20)
#    0.000    2.000    1.429    0.000    8.000    3.429 
#    2.571    1.429    0.000    0.000    0.000    0.000 
#    0.000    0.000    0.000    0.000    0.000    0.000 
#
# Total GULP energy -156433.201321 kJ/mol
# GULP energy per Si atom -5586.900047 kJ/mol
# Density = 2.508151 g / cm^3
# Si number density = 25.138725 Si / 1000 Ang^3
#
#
#
# Elastic Constant Matrix: (Units=GPa)
#
#
# Indices 1 2 3 4 5 6 
#
# 1 156.8149 6.4725 26.8369 0.0000 -11.4637 0.0000
# 2 6.4725 36.0915 2.2070 0.0000 -4.4496 0.0000
# 3 26.8369 2.2070 44.9472 0.0000 -7.9665 0.0000
# 4 0.0000 0.0000 0.0000 37.4233 0.0000 -4.1686
# 5 -11.4637 -4.4496 -7.9665 0.0000 29.6049 0.0000
# 6 0.0000 0.0000 0.0000 -4.1686 0.0000 22.9551
#
#
#
# Elastic Compliance Matrix: (Units=1/GPa)
#
#
# Indices 1 2 3 4 5 6 
#
# 1 0.007210 -0.000853 -0.003981 0.000000 0.001592 0.000000
# 2 -0.000853 0.028350 -0.000195 0.000000 0.003878 0.000000
# 3 -0.003981 -0.000195 0.025576 0.000000 0.005312 0.000000
# 4 0.000000 0.000000 0.000000 0.027273 0.000000 0.004953
# 5 0.001592 0.003878 0.005312 0.000000 0.036407 0.000000
# 6 0.000000 0.000000 0.000000 0.004953 0.000000 0.044463
#
#
# Mechanical properties :
#
#
# Convention : Reuss Voigt Hill
#
# Bulk Modulus (GPa) = 19.57789 34.32070 26.94929
# Shear Modulus (GPa) = 25.46298 31.48580 28.47439
#
# Velocity S-wave (km/s) = 3.18606 3.54288 3.36920
# Velocity P-wave (km/s) = 4.61947 5.51527 5.08712
#
# Compressibility (1/GPa) = 0.05107803
#
# Stress axis : x y z
#
# Youngs Moduli (GPa) = 138.69980 35.27285 39.09892
#
# Poissons Ratio (x) = 0.03010 0.15564
# Poissons Ratio (y) = 0.11834 0.00763
# Poissons Ratio (z) = 0.55212 0.00689
#
# Static dielectric constant tensor:
#      x y z
#    x 1.982050 0.000000 0.008850 
#    y 0.000000 2.121430 0.000000 
#    z 0.008850 0.000000 1.988270 
# 
# From -- ./inp_files/43803.got.cif
#   From: 2010.05.17/outbox.cif.g08.bks.cpg/sg14_22_cif.got.tgz:43803.got - 2010.06.03 17:49:19.
