data_PCOD9244795
_publ_section_title
;
Structure prediction by ZEFSAII (Michael W. Deem and Ramdas Pophale) SiO2 
 PCOD9244795
Probable space group: P 21/C
;
_chemical_formula_sum "Si O2"
_cell_formula_units_Z 26
_cell_length_a 9.866011
_cell_length_b 12.036113
_cell_length_c 8.711705
_cell_angle_alpha 90.000000
_cell_angle_beta 89.179464
_cell_angle_gamma 90.000000
_cell_volume 1034.395150
_symmetry_space_group_name_H-M "P 21/C"
_symmetry_group_IT_number 14
_symmetry_cell_setting 'monoclinic'
loop_
_space_group_symop_operation_xyz
x,y,z
-x,1/2+y,1/2-z
-x,-y,-z
x,1/2-y,1/2+z
loop_
_atom_site_type_symbol
_atom_site_label
_atom_site_fract_x
_atom_site_fract_y
_atom_site_fract_z
Si Si1 0.576830 0.610101 0.337906
Si Si2 0.131246 0.718378 0.214878
Si Si3 0.000000 0.000000 0.500000
Si Si4 0.264581 0.927996 0.317782
Si Si5 0.323111 0.181463 0.852228
Si Si6 0.944351 0.756995 0.974921
Si Si7 0.673613 0.031043 0.348737
O O1 0.666075 0.498401 0.316963
O O2 0.572079 0.649007 0.514228
O O3 0.646634 0.703015 0.230139
O O4 0.433006 0.589033 0.261298
O O5 0.245115 0.797214 0.285438
O O6 0.181945 0.595043 0.172978
O O7 0.084254 0.781327 0.063070
O O8 0.989375 0.708037 0.305894
O O9 0.114272 0.967817 0.364167
O O10 0.930152 0.875492 0.480654
O O11 0.353224 0.951557 0.470457
O O12 0.182538 0.184635 0.947753
O O13 0.320479 0.092289 0.715895
#
# Coordination Sequence:
#
# PCOD9244795 Si02
#       7
#     4   4   2   4   4   4   4
#     4  12  28  47  73 102 142 189 241 293 350 427
#     4  11  25  43  71 106 138 187 229 295 359 425
#     4  10  20  44  68  98 140 178 236 278 354 412
#     4  11  25  45  72  98 142 187 230 296 356 417
#     4  12  28  46  75 104 141 185 243 291 355 423
#     4  11  24  43  72 102 142 177 237 293 359 419
#     4  12  28  47  71 103 144 190 236 290 357 427
#
# _framework density 25.135463000000001
#
# number of rings (size 3 to 8) (size 9 to 14) (size 15 to 20)
#    0.000    0.615    4.615    2.769   10.769    0.615 
#    0.000    0.000    0.000    0.000    0.000    0.000 
#    0.000    0.000    0.000    0.000    0.000    0.000 
#
# Total GULP energy -145143.205133 kJ/mol
# GULP energy per Si atom -5582.430967 kJ/mol
# Density = 2.507825 g / cm^3
# Si number density = 25.135463 Si / 1000 Ang^3
#
#
#
# Elastic Constant Matrix: (Units=GPa)
#
#
# Indices 1 2 3 4 5 6 
#
# 1 48.2222 12.8481 2.5055 0.0000 9.8711 0.0000
# 2 12.8481 79.3801 13.8089 0.0000 -17.5579 0.0000
# 3 2.5055 13.8089 83.4718 0.0000 20.6357 0.0000
# 4 0.0000 0.0000 0.0000 32.8619 0.0000 -4.3229
# 5 9.8711 -17.5579 20.6357 0.0000 39.2914 0.0000
# 6 0.0000 0.0000 0.0000 -4.3229 0.0000 33.0465
#
#
#
# Elastic Compliance Matrix: (Units=1/GPa)
#
#
# Indices 1 2 3 4 5 6 
#
# 1 0.024668 -0.006954 0.003115 0.000000 -0.010941 0.000000
# 2 -0.006954 0.017529 -0.005814 0.000000 0.012634 0.000000
# 3 0.003115 -0.005814 0.015726 0.000000 -0.011640 0.000000
# 4 0.000000 0.000000 0.000000 0.030963 0.000000 0.004050
# 5 -0.010941 0.012634 -0.011640 0.000000 0.039958 0.000000
# 6 0.000000 0.000000 0.000000 0.004050 0.000000 0.030790
#
#
# Mechanical properties :
#
#
# Convention : Reuss Voigt Hill
#
# Bulk Modulus (GPa) = 25.89666 29.93323 27.91494
# Shear Modulus (GPa) = 26.06677 33.16742 29.61710
#
# Velocity S-wave (km/s) = 3.22382 3.63650 3.43636
# Velocity P-wave (km/s) = 4.91758 5.43753 5.18408
#
# Compressibility (1/GPa) = 0.03861502
#
# Stress axis : x y z
#
# Youngs Moduli (GPa) = 40.53839 57.04769 63.58848
#
# Poissons Ratio (x) = 0.39674 -0.19807
# Poissons Ratio (y) = 0.28192 0.36973
# Poissons Ratio (z) = -0.12627 0.33170
#
# Static dielectric constant tensor:
#      x y z
#    x 2.592960 0.000000 0.305930 
#    y 0.000000 4.131840 0.000000 
#    z 0.305930 0.000000 2.083890 
# 
# From -- ./inp_files/12472.got.cif
#   From: 2010.05.17/outbox.cif.g08.bks.cpg/sg14_7_cif.got.tgz:12472.got - 2010.06.03 17:49:19.
