data_PCOD9244214
_publ_section_title
;
Structure prediction by ZEFSAII (Michael W. Deem and Ramdas Pophale) SiO2 
 PCOD9244214
Probable space group: P 21/C
;
_chemical_formula_sum "Si O2"
_cell_formula_units_Z 28
_cell_length_a 12.266950
_cell_length_b 9.254122
_cell_length_c 11.288840
_cell_angle_alpha 90.000000
_cell_angle_beta 71.961988
_cell_angle_gamma 90.000000
_cell_volume 1218.523013
_symmetry_space_group_name_H-M "P 21/C"
_symmetry_group_IT_number 14
_symmetry_cell_setting 'monoclinic'
loop_
_space_group_symop_operation_xyz
x,y,z
-x,1/2+y,1/2-z
-x,-y,-z
x,1/2-y,1/2+z
loop_
_atom_site_type_symbol
_atom_site_label
_atom_site_fract_x
_atom_site_fract_y
_atom_site_fract_z
Si Si1 0.397294 0.103608 0.581272
Si Si2 0.709374 0.107640 0.202733
Si Si3 0.873911 0.982695 0.732792
Si Si4 0.351443 0.909735 0.250643
Si Si5 0.477518 0.899059 0.897709
Si Si6 0.199592 0.999256 0.497780
Si Si7 0.926169 0.316521 0.751903
O O1 0.459990 0.249017 0.601134
O O2 0.500000 0.000000 0.500000
O O3 0.328465 0.032405 0.713248
O O4 0.290646 0.112895 0.522826
O O5 0.644381 0.244289 0.290597
O O6 0.654352 0.104981 0.092708
O O7 0.844251 0.133895 0.171574
O O8 0.738117 0.999037 0.798059
O O9 0.877620 0.948535 0.588589
O O10 0.920979 0.143074 0.747824
O O11 0.943678 0.868868 0.785391
O O12 0.285851 0.895561 0.396795
O O13 0.460969 0.008044 0.226276
O O14 0.500000 0.000000 0.000000
O O15 0.131976 0.903911 0.617272
#
# Coordination Sequence:
#
# PCOD9244214 Si02
#       7
#     4   4   4   4   4   4   4
#     4  11  22  36  62  87 120 166 200 243 317 369
#     4  10  21  38  61  84 122 160 206 247 310 374
#     4   9  21  38  65  88 125 155 213 251 302 368
#     4   9  21  40  60  86 122 157 203 256 300 359
#     4  12  24  38  60  93 128 158 206 260 306 370
#     4   9  20  39  63  87 125 163 204 247 313 371
#     4  10  20  40  63  91 118 169 199 259 308 358
#
# _framework density 22.978638
#
# number of rings (size 3 to 8) (size 9 to 14) (size 15 to 20)
#    0.857    1.143    0.000    3.857    0.000    5.714 
#    2.571    0.714    0.000    0.000    0.000    0.000 
#    0.000    0.000    0.000    0.000    0.000    0.000 
#
# Total GULP energy -155908.086583 kJ/mol
# GULP energy per Si atom -5568.145949 kJ/mol
# Density = 2.292634 g / cm^3
# Si number density = 22.978638 Si / 1000 Ang^3
#
#
#
# Elastic Constant Matrix: (Units=GPa)
#
#
# Indices 1 2 3 4 5 6 
#
# 1 119.0303 18.1816 13.6036 0.0000 46.8296 0.0000
# 2 18.1816 36.4610 0.6494 0.0000 22.4491 0.0000
# 3 13.6036 0.6494 31.0228 0.0000 9.5010 0.0000
# 4 0.0000 0.0000 0.0000 15.7583 0.0000 2.7412
# 5 46.8296 22.4491 9.5010 0.0000 35.4124 0.0000
# 6 0.0000 0.0000 0.0000 2.7412 0.0000 44.6157
#
#
#
# Elastic Compliance Matrix: (Units=1/GPa)
#
#
# Indices 1 2 3 4 5 6 
#
# 1 0.019594 0.010445 0.001256 0.000000 -0.032870 0.000000
# 2 0.010445 0.052703 0.009565 0.000000 -0.049788 0.000000
# 3 0.001256 0.009565 0.036879 0.000000 -0.017619 0.000000
# 4 0.000000 0.000000 0.000000 0.064144 0.000000 -0.003941
# 5 -0.032870 -0.049788 -0.017619 0.000000 0.107995 0.000000
# 6 0.000000 0.000000 0.000000 -0.003941 0.000000 0.022656
#
#
# Mechanical properties :
#
#
# Convention : Reuss Voigt Hill
#
# Bulk Modulus (GPa) = 6.59167 27.93148 17.26158
# Shear Modulus (GPa) = 16.02515 29.42921 22.72718
#
# Velocity S-wave (km/s) = 2.64369 3.58260 3.14834
# Velocity P-wave (km/s) = 3.49193 5.41250 4.55460
#
# Compressibility (1/GPa) = 0.15170659
#
# Stress axis : x y z
#
# Youngs Moduli (GPa) = 51.03597 18.97439 27.11545
#
# Poissons Ratio (x) = -0.19818 -0.03405
# Poissons Ratio (y) = -0.53306 -0.25935
# Poissons Ratio (z) = -0.06409 -0.18149
#
# Static dielectric constant tensor:
#      x y z
#    x 1.667200 0.000000 0.524330 
#    y 0.000000 1.859120 0.000000 
#    z 0.524330 0.000000 1.026250 
# 
# From -- ./inp_files/43073.got.cif
#   From: 2010.05.17/outbox.cif.g08.bks.cpg/sg14_22_cif.got.tgz:43073.got - 2010.06.03 17:49:19.
