data_PCOD9244467
_publ_section_title
;
Structure prediction by ZEFSAII (Michael W. Deem and Ramdas Pophale) SiO2 
 PCOD9244467
Probable space group: P 21/C
;
_chemical_formula_sum "Si O2"
_cell_formula_units_Z 22
_cell_length_a 9.550660
_cell_length_b 11.015980
_cell_length_c 8.160240
_cell_angle_alpha 90.000000
_cell_angle_beta 93.860577
_cell_angle_gamma 90.000000
_cell_volume 856.589709
_symmetry_space_group_name_H-M "P 21/C"
_symmetry_group_IT_number 14
_symmetry_cell_setting 'monoclinic'
loop_
_space_group_symop_operation_xyz
x,y,z
-x,1/2+y,1/2-z
-x,-y,-z
x,1/2-y,1/2+z
loop_
_atom_site_type_symbol
_atom_site_label
_atom_site_fract_x
_atom_site_fract_y
_atom_site_fract_z
Si Si1 0.943548 0.698628 0.891990
Si Si2 0.753926 0.138399 0.569927
Si Si3 0.260976 0.024767 0.749357
Si Si4 0.500000 0.000000 0.000000
Si Si5 0.784840 0.614674 0.197331
Si Si6 0.561617 0.778187 0.441645
O O1 0.882784 0.601807 0.753672
O O2 0.851084 0.817752 0.855878
O O3 0.899875 0.640571 0.061983
O O4 0.108022 0.717641 0.893820
O O5 0.601853 0.192942 0.569263
O O6 0.761401 0.075720 0.391856
O O7 0.761494 0.027862 0.700745
O O8 0.344745 0.972055 0.906948
O O9 0.371510 0.124853 0.681929
O O10 0.563327 0.867349 0.937158
O O11 0.644985 0.676196 0.110603
#
# Coordination Sequence:
#
# PCOD9244467 Si02
#       6
#     4   4   4   2   4   4
#     4  10  21  41  64  93 126 169 210 266 337 392
#     4  10  22  40  69  92 127 170 216 272 328 395
#     4  10  22  41  66  92 130 173 215 271 334 387
#     4  12  24  38  68  96 132 168 224 274 320 392
#     4  10  20  41  64  89 128 170 211 263 330 395
#     4  10  23  40  64  95 125 168 220 267 325 388
#
# _framework density 25.683239
#
# number of rings (size 3 to 8) (size 9 to 14) (size 15 to 20)
#    0.000    2.182    1.818    4.364    2.545    5.818 
#    0.000    0.909    0.000    0.000    0.000    0.000 
#    0.000    0.000    0.000    0.000    0.000    0.000 
#
# Total GULP energy -122508.168301 kJ/mol
# GULP energy per Si atom -5568.553105 kJ/mol
# Density = 2.562478 g / cm^3
# Si number density = 25.683239 Si / 1000 Ang^3
#
#
#
# Elastic Constant Matrix: (Units=GPa)
#
#
# Indices 1 2 3 4 5 6 
#
# 1 171.0958 41.7095 29.6469 0.0000 57.2481 0.0000
# 2 41.7095 74.8620 -7.9302 0.0000 -2.8931 0.0000
# 3 29.6469 -7.9302 45.4848 0.0000 7.0148 0.0000
# 4 0.0000 0.0000 0.0000 16.8813 0.0000 8.5978
# 5 57.2481 -2.8931 7.0148 0.0000 29.6977 0.0000
# 6 0.0000 0.0000 0.0000 8.5978 0.0000 39.7734
#
#
#
# Elastic Compliance Matrix: (Units=1/GPa)
#
#
# Indices 1 2 3 4 5 6 
#
# 1 0.048071 -0.032723 -0.023096 0.000000 -0.090398 0.000000
# 2 -0.032723 0.035902 0.017975 0.000000 0.062331 0.000000
# 3 -0.023096 0.017975 0.034286 0.000000 0.038175 0.000000
# 4 0.000000 0.000000 0.000000 0.066566 0.000000 -0.014390
# 5 -0.090398 0.062331 0.038175 0.000000 0.204987 0.000000
# 6 0.000000 0.000000 0.000000 -0.014390 0.000000 0.028253
#
#
# Mechanical properties :
#
#
# Convention : Reuss Voigt Hill
#
# Bulk Modulus (GPa) = 23.48970 46.47721 34.98345
# Shear Modulus (GPa) = 9.84363 32.47155 21.15759
#
# Velocity S-wave (km/s) = 1.95985 3.55957 2.87329
# Velocity P-wave (km/s) = 3.77983 5.91859 4.96572
#
# Compressibility (1/GPa) = 0.04257186
#
# Stress axis : x y z
#
# Youngs Moduli (GPa) = 20.80276 27.85325 29.16656
#
# Poissons Ratio (x) = 0.91143 0.67363
# Poissons Ratio (y) = 0.68072 -0.52428
# Poissons Ratio (z) = 0.48046 -0.50067
#
# Static dielectric constant tensor:
#      x y z
#    x 2.024260 0.000000 -0.115770 
#    y 0.000000 2.157040 0.000000 
#    z -0.115770 0.000000 2.224820 
# 
# From -- ./inp_files/23855.got.cif
#   From: 2010.05.17/outbox.cif.g08.bks.cpg/sg14_12_cif.got.tgz:23855.got - 2010.06.03 17:49:19.
