data_PCOD9244594
_publ_section_title
;
Structure prediction by ZEFSAII (Michael W. Deem and Ramdas Pophale) SiO2 
 PCOD9244594
Probable space group: P 21/C
;
_chemical_formula_sum "Si O2"
_cell_formula_units_Z 30
_cell_length_a 15.541199
_cell_length_b 11.449341
_cell_length_c 8.874552
_cell_angle_alpha 90.000000
_cell_angle_beta 125.582969
_cell_angle_gamma 90.000000
_cell_volume 1284.245966
_symmetry_space_group_name_H-M "P 21/C"
_symmetry_group_IT_number 14
_symmetry_cell_setting 'monoclinic'
loop_
_space_group_symop_operation_xyz
x,y,z
-x,1/2+y,1/2-z
-x,-y,-z
x,1/2-y,1/2+z
loop_
_atom_site_type_symbol
_atom_site_label
_atom_site_fract_x
_atom_site_fract_y
_atom_site_fract_z
Si Si1 0.297093 0.174871 0.031235
Si Si2 0.200823 0.551687 0.496186
Si Si3 0.884512 0.639766 0.126941
Si Si4 0.420366 0.335130 0.958890
Si Si5 0.360310 0.903805 0.434651
Si Si6 0.000000 0.500000 0.500000
Si Si7 0.921491 0.277433 0.851107
Si Si8 0.827608 0.118734 0.555417
O O1 0.333241 0.171119 0.240198
O O2 0.260088 0.045114 0.955581
O O3 0.201082 0.264339 0.920364
O O4 0.395049 0.228439 0.041155
O O5 0.282712 0.592852 0.709580
O O6 0.103244 0.491092 0.482309
O O7 0.156961 0.652342 0.342260
O O8 0.832572 0.517602 0.025472
O O9 0.950174 0.606449 0.341773
O O10 0.963273 0.680350 0.075815
O O11 0.401057 0.464020 0.010151
O O12 0.536383 0.332638 0.005591
O O13 0.289169 0.858061 0.499993
O O14 0.906348 0.141724 0.782068
O O15 0.879658 0.311487 0.971501
#
# Coordination Sequence:
#
# PCOD9244594 Si02
#       8
#     4   4   4   4   4   2   4   4
#     4  11  23  41  69 103 137 178 229 295 352 414
#     4  10  22  41  66 103 139 182 228 280 353 428
#     4  11  24  41  68  98 141 180 227 281 342 424
#     4  10  23  41  68 100 129 179 230 297 353 411
#     4  10  21  45  70  91 134 181 236 283 352 411
#     4  10  20  42  64 100 138 194 216 264 352 430
#     4  11  28  39  66  97 137 180 229 271 344 422
#     4  12  24  46  64  97 134 184 221 286 339 417
#
# _framework density 23.360012000000001
#
# number of rings (size 3 to 8) (size 9 to 14) (size 15 to 20)
#    0.000    1.333    2.667    2.000    7.467    3.200 
#    0.000    0.000    0.000    5.600    0.000    0.000 
#    0.000    0.000    0.000    0.000    0.000    0.000 
#
# Total GULP energy -167548.842117 kJ/mol
# GULP energy per Si atom -5584.961404 kJ/mol
# Density = 2.330684 g / cm^3
# Si number density = 23.360012 Si / 1000 Ang^3
#
#
#
# Elastic Constant Matrix: (Units=GPa)
#
#
# Indices 1 2 3 4 5 6 
#
# 1 189.7197 45.1580 23.4862 0.0000 -1.9146 0.0000
# 2 45.1580 69.6582 -0.6385 0.0000 -1.4437 0.0000
# 3 23.4862 -0.6385 55.4276 0.0000 -1.2503 0.0000
# 4 0.0000 0.0000 0.0000 18.7372 0.0000 -6.6305
# 5 -1.9146 -1.4437 -1.2503 0.0000 37.1891 0.0000
# 6 0.0000 0.0000 0.0000 -6.6305 0.0000 50.0042
#
#
#
# Elastic Compliance Matrix: (Units=1/GPa)
#
#
# Indices 1 2 3 4 5 6 
#
# 1 0.006661 -0.004343 -0.002871 0.000000 0.000078 0.000000
# 2 -0.004343 0.017201 0.002050 0.000000 0.000513 0.000000
# 3 -0.002871 0.002050 0.019295 0.000000 0.000580 0.000000
# 4 0.000000 0.000000 0.000000 0.055997 0.000000 0.007425
# 5 0.000078 0.000513 0.000580 0.000000 0.026933 0.000000
# 6 0.000000 0.000000 0.000000 0.007425 0.000000 0.020983
#
#
# Mechanical properties :
#
#
# Convention : Reuss Voigt Hill
#
# Bulk Modulus (GPa) = 30.46092 50.09076 40.27584
# Shear Modulus (GPa) = 29.70195 37.63942 33.67068
#
# Velocity S-wave (km/s) = 3.56966 4.01842 3.80067
# Velocity P-wave (km/s) = 5.48252 6.55895 6.04474
#
# Compressibility (1/GPa) = 0.03282895
#
# Stress axis : x y z
#
# Youngs Moduli (GPa) = 150.13285 58.13764 51.82788
#
# Poissons Ratio (x) = 0.25248 0.14878
# Poissons Ratio (y) = 0.65199 -0.10624
# Poissons Ratio (z) = 0.43098 -0.11917
#
# Static dielectric constant tensor:
#      x y z
#    x 1.813150 0.000000 -0.026230 
#    y 0.000000 1.905550 0.000000 
#    z -0.026230 0.000000 1.831150 
# 
# From -- ./inp_files/15909.got.cif
#   From: 2010.05.17/outbox.cif.g08.bks.cpg/sg14_8_cif.got.tgz:15909.got - 2010.06.03 17:49:19.
