data_PCOD9244863
_publ_section_title
;
Structure prediction by ZEFSAII (Michael W. Deem and Ramdas Pophale) SiO2 
 PCOD9244863
Probable space group: P 21/C
;
_chemical_formula_sum "Si O2"
_cell_formula_units_Z 28
_cell_length_a 16.525707
_cell_length_b 16.489493
_cell_length_c 6.924265
_cell_angle_alpha 90.000000
_cell_angle_beta 39.797763
_cell_angle_gamma 90.000000
_cell_volume 1207.744553
_symmetry_space_group_name_H-M "P 21/C"
_symmetry_group_IT_number 14
_symmetry_cell_setting 'monoclinic'
loop_
_space_group_symop_operation_xyz
x,y,z
-x,1/2+y,1/2-z
-x,-y,-z
x,1/2-y,1/2+z
loop_
_atom_site_type_symbol
_atom_site_label
_atom_site_fract_x
_atom_site_fract_y
_atom_site_fract_z
Si Si1 0.535767 0.384390 0.958316
Si Si2 0.293930 0.045711 0.839913
Si Si3 0.535774 0.905472 0.961680
Si Si4 0.271355 0.637211 0.865083
Si Si5 0.060531 0.953991 0.206160
Si Si6 0.774053 0.191755 0.116707
Si Si7 0.201787 0.450356 0.933072
O O1 0.404918 0.391630 0.080427
O O2 0.489962 0.384514 0.265892
O O3 0.621420 0.465115 0.773585
O O4 0.641047 0.315312 0.745653
O O5 0.177121 0.012446 0.927488
O O6 0.232237 0.073177 0.154065
O O7 0.687056 0.904013 0.654973
O O8 0.423301 0.861013 0.052951
O O9 0.500000 0.000000 0.000000
O O10 0.199386 0.713762 0.907016
O O11 0.224821 0.547434 0.900668
O O12 0.248997 0.651698 0.132840
O O13 0.121021 0.868456 0.159478
O O14 0.000000 0.000000 0.500000
O O15 0.947038 0.936634 0.265962
#
# Coordination Sequence:
#
# PCOD9244863 Si02
#       7
#     4   4   4   4   4   4   4
#     4   8  14  26  45  71 101 126 164 214 250 298
#     4   8  14  26  48  76  99 128 170 213 255 302
#     4   8  15  30  48  73  95 132 170 214 258 308
#     4  10  21  33  54  77 106 136 176 227 276 319
#     4   9  18  31  53  79 104 142 181 217 263 321
#     4  10  21  33  51  78 107 138 178 221 273 323
#     4   9  17  31  54  73 102 137 177 217 263 314
#
# _framework density 23.183712
#
# number of rings (size 3 to 8) (size 9 to 14) (size 15 to 20)
#    0.000    3.143    0.000    0.000    6.000    0.571 
#    0.000    0.000    3.143    1.714    0.000    0.000 
#    0.000    0.000    0.000    0.000    0.000    0.000 
#
# Total GULP energy -155993.475784 kJ/mol
# GULP energy per Si atom -5571.195564 kJ/mol
# Density = 2.313094 g / cm^3
# Si number density = 23.183712 Si / 1000 Ang^3
#
#
#
# Elastic Constant Matrix: (Units=GPa)
#
#
# Indices 1 2 3 4 5 6 
#
# 1 103.9076 16.2935 35.6011 0.0000 -36.7383 0.0000
# 2 16.2935 80.8416 24.2724 0.0000 -11.3938 0.0000
# 3 35.6011 24.2724 95.8944 0.0000 -26.9101 0.0000
# 4 0.0000 0.0000 0.0000 25.5572 0.0000 -1.9673
# 5 -36.7383 -11.3938 -26.9101 0.0000 55.1492 0.0000
# 6 0.0000 0.0000 0.0000 -1.9673 0.0000 28.5330
#
#
#
# Elastic Compliance Matrix: (Units=1/GPa)
#
#
# Indices 1 2 3 4 5 6 
#
# 1 0.013269 -0.000841 -0.002644 0.000000 0.007376 0.000000
# 2 -0.000841 0.013520 -0.002877 0.000000 0.000829 0.000000
# 3 -0.002644 -0.002877 0.013298 0.000000 0.004133 0.000000
# 4 0.000000 0.000000 0.000000 0.039337 0.000000 0.002712
# 5 0.007376 0.000829 0.004133 0.000000 0.025234 0.000000
# 6 0.000000 0.000000 0.000000 0.002712 0.000000 0.035234
#
#
# Mechanical properties :
#
#
# Convention : Reuss Voigt Hill
#
# Bulk Modulus (GPa) = 36.54533 48.10863 42.32698
# Shear Modulus (GPa) = 30.91430 35.47965 33.19698
#
# Velocity S-wave (km/s) = 3.65560 3.91624 3.78816
# Velocity P-wave (km/s) = 5.79789 6.42225 6.11804
#
# Compressibility (1/GPa) = 0.02736328
#
# Stress axis : x y z
#
# Youngs Moduli (GPa) = 75.36104 73.96381 75.20102
#
# Poissons Ratio (x) = 0.06222 0.19880
# Poissons Ratio (y) = 0.06339 0.21637
# Poissons Ratio (z) = 0.19922 0.21281
#
# Static dielectric constant tensor:
#      x y z
#    x 2.097030 0.000000 0.033210 
#    y 0.000000 1.886970 0.000000 
#    z 0.033210 0.000000 1.950010 
# 
# From -- ./inp_files/19158.got.cif
#   From: 2010.05.17/outbox.cif.g08.bks.cpg/sg14_10_cif.got.tgz:19158.got - 2010.06.03 17:49:19.
