data_PCOD9244107
_publ_section_title
;
Structure prediction by ZEFSAII (Michael W. Deem and Ramdas Pophale) SiO2 
 PCOD9244107
Probable space group: P 21/C
;
_chemical_formula_sum "Si O2"
_cell_formula_units_Z 32
_cell_length_a 24.298030
_cell_length_b 5.377341
_cell_length_c 14.020764
_cell_angle_alpha 90.000000
_cell_angle_beta 46.182788
_cell_angle_gamma 90.000000
_cell_volume 1321.837654
_symmetry_space_group_name_H-M "P 21/C"
_symmetry_group_IT_number 14
_symmetry_cell_setting 'monoclinic'
loop_
_space_group_symop_operation_xyz
x,y,z
-x,1/2+y,1/2-z
-x,-y,-z
x,1/2-y,1/2+z
loop_
_atom_site_type_symbol
_atom_site_label
_atom_site_fract_x
_atom_site_fract_y
_atom_site_fract_z
Si Si1 0.420504 0.715225 0.553153
Si Si2 0.386460 0.314645 0.443159
Si Si3 0.465686 0.561625 0.186806
Si Si4 0.819069 0.217359 0.018391
Si Si5 0.743148 0.289215 0.794924
Si Si6 0.756996 0.595654 0.446402
Si Si7 0.017057 0.007552 0.171779
Si Si8 0.865314 0.967203 0.273626
O O1 0.399010 0.453861 0.529440
O O2 0.435883 0.737689 0.646529
O O3 0.343281 0.877169 0.624357
O O4 0.497781 0.829354 0.415067
O O5 0.400943 0.510824 0.340631
O O6 0.459273 0.142063 0.346307
O O7 0.306331 0.198972 0.504678
O O8 0.837580 0.389450 0.904161
O O9 0.898149 0.085025 0.952404
O O10 0.761511 0.008881 0.046319
O O11 0.776721 0.337993 0.158712
O O12 0.812810 0.461073 0.747209
O O13 0.735873 0.102427 0.891618
O O14 0.842415 0.683788 0.321184
O O15 0.954935 0.010999 0.161558
O O16 0.985652 0.783586 0.278733
#
# Coordination Sequence:
#
# PCOD9244107 Si02
#       8
#     4   4   4   4   4   4   4   4
#     4  10  22  39  56  82 121 153 196 260 304 366
#     4  11  21  37  59  85 115 154 205 248 311 374
#     4  11  21  37  59  84 112 155 200 249 312 371
#     4  10  21  39  62  90 123 162 208 251 323 379
#     4  10  22  39  59  88 122 159 207 257 313 379
#     4  10  21  39  59  86 122 161 202 260 313 374
#     4  10  20  39  68  95 132 175 214 269 324 386
#     4  10  21  39  62  88 123 161 206 260 313 377
#
# _framework density 24.208724
#
# number of rings (size 3 to 8) (size 9 to 14) (size 15 to 20)
#    0.000    1.750    2.500    1.875    0.000    1.500 
#    2.250    3.125    0.000    0.000    0.000    0.000 
#    0.000    0.000    0.000    0.000    0.000    0.000 
#
# Total GULP energy -178343.103587 kJ/mol
# GULP energy per Si atom -5573.221987 kJ/mol
# Density = 2.415362 g / cm^3
# Si number density = 24.208724 Si / 1000 Ang^3
#
#
#
# Elastic Constant Matrix: (Units=GPa)
#
#
# Indices 1 2 3 4 5 6 
#
# 1 148.5915 3.4251 33.5006 0.0000 -30.6771 0.0000
# 2 3.4251 38.3450 -3.5870 0.0000 0.8331 0.0000
# 3 33.5006 -3.5870 88.2057 0.0000 10.3482 0.0000
# 4 0.0000 0.0000 0.0000 15.0077 0.0000 -9.7745
# 5 -30.6771 0.8331 10.3482 0.0000 33.4007 0.0000
# 6 0.0000 0.0000 0.0000 -9.7745 0.0000 35.1605
#
#
#
# Elastic Compliance Matrix: (Units=1/GPa)
#
#
# Indices 1 2 3 4 5 6 
#
# 1 0.010238 -0.001647 -0.005255 0.000000 0.011073 0.000000
# 2 -0.001647 0.026477 0.002031 0.000000 -0.002802 0.000000
# 3 -0.005255 0.002031 0.014515 0.000000 -0.009374 0.000000
# 4 0.000000 0.000000 0.000000 0.081365 0.000000 0.022619
# 5 0.011073 -0.002802 -0.009374 0.000000 0.043083 0.000000
# 6 0.000000 0.000000 0.000000 0.022619 0.000000 0.034729
#
#
# Mechanical properties :
#
#
# Convention : Reuss Voigt Hill
#
# Bulk Modulus (GPa) = 24.10228 37.97995 31.04111
# Shear Modulus (GPa) = 21.36952 32.83402 27.10177
#
# Velocity S-wave (km/s) = 2.97428 3.68678 3.34953
# Velocity P-wave (km/s) = 4.66613 5.81771 5.27345
#
# Compressibility (1/GPa) = 0.04148986
#
# Stress axis : x y z
#
# Youngs Moduli (GPa) = 97.67099 37.76865 68.89355
#
# Poissons Ratio (x) = 0.06219 0.36201
# Poissons Ratio (y) = 0.16083 -0.13991
# Poissons Ratio (z) = 0.51322 -0.07670
#
# Static dielectric constant tensor:
#      x y z
#    x 1.984640 0.000000 -0.049720 
#    y 0.000000 2.083340 0.000000 
#    z -0.049720 0.000000 1.958360 
# 
# From -- ./inp_files/50997.got.cif
#   From: 2010.05.17/outbox.cif.g08.bks.cpg/sg14_26_cif.got.tgz:50997.got - 2010.06.03 17:49:19.
