data_PCOD9244654
_publ_section_title
;
Structure prediction by ZEFSAII (Michael W. Deem and Ramdas Pophale) SiO2 
 PCOD9244654
Probable space group: P 21/C
;
_chemical_formula_sum "Si O2"
_cell_formula_units_Z 32
_cell_length_a 16.466745
_cell_length_b 15.217948
_cell_length_c 11.097665
_cell_angle_alpha 90.000000
_cell_angle_beta 30.426261
_cell_angle_gamma 90.000000
_cell_volume 1408.361242
_symmetry_space_group_name_H-M "P 21/C"
_symmetry_group_IT_number 14
_symmetry_cell_setting 'monoclinic'
loop_
_space_group_symop_operation_xyz
x,y,z
-x,1/2+y,1/2-z
-x,-y,-z
x,1/2-y,1/2+z
loop_
_atom_site_type_symbol
_atom_site_label
_atom_site_fract_x
_atom_site_fract_y
_atom_site_fract_z
Si Si1 0.380978 0.327470 0.979905
Si Si2 0.090788 0.328576 0.515608
Si Si3 0.332434 0.004047 0.141888
Si Si4 0.899144 0.166443 0.024939
Si Si5 0.576916 0.405921 0.915666
Si Si6 0.197688 0.355285 0.986879
Si Si7 0.804374 0.146470 0.541244
Si Si8 0.520137 0.637052 0.703228
O O1 0.242892 0.364765 0.246019
O O2 0.346196 0.359534 0.889924
O O3 0.544138 0.357044 0.832254
O O4 0.384079 0.221637 0.968740
O O5 0.165028 0.243391 0.484834
O O6 0.968794 0.303856 0.564052
O O7 0.974283 0.378094 0.759282
O O8 0.225829 0.077728 0.344478
O O9 0.242270 0.913092 0.283580
O O10 0.384461 0.047305 0.949297
O O11 0.500000 0.000000 0.000000
O O12 0.762519 0.094365 0.209997
O O13 0.828556 0.253196 0.051443
O O14 0.041995 0.125478 0.765185
O O15 0.500000 0.500000 0.000000
O O16 0.500573 0.355586 0.127504
O O17 0.653774 0.136593 0.641329
#
# Coordination Sequence:
#
# PCOD9244654 Si02
#       8
#     4   4   4   4   4   4   4   4
#     4  11  23  40  72  95 137 180 231 289 347 422
#     4  10  20  42  67  95 135 177 235 277 347 427
#     4  10  23  40  66  99 136 172 230 288 350 413
#     4  10  22  43  68  99 136 185 228 285 353 432
#     4  12  27  44  66 106 143 183 239 294 357 420
#     4  10  22  41  68 100 129 178 230 284 351 413
#     4  10  21  40  67  94 134 182 225 284 352 419
#     4  11  22  42  65 100 139 177 232 285 352 423
#
# _framework density 22.721442
#
# number of rings (size 3 to 8) (size 9 to 14) (size 15 to 20)
#    0.000    1.500    3.750    0.750    3.500    1.000 
#    4.500    3.125    0.000    0.000    0.000    0.000 
#    0.000    0.000    0.000    0.000    0.000    0.000 
#
# Total GULP energy -178625.356278 kJ/mol
# GULP energy per Si atom -5582.042384 kJ/mol
# Density = 2.266973 g / cm^3
# Si number density = 22.721442 Si / 1000 Ang^3
#
#
#
# Elastic Constant Matrix: (Units=GPa)
#
#
# Indices 1 2 3 4 5 6 
#
# 1 85.3255 -0.3700 -2.6010 0.0000 -8.4371 0.0000
# 2 -0.3700 46.1163 1.5919 0.0000 -10.3744 0.0000
# 3 -2.6010 1.5919 59.4487 0.0000 -0.1425 0.0000
# 4 0.0000 0.0000 0.0000 28.2337 0.0000 2.6031
# 5 -8.4371 -10.3744 -0.1425 0.0000 15.2235 0.0000
# 6 0.0000 0.0000 0.0000 2.6031 0.0000 21.9397
#
#
#
# Elastic Compliance Matrix: (Units=1/GPa)
#
#
# Indices 1 2 3 4 5 6 
#
# 1 0.012564 0.001949 0.000517 0.000000 0.008297 0.000000
# 2 0.001949 0.025938 -0.000564 0.000000 0.018751 0.000000
# 3 0.000517 -0.000564 0.016859 0.000000 0.000060 0.000000
# 4 0.000000 0.000000 0.000000 0.035810 0.000000 -0.004249
# 5 0.008297 0.018751 0.000060 0.000000 0.083065 0.000000
# 6 0.000000 0.000000 0.000000 -0.004249 0.000000 0.046084
#
#
# Mechanical properties :
#
#
# Convention : Reuss Voigt Hill
#
# Bulk Modulus (GPa) = 16.90157 20.90359 18.90258
# Shear Modulus (GPa) = 21.16518 25.89735 23.53127
#
# Velocity S-wave (km/s) = 3.05537 3.37972 3.22163
# Velocity P-wave (km/s) = 4.46114 4.94469 4.70913
#
# Compressibility (1/GPa) = 0.05916611
#
# Stress axis : x y z
#
# Youngs Moduli (GPa) = 79.58975 38.55402 59.31506
#
# Poissons Ratio (x) = -0.07516 -0.03069
# Poissons Ratio (y) = -0.15515 0.03347
# Poissons Ratio (z) = -0.04118 0.02176
#
# Static dielectric constant tensor:
#      x y z
#    x 1.834230 0.000000 0.013270 
#    y 0.000000 1.834700 0.000000 
#    z 0.013270 0.000000 1.891760 
# 
# From -- ./inp_files/34220.got.cif
#   From: 2010.05.17/outbox.cif.g08.bks.cpg/sg14_18_cif.got.tgz:34220.got - 2010.06.03 17:49:19.
