data_PCOD9244511
_publ_section_title
;
Structure prediction by ZEFSAII (Michael W. Deem and Ramdas Pophale) SiO2 
 PCOD9244511
Probable space group: P 21/C
;
_chemical_formula_sum "Si O2"
_cell_formula_units_Z 20
_cell_length_a 19.044681
_cell_length_b 8.968941
_cell_length_c 14.737364
_cell_angle_alpha 90.000000
_cell_angle_beta 159.875157
_cell_angle_gamma 90.000000
_cell_volume 866.118882
_symmetry_space_group_name_H-M "P 21/C"
_symmetry_group_IT_number 14
_symmetry_cell_setting 'monoclinic'
loop_
_space_group_symop_operation_xyz
x,y,z
-x,1/2+y,1/2-z
-x,-y,-z
x,1/2-y,1/2+z
loop_
_atom_site_type_symbol
_atom_site_label
_atom_site_fract_x
_atom_site_fract_y
_atom_site_fract_z
Si Si1 0.355801 0.134550 0.855189
Si Si2 0.872146 0.638132 0.538933
Si Si3 0.134412 0.303776 0.264228
Si Si4 0.807775 0.474175 0.195302
Si Si5 0.300003 0.845409 0.266030
O O1 0.209166 0.205324 0.600086
O O2 0.226359 0.111207 0.789529
O O3 0.517327 0.267967 0.063842
O O4 0.500000 0.000000 0.000000
O O5 0.846592 0.626292 0.614526
O O6 0.761018 0.496011 0.359402
O O7 0.102821 0.617681 0.780327
O O8 0.242839 0.140495 0.396329
O O9 0.893965 0.265310 0.963594
O O10 0.652272 0.387393 0.071032
O O11 0.000000 0.500000 0.500000
#
# Coordination Sequence:
#
# PCOD9244511 Si02
#       5
#     4   4   4   4   4
#     4  12  25  40  59  96 131 164 207 266 315 366
#     4  10  20  41  67  91 122 164 214 257 312 383
#     4  10  21  41  64  96 124 154 218 262 303 377
#     4   8  16  39  67  82 115 171 202 244 309 374
#     4  10  21  44  69  80 124 183 204 248 326 373
#
# _framework density 23.091518000000001
#
# number of rings (size 3 to 8) (size 9 to 14) (size 15 to 20)
#    0.000    2.400    6.000    0.600    0.000    5.600 
#   10.800    0.000    0.000    0.000    0.000    0.000 
#    0.000    0.000    0.000    0.000    0.000    0.000 
#
# Total GULP energy -111614.311955 kJ/mol
# GULP energy per Si atom -5580.715598 kJ/mol
# Density = 2.303896 g / cm^3
# Si number density = 23.091518 Si / 1000 Ang^3
#
#
#
# Elastic Constant Matrix: (Units=GPa)
#
#
# Indices 1 2 3 4 5 6 
#
# 1 170.9892 28.8793 37.1490 0.0000 18.2497 0.0000
# 2 28.8793 64.2235 11.5153 0.0000 1.7210 0.0000
# 3 37.1490 11.5153 27.1741 0.0000 20.4140 0.0000
# 4 0.0000 0.0000 0.0000 27.4868 0.0000 14.6759
# 5 18.2497 1.7210 20.4140 0.0000 24.9840 0.0000
# 6 0.0000 0.0000 0.0000 14.6759 0.0000 41.0534
#
#
#
# Elastic Compliance Matrix: (Units=1/GPa)
#
#
# Indices 1 2 3 4 5 6 
#
# 1 0.009105 -0.001038 -0.018293 0.000000 0.008368 0.000000
# 2 -0.001038 0.018512 -0.015632 0.000000 0.012256 0.000000
# 3 -0.018293 -0.015632 0.149113 0.000000 -0.107399 0.000000
# 4 0.000000 0.000000 0.000000 0.044963 0.000000 -0.016074
# 5 0.008368 0.012256 -0.107399 0.000000 0.120822 0.000000
# 6 0.000000 0.000000 0.000000 -0.016074 0.000000 0.030105
#
#
# Mechanical properties :
#
#
# Convention : Reuss Voigt Hill
#
# Bulk Modulus (GPa) = 9.36307 46.38599 27.87453
# Shear Modulus (GPa) = 10.45699 31.02771 20.74235
#
# Velocity S-wave (km/s) = 2.13034 3.66961 3.00036
# Velocity P-wave (km/s) = 3.18036 6.17140 4.90922
#
# Compressibility (1/GPa) = 0.10680257
#
# Stress axis : x y z
#
# Youngs Moduli (GPa) = 109.82956 54.01911 6.70631
#
# Poissons Ratio (x) = 0.05610 0.12268
# Poissons Ratio (y) = 0.11406 0.10483
# Poissons Ratio (z) = 2.00916 0.84443
#
# Static dielectric constant tensor:
#      x y z
#    x 1.893370 0.000000 0.038890 
#    y 0.000000 1.917140 0.000000 
#    z 0.038890 0.000000 1.966640 
# 
# From -- ./inp_files/48324.got.cif
#   From: 2010.05.17/outbox.cif.g08.bks.cpg/sg14_25_cif.got.tgz:48324.got - 2010.06.03 17:49:19.
