data_PCOD9244901
_publ_section_title
;
Structure prediction by ZEFSAII (Michael W. Deem and Ramdas Pophale) SiO2 
 PCOD9244901
Probable space group: P 21/C
;
_chemical_formula_sum "Si O2"
_cell_formula_units_Z 20
_cell_length_a 4.830631
_cell_length_b 5.077528
_cell_length_c 28.493419
_cell_angle_alpha 90.000000
_cell_angle_beta 100.264654
_cell_angle_gamma 90.000000
_cell_volume 687.691593
_symmetry_space_group_name_H-M "P 21/C"
_symmetry_group_IT_number 14
_symmetry_cell_setting 'monoclinic'
loop_
_space_group_symop_operation_xyz
x,y,z
-x,1/2+y,1/2-z
-x,-y,-z
x,1/2-y,1/2+z
loop_
_atom_site_type_symbol
_atom_site_label
_atom_site_fract_x
_atom_site_fract_y
_atom_site_fract_z
Si Si1 0.528027 0.824003 0.691334
Si Si2 0.054612 0.448503 0.124460
Si Si3 0.344933 0.271110 0.439483
Si Si4 0.795876 0.688932 0.284678
Si Si5 0.735810 0.737703 0.959589
O O1 0.374467 0.946579 0.640732
O O2 0.354055 0.554112 0.693018
O O3 0.832736 0.803743 0.728253
O O4 0.416419 0.063477 0.720133
O O5 0.976486 0.285665 0.169191
O O6 0.042364 0.287387 0.075834
O O7 0.859122 0.698818 0.109459
O O8 0.174499 0.285113 0.483915
O O9 0.524667 0.531343 0.439184
O O10 0.565046 0.035017 0.454232
#
# Coordination Sequence:
#
# PCOD9244901 Si02
#       5
#     4   4   4   4   4
#     4   8  16  29  50  83 107 139 190 233 281 348
#     4  10  21  34  66  78 112 160 193 226 312 360
#     4  10  23  39  55  84 118 147 195 250 289 348
#     4   8  16  29  50  83 107 139 190 233 281 348
#     4  10  23  39  55  84 118 147 195 250 289 348
#
# _framework density 29.082802999999998
#
# number of rings (size 3 to 8) (size 9 to 14) (size 15 to 20)
#    1.200    1.600    0.000    0.600    5.600    0.000 
#    0.000    6.000    0.000    4.800    0.000    0.000 
#    0.000    0.000    0.000    0.000    0.000    0.000 
#
# Total GULP energy -111434.743793 kJ/mol
# GULP energy per Si atom -5571.737190 kJ/mol
# Density = 2.901661 g / cm^3
# Si number density = 29.082803 Si / 1000 Ang^3
#
#
#
# Elastic Constant Matrix: (Units=GPa)
#
#
# Indices 1 2 3 4 5 6 
#
# 1 78.0430 15.6182 23.0712 0.0000 10.9507 0.0000
# 2 15.6182 148.1343 -4.9812 0.0000 -6.0996 0.0000
# 3 23.0712 -4.9812 75.3704 0.0000 6.9889 0.0000
# 4 0.0000 0.0000 0.0000 -263.4977 0.0000 -191.5041
# 5 10.9507 -6.0996 6.9889 0.0000 36.6729 0.0000
# 6 0.0000 0.0000 0.0000 -191.5041 0.0000 -101.6086
#
#
#
# Elastic Compliance Matrix: (Units=1/GPa)
#
#
# Indices 1 2 3 4 5 6 
#
# 1 0.015040 -0.001896 -0.004360 0.000000 -0.003975 0.000000
# 2 -0.001896 0.007045 0.000901 0.000000 0.001566 0.000000
# 3 -0.004360 0.000901 0.014789 0.000000 -0.001367 0.000000
# 4 0.000000 0.000000 0.000000 0.010263 0.000000 -0.019343
# 5 -0.003975 0.001566 -0.001367 0.000000 0.028976 0.000000
# 6 0.000000 0.000000 0.000000 -0.019343 0.000000 0.026615
#
#
# Mechanical properties :
#
#
# Convention : Reuss Voigt Hill
#
# Bulk Modulus (GPa) = 38.22258 40.99599 39.60928
# Shear Modulus (GPa) = 40.92969 -47.83071 -3.45051
#
# Velocity S-wave (km/s) = 3.75554 -4.05981 -1.09042
# Velocity P-wave (km/s) = 5.65479 2.80165 3.47328
#
# Compressibility (1/GPa) = 0.02616255
#
# Stress axis : x y z
#
# Youngs Moduli (GPa) = 66.49065 141.93828 67.61876
#
# Poissons Ratio (x) = 0.26911 0.29484
# Poissons Ratio (y) = 0.12607 -0.06091
# Poissons Ratio (z) = 0.28993 -0.12785
#
# Static dielectric constant tensor:
#      x y z
#    x 2.176630 0.000000 -0.118480 
#    y 0.000000 2.345910 0.000000 
#    z -0.118480 0.000000 2.477040 
# 
# From -- ./inp_files/78557.got.cif
#   From: 2010.05.17/outbox.cif.g08.bks.cpg/sg14_40_cif.got.tgz:78557.got - 2010.06.03 17:49:19.
