data_PCOD9244810
_publ_section_title
;
Structure prediction by ZEFSAII (Michael W. Deem and Ramdas Pophale) SiO2 
 PCOD9244810
Probable space group: P 21/C
;
_chemical_formula_sum "Si O2"
_cell_formula_units_Z 32
_cell_length_a 13.876449
_cell_length_b 21.410935
_cell_length_c 9.205550
_cell_angle_alpha 90.000000
_cell_angle_beta 148.071303
_cell_angle_gamma 90.000000
_cell_volume 1446.462897
_symmetry_space_group_name_H-M "P 21/C"
_symmetry_group_IT_number 14
_symmetry_cell_setting 'monoclinic'
loop_
_space_group_symop_operation_xyz
x,y,z
-x,1/2+y,1/2-z
-x,-y,-z
x,1/2-y,1/2+z
loop_
_atom_site_type_symbol
_atom_site_label
_atom_site_fract_x
_atom_site_fract_y
_atom_site_fract_z
Si Si1 0.279691 0.139866 0.438144
Si Si2 0.462872 0.230751 0.261799
Si Si3 0.567720 0.409554 0.515353
Si Si4 0.293890 0.789283 0.155648
Si Si5 0.783617 0.879313 0.982707
Si Si6 0.895623 0.316937 0.964065
Si Si7 0.754720 0.961675 0.203587
Si Si8 0.024219 0.879202 0.717955
O O1 0.336677 0.210063 0.560807
O O2 0.257527 0.125262 0.240242
O O3 0.100775 0.124385 0.301199
O O4 0.443300 0.099161 0.714742
O O5 0.642407 0.247282 0.398593
O O6 0.344126 0.168982 0.090449
O O7 0.538713 0.218949 0.520453
O O8 0.418262 0.424135 0.447777
O O9 0.703430 0.467365 0.670058
O O10 0.695997 0.349519 0.702706
O O11 0.126273 0.753816 0.016224
O O12 0.227100 0.859166 0.031845
O O13 0.766671 0.943913 0.049116
O O14 0.986525 0.854073 0.268550
O O15 0.990929 0.326955 0.929801
O O16 0.938457 0.938391 0.521301
#
# Coordination Sequence:
#
# PCOD9244810 Si02
#       8
#     4   4   4   4   4   4   4   4
#     4  11  23  41  60  89 129 163 206 258 313 371
#     4  12  24  38  62  90 127 169 203 255 314 376
#     4  10  20  44  72  89 120 165 216 254 307 384
#     4  12  22  38  61  92 125 164 209 253 310 380
#     4  11  25  38  60  94 129 161 204 262 317 363
#     4  11  23  39  62  93 123 162 208 254 309 375
#     4   9  22  43  69  91 121 167 211 256 314 375
#     4  10  23  38  58  91 127 161 203 257 309 366
#
# _framework density 22.122931000000001
#
# number of rings (size 3 to 8) (size 9 to 14) (size 15 to 20)
#    0.000    1.250    3.750    1.500    5.250    5.500 
#    0.000    0.000    2.750    3.000    0.000    0.000 
#    0.000    0.000    0.000    0.000    0.000    0.000 
#
# Total GULP energy -178403.394918 kJ/mol
# GULP energy per Si atom -5575.106091 kJ/mol
# Density = 2.207258 g / cm^3
# Si number density = 22.122931 Si / 1000 Ang^3
#
#
#
# Elastic Constant Matrix: (Units=GPa)
#
#
# Indices 1 2 3 4 5 6 
#
# 1 102.2198 16.9030 44.4325 0.0000 -1.4931 0.0000
# 2 16.9030 48.9912 14.0966 0.0000 -4.6988 0.0000
# 3 44.4325 14.0966 109.1807 0.0000 -17.7010 0.0000
# 4 0.0000 0.0000 0.0000 36.8168 0.0000 6.0008
# 5 -1.4931 -4.6988 -17.7010 0.0000 34.0910 0.0000
# 6 0.0000 0.0000 0.0000 6.0008 0.0000 18.2602
#
#
#
# Elastic Compliance Matrix: (Units=1/GPa)
#
#
# Indices 1 2 3 4 5 6 
#
# 1 0.012465 -0.003079 -0.005083 0.000000 -0.002518 0.000000
# 2 -0.003079 0.022044 -0.001225 0.000000 0.002267 0.000000
# 3 -0.005083 -0.001225 0.012363 0.000000 0.006028 0.000000
# 4 0.000000 0.000000 0.000000 0.028699 0.000000 -0.009431
# 5 -0.002518 0.002267 0.006028 0.000000 0.032665 0.000000
# 6 0.000000 0.000000 0.000000 -0.009431 0.000000 0.057863
#
#
# Mechanical properties :
#
#
# Convention : Reuss Voigt Hill
#
# Bulk Modulus (GPa) = 35.59211 45.69512 40.64361
# Shear Modulus (GPa) = 25.74111 30.16424 27.95268
#
# Velocity S-wave (km/s) = 3.41478 3.69654 3.55845
# Velocity P-wave (km/s) = 5.62769 6.23852 5.94096
#
# Compressibility (1/GPa) = 0.02809611
#
# Stress axis : x y z
#
# Youngs Moduli (GPa) = 80.22516 45.36310 80.88415
#
# Poissons Ratio (x) = 0.13970 0.41117
# Poissons Ratio (y) = 0.24705 0.09911
# Poissons Ratio (z) = 0.40782 0.05559
#
# Static dielectric constant tensor:
#      x y z
#    x 1.838910 0.000000 0.003070 
#    y 0.000000 1.824070 0.000000 
#    z 0.003070 0.000000 1.880210 
# 
# From -- ./inp_files/17039.got.cif
#   From: 2010.05.17/outbox.cif.g08.bks.cpg/sg14_9_cif.got.tgz:17039.got - 2010.06.03 17:49:19.
