data_PCOD9244179
_publ_section_title
;
Structure prediction by ZEFSAII (Michael W. Deem and Ramdas Pophale) SiO2 
 PCOD9244179
Probable space group: P 21/C
;
_chemical_formula_sum "Si O2"
_cell_formula_units_Z 24
_cell_length_a 7.968185
_cell_length_b 8.945659
_cell_length_c 24.084806
_cell_angle_alpha 90.000000
_cell_angle_beta 144.782930
_cell_angle_gamma 90.000000
_cell_volume 990.025960
_symmetry_space_group_name_H-M "P 21/C"
_symmetry_group_IT_number 14
_symmetry_cell_setting 'monoclinic'
loop_
_space_group_symop_operation_xyz
x,y,z
-x,1/2+y,1/2-z
-x,-y,-z
x,1/2-y,1/2+z
loop_
_atom_site_type_symbol
_atom_site_label
_atom_site_fract_x
_atom_site_fract_y
_atom_site_fract_z
Si Si1 0.162043 0.688082 0.709260
Si Si2 0.929787 0.260134 0.089534
Si Si3 0.023291 0.189188 0.491587
Si Si4 0.351955 0.688038 0.880775
Si Si5 0.733784 0.564811 0.507242
Si Si6 0.485815 0.899970 0.725286
O O1 0.156004 0.668203 0.773611
O O2 0.303164 0.847265 0.730121
O O3 0.386066 0.565587 0.744261
O O4 0.865304 0.652352 0.596689
O O5 0.769933 0.358366 0.092714
O O6 0.222861 0.199143 0.197146
O O7 0.759017 0.109531 0.024110
O O8 0.007291 0.335554 0.052424
O O9 0.733154 0.137267 0.383346
O O10 0.327483 0.127375 0.548533
O O11 0.066534 0.364190 0.487461
O O12 0.420277 0.865906 0.908244
#
# Coordination Sequence:
#
# PCOD9244179 Si02
#       6
#     4   4   4   4   4   4
#     4  10  20  40  61  89 120 163 202 246 301 359
#     4  11  19  37  60  86 121 159 201 239 303 363
#     4   9  20  35  58  86 114 154 197 245 295 349
#     4  10  21  34  60  87 120 150 202 251 298 344
#     4   8  19  36  58  84 119 158 199 245 290 358
#     4  10  21  40  63  86 123 162 203 246 302 360
#
# _framework density 24.241786000000001
#
# number of rings (size 3 to 8) (size 9 to 14) (size 15 to 20)
#    1.000    1.333    1.667    1.000    0.000    3.333 
#    0.000    4.167    0.000    0.000    0.000    0.000 
#    0.000    0.000    0.000    0.000    0.000    0.000 
#
# Total GULP energy -133895.798428 kJ/mol
# GULP energy per Si atom -5578.991601 kJ/mol
# Density = 2.418661 g / cm^3
# Si number density = 24.241786 Si / 1000 Ang^3
#
#
#
# Elastic Constant Matrix: (Units=GPa)
#
#
# Indices 1 2 3 4 5 6 
#
# 1 147.4998 27.5966 50.8997 0.0000 -37.4331 0.0000
# 2 27.5966 54.1446 -9.4032 0.0000 -2.6056 0.0000
# 3 50.8997 -9.4032 94.3012 0.0000 -19.0650 0.0000
# 4 0.0000 0.0000 0.0000 25.5230 0.0000 0.8220
# 5 -37.4331 -2.6056 -19.0650 0.0000 34.5833 0.0000
# 6 0.0000 0.0000 0.0000 0.8220 0.0000 14.3131
#
#
#
# Elastic Compliance Matrix: (Units=1/GPa)
#
#
# Indices 1 2 3 4 5 6 
#
# 1 0.012440 -0.006793 -0.005372 0.000000 0.009992 0.000000
# 2 -0.006793 0.022740 0.005395 0.000000 -0.002665 0.000000
# 3 -0.005372 0.005395 0.014573 0.000000 0.002626 0.000000
# 4 0.000000 0.000000 0.000000 0.039253 0.000000 -0.002254
# 5 0.009992 -0.002665 0.002626 0.000000 0.040978 0.000000
# 6 0.000000 0.000000 0.000000 -0.002254 0.000000 0.069996
#
#
# Mechanical properties :
#
#
# Convention : Reuss Voigt Hill
#
# Bulk Modulus (GPa) = 27.61377 48.23687 37.92532
# Shear Modulus (GPa) = 22.16422 30.00736 26.08579
#
# Velocity S-wave (km/s) = 3.02702 3.52211 3.28390
# Velocity P-wave (km/s) = 4.86136 6.04001 5.48245
#
# Compressibility (1/GPa) = 0.03621382
#
# Stress axis : x y z
#
# Youngs Moduli (GPa) = 80.38532 43.97573 68.62206
#
# Poissons Ratio (x) = 0.29871 0.36863
# Poissons Ratio (y) = 0.54602 -0.37022
# Poissons Ratio (z) = 0.43182 -0.23725
#
# Static dielectric constant tensor:
#      x y z
#    x 2.002400 0.000000 0.005730 
#    y 0.000000 1.971360 0.000000 
#    z 0.005730 0.000000 1.887910 
# 
# From -- ./inp_files/72230.got.cif
#   From: 2010.05.17/outbox.cif.g08.bks.cpg/sg14_37_cif.got.tgz:72230.got - 2010.06.03 17:49:19.
