data_PCOD9244650
_publ_section_title
;
Structure prediction by ZEFSAII (Michael W. Deem and Ramdas Pophale) SiO2 
 PCOD9244650
Probable space group: P 21/C
;
_chemical_formula_sum "Si O2"
_cell_formula_units_Z 20
_cell_length_a 12.456974
_cell_length_b 5.434856
_cell_length_c 25.134419
_cell_angle_alpha 90.000000
_cell_angle_beta 28.797755
_cell_angle_gamma 90.000000
_cell_volume 819.716224
_symmetry_space_group_name_H-M "P 21/C"
_symmetry_group_IT_number 14
_symmetry_cell_setting 'monoclinic'
loop_
_space_group_symop_operation_xyz
x,y,z
-x,1/2+y,1/2-z
-x,-y,-z
x,1/2-y,1/2+z
loop_
_atom_site_type_symbol
_atom_site_label
_atom_site_fract_x
_atom_site_fract_y
_atom_site_fract_z
Si Si1 0.387208 0.620268 0.672931
Si Si2 0.744072 0.759657 0.184337
Si Si3 0.324529 0.012516 0.389173
Si Si4 0.354751 0.750780 0.071959
Si Si5 0.156772 0.671825 0.550545
O O1 0.251417 0.433999 0.768585
O O2 0.477720 0.835894 0.669792
O O3 0.278159 0.724940 0.666426
O O4 0.619322 0.484864 0.555882
O O5 0.803184 0.665488 0.099717
O O6 0.934642 0.947304 0.122260
O O7 0.478085 0.808415 0.293659
O O8 0.191460 0.903526 0.496254
O O9 0.165409 0.759584 0.108898
O O10 0.500000 0.500000 0.000000
O O11 0.500000 0.000000 0.000000
#
# Coordination Sequence:
#
# PCOD9244650 Si02
#       5
#     4   4   4   4   4
#     4  10  22  41  62  90 128 169 206 272 330 379
#     4  11  23  40  59  97 127 168 218 268 325 396
#     4  11  21  40  62  86 133 163 207 273 326 379
#     4  10  20  42  67  92 129 169 217 273 329 386
#     4  10  23  40  65  91 121 171 221 258 328 398
#
# _framework density 24.398685
#
# number of rings (size 3 to 8) (size 9 to 14) (size 15 to 20)
#    0.000    1.600    4.000    0.600    0.000    2.400 
#    3.600    0.000    0.000    0.000    0.000    0.000 
#    0.000    0.000    0.000    0.000    0.000    0.000 
#
# Total GULP energy -111516.614916 kJ/mol
# GULP energy per Si atom -5575.830746 kJ/mol
# Density = 2.434315 g / cm^3
# Si number density = 24.398685 Si / 1000 Ang^3
#
#
#
# Elastic Constant Matrix: (Units=GPa)
#
#
# Indices 1 2 3 4 5 6 
#
# 1 188.6471 -13.6413 32.2953 0.0000 -4.9691 0.0000
# 2 -13.6413 28.8273 -5.6093 0.0000 -2.1882 0.0000
# 3 32.2953 -5.6093 54.5242 0.0000 -6.4594 0.0000
# 4 0.0000 0.0000 0.0000 -8.9167 0.0000 4.9507
# 5 -4.9691 -2.1882 -6.4594 0.0000 39.1741 0.0000
# 6 0.0000 0.0000 0.0000 4.9507 0.0000 28.5180
#
#
#
# Elastic Compliance Matrix: (Units=1/GPa)
#
#
# Indices 1 2 3 4 5 6 
#
# 1 0.006038 0.002240 -0.003305 0.000000 0.000346 0.000000
# 2 0.002240 0.036497 0.002757 0.000000 0.002777 0.000000
# 3 -0.003305 0.002757 0.020960 0.000000 0.003191 0.000000
# 4 0.000000 0.000000 0.000000 -0.102290 0.000000 0.017757
# 5 0.000346 0.002777 0.003191 0.000000 0.026252 0.000000
# 6 0.000000 0.000000 0.000000 0.017757 0.000000 0.031983
#
#
# Mechanical properties :
#
#
# Convention : Reuss Voigt Hill
#
# Bulk Modulus (GPa) = 14.95245 33.12089 24.03667
# Shear Modulus (GPa) = 130.38616 29.01867 79.70241
#
# Velocity S-wave (km/s) = 7.31819 3.45244 5.72168
# Velocity P-wave (km/s) = 8.80622 5.43110 7.31595
#
# Compressibility (1/GPa) = 0.06687866
#
# Stress axis : x y z
#
# Youngs Moduli (GPa) = 165.62387 27.39974 47.71098
#
# Poissons Ratio (x) = -0.06138 0.15767
# Poissons Ratio (y) = -0.37105 -0.13153
# Poissons Ratio (z) = 0.54735 -0.07553
#
# Static dielectric constant tensor:
#      x y z
#    x 1.941480 0.000000 0.052370 
#    y 0.000000 1.745190 0.000000 
#    z 0.052370 0.000000 2.338740 
# 
# From -- ./inp_files/33320.got.cif
#   From: 2010.05.17/outbox.cif.g08.bks.cpg/sg14_17_cif.got.tgz:33320.got - 2010.06.03 17:49:19.
