data_PCOD9244223
_publ_section_title
;
Structure prediction by ZEFSAII (Michael W. Deem and Ramdas Pophale) SiO2 
 PCOD9244223
Probable space group: P 21/C
;
_chemical_formula_sum "Si O2"
_cell_formula_units_Z 30
_cell_length_a 11.915921
_cell_length_b 17.462105
_cell_length_c 7.153098
_cell_angle_alpha 90.000000
_cell_angle_beta 117.976313
_cell_angle_gamma 90.000000
_cell_volume 1314.464103
_symmetry_space_group_name_H-M "P 21/C"
_symmetry_group_IT_number 14
_symmetry_cell_setting 'monoclinic'
loop_
_space_group_symop_operation_xyz
x,y,z
-x,1/2+y,1/2-z
-x,-y,-z
x,1/2-y,1/2+z
loop_
_atom_site_type_symbol
_atom_site_label
_atom_site_fract_x
_atom_site_fract_y
_atom_site_fract_z
Si Si1 0.500000 0.500000 0.000000
Si Si2 0.827935 0.312944 0.546890
Si Si3 0.421080 0.084539 0.161449
Si Si4 0.243179 0.494561 0.061115
Si Si5 0.891270 0.146558 0.674806
Si Si6 0.618642 0.072901 0.996212
Si Si7 0.898541 0.844031 0.615744
Si Si8 0.835081 0.825252 0.996336
O O1 0.498510 0.592821 0.088128
O O2 0.642175 0.517937 0.994658
O O3 0.824475 0.221244 0.534401
O O4 0.860259 0.345874 0.369699
O O5 0.699628 0.354193 0.507758
O O6 0.948824 0.333468 0.773686
O O7 0.498981 0.093117 0.031746
O O8 0.293493 0.131491 0.053003
O O9 0.412580 0.988631 0.194753
O O10 0.158798 0.566326 0.933165
O O11 0.157535 0.420030 0.013995
O O12 0.298998 0.518421 0.305277
O O13 0.043625 0.155348 0.779417
O O14 0.830263 0.766854 0.492959
O O15 0.868571 0.850023 0.812952
#
# Coordination Sequence:
#
# PCOD9244223 Si02
#       8
#     2   4   4   4   4   4   4   4
#     4  10  20  40  64  84 124 154 210 256 298 378
#     4  10  21  40  59  91 125 163 201 261 303 373
#     4  10  21  41  62  89 124 163 207 259 308 375
#     4  11  22  39  62  95 120 168 204 256 312 371
#     4  10  22  39  65  89 127 160 211 256 316 366
#     4  10  23  38  62  92 124 159 208 249 313 372
#     4  10  23  38  63  90 125 160 207 252 313 362
#     4  10  22  41  61  91 126 162 207 260 310 371
#
# _framework density 22.822990999999998
#
# number of rings (size 3 to 8) (size 9 to 14) (size 15 to 20)
#    0.000    1.867    1.333    1.600    3.733    2.667 
#    2.400    1.333    0.000    0.000    0.000    0.000 
#    0.000    0.000    0.000    0.000    0.000    0.000 
#
# Total GULP energy -167432.671446 kJ/mol
# GULP energy per Si atom -5581.089048 kJ/mol
# Density = 2.277105 g / cm^3
# Si number density = 22.822991 Si / 1000 Ang^3
#
#
#
# Elastic Constant Matrix: (Units=GPa)
#
#
# Indices 1 2 3 4 5 6 
#
# 1 121.0161 79.3470 25.6611 0.0000 2.4544 0.0000
# 2 79.3470 146.2618 46.5072 0.0000 25.1533 0.0000
# 3 25.6611 46.5072 72.7216 0.0000 -1.8044 0.0000
# 4 0.0000 0.0000 0.0000 31.2318 0.0000 18.0938
# 5 2.4544 25.1533 -1.8044 0.0000 31.2944 0.0000
# 6 0.0000 0.0000 0.0000 18.0938 0.0000 47.2929
#
#
#
# Elastic Compliance Matrix: (Units=1/GPa)
#
#
# Indices 1 2 3 4 5 6 
#
# 1 0.013683 -0.008748 0.000915 0.000000 0.006011 0.000000
# 2 -0.008748 0.016189 -0.007583 0.000000 -0.012763 0.000000
# 3 0.000915 -0.007583 0.018454 0.000000 0.007087 0.000000
# 4 0.000000 0.000000 0.000000 0.041136 0.000000 -0.015738
# 5 0.006011 -0.012763 0.007087 0.000000 0.042150 0.000000
# 6 0.000000 0.000000 0.000000 -0.015738 0.000000 0.027166
#
#
# Mechanical properties :
#
#
# Convention : Reuss Voigt Hill
#
# Bulk Modulus (GPa) = 57.16155 71.44778 64.30467
# Shear Modulus (GPa) = 25.58316 34.52944 30.05630
#
# Velocity S-wave (km/s) = 3.35167 3.89385 3.63289
# Velocity P-wave (km/s) = 6.33074 7.18257 6.77006
#
# Compressibility (1/GPa) = 0.01749428
#
# Stress axis : x y z
#
# Youngs Moduli (GPa) = 73.08305 61.77083 54.19022
#
# Poissons Ratio (x) = 0.54036 -0.04960
# Poissons Ratio (y) = 0.63931 0.41093
# Poissons Ratio (z) = -0.06689 0.46841
#
# Static dielectric constant tensor:
#      x y z
#    x 1.870670 0.000000 -0.040270 
#    y 0.000000 1.799710 0.000000 
#    z -0.040270 0.000000 2.099110 
# 
# From -- ./inp_files/13447.got.cif
#   From: 2010.05.17/outbox.cif.g08.bks.cpg/sg14_7_cif.got.tgz:13447.got - 2010.06.03 17:49:19.
