data_PCOD9244118
_publ_section_title
;
Structure prediction by ZEFSAII (Michael W. Deem and Ramdas Pophale) SiO2 
 PCOD9244118
Probable space group: P 21/C
;
_chemical_formula_sum "Si O2"
_cell_formula_units_Z 28
_cell_length_a 17.657531
_cell_length_b 5.875076
_cell_length_c 14.689633
_cell_angle_alpha 90.000000
_cell_angle_beta 51.320679
_cell_angle_gamma 90.000000
_cell_volume 1189.636070
_symmetry_space_group_name_H-M "P 21/C"
_symmetry_group_IT_number 14
_symmetry_cell_setting 'monoclinic'
loop_
_space_group_symop_operation_xyz
x,y,z
-x,1/2+y,1/2-z
-x,-y,-z
x,1/2-y,1/2+z
loop_
_atom_site_type_symbol
_atom_site_label
_atom_site_fract_x
_atom_site_fract_y
_atom_site_fract_z
Si Si1 0.566855 0.496276 0.277162
Si Si2 0.063995 0.319713 0.004196
Si Si3 0.643216 0.661853 0.583140
Si Si4 0.287868 0.900459 0.811410
Si Si5 0.875313 0.037412 0.170372
Si Si6 0.591285 0.674908 0.921036
Si Si7 0.056750 0.999620 0.698893
O O1 0.459691 0.461548 0.320125
O O2 0.633026 0.615785 0.152157
O O3 0.623474 0.269567 0.254596
O O4 0.555529 0.629789 0.379713
O O5 0.100400 0.437158 0.067979
O O6 0.986831 0.122458 0.090616
O O7 0.000000 0.500000 0.000000
O O8 0.131591 0.194829 0.881594
O O9 0.721263 0.509333 0.580413
O O10 0.634705 0.729397 0.483600
O O11 0.190277 0.797030 0.841392
O O12 0.322748 0.067294 0.703958
O O13 0.858506 0.017342 0.289808
O O14 0.500000 0.500000 0.000000
O O15 0.996062 0.243568 0.767410
#
# Coordination Sequence:
#
# PCOD9244118 Si02
#       7
#     4   4   4   4   4   4   4
#     4  11  21  39  63  89 122 170 218 264 324 386
#     4  10  20  40  71  89 125 173 212 257 331 412
#     4  11  21  38  62  87 121 170 215 261 317 388
#     4  11  25  39  60  96 132 163 213 278 321 378
#     4  10  23  41  61 100 129 164 217 271 329 392
#     4  11  23  38  64  89 119 168 222 267 321 390
#     4  10  20  39  69  98 129 175 219 269 333 406
#
# _framework density 23.536608999999999
#
# number of rings (size 3 to 8) (size 9 to 14) (size 15 to 20)
#    0.000    1.429    4.286    1.286    0.000    3.429 
#    0.000    1.429    0.000    0.000    0.000    0.000 
#    0.000    0.000    0.000    0.000    0.000    0.000 
#
# Total GULP energy -155923.542316 kJ/mol
# GULP energy per Si atom -5568.697940 kJ/mol
# Density = 2.348304 g / cm^3
# Si number density = 23.536609 Si / 1000 Ang^3
#
#
#
# Elastic Constant Matrix: (Units=GPa)
#
#
# Indices 1 2 3 4 5 6 
#
# 1 143.4304 27.4676 30.2595 0.0000 38.1703 0.0000
# 2 27.4676 80.4205 24.5153 0.0000 12.9841 0.0000
# 3 30.2595 24.5153 43.5387 0.0000 9.6555 0.0000
# 4 0.0000 0.0000 0.0000 29.5392 0.0000 22.0244
# 5 38.1703 12.9841 9.6555 0.0000 32.1945 0.0000
# 6 0.0000 0.0000 0.0000 22.0244 0.0000 1.2438
#
#
#
# Elastic Compliance Matrix: (Units=1/GPa)
#
#
# Indices 1 2 3 4 5 6 
#
# 1 0.011190 -0.000437 -0.004957 0.000000 -0.011603 0.000000
# 2 -0.000437 0.015468 -0.007646 0.000000 -0.003427 0.000000
# 3 -0.004957 -0.007646 0.030778 0.000000 -0.000270 0.000000
# 4 0.000000 0.000000 0.000000 -0.002774 0.000000 0.049125
# 5 -0.011603 -0.003427 -0.000270 0.000000 0.046281 0.000000
# 6 0.000000 0.000000 0.000000 0.049125 0.000000 -0.065887
#
#
# Mechanical properties :
#
#
# Convention : Reuss Voigt Hill
#
# Bulk Modulus (GPa) = 31.89248 47.98605 39.93927
# Shear Modulus (GPa) = 69.84408 24.93866 47.39137
#
# Velocity S-wave (km/s) = 5.45335 3.25863 4.49209
# Velocity P-wave (km/s) = 7.29600 5.88136 6.62654
#
# Compressibility (1/GPa) = 0.03135535
#
# Stress axis : x y z
#
# Youngs Moduli (GPa) = 89.36937 64.64985 32.49046
#
# Poissons Ratio (x) = 0.02827 0.16106
# Poissons Ratio (y) = 0.03907 0.24841
# Poissons Ratio (z) = 0.44303 0.49429
#
# Static dielectric constant tensor:
#      x y z
#    x 2.086530 0.000000 -0.065490 
#    y 0.000000 2.048840 0.000000 
#    z -0.065490 0.000000 1.950120 
# 
# From -- ./inp_files/48087.got.cif
#   From: 2010.05.17/outbox.cif.g08.bks.cpg/sg14_25_cif.got.tgz:48087.got - 2010.06.03 17:49:19.
