data_PCOD9244028
_publ_section_title
;
Structure prediction by ZEFSAII (Michael W. Deem and Ramdas Pophale) SiO2 
 PCOD9244028
Probable space group: P 21/C
;
_chemical_formula_sum "Si O2"
_cell_formula_units_Z 20
_cell_length_a 7.553381
_cell_length_b 24.683503
_cell_length_c 7.193723
_cell_angle_alpha 90.000000
_cell_angle_beta 38.612466
_cell_angle_gamma 90.000000
_cell_volume 836.991444
_symmetry_space_group_name_H-M "P 21/C"
_symmetry_group_IT_number 14
_symmetry_cell_setting 'monoclinic'
loop_
_space_group_symop_operation_xyz
x,y,z
-x,1/2+y,1/2-z
-x,-y,-z
x,1/2-y,1/2+z
loop_
_atom_site_type_symbol
_atom_site_label
_atom_site_fract_x
_atom_site_fract_y
_atom_site_fract_z
Si Si1 0.233346 0.303284 0.235235
Si Si2 0.306921 0.989849 0.335912
Si Si3 0.173689 0.781911 0.615602
Si Si4 0.183558 0.878404 0.344361
Si Si5 0.583607 0.602488 0.178980
O O1 0.029545 0.314946 0.576704
O O2 0.021178 0.268885 0.279262
O O3 0.514260 0.269303 0.061055
O O4 0.364423 0.355429 0.027714
O O5 0.312226 0.925910 0.370549
O O6 0.389659 0.039324 0.402570
O O7 0.000000 0.000000 0.500000
O O8 0.500000 0.000000 0.000000
O O9 0.233318 0.820386 0.391788
O O10 0.848170 0.886726 0.600040
O O11 0.312003 0.886226 0.031665
#
# Coordination Sequence:
#
# PCOD9244028 Si02
#       5
#     4   4   4   4   4
#     4  12  26  43  62  89 124 166 209 257 310 364
#     4   8  16  32  60  90 118 154 197 240 297 366
#     4  12  26  43  62  89 124 166 209 257 310 364
#     4  10  20  39  64  91 121 159 203 249 299 365
#     4  10  20  39  64  91 121 159 203 249 299 365
#
# _framework density 23.895109000000001
#
# number of rings (size 3 to 8) (size 9 to 14) (size 15 to 20)
#    0.000    1.600    0.000    4.800    0.000    3.200 
#    0.000    2.000    0.000    0.000    0.000    0.000 
#    0.000    0.000    0.000    0.000    0.000    0.000 
#
# Total GULP energy -111734.406046 kJ/mol
# GULP energy per Si atom -5586.720302 kJ/mol
# Density = 2.384072 g / cm^3
# Si number density = 23.895109 Si / 1000 Ang^3
#
#
#
# Elastic Constant Matrix: (Units=GPa)
#
#
# Indices 1 2 3 4 5 6 
#
# 1 63.0164 24.2230 18.1425 0.0000 -18.0897 0.0000
# 2 24.2230 82.1131 17.0458 0.0000 4.7629 0.0000
# 3 18.1425 17.0458 122.2826 0.0000 -23.2582 0.0000
# 4 0.0000 0.0000 0.0000 35.7399 0.0000 0.9453
# 5 -18.0897 4.7629 -23.2582 0.0000 39.4998 0.0000
# 6 0.0000 0.0000 0.0000 0.9453 0.0000 19.1307
#
#
#
# Elastic Compliance Matrix: (Units=1/GPa)
#
#
# Indices 1 2 3 4 5 6 
#
# 1 0.021659 -0.006960 -0.000222 0.000000 0.010628 0.000000
# 2 -0.006960 0.015072 -0.002275 0.000000 -0.006344 0.000000
# 3 -0.000222 -0.002275 0.009640 0.000000 0.005849 0.000000
# 4 0.000000 0.000000 0.000000 0.028017 0.000000 -0.001384
# 5 0.010628 -0.006344 0.005849 0.000000 0.034393 0.000000
# 6 0.000000 0.000000 0.000000 -0.001384 0.000000 0.052340
#
#
# Mechanical properties :
#
#
# Convention : Reuss Voigt Hill
#
# Bulk Modulus (GPa) = 36.41974 42.91499 39.66737
# Shear Modulus (GPa) = 26.42899 32.74079 29.58489
#
# Velocity S-wave (km/s) = 3.32933 3.70562 3.52250
# Velocity P-wave (km/s) = 5.48214 6.02558 5.76027
#
# Compressibility (1/GPa) = 0.02745763
#
# Stress axis : x y z
#
# Youngs Moduli (GPa) = 46.17063 66.34973 103.73076
#
# Poissons Ratio (x) = 0.46177 0.02302
# Poissons Ratio (y) = 0.32133 0.23599
# Poissons Ratio (z) = 0.01024 0.15095
#
# Static dielectric constant tensor:
#      x y z
#    x 1.950020 0.000000 0.035960 
#    y 0.000000 2.031300 0.000000 
#    z 0.035960 0.000000 1.832720 
# 
# From -- ./inp_files/10776.got.cif
#   From: 2010.05.17/outbox.cif.g08.bks.cpg/sg14_6_cif.got.tgz:10776.got - 2010.06.03 17:49:19.
