data_PCOD9244564
_publ_section_title
;
Structure prediction by ZEFSAII (Michael W. Deem and Ramdas Pophale) SiO2 
 PCOD9244564
Probable space group: P 21/C
;
_chemical_formula_sum "Si O2"
_cell_formula_units_Z 30
_cell_length_a 19.077159
_cell_length_b 4.881915
_cell_length_c 13.417575
_cell_angle_alpha 90.000000
_cell_angle_beta 66.190451
_cell_angle_gamma 90.000000
_cell_volume 1143.267780
_symmetry_space_group_name_H-M "P 21/C"
_symmetry_group_IT_number 14
_symmetry_cell_setting 'monoclinic'
loop_
_space_group_symop_operation_xyz
x,y,z
-x,1/2+y,1/2-z
-x,-y,-z
x,1/2-y,1/2+z
loop_
_atom_site_type_symbol
_atom_site_label
_atom_site_fract_x
_atom_site_fract_y
_atom_site_fract_z
Si Si1 0.318971 0.885163 0.952259
Si Si2 0.453294 0.737545 0.737427
Si Si3 0.365543 0.391604 0.049072
Si Si4 0.098032 0.178309 0.943029
Si Si5 0.957791 0.178961 0.410319
Si Si6 0.775535 0.733446 0.262797
Si Si7 0.826583 0.233712 0.355313
Si Si8 0.500000 0.000000 0.000000
O O1 0.368553 0.808899 0.827719
O O2 0.362102 0.702843 0.013708
O O3 0.230864 0.795289 0.018744
O O4 0.330851 0.198659 0.979318
O O5 0.495310 0.511240 0.783215
O O6 0.456132 0.600616 0.629077
O O7 0.310930 0.326774 0.173734
O O8 0.446374 0.269555 0.023728
O O9 0.068670 0.373002 0.048377
O O10 0.185861 0.216554 0.865073
O O11 0.077932 0.869784 0.981706
O O12 0.047242 0.273635 0.876624
O O13 0.914319 0.274161 0.336629
O O14 0.794025 0.428910 0.287988
O O15 0.816228 0.929585 0.321056
#
# Coordination Sequence:
#
# PCOD9244564 Si02
#       8
#     4   4   4   4   4   4   4   2
#     4  10  20  42  57  84 123 159 189 265 308 361
#     4  12  24  41  63  90 124 160 205 264 312 377
#     4  10  22  38  61  85 120 155 206 246 320 370
#     4  10  21  37  58  82 127 152 202 253 308 346
#     4  10  21  37  57  87 115 167 196 249 302 377
#     4  10  21  38  58  88 118 159 192 267 293 359
#     4  10  21  36  62  84 118 158 205 237 316 361
#     4  12  24  40  68  92 118 170 212 252 324 402
#
# _framework density 26.240570999999999
#
# number of rings (size 3 to 8) (size 9 to 14) (size 15 to 20)
#    0.000    1.600    2.667    1.600    0.000    4.267 
#    0.000    1.333    0.000    0.000    0.000    0.000 
#    0.000    0.000    0.000    0.000    0.000    0.000 
#
# Total GULP energy -167497.743106 kJ/mol
# GULP energy per Si atom -5583.258104 kJ/mol
# Density = 2.618085 g / cm^3
# Si number density = 26.240571 Si / 1000 Ang^3
#
#
#
# Elastic Constant Matrix: (Units=GPa)
#
#
# Indices 1 2 3 4 5 6 
#
# 1 41.7657 5.5822 3.5491 0.0000 14.9042 0.0000
# 2 5.5822 85.4370 8.2211 0.0000 5.4014 0.0000
# 3 3.5491 8.2211 103.0390 0.0000 -29.1411 0.0000
# 4 0.0000 0.0000 0.0000 27.2034 0.0000 6.6394
# 5 14.9042 5.4014 -29.1411 0.0000 27.0960 0.0000
# 6 0.0000 0.0000 0.0000 6.6394 0.0000 24.6630
#
#
#
# Elastic Compliance Matrix: (Units=1/GPa)
#
#
# Indices 1 2 3 4 5 6 
#
# 1 0.035457 0.000530 -0.009786 0.000000 -0.030133 0.000000
# 2 0.000530 0.012261 -0.002544 0.000000 -0.005472 0.000000
# 3 -0.009786 -0.002544 0.017117 0.000000 0.024299 0.000000
# 4 0.000000 0.000000 0.000000 0.039345 0.000000 -0.010592
# 5 -0.030133 -0.005472 0.024299 0.000000 0.080704 0.000000
# 6 0.000000 0.000000 0.000000 -0.010592 0.000000 0.043398
#
#
# Mechanical properties :
#
#
# Convention : Reuss Voigt Hill
#
# Bulk Modulus (GPa) = 24.25093 29.43848 26.84471
# Shear Modulus (GPa) = 18.82341 29.98509 24.40425
#
# Velocity S-wave (km/s) = 2.68123 3.38405 3.05293
# Velocity P-wave (km/s) = 4.34133 5.14899 4.76231
#
# Compressibility (1/GPa) = 0.04123553
#
# Stress axis : x y z
#
# Youngs Moduli (GPa) = 28.20328 81.56199 58.42062
#
# Poissons Ratio (x) = -0.04323 0.57169
# Poissons Ratio (y) = -0.01495 0.14862
# Poissons Ratio (z) = 0.27599 0.20749
#
# Static dielectric constant tensor:
#      x y z
#    x 2.172710 0.000000 0.002110 
#    y 0.000000 1.952740 0.000000 
#    z 0.002110 0.000000 2.065510 
# 
# From -- ./inp_files/49680.got.cif
#   From: 2010.05.17/outbox.cif.g08.bks.cpg/sg14_25_cif.got.tgz:49680.got - 2010.06.03 17:49:19.
