data_PCOD9244975
_publ_section_title
;
Structure prediction by ZEFSAII (Michael W. Deem and Ramdas Pophale) SiO2 
 PCOD9244975
Probable space group: P 21/C
;
_chemical_formula_sum "Si O2"
_cell_formula_units_Z 24
_cell_length_a 4.998747
_cell_length_b 17.055382
_cell_length_c 10.874088
_cell_angle_alpha 90.000000
_cell_angle_beta 87.781018
_cell_angle_gamma 90.000000
_cell_volume 926.381066
_symmetry_space_group_name_H-M "P 21/C"
_symmetry_group_IT_number 14
_symmetry_cell_setting 'monoclinic'
loop_
_space_group_symop_operation_xyz
x,y,z
-x,1/2+y,1/2-z
-x,-y,-z
x,1/2-y,1/2+z
loop_
_atom_site_type_symbol
_atom_site_label
_atom_site_fract_x
_atom_site_fract_y
_atom_site_fract_z
Si Si1 0.521807 0.599910 0.119478
Si Si2 0.795184 0.045264 0.590469
Si Si3 0.801446 0.285550 0.129785
Si Si4 0.523615 0.766693 0.111528
Si Si5 0.120188 0.625435 0.320938
Si Si6 0.369011 0.082972 0.034003
O O1 0.670767 0.524585 0.173782
O O2 0.673262 0.682715 0.124206
O O3 0.225059 0.607528 0.183487
O O4 0.461432 0.578369 0.979786
O O5 0.918258 0.126784 0.633807
O O6 0.000000 0.000000 0.500000
O O7 0.609211 0.281395 0.253207
O O8 0.995036 0.212641 0.155134
O O9 0.675585 0.261260 0.998245
O O10 0.655953 0.848975 0.069744
O O11 0.411472 0.620693 0.379393
O O12 0.916376 0.571433 0.396876
O O13 0.500000 0.000000 0.000000
#
# Coordination Sequence:
#
# PCOD9244975 Si02
#       6
#     4   4   4   4   4   4
#     4   9  21  40  59  94 131 178 223 294 350 414
#     4  10  21  35  65  96 131 172 239 288 346 417
#     4   9  20  41  63  99 130 183 227 289 351 422
#     4   9  20  41  64  91 137 178 232 283 357 420
#     4  10  23  42  65  90 137 174 227 278 355 408
#     4  11  24  41  65  97 130 180 228 284 342 419
#
# _framework density 25.907266
#
# number of rings (size 3 to 8) (size 9 to 14) (size 15 to 20)
#    0.000    2.333    0.000    0.500    7.000    0.000 
#    0.000    5.000    0.000    0.000    0.000    0.000 
#    0.000    0.000    0.000    0.000    0.000    0.000 
#
# Total GULP energy -133751.049883 kJ/mol
# GULP energy per Si atom -5572.960412 kJ/mol
# Density = 2.584830 g / cm^3
# Si number density = 25.907266 Si / 1000 Ang^3
#
#
#
# Elastic Constant Matrix: (Units=GPa)
#
#
# Indices 1 2 3 4 5 6 
#
# 1 75.9137 5.9809 27.0227 0.0000 -13.0320 0.0000
# 2 5.9809 216.7856 39.0079 0.0000 -27.5565 0.0000
# 3 27.0227 39.0079 113.5612 0.0000 -12.2829 0.0000
# 4 0.0000 0.0000 0.0000 42.9541 0.0000 -19.9071
# 5 -13.0320 -27.5565 -12.2829 0.0000 42.3706 0.0000
# 6 0.0000 0.0000 0.0000 -19.9071 0.0000 21.3365
#
#
#
# Elastic Compliance Matrix: (Units=1/GPa)
#
#
# Indices 1 2 3 4 5 6 
#
# 1 0.015023 0.000715 -0.003376 0.000000 0.004107 0.000000
# 2 0.000715 0.005294 -0.001644 0.000000 0.003186 0.000000
# 3 -0.003376 -0.001644 0.010268 0.000000 0.000869 0.000000
# 4 0.000000 0.000000 0.000000 0.041016 0.000000 0.038268
# 5 0.004107 0.003186 0.000869 0.000000 0.027189 0.000000
# 6 0.000000 0.000000 0.000000 0.038268 0.000000 0.082572
#
#
# Mechanical properties :
#
#
# Convention : Reuss Voigt Hill
#
# Bulk Modulus (GPa) = 45.50642 61.14262 53.32452
# Shear Modulus (GPa) = 25.34243 43.61552 34.47897
#
# Velocity S-wave (km/s) = 3.13101 4.10753 3.65205
# Velocity P-wave (km/s) = 5.53843 6.79320 6.19765
#
# Compressibility (1/GPa) = 0.02197492
#
# Stress axis : x y z
#
# Youngs Moduli (GPa) = 66.56270 188.89409 97.39057
#
# Poissons Ratio (x) = -0.13508 0.32882
# Poissons Ratio (y) = -0.04760 0.16011
# Poissons Ratio (z) = 0.22474 0.31054
#
# Static dielectric constant tensor:
#      x y z
#    x 2.089530 0.000000 0.090030 
#    y 0.000000 2.234220 0.000000 
#    z 0.090030 0.000000 2.188900 
# 
# From -- ./inp_files/21169.got.cif
#   From: 2010.05.17/outbox.cif.g08.bks.cpg/sg14_11_cif.got.tgz:21169.got - 2010.06.03 17:49:19.
