data_PCOD9244875
_publ_section_title
;
Structure prediction by ZEFSAII (Michael W. Deem and Ramdas Pophale) SiO2 
 PCOD9244875
Probable space group: P 21/C
;
_chemical_formula_sum "Si O2"
_cell_formula_units_Z 24
_cell_length_a 5.035532
_cell_length_b 24.611531
_cell_length_c 13.397096
_cell_angle_alpha 90.000000
_cell_angle_beta 138.165282
_cell_angle_gamma 90.000000
_cell_volume 1107.414276
_symmetry_space_group_name_H-M "P 21/C"
_symmetry_group_IT_number 14
_symmetry_cell_setting 'monoclinic'
loop_
_space_group_symop_operation_xyz
x,y,z
-x,1/2+y,1/2-z
-x,-y,-z
x,1/2-y,1/2+z
loop_
_atom_site_type_symbol
_atom_site_label
_atom_site_fract_x
_atom_site_fract_y
_atom_site_fract_z
Si Si1 0.561047 0.947697 0.627688
Si Si2 0.291614 0.274189 0.287759
Si Si3 0.414827 0.342396 0.747964
Si Si4 0.776264 0.710168 0.501451
Si Si5 0.255710 0.176579 0.579896
Si Si6 0.355923 0.437709 0.081396
O O1 0.714498 0.899431 0.740832
O O2 0.709245 0.941119 0.556347
O O3 0.077100 0.942302 0.488295
O O4 0.618714 0.009580 0.680465
O O5 0.209000 0.210114 0.243700
O O6 0.260531 0.294557 0.391251
O O7 0.094396 0.310024 0.145271
O O8 0.759600 0.280761 0.392114
O O9 0.359201 0.335396 0.614301
O O10 0.880999 0.336373 0.904703
O O11 0.564447 0.766927 0.409127
O O12 0.514238 0.122070 0.652202
#
# Coordination Sequence:
#
# PCOD9244875 Si02
#       6
#     4   4   4   4   4   4
#     4   9  17  29  47  72  97 121 157 204 243 276
#     4  10  21  34  49  73 103 131 159 197 245 291
#     4   9  19  33  53  74  98 129 165 201 239 288
#     4  10  21  34  49  73 103 131 159 197 245 291
#     4   9  19  33  53  74  98 129 165 201 239 288
#     4   9  17  29  47  72  97 121 157 204 243 276
#
# _framework density 21.672103
#
# number of rings (size 3 to 8) (size 9 to 14) (size 15 to 20)
#    0.000    2.667    0.000    1.000    0.000   17.333 
#    0.000    0.000    0.000    2.000    0.000    0.000 
#    0.000    0.000    0.000    0.000    0.000    0.000 
#
# Total GULP energy -133967.153917 kJ/mol
# GULP energy per Si atom -5581.964747 kJ/mol
# Density = 2.162278 g / cm^3
# Si number density = 21.672103 Si / 1000 Ang^3
#
#
#
# Elastic Constant Matrix: (Units=GPa)
#
#
# Indices 1 2 3 4 5 6 
#
# 1 84.2986 7.0452 21.3104 0.0000 -28.4562 0.0000
# 2 7.0452 88.1688 -16.8504 0.0000 -4.3699 0.0000
# 3 21.3104 -16.8504 66.3251 0.0000 -21.4755 0.0000
# 4 0.0000 0.0000 0.0000 28.2141 0.0000 -10.6537
# 5 -28.4562 -4.3699 -21.4755 0.0000 31.2561 0.0000
# 6 0.0000 0.0000 0.0000 -10.6537 0.0000 25.5938
#
#
#
# Elastic Compliance Matrix: (Units=1/GPa)
#
#
# Indices 1 2 3 4 5 6 
#
# 1 0.017195 -0.000806 -0.000897 0.000000 0.014926 0.000000
# 2 -0.000806 0.012551 0.004859 0.000000 0.004360 0.000000
# 3 -0.000897 0.004859 0.021292 0.000000 0.014493 0.000000
# 4 0.000000 0.000000 0.000000 0.042053 0.000000 0.017505
# 5 0.014926 0.004360 0.014493 0.000000 0.056150 0.000000
# 6 0.000000 0.000000 0.000000 0.017505 0.000000 0.046359
#
#
# Mechanical properties :
#
#
# Convention : Reuss Voigt Hill
#
# Bulk Modulus (GPa) = 17.43593 29.08923 23.26258
# Shear Modulus (GPa) = 23.99189 32.16529 28.07859
#
# Velocity S-wave (km/s) = 3.33083 3.85668 3.60336
# Velocity P-wave (km/s) = 4.78073 5.76919 5.29806
#
# Compressibility (1/GPa) = 0.05735284
#
# Stress axis : x y z
#
# Youngs Moduli (GPa) = 58.15614 79.67482 46.96502
#
# Poissons Ratio (x) = 0.06418 0.04211
# Poissons Ratio (y) = 0.04685 -0.22821
# Poissons Ratio (z) = 0.05214 -0.38716
#
# Static dielectric constant tensor:
#      x y z
#    x 1.856060 0.000000 0.043980 
#    y 0.000000 1.909430 0.000000 
#    z 0.043980 0.000000 1.793320 
# 
# From -- ./inp_files/6416.got.cif
#   From: 2010.05.17/outbox.cif.g08.bks.cpg/sg14_4_cif.got.tgz:6416.got - 2010.06.03 17:49:19.
