data_PCOD9244783
_publ_section_title
;
Structure prediction by ZEFSAII (Michael W. Deem and Ramdas Pophale) SiO2 
 PCOD9244783
Probable space group: P 21/C
;
_chemical_formula_sum "Si O2"
_cell_formula_units_Z 28
_cell_length_a 12.342296
_cell_length_b 11.849897
_cell_length_c 19.122809
_cell_angle_alpha 90.000000
_cell_angle_beta 154.885233
_cell_angle_gamma 90.000000
_cell_volume 1187.055877
_symmetry_space_group_name_H-M "P 21/C"
_symmetry_group_IT_number 14
_symmetry_cell_setting 'monoclinic'
loop_
_space_group_symop_operation_xyz
x,y,z
-x,1/2+y,1/2-z
-x,-y,-z
x,1/2-y,1/2+z
loop_
_atom_site_type_symbol
_atom_site_label
_atom_site_fract_x
_atom_site_fract_y
_atom_site_fract_z
Si Si1 0.801049 0.567134 0.803319
Si Si2 0.295602 0.650547 0.180741
Si Si3 0.986095 0.050512 0.128785
Si Si4 0.423676 0.889307 0.516969
Si Si5 0.875794 0.297723 0.288655
Si Si6 0.967889 0.925877 0.687998
Si Si7 0.398076 0.773206 0.115345
O O1 0.637438 0.469736 0.747332
O O2 0.615013 0.672114 0.694511
O O3 0.886952 0.504175 0.783411
O O4 0.040429 0.613004 0.988467
O O5 0.234438 0.737918 0.206833
O O6 0.483176 0.707637 0.234577
O O7 0.276903 0.095645 0.294750
O O8 0.899385 0.069937 0.158848
O O9 0.989632 0.917075 0.116350
O O10 0.804452 0.132851 0.979362
O O11 0.334615 0.830836 0.393149
O O12 0.285688 0.818785 0.497431
O O13 0.298884 0.012832 0.451947
O O14 0.045507 0.199692 0.351004
#
# Coordination Sequence:
#
# PCOD9244783 Si02
#       7
#     4   4   4   4   4   4   4
#     4  10  23  43  68  98 132 182 226 276 345 402
#     4  10  23  45  63  96 136 179 225 274 345 399
#     4  11  25  43  68 104 136 178 230 279 346 398
#     4  11  23  43  70 100 136 182 213 289 345 402
#     4  10  22  43  67  98 131 175 228 278 331 408
#     4  10  20  44  67  99 130 171 225 277 342 399
#     4  12  24  43  69 100 135 182 223 283 339 418
#
# _framework density 23.587769000000002
#
# number of rings (size 3 to 8) (size 9 to 14) (size 15 to 20)
#    0.000    1.429    2.857    2.571    0.000    3.429 
#   18.000    0.000    0.000    0.000    0.000    0.000 
#    0.000    0.000    0.000    0.000    0.000    0.000 
#
# Total GULP energy -156358.491020 kJ/mol
# GULP energy per Si atom -5584.231822 kJ/mol
# Density = 2.353408 g / cm^3
# Si number density = 23.587769 Si / 1000 Ang^3
#
#
#
# Elastic Constant Matrix: (Units=GPa)
#
#
# Indices 1 2 3 4 5 6 
#
# 1 93.1314 49.6742 8.9311 0.0000 -11.9505 0.0000
# 2 49.6742 163.7160 12.3422 0.0000 0.2664 0.0000
# 3 8.9311 12.3422 34.8872 0.0000 10.0594 0.0000
# 4 0.0000 0.0000 0.0000 26.2408 0.0000 0.5977
# 5 -11.9505 0.2664 10.0594 0.0000 19.3732 0.0000
# 6 0.0000 0.0000 0.0000 0.5977 0.0000 47.8994
#
#
#
# Elastic Compliance Matrix: (Units=1/GPa)
#
#
# Indices 1 2 3 4 5 6 
#
# 1 0.015140 -0.004161 -0.006013 0.000000 0.012519 0.000000
# 2 -0.004161 0.007445 -0.000940 0.000000 -0.002181 0.000000
# 3 -0.006013 -0.000940 0.037166 0.000000 -0.022995 0.000000
# 4 0.000000 0.000000 0.000000 0.038119 0.000000 -0.000476
# 5 0.012519 -0.002181 -0.022995 0.000000 0.071309 0.000000
# 6 0.000000 0.000000 0.000000 -0.000476 0.000000 0.020883
#
#
# Mechanical properties :
#
#
# Convention : Reuss Voigt Hill
#
# Bulk Modulus (GPa) = 26.65055 48.18107 37.41581
# Shear Modulus (GPa) = 22.24217 33.42185 27.83201
#
# Velocity S-wave (km/s) = 3.07409 3.76828 3.43874
# Velocity P-wave (km/s) = 4.89111 6.27725 5.62703
#
# Compressibility (1/GPa) = 0.03752268
#
# Stress axis : x y z
#
# Youngs Moduli (GPa) = 66.05107 134.31895 26.90635
#
# Poissons Ratio (x) = 0.55886 0.16180
# Poissons Ratio (y) = 0.27482 0.02529
# Poissons Ratio (z) = 0.39720 0.12624
#
# Static dielectric constant tensor:
#      x y z
#    x 1.900570 0.000000 0.009460 
#    y 0.000000 1.897810 0.000000 
#    z 0.009460 0.000000 1.905290 
# 
# From -- ./inp_files/67364.got.cif
#   From: 2010.05.17/outbox.cif.g08.bks.cpg/sg14_34_cif.got.tgz:67364.got - 2010.06.03 17:49:19.
