data_PCOD9244677
_publ_section_title
;
Structure prediction by ZEFSAII (Michael W. Deem and Ramdas Pophale) SiO2 
 PCOD9244677
Probable space group: P 21/C
;
_chemical_formula_sum "Si O2"
_cell_formula_units_Z 26
_cell_length_a 12.030174
_cell_length_b 7.320725
_cell_length_c 12.039633
_cell_angle_alpha 90.000000
_cell_angle_beta 93.608911
_cell_angle_gamma 90.000000
_cell_volume 1058.222931
_symmetry_space_group_name_H-M "P 21/C"
_symmetry_group_IT_number 14
_symmetry_cell_setting 'monoclinic'
loop_
_space_group_symop_operation_xyz
x,y,z
-x,1/2+y,1/2-z
-x,-y,-z
x,1/2-y,1/2+z
loop_
_atom_site_type_symbol
_atom_site_label
_atom_site_fract_x
_atom_site_fract_y
_atom_site_fract_z
Si Si1 0.778971 0.467402 0.920704
Si Si2 0.841318 0.571222 0.152263
Si Si3 0.000000 0.000000 0.000000
Si Si4 0.616402 0.418303 0.737531
Si Si5 0.249673 0.569393 0.476826
Si Si6 0.058573 0.740394 0.711767
Si Si7 0.356606 0.009595 0.210552
O O1 0.672102 0.529013 0.843532
O O2 0.869204 0.406436 0.834134
O O3 0.834231 0.593318 0.018783
O O4 0.745413 0.284792 0.988054
O O5 0.886896 0.366510 0.183366
O O6 0.722288 0.595996 0.200820
O O7 0.933499 0.693365 0.218333
O O8 0.876719 0.011084 0.054612
O O9 0.056421 0.900383 0.109910
O O10 0.673849 0.465753 0.625084
O O11 0.645838 0.207640 0.764686
O O12 0.484298 0.434254 0.724082
O O13 0.301415 0.466280 0.586668
#
# Coordination Sequence:
#
# PCOD9244677 Si02
#       7
#     4   4   2   4   4   4   4
#     4  10  21  42  66  95 132 178 218 278 358 392
#     4  12  24  45  67 104 138 178 229 284 350 415
#     4  10  22  42  68 102 126 178 224 274 348 410
#     4  11  23  43  66  89 136 181 224 291 335 404
#     4  10  20  42  69  92 131 181 221 284 345 406
#     4  11  25  41  72  97 142 176 220 285 347 419
#     4  11  24  43  65  98 130 181 235 276 343 410
#
# _framework density 24.569489999999998
#
# number of rings (size 3 to 8) (size 9 to 14) (size 15 to 20)
#    0.000    1.231    6.154    0.923    6.462    1.846 
#    2.769    0.000    0.000    0.000    0.000    0.000 
#    0.000    0.000    0.000    0.000    0.000    0.000 
#
# Total GULP energy -145119.392580 kJ/mol
# GULP energy per Si atom -5581.515099 kJ/mol
# Density = 2.451357 g / cm^3
# Si number density = 24.569490 Si / 1000 Ang^3
#
#
#
# Elastic Constant Matrix: (Units=GPa)
#
#
# Indices 1 2 3 4 5 6 
#
# 1 193.0717 7.1312 47.8927 0.0000 -2.1467 0.0000
# 2 7.1312 51.4877 20.0797 0.0000 -1.5013 0.0000
# 3 47.8927 20.0797 105.6022 0.0000 5.3197 0.0000
# 4 0.0000 0.0000 0.0000 18.9837 0.0000 16.4096
# 5 -2.1467 -1.5013 5.3197 0.0000 33.9569 0.0000
# 6 0.0000 0.0000 0.0000 16.4096 0.0000 32.9549
#
#
#
# Elastic Compliance Matrix: (Units=1/GPa)
#
#
# Indices 1 2 3 4 5 6 
#
# 1 0.005861 0.000286 -0.002753 0.000000 0.000815 0.000000
# 2 0.000286 0.021074 -0.004218 0.000000 0.001611 0.000000
# 3 -0.002753 -0.004218 0.011630 0.000000 -0.002183 0.000000
# 4 0.000000 0.000000 0.000000 0.092484 0.000000 -0.046051
# 5 0.000815 0.001611 -0.002183 0.000000 0.029914 0.000000
# 6 0.000000 0.000000 0.000000 -0.046051 0.000000 0.053275
#
#
# Mechanical properties :
#
#
# Convention : Reuss Voigt Hill
#
# Bulk Modulus (GPa) = 39.69130 55.59653 47.64392
# Shear Modulus (GPa) = 21.18576 35.51631 28.35103
#
# Velocity S-wave (km/s) = 2.93964 3.80616 3.40061
# Velocity P-wave (km/s) = 5.26420 6.48021 5.90360
#
# Compressibility (1/GPa) = 0.02519444
#
# Stress axis : x y z
#
# Youngs Moduli (GPa) = 170.62138 47.45083 85.98303
#
# Poissons Ratio (x) = -0.01356 0.23675
# Poissons Ratio (y) = -0.04876 0.36267
# Poissons Ratio (z) = 0.46979 0.20015
#
# Static dielectric constant tensor:
#      x y z
#    x 1.904040 0.000000 0.012730 
#    y 0.000000 2.075060 0.000000 
#    z 0.012730 0.000000 1.906450 
# 
# From -- ./inp_files/28134.got.cif
#   From: 2010.05.17/outbox.cif.g08.bks.cpg/sg14_15_cif.got.tgz:28134.got - 2010.06.03 17:49:19.
