data_PCOD9244583
_publ_section_title
;
Structure prediction by ZEFSAII (Michael W. Deem and Ramdas Pophale) SiO2 
 PCOD9244583
Probable space group: P 21/C
;
_chemical_formula_sum "Si O2"
_cell_formula_units_Z 28
_cell_length_a 8.589362
_cell_length_b 15.556029
_cell_length_c 13.717520
_cell_angle_alpha 90.000000
_cell_angle_beta 136.984531
_cell_angle_gamma 90.000000
_cell_volume 1250.386533
_symmetry_space_group_name_H-M "P 21/C"
_symmetry_group_IT_number 14
_symmetry_cell_setting 'monoclinic'
loop_
_space_group_symop_operation_xyz
x,y,z
-x,1/2+y,1/2-z
-x,-y,-z
x,1/2-y,1/2+z
loop_
_atom_site_type_symbol
_atom_site_label
_atom_site_fract_x
_atom_site_fract_y
_atom_site_fract_z
Si Si1 0.581012 0.965416 0.161688
Si Si2 0.042341 0.284173 0.481798
Si Si3 0.226507 0.516073 0.879545
Si Si4 0.226533 0.101237 0.549908
Si Si5 0.958059 0.062341 0.073263
Si Si6 0.336442 0.687544 0.852869
Si Si7 0.561135 0.858839 0.975054
O O1 0.673447 0.942405 0.308763
O O2 0.590151 0.066266 0.142719
O O3 0.679775 0.905746 0.120982
O O4 0.310953 0.943518 0.031895
O O5 0.073550 0.182523 0.508983
O O6 0.022640 0.341554 0.569547
O O7 0.253844 0.324360 0.517273
O O8 0.823204 0.297455 0.313360
O O9 0.105236 0.472640 0.730816
O O10 0.214428 0.618925 0.866565
O O11 0.500000 0.500000 0.000000
O O12 0.131263 0.470994 0.932981
O O13 0.434036 0.144671 0.584426
O O14 0.000000 0.000000 0.000000
O O15 0.407619 0.777362 0.933320
#
# Coordination Sequence:
#
# PCOD9244583 Si02
#       7
#     4   4   4   4   4   4   4
#     4  11  22  45  64  95 135 175 219 265 347 391
#     4  11  22  40  68  97 132 166 232 266 325 401
#     4  10  21  37  65  98 131 163 223 275 325 379
#     4  10  23  40  64  99 134 166 216 284 325 384
#     4  12  20  39  73  95 121 183 225 262 323 412
#     4  10  20  42  62  97 129 167 222 270 322 397
#     4  10  24  39  68  92 134 173 212 280 330 391
#
# _framework density 22.393073000000001
#
# number of rings (size 3 to 8) (size 9 to 14) (size 15 to 20)
#    0.000    1.429    4.286    0.857    2.000    3.429 
#    2.571    0.714    0.000    0.000    0.000    0.000 
#    0.000    0.000    0.000    0.000    0.000    0.000 
#
# Total GULP energy -156606.594583 kJ/mol
# GULP energy per Si atom -5593.092664 kJ/mol
# Density = 2.234211 g / cm^3
# Si number density = 22.393073 Si / 1000 Ang^3
#
#
#
# Elastic Constant Matrix: (Units=GPa)
#
#
# Indices 1 2 3 4 5 6 
#
# 1 56.4339 31.9403 13.1069 0.0000 -1.9767 0.0000
# 2 31.9403 147.4423 31.1694 0.0000 -21.4773 0.0000
# 3 13.1069 31.1694 87.3226 0.0000 -19.3484 0.0000
# 4 0.0000 0.0000 0.0000 26.3534 0.0000 -6.8306
# 5 -1.9767 -21.4773 -19.3484 0.0000 44.9628 0.0000
# 6 0.0000 0.0000 0.0000 -6.8306 0.0000 12.7728
#
#
#
# Elastic Compliance Matrix: (Units=1/GPa)
#
#
# Indices 1 2 3 4 5 6 
#
# 1 0.020560 -0.004328 -0.001989 0.000000 -0.002019 0.000000
# 2 -0.004328 0.008539 -0.001699 0.000000 0.003158 0.000000
# 3 -0.001989 -0.001699 0.013439 0.000000 0.004884 0.000000
# 4 0.000000 0.000000 0.000000 0.044052 0.000000 0.023558
# 5 -0.002019 0.003158 0.004884 0.000000 0.025762 0.000000
# 6 0.000000 0.000000 0.000000 0.023558 0.000000 0.090890
#
#
# Mechanical properties :
#
#
# Convention : Reuss Voigt Hill
#
# Bulk Modulus (GPa) = 37.72456 49.29243 43.50850
# Shear Modulus (GPa) = 21.91944 31.14994 26.53469
#
# Velocity S-wave (km/s) = 3.13205 3.73373 3.44605
# Velocity P-wave (km/s) = 5.47382 6.37556 5.94182
#
# Compressibility (1/GPa) = 0.02650793
#
# Stress axis : x y z
#
# Youngs Moduli (GPa) = 48.63723 117.11157 74.41121
#
# Poissons Ratio (x) = 0.50682 0.14798
# Poissons Ratio (y) = 0.21049 0.12640
# Poissons Ratio (z) = 0.09672 0.19894
#
# Static dielectric constant tensor:
#      x y z
#    x 1.872090 0.000000 0.037810 
#    y 0.000000 1.858420 0.000000 
#    z 0.037810 0.000000 1.809120 
# 
# From -- ./inp_files/41463.got.cif
#   From: 2010.05.17/outbox.cif.g08.bks.cpg/sg14_21_cif.got.tgz:41463.got - 2010.06.03 17:49:19.
