data_PCOD9244489
_publ_section_title
;
Structure prediction by ZEFSAII (Michael W. Deem and Ramdas Pophale) SiO2 
 PCOD9244489
Probable space group: P 21/C
;
_chemical_formula_sum "Si O2"
_cell_formula_units_Z 30
_cell_length_a 10.729683
_cell_length_b 9.575362
_cell_length_c 14.045627
_cell_angle_alpha 90.000000
_cell_angle_beta 53.034661
_cell_angle_gamma 90.000000
_cell_volume 1153.001026
_symmetry_space_group_name_H-M "P 21/C"
_symmetry_group_IT_number 14
_symmetry_cell_setting 'monoclinic'
loop_
_space_group_symop_operation_xyz
x,y,z
-x,1/2+y,1/2-z
-x,-y,-z
x,1/2-y,1/2+z
loop_
_atom_site_type_symbol
_atom_site_label
_atom_site_fract_x
_atom_site_fract_y
_atom_site_fract_z
Si Si1 0.643762 0.470513 0.130011
Si Si2 0.054401 0.259046 0.345283
Si Si3 0.752723 0.083874 0.922903
Si Si4 0.774946 0.473874 0.714123
Si Si5 0.550695 0.328819 0.666935
Si Si6 0.500000 0.000000 0.500000
Si Si7 0.903517 0.065764 0.646148
Si Si8 0.907964 0.805755 0.883131
O O1 0.595773 0.589450 0.226013
O O2 0.532413 0.334880 0.189213
O O3 0.801899 0.412296 0.099877
O O4 0.626323 0.517293 0.030380
O O5 0.158419 0.375288 0.350387
O O6 0.057988 0.096311 0.364117
O O7 0.881027 0.319519 0.415362
O O8 0.117100 0.262463 0.208155
O O9 0.798196 0.094881 0.790396
O O10 0.777261 0.925200 0.948107
O O11 0.589389 0.141252 0.038103
O O12 0.690830 0.391312 0.667236
O O13 0.644816 0.479421 0.856117
O O14 0.929205 0.393891 0.682378
O O15 0.050044 0.170842 0.573838
#
# Coordination Sequence:
#
# PCOD9244489 Si02
#       8
#     4   4   4   4   4   2   4   4
#     4  11  26  45  68  94 134 170 234 280 334 389
#     4   9  20  37  68  96 136 169 209 275 328 398
#     4   9  21  41  69  94 136 179 212 260 353 392
#     4  10  21  44  64  88 137 172 223 265 337 392
#     4  11  25  45  65  97 129 181 222 283 326 403
#     4  10  26  44  66  90 122 190 214 278 338 386
#     4  10  20  41  66 101 133 167 222 281 318 398
#     4   9  18  39  64  98 133 172 212 273 321 398
#
# _framework density 26.019058999999999
#
# number of rings (size 3 to 8) (size 9 to 14) (size 15 to 20)
#    0.000    2.133    1.333    0.800    7.467    2.667 
#    9.600    2.000    0.000    0.000    0.000    0.000 
#    0.000    0.000    0.000    0.000    0.000    0.000 
#
# Total GULP energy -167322.891606 kJ/mol
# GULP energy per Si atom -5577.429720 kJ/mol
# Density = 2.595984 g / cm^3
# Si number density = 26.019059 Si / 1000 Ang^3
#
#
#
# Elastic Constant Matrix: (Units=GPa)
#
#
# Indices 1 2 3 4 5 6 
#
# 1 79.6274 -7.3847 -0.5734 0.0000 10.2348 0.0000
# 2 -7.3847 109.7504 8.3844 0.0000 -2.3426 0.0000
# 3 -0.5734 8.3844 132.4726 0.0000 11.1857 0.0000
# 4 0.0000 0.0000 0.0000 13.2157 0.0000 4.5752
# 5 10.2348 -2.3426 11.1857 0.0000 8.4422 0.0000
# 6 0.0000 0.0000 0.0000 4.5752 0.0000 28.0658
#
#
#
# Elastic Compliance Matrix: (Units=1/GPa)
#
#
# Indices 1 2 3 4 5 6 
#
# 1 0.015284 0.000448 0.001792 0.000000 -0.020780 0.000000
# 2 0.000448 0.009274 -0.000852 0.000000 0.003159 0.000000
# 3 0.001792 -0.000852 0.008798 0.000000 -0.014067 0.000000
# 4 0.000000 0.000000 0.000000 0.080193 0.000000 -0.013073
# 5 -0.020780 0.003159 -0.014067 0.000000 0.163160 0.000000
# 6 0.000000 0.000000 0.000000 -0.013073 0.000000 0.037762
#
#
# Mechanical properties :
#
#
# Convention : Reuss Voigt Hill
#
# Bulk Modulus (GPa) = 27.67522 35.85589 31.76555
# Shear Modulus (GPa) = 15.44456 31.37300 23.40878
#
# Velocity S-wave (km/s) = 2.43901 3.47619 3.00272
# Velocity P-wave (km/s) = 4.31176 5.47013 4.92512
#
# Compressibility (1/GPa) = 0.03613341
#
# Stress axis : x y z
#
# Youngs Moduli (GPa) = 65.42837 107.82573 113.66005
#
# Poissons Ratio (x) = -0.04830 -0.20373
# Poissons Ratio (y) = -0.02931 0.09681
# Poissons Ratio (z) = -0.11728 0.09184
#
# Static dielectric constant tensor:
#      x y z
#    x 2.035540 0.000000 -0.061520 
#    y 0.000000 2.062770 0.000000 
#    z -0.061520 0.000000 2.041390 
# 
# From -- ./inp_files/43637.got.cif
#   From: 2010.05.17/outbox.cif.g08.bks.cpg/sg14_22_cif.got.tgz:43637.got - 2010.06.03 17:49:19.
