data_PCOD9244919
_publ_section_title
;
Structure prediction by ZEFSAII (Michael W. Deem and Ramdas Pophale) SiO2 
 PCOD9244919
Probable space group: P 21/C
;
_chemical_formula_sum "Si O2"
_cell_formula_units_Z 32
_cell_length_a 10.894238
_cell_length_b 9.694251
_cell_length_c 15.194476
_cell_angle_alpha 90.000000
_cell_angle_beta 87.789583
_cell_angle_gamma 90.000000
_cell_volume 1603.517030
_symmetry_space_group_name_H-M "P 21/C"
_symmetry_group_IT_number 14
_symmetry_cell_setting 'monoclinic'
loop_
_space_group_symop_operation_xyz
x,y,z
-x,1/2+y,1/2-z
-x,-y,-z
x,1/2-y,1/2+z
loop_
_atom_site_type_symbol
_atom_site_label
_atom_site_fract_x
_atom_site_fract_y
_atom_site_fract_z
Si Si1 0.603911 0.571552 0.296979
Si Si2 0.620387 0.083191 0.967431
Si Si3 0.841382 0.951519 0.414150
Si Si4 0.686922 0.084803 0.159254
Si Si5 0.268808 0.881168 0.337591
Si Si6 0.790563 0.810035 0.243060
Si Si7 0.388211 0.898425 0.525127
Si Si8 0.915419 0.891497 0.607520
O O1 0.664542 0.500635 0.381433
O O2 0.459884 0.596092 0.317967
O O3 0.627662 0.460845 0.220090
O O4 0.676695 0.708499 0.268004
O O5 0.585106 0.241951 0.944568
O O6 0.703172 0.078837 0.052604
O O7 0.500000 0.000000 0.000000
O O8 0.855203 0.847096 0.333245
O O9 0.860035 0.882698 0.509930
O O10 0.706708 0.019190 0.411530
O O11 0.942000 0.072722 0.405596
O O12 0.747829 0.225181 0.192623
O O13 0.740151 0.949640 0.201789
O O14 0.317853 0.875327 0.435439
O O15 0.148840 0.975734 0.344786
O O16 0.877873 0.734639 0.170154
O O17 0.500000 0.000000 0.500000
#
# Coordination Sequence:
#
# PCOD9244919 Si02
#       8
#     4   4   4   4   4   4   4   4
#     4  10  21  35  55  87 127 165 201 251 326 376
#     4   9  21  36  53  83 127 164 191 258 309 375
#     4  10  23  41  70  89 126 168 214 262 318 373
#     4  10  21  35  56  88 128 157 210 261 311 375
#     4   9  20  37  58  83 122 160 199 264 305 368
#     4  11  24  37  66  94 118 174 218 259 318 385
#     4  10  22  36  63  93 121 161 209 248 319 386
#     4   9  22  47  62  89 126 165 215 264 310 369
#
# _framework density 19.956133000000001
#
# number of rings (size 3 to 8) (size 9 to 14) (size 15 to 20)
#    0.000    2.250    0.000    0.750   10.500    6.000 
#    2.250    0.000    0.000    3.750    0.000    0.000 
#    0.000    0.000    0.000    0.000    0.000    0.000 
#
# Total GULP energy -178527.247240 kJ/mol
# GULP energy per Si atom -5578.976476 kJ/mol
# Density = 1.991071 g / cm^3
# Si number density = 19.956133 Si / 1000 Ang^3
#
#
#
# Elastic Constant Matrix: (Units=GPa)
#
#
# Indices 1 2 3 4 5 6 
#
# 1 53.4077 17.1572 4.0334 0.0000 -8.6653 0.0000
# 2 17.1572 131.5321 40.9060 0.0000 3.3686 0.0000
# 3 4.0334 40.9060 89.9954 0.0000 -10.8867 0.0000
# 4 0.0000 0.0000 0.0000 32.5647 0.0000 1.4886
# 5 -8.6653 3.3686 -10.8867 0.0000 13.9494 0.0000
# 6 0.0000 0.0000 0.0000 1.4886 0.0000 8.2214
#
#
#
# Elastic Compliance Matrix: (Units=1/GPa)
#
#
# Indices 1 2 3 4 5 6 
#
# 1 0.022757 -0.004385 0.003105 0.000000 0.017618 0.000000
# 2 -0.004385 0.010151 -0.005569 0.000000 -0.009522 0.000000
# 3 0.003105 -0.005569 0.015349 0.000000 0.015252 0.000000
# 4 0.000000 0.000000 0.000000 0.030964 0.000000 -0.005606
# 5 0.017618 -0.009522 0.015252 0.000000 0.096835 0.000000
# 6 0.000000 0.000000 0.000000 -0.005606 0.000000 0.122649
#
#
# Mechanical properties :
#
#
# Convention : Reuss Voigt Hill
#
# Bulk Modulus (GPa) = 28.93777 44.34759 36.64268
# Shear Modulus (GPa) = 15.43578 25.13633 20.28606
#
# Velocity S-wave (km/s) = 2.78418 3.55291 3.19177
# Velocity P-wave (km/s) = 4.98675 6.25313 5.65550
#
# Compressibility (1/GPa) = 0.03455692
#
# Stress axis : x y z
#
# Youngs Moduli (GPa) = 43.94311 98.51709 65.15107
#
# Poissons Ratio (x) = 0.43201 -0.20227
# Poissons Ratio (y) = 0.19270 0.36283
# Poissons Ratio (z) = -0.13642 0.54865
#
# Static dielectric constant tensor:
#      x y z
#    x 1.762760 0.000000 -0.042700 
#    y 0.000000 1.714660 0.000000 
#    z -0.042700 0.000000 1.797870 
# 
# From -- ./inp_files/43416.got.cif
#   From: 2010.05.17/outbox.cif.g08.bks.cpg/sg14_22_cif.got.tgz:43416.got - 2010.06.03 17:49:19.
