data_PCOD9244455
_publ_section_title
;
Structure prediction by ZEFSAII (Michael W. Deem and Ramdas Pophale) SiO2 
 PCOD9244455
Probable space group: P 21/C
;
_chemical_formula_sum "Si O2"
_cell_formula_units_Z 32
_cell_length_a 4.990788
_cell_length_b 18.612133
_cell_length_c 15.267837
_cell_angle_alpha 90.000000
_cell_angle_beta 62.798558
_cell_angle_gamma 90.000000
_cell_volume 1261.369388
_symmetry_space_group_name_H-M "P 21/C"
_symmetry_group_IT_number 14
_symmetry_cell_setting 'monoclinic'
loop_
_space_group_symop_operation_xyz
x,y,z
-x,1/2+y,1/2-z
-x,-y,-z
x,1/2-y,1/2+z
loop_
_atom_site_type_symbol
_atom_site_label
_atom_site_fract_x
_atom_site_fract_y
_atom_site_fract_z
Si Si1 0.649324 0.076862 0.078397
Si Si2 0.941020 0.682211 0.095152
Si Si3 0.329702 0.882977 0.734820
Si Si4 0.338996 0.464879 0.183784
Si Si5 0.148609 0.337915 0.435913
Si Si6 0.334465 0.561901 0.684354
Si Si7 0.383204 0.349597 0.034968
Si Si8 0.821937 0.794473 0.869100
O O1 0.772109 0.078993 0.159189
O O2 0.432119 0.145576 0.106148
O O3 0.463064 0.003516 0.105854
O O4 0.916690 0.094826 0.971274
O O5 0.675321 0.642011 0.187080
O O6 0.901930 0.767762 0.114219
O O7 0.856285 0.655822 0.008220
O O8 0.291996 0.667665 0.054759
O O9 0.106539 0.815093 0.766757
O O10 0.302892 0.949935 0.673574
O O11 0.578874 0.453169 0.226166
O O12 0.404476 0.422619 0.085435
O O13 0.021632 0.434284 0.265389
O O14 0.479782 0.368592 0.372278
O O15 0.100211 0.305400 0.540119
O O16 0.302701 0.285979 0.116186
#
# Coordination Sequence:
#
# PCOD9244455 Si02
#       8
#     4   4   4   4   4   4   4   4
#     4  10  20  41  63  89 132 166 198 260 321 369
#     4  11  25  42  66  94 122 166 217 255 309 374
#     4  10  24  41  64  94 124 167 212 256 310 375
#     4  11  25  43  63  94 128 166 212 256 313 365
#     4  10  23  39  60  97 126 162 209 257 312 378
#     4  11  24  39  65  97 125 165 211 253 309 384
#     4  11  25  44  64  92 128 165 208 265 315 359
#     4  10  21  41  64  87 134 163 201 259 321 365
#
# _framework density 25.369254999999999
#
# number of rings (size 3 to 8) (size 9 to 14) (size 15 to 20)
#    0.000    1.500    2.500    1.125    5.250    2.500 
#    0.000    0.000    0.000    0.000    0.000    0.000 
#    0.000    0.000    0.000    0.000    0.000    0.000 
#
# Total GULP energy -179064.017530 kJ/mol
# GULP energy per Si atom -5595.750548 kJ/mol
# Density = 2.531151 g / cm^3
# Si number density = 25.369255 Si / 1000 Ang^3
#
#
#
# Elastic Constant Matrix: (Units=GPa)
#
#
# Indices 1 2 3 4 5 6 
#
# 1 48.4688 -3.9148 -3.3357 0.0000 1.0712 0.0000
# 2 -3.9148 100.0560 34.3292 0.0000 -3.9527 0.0000
# 3 -3.3357 34.3292 89.7872 0.0000 -9.8453 0.0000
# 4 0.0000 0.0000 0.0000 37.4636 0.0000 -3.7996
# 5 1.0712 -3.9527 -9.8453 0.0000 39.6075 0.0000
# 6 0.0000 0.0000 0.0000 -3.7996 0.0000 29.7010
#
#
#
# Elastic Compliance Matrix: (Units=1/GPa)
#
#
# Indices 1 2 3 4 5 6 
#
# 1 0.020725 0.000628 0.000488 0.000000 -0.000376 0.000000
# 2 0.000628 0.011523 -0.004377 0.000000 0.000045 0.000000
# 3 0.000488 -0.004377 0.013138 0.000000 0.002816 0.000000
# 4 0.000000 0.000000 0.000000 0.027043 0.000000 0.003460
# 5 -0.000376 0.000045 0.002816 0.000000 0.025962 0.000000
# 6 0.000000 0.000000 0.000000 0.003460 0.000000 0.034112
#
#
# Mechanical properties :
#
#
# Convention : Reuss Voigt Hill
#
# Bulk Modulus (GPa) = 25.73066 32.49661 29.11364
# Shear Modulus (GPa) = 32.89950 35.43663 34.16807
#
# Velocity S-wave (km/s) = 3.60505 3.74148 3.67390
# Velocity P-wave (km/s) = 5.24338 5.61268 5.43117
#
# Compressibility (1/GPa) = 0.03886413
#
# Stress axis : x y z
#
# Youngs Moduli (GPa) = 48.25205 86.78593 76.11543
#
# Poissons Ratio (x) = -0.05454 -0.03717
# Poissons Ratio (y) = -0.03032 0.33318
# Poissons Ratio (z) = -0.02357 0.37989
#
# Static dielectric constant tensor:
#      x y z
#    x 2.081060 0.000000 0.101230 
#    y 0.000000 2.001050 0.000000 
#    z 0.101230 0.000000 2.036750 
# 
# From -- ./inp_files/53723.got.cif
#   From: 2010.05.17/outbox.cif.g08.bks.cpg/sg14_27_cif.got.tgz:53723.got - 2010.06.03 17:49:19.
