data_PCOD9244354
_publ_section_title
;
Structure prediction by ZEFSAII (Michael W. Deem and Ramdas Pophale) SiO2 
 PCOD9244354
Probable space group: P 21/C
;
_chemical_formula_sum "Si O2"
_cell_formula_units_Z 30
_cell_length_a 15.918000
_cell_length_b 19.462550
_cell_length_c 9.269652
_cell_angle_alpha 90.000000
_cell_angle_beta 148.869706
_cell_angle_gamma 90.000000
_cell_volume 1484.671756
_symmetry_space_group_name_H-M "P 21/C"
_symmetry_group_IT_number 14
_symmetry_cell_setting 'monoclinic'
loop_
_space_group_symop_operation_xyz
x,y,z
-x,1/2+y,1/2-z
-x,-y,-z
x,1/2-y,1/2+z
loop_
_atom_site_type_symbol
_atom_site_label
_atom_site_fract_x
_atom_site_fract_y
_atom_site_fract_z
Si Si1 0.769413 0.724366 0.294088
Si Si2 0.575002 0.209787 0.224364
Si Si3 0.737177 0.326420 0.656823
Si Si4 0.989366 0.734835 0.360694
Si Si5 0.000000 0.000000 0.000000
Si Si6 0.371951 0.550622 0.679024
Si Si7 0.275239 0.430106 0.712994
Si Si8 0.746437 0.117083 0.697706
O O1 0.834660 0.713889 0.228860
O O2 0.922370 0.754784 0.603511
O O3 0.725379 0.651841 0.302322
O O4 0.613861 0.772825 0.066179
O O5 0.660793 0.277108 0.420784
O O6 0.647093 0.191403 0.174301
O O7 0.617717 0.149197 0.398501
O O8 0.708030 0.404254 0.563742
O O9 0.922878 0.304219 0.955986
O O10 0.126139 0.677040 0.574289
O O11 0.889113 0.953282 0.950632
O O12 0.854371 0.057685 0.786423
O O13 0.303659 0.474470 0.609296
O O14 0.332147 0.589489 0.771194
O O15 0.566930 0.551561 0.956221
#
# Coordination Sequence:
#
# PCOD9244354 Si02
#       8
#     4   4   4   4   2   4   4   4
#     4  12  23  38  60  96 126 163 206 270 321 394
#     4  11  23  36  64  94 128 161 217 263 334 382
#     4  11  21  40  61  94 123 169 211 272 320 394
#     4  11  23  36  62  92 130 160 209 265 337 373
#     4  10  20  40  68  90 128 166 230 256 318 390
#     4  10  21  40  66  86 127 167 225 255 324 389
#     4  10  22  38  64  92 120 174 216 260 316 397
#     4  10  21  41  65  96 121 177 212 270 318 402
#
# _framework density 20.206486000000002
#
# number of rings (size 3 to 8) (size 9 to 14) (size 15 to 20)
#    0.000    1.333    2.667    4.800    1.867    0.000 
#    0.000    0.667    2.933    8.000    0.000    0.000 
#    0.000    0.000    0.000    0.000    0.000    0.000 
#
# Total GULP energy -167054.285039 kJ/mol
# GULP energy per Si atom -5568.476168 kJ/mol
# Density = 2.016050 g / cm^3
# Si number density = 20.206486 Si / 1000 Ang^3
#
#
#
# Elastic Constant Matrix: (Units=GPa)
#
#
# Indices 1 2 3 4 5 6 
#
# 1 92.6637 7.3028 18.1881 0.0000 9.6813 0.0000
# 2 7.3028 67.0140 21.3725 0.0000 -0.9854 0.0000
# 3 18.1881 21.3725 85.8724 0.0000 9.1048 0.0000
# 4 0.0000 0.0000 0.0000 34.7740 0.0000 0.1037
# 5 9.6813 -0.9854 9.1048 0.0000 25.1379 0.0000
# 6 0.0000 0.0000 0.0000 0.1037 0.0000 10.0450
#
#
#
# Elastic Compliance Matrix: (Units=1/GPa)
#
#
# Indices 1 2 3 4 5 6 
#
# 1 0.011616 -0.000724 -0.001875 0.000000 -0.003823 0.000000
# 2 -0.000724 0.016370 -0.004179 0.000000 0.002434 0.000000
# 3 -0.001875 -0.004179 0.013543 0.000000 -0.004347 0.000000
# 4 0.000000 0.000000 0.000000 0.028758 0.000000 -0.000297
# 5 -0.003823 0.002434 -0.004347 0.000000 0.042923 0.000000
# 6 0.000000 0.000000 0.000000 -0.000297 0.000000 0.099556
#
#
# Mechanical properties :
#
#
# Convention : Reuss Voigt Hill
#
# Bulk Modulus (GPa) = 35.74815 37.69742 36.72279
# Shear Modulus (GPa) = 21.21829 27.23715 24.22772
#
# Velocity S-wave (km/s) = 3.24400 3.67541 3.46642
# Velocity P-wave (km/s) = 5.63571 6.05873 5.85104
#
# Compressibility (1/GPa) = 0.02797348
#
# Stress axis : x y z
#
# Youngs Moduli (GPa) = 86.08678 61.08840 73.83750
#
# Poissons Ratio (x) = 0.04424 0.13843
# Poissons Ratio (y) = 0.06234 0.30856
# Poissons Ratio (z) = 0.16139 0.25528
#
# Static dielectric constant tensor:
#      x y z
#    x 1.713800 0.000000 -0.000420 
#    y 0.000000 1.769810 0.000000 
#    z -0.000420 0.000000 1.696330 
# 
# From -- ./inp_files/16946.got.cif
#   From: 2010.05.17/outbox.cif.g08.bks.cpg/sg14_9_cif.got.tgz:16946.got - 2010.06.03 17:49:19.
