data_PCOD9244759
_publ_section_title
;
Structure prediction by ZEFSAII (Michael W. Deem and Ramdas Pophale) SiO2 
 PCOD9244759
Probable space group: P 21/C
;
_chemical_formula_sum "Si O2"
_cell_formula_units_Z 32
_cell_length_a 5.799536
_cell_length_b 8.876206
_cell_length_c 29.291977
_cell_angle_alpha 90.000000
_cell_angle_beta 69.734600
_cell_angle_gamma 90.000000
_cell_volume 1414.547847
_symmetry_space_group_name_H-M "P 21/C"
_symmetry_group_IT_number 14
_symmetry_cell_setting 'monoclinic'
loop_
_space_group_symop_operation_xyz
x,y,z
-x,1/2+y,1/2-z
-x,-y,-z
x,1/2-y,1/2+z
loop_
_atom_site_type_symbol
_atom_site_label
_atom_site_fract_x
_atom_site_fract_y
_atom_site_fract_z
Si Si1 0.763675 0.411577 0.993728
Si Si2 0.403628 0.750621 0.408509
Si Si3 0.764539 0.518011 0.851543
Si Si4 0.974735 0.239321 0.388309
Si Si5 0.848976 0.263580 0.163346
Si Si6 0.471224 0.202431 0.812896
Si Si7 0.396133 0.036433 0.730598
Si Si8 0.199281 0.017931 0.148577
O O1 0.866016 0.336195 0.940641
O O2 0.500000 0.500000 0.000000
O O3 0.701875 0.282224 0.034969
O O4 0.000000 0.500000 0.000000
O O5 0.506073 0.915888 0.385328
O O6 0.239431 0.694135 0.377926
O O7 0.618829 0.630415 0.390372
O O8 0.838270 0.349466 0.856128
O O9 0.796717 0.565273 0.796694
O O10 0.961718 0.610215 0.866100
O O11 0.901609 0.409033 0.383380
O O12 0.269196 0.238342 0.362979
O O13 0.633914 0.358711 0.202102
O O14 0.995780 0.136611 0.181318
O O15 0.333736 0.100752 0.784149
O O16 0.549190 0.359250 0.782155
O O17 0.664162 0.084273 0.822332
#
# Coordination Sequence:
#
# PCOD9244759 Si02
#       8
#     4   4   4   4   4   4   4   4
#     4  12  28  47  85 122 157 206 271 322 399 487
#     4  10  23  45  74 109 148 194 258 313 392 464
#     4  10  20  43  73  99 140 194 249 309 377 459
#     4  12  25  47  74 110 154 198 254 326 390 464
#     4  10  22  46  73 100 144 204 249 322 382 464
#     4  12  28  47  69 112 152 200 262 330 389 480
#     4  11  26  44  71 103 151 197 261 318 393 471
#     4  11  26  46  74 104 159 193 256 321 404 454
#
# _framework density 22.622071999999999
#
# number of rings (size 3 to 8) (size 9 to 14) (size 15 to 20)
#    0.000    1.000    3.750    1.500   12.250    1.500 
#    0.000    2.500    0.000    0.000    0.000    0.000 
#    0.000    0.000    0.000    0.000    0.000    0.000 
#
# Total GULP energy -178317.783479 kJ/mol
# GULP energy per Si atom -5572.430734 kJ/mol
# Density = 2.257058 g / cm^3
# Si number density = 22.622072 Si / 1000 Ang^3
#
#
#
# Elastic Constant Matrix: (Units=GPa)
#
#
# Indices 1 2 3 4 5 6 
#
# 1 75.1653 52.9066 18.9012 0.0000 -6.0228 0.0000
# 2 52.9066 155.4091 36.0973 0.0000 -4.3375 0.0000
# 3 18.9012 36.0973 94.7213 0.0000 -7.3022 0.0000
# 4 0.0000 0.0000 0.0000 41.8788 0.0000 0.8834
# 5 -6.0228 -4.3375 -7.3022 0.0000 20.2806 0.0000
# 6 0.0000 0.0000 0.0000 0.8834 0.0000 57.3609
#
#
#
# Elastic Compliance Matrix: (Units=1/GPa)
#
#
# Indices 1 2 3 4 5 6 
#
# 1 0.017918 -0.005741 -0.001103 0.000000 0.003696 0.000000
# 2 -0.005741 0.008905 -0.002296 0.000000 -0.000627 0.000000
# 3 -0.001103 -0.002296 0.011920 0.000000 0.003473 0.000000
# 4 0.000000 0.000000 0.000000 0.023886 0.000000 -0.000368
# 5 0.003696 -0.000627 0.003473 0.000000 0.051522 0.000000
# 6 0.000000 0.000000 0.000000 -0.000368 0.000000 0.017439
#
#
# Mechanical properties :
#
#
# Convention : Reuss Voigt Hill
#
# Bulk Modulus (GPa) = 48.86737 60.12288 54.49513
# Shear Modulus (GPa) = 31.90978 38.39676 35.15327
#
# Velocity S-wave (km/s) = 3.75982 4.12432 3.94628
# Velocity P-wave (km/s) = 6.36371 7.02245 6.70118
#
# Compressibility (1/GPa) = 0.02046355
#
# Stress axis : x y z
#
# Youngs Moduli (GPa) = 55.80922 112.29875 83.89094
#
# Poissons Ratio (x) = 0.64467 0.09252
# Poissons Ratio (y) = 0.32038 0.19264
# Poissons Ratio (z) = 0.06155 0.25788
#
# Static dielectric constant tensor:
#      x y z
#    x 1.921760 0.000000 -0.011980 
#    y 0.000000 1.868630 0.000000 
#    z -0.011980 0.000000 1.850630 
# 
# From -- ./inp_files/78808.got.cif
#   From: 2010.05.17/outbox.cif.g08.bks.cpg/sg14_40_cif.got.tgz:78808.got - 2010.06.03 17:49:19.
