data_PCOD9244128
_publ_section_title
;
Structure prediction by ZEFSAII (Michael W. Deem and Ramdas Pophale) SiO2 
 PCOD9244128
Probable space group: P 21/C
;
_chemical_formula_sum "Si O2"
_cell_formula_units_Z 24
_cell_length_a 5.368195
_cell_length_b 23.604628
_cell_length_c 7.706384
_cell_angle_alpha 90.000000
_cell_angle_beta 96.430884
_cell_angle_gamma 90.000000
_cell_volume 970.364143
_symmetry_space_group_name_H-M "P 21/C"
_symmetry_group_IT_number 14
_symmetry_cell_setting 'monoclinic'
loop_
_space_group_symop_operation_xyz
x,y,z
-x,1/2+y,1/2-z
-x,-y,-z
x,1/2-y,1/2+z
loop_
_atom_site_type_symbol
_atom_site_label
_atom_site_fract_x
_atom_site_fract_y
_atom_site_fract_z
Si Si1 0.616583 0.201297 0.802072
Si Si2 0.870543 0.942817 0.345633
Si Si3 0.459876 0.174395 0.178569
Si Si4 0.236655 0.527911 0.423610
Si Si5 0.976601 0.866151 0.036457
Si Si6 0.591755 0.105817 0.508937
O O1 0.528799 0.264410 0.758721
O O2 0.565498 0.160373 0.635458
O O3 0.501620 0.183298 0.976813
O O4 0.910827 0.189594 0.863378
O O5 0.154930 0.926581 0.416057
O O6 0.661349 0.928878 0.471452
O O7 0.831530 0.902637 0.171493
O O8 0.817419 0.006469 0.275193
O O9 0.594530 0.129343 0.314234
O O10 0.174841 0.152068 0.145394
O O11 0.500000 0.500000 0.500000
O O12 0.198107 0.591567 0.488102
O O13 0.000000 0.500000 0.500000
#
# Coordination Sequence:
#
# PCOD9244128 Si02
#       6
#     4   4   4   4   4   4
#     4  11  24  44  63  97 137 184 229 282 345 410
#     4  10  21  43  68 102 137 181 228 282 346 412
#     4  12  25  43  68  99 139 183 236 287 347 413
#     4  10  20  39  72 104 137 184 232 279 348 422
#     4  10  24  40  70 101 140 181 235 285 344 419
#     4  11  24  43  69 100 141 177 227 289 343 406
#
# _framework density 24.732983999999998
#
# number of rings (size 3 to 8) (size 9 to 14) (size 15 to 20)
#    0.000    1.333    3.333    3.000    4.667    2.667 
#    0.000    1.667    0.000    0.000    0.000    0.000 
#    0.000    0.000    0.000    0.000    0.000    0.000 
#
# Total GULP energy -133991.043855 kJ/mol
# GULP energy per Si atom -5582.960161 kJ/mol
# Density = 2.467669 g / cm^3
# Si number density = 24.732984 Si / 1000 Ang^3
#
#
#
# Elastic Constant Matrix: (Units=GPa)
#
#
# Indices 1 2 3 4 5 6 
#
# 1 116.2460 45.6685 31.6785 0.0000 12.1940 0.0000
# 2 45.6685 114.3021 49.1092 0.0000 26.8361 0.0000
# 3 31.6785 49.1092 121.1723 0.0000 -8.7823 0.0000
# 4 0.0000 0.0000 0.0000 38.5714 0.0000 17.3590
# 5 12.1940 26.8361 -8.7823 0.0000 40.5541 0.0000
# 6 0.0000 0.0000 0.0000 17.3590 0.0000 25.0628
#
#
#
# Elastic Compliance Matrix: (Units=1/GPa)
#
#
# Indices 1 2 3 4 5 6 
#
# 1 0.010413 -0.003185 -0.001529 0.000000 -0.001354 0.000000
# 2 -0.003185 0.015009 -0.005995 0.000000 -0.010272 0.000000
# 3 -0.001529 -0.005995 0.011585 0.000000 0.006935 0.000000
# 4 0.000000 0.000000 0.000000 0.037667 0.000000 -0.026089
# 5 -0.001354 -0.010272 0.006935 0.000000 0.033365 0.000000
# 6 0.000000 0.000000 0.000000 -0.026089 0.000000 0.057969
#
#
# Mechanical properties :
#
#
# Convention : Reuss Voigt Hill
#
# Bulk Modulus (GPa) = 64.15359 67.18143 65.66751
# Shear Modulus (GPa) = 25.95759 35.85526 30.90643
#
# Velocity S-wave (km/s) = 3.24313 3.81162 3.53881
# Velocity P-wave (km/s) = 6.32603 6.82590 6.58071
#
# Compressibility (1/GPa) = 0.01558759
#
# Stress axis : x y z
#
# Youngs Moduli (GPa) = 96.03695 66.62848 86.32057
#
# Poissons Ratio (x) = 0.21222 0.13203
# Poissons Ratio (y) = 0.30589 0.51745
# Poissons Ratio (z) = 0.14689 0.39941
#
# Static dielectric constant tensor:
#      x y z
#    x 2.146700 0.000000 0.008340 
#    y 0.000000 2.064820 0.000000 
#    z 0.008340 0.000000 1.970720 
# 
# From -- ./inp_files/6322.got.cif
#   From: 2010.05.17/outbox.cif.g08.bks.cpg/sg14_4_cif.got.tgz:6322.got - 2010.06.03 17:49:19.
