data_PCOD9244962
_publ_section_title
;
Structure prediction by ZEFSAII (Michael W. Deem and Ramdas Pophale) SiO2 
 PCOD9244962
Probable space group: P 21/C
;
_chemical_formula_sum "Si O2"
_cell_formula_units_Z 24
_cell_length_a 12.556865
_cell_length_b 10.996531
_cell_length_c 8.178638
_cell_angle_alpha 90.000000
_cell_angle_beta 67.941183
_cell_angle_gamma 90.000000
_cell_volume 1046.654592
_symmetry_space_group_name_H-M "P 21/C"
_symmetry_group_IT_number 14
_symmetry_cell_setting 'monoclinic'
loop_
_space_group_symop_operation_xyz
x,y,z
-x,1/2+y,1/2-z
-x,-y,-z
x,1/2-y,1/2+z
loop_
_atom_site_type_symbol
_atom_site_label
_atom_site_fract_x
_atom_site_fract_y
_atom_site_fract_z
Si Si1 0.132037 0.537218 0.621877
Si Si2 0.832633 0.909975 0.568126
Si Si3 0.916502 0.649367 0.651628
Si Si4 0.554489 0.579319 0.231778
Si Si5 0.348064 0.426943 0.405616
Si Si6 0.596048 0.705938 0.918402
O O1 0.118092 0.503013 0.821791
O O2 0.099020 0.432115 0.505604
O O3 0.268866 0.534903 0.512439
O O4 0.053821 0.649110 0.612466
O O5 0.868847 0.780849 0.628216
O O6 0.871796 0.905413 0.354262
O O7 0.693155 0.931098 0.650702
O O8 0.480458 0.467517 0.334174
O O9 0.526690 0.701332 0.347735
O O10 0.519432 0.619927 0.071731
O O11 0.332669 0.302846 0.515678
O O12 0.327234 0.382214 0.234838
#
# Coordination Sequence:
#
# PCOD9244962 Si02
#       6
#     4   4   4   4   4   4
#     4  11  24  40  65  93 129 163 216 274 311 384
#     4  12  21  40  69  90 126 168 218 262 322 387
#     4  11  24  41  65  96 121 169 224 265 314 379
#     4  11  21  37  64  95 126 167 215 260 315 395
#     4  11  22  39  62  96 130 167 210 261 326 375
#     4  10  21  35  61  91 127 172 209 252 312 391
#
# _framework density 22.930199999999999
#
# number of rings (size 3 to 8) (size 9 to 14) (size 15 to 20)
#    0.000    1.000    3.333    5.500    0.000    0.000 
#    0.000    1.667    7.333    0.000    0.000    0.000 
#    0.000    0.000    0.000    0.000    0.000    0.000 
#
# Total GULP energy -133617.047156 kJ/mol
# GULP energy per Si atom -5567.376965 kJ/mol
# Density = 2.287801 g / cm^3
# Si number density = 22.930200 Si / 1000 Ang^3
#
#
#
# Elastic Constant Matrix: (Units=GPa)
#
#
# Indices 1 2 3 4 5 6 
#
# 1 82.3844 27.4795 25.2663 0.0000 -7.8236 0.0000
# 2 27.4795 32.3147 3.7760 0.0000 0.8263 0.0000
# 3 25.2663 3.7760 127.2372 0.0000 26.2021 0.0000
# 4 0.0000 0.0000 0.0000 20.8870 0.0000 1.3095
# 5 -7.8236 0.8263 26.2021 0.0000 38.2308 0.0000
# 6 0.0000 0.0000 0.0000 1.3095 0.0000 35.5584
#
#
#
# Elastic Compliance Matrix: (Units=1/GPa)
#
#
# Indices 1 2 3 4 5 6 
#
# 1 0.020008 -0.016620 -0.005120 0.000000 0.007963 0.000000
# 2 -0.016620 0.044858 0.003341 0.000000 -0.006660 0.000000
# 3 -0.005120 0.003341 0.010488 0.000000 -0.008308 0.000000
# 4 0.000000 0.000000 0.000000 0.047987 0.000000 -0.001767
# 5 0.007963 -0.006660 -0.008308 0.000000 0.033624 0.000000
# 6 0.000000 0.000000 0.000000 -0.001767 0.000000 0.028188
#
#
# Mechanical properties :
#
#
# Convention : Reuss Voigt Hill
#
# Bulk Modulus (GPa) = 25.93580 39.44222 32.68901
# Shear Modulus (GPa) = 21.29442 31.29620 26.29531
#
# Velocity S-wave (km/s) = 3.05070 3.69839 3.39005
# Velocity P-wave (km/s) = 4.87282 5.95616 5.44151
#
# Compressibility (1/GPa) = 0.03855674
#
# Stress axis : x y z
#
# Youngs Moduli (GPa) = 49.97998 22.29233 95.35008
#
# Poissons Ratio (x) = 0.37049 0.48816
# Poissons Ratio (y) = 0.83065 -0.31852
# Poissons Ratio (z) = 0.25588 -0.07447
#
# Static dielectric constant tensor:
#      x y z
#    x 2.000970 0.000000 0.020800 
#    y 0.000000 1.805750 0.000000 
#    z 0.020800 0.000000 2.011750 
# 
# From -- ./inp_files/12344.got.cif
#   From: 2010.05.17/outbox.cif.g08.bks.cpg/sg14_7_cif.got.tgz:12344.got - 2010.06.03 17:49:19.
