data_PCOD9244580
_publ_section_title
;
Structure prediction by ZEFSAII (Michael W. Deem and Ramdas Pophale) SiO2 
 PCOD9244580
Probable space group: P 21/C
;
_chemical_formula_sum "Si O2"
_cell_formula_units_Z 30
_cell_length_a 14.106331
_cell_length_b 16.220663
_cell_length_c 8.284690
_cell_angle_alpha 90.000000
_cell_angle_beta 43.104376
_cell_angle_gamma 90.000000
_cell_volume 1295.355963
_symmetry_space_group_name_H-M "P 21/C"
_symmetry_group_IT_number 14
_symmetry_cell_setting 'monoclinic'
loop_
_space_group_symop_operation_xyz
x,y,z
-x,1/2+y,1/2-z
-x,-y,-z
x,1/2-y,1/2+z
loop_
_atom_site_type_symbol
_atom_site_label
_atom_site_fract_x
_atom_site_fract_y
_atom_site_fract_z
Si Si1 0.500000 0.500000 0.000000
Si Si2 0.268709 0.550119 0.194657
Si Si3 0.401951 0.068508 0.975303
Si Si4 0.036099 0.867132 0.115668
Si Si5 0.260183 0.129483 0.650494
Si Si6 0.242664 0.287229 0.513539
Si Si7 0.060387 0.800939 0.444797
Si Si8 0.712721 0.074513 0.695783
O O1 0.405840 0.589123 0.095745
O O2 0.435690 0.484256 0.273308
O O3 0.142363 0.558074 0.470211
O O4 0.335972 0.455484 0.108510
O O5 0.237045 0.569128 0.051533
O O6 0.546005 0.088382 0.889968
O O7 0.334971 0.152618 0.002976
O O8 0.290912 0.015447 0.216969
O O9 0.026782 0.829411 0.304989
O O10 0.892019 0.896671 0.220535
O O11 0.100231 0.795263 0.920371
O O12 0.300110 0.194391 0.464100
O O13 0.245362 0.183982 0.827180
O O14 0.084381 0.299883 0.774698
O O15 0.184898 0.859956 0.349211
#
# Coordination Sequence:
#
# PCOD9244580 Si02
#       8
#     2   4   4   4   4   4   4   4
#     4  10  20  42  62  90 120 172 206 276 304 392
#     4  11  22  40  66  90 132 165 220 257 328 377
#     4  10  22  42  65  92 130 167 215 265 325 384
#     4  11  23  41  65  93 130 170 213 268 326 382
#     4  11  23  40  63  94 128 166 208 269 317 386
#     4  11  23  41  64  94 131 165 218 263 330 376
#     4  11  23  41  66  94 131 167 217 269 319 386
#     4  10  23  41  66  93 128 167 213 261 321 387
#
# _framework density 23.159655999999998
#
# number of rings (size 3 to 8) (size 9 to 14) (size 15 to 20)
#    0.000    1.333    1.333    6.000    3.733    0.533 
#    2.400    1.333    0.000    0.000    0.000    0.000 
#    0.000    0.000    0.000    0.000    0.000    0.000 
#
# Total GULP energy -167107.423128 kJ/mol
# GULP energy per Si atom -5570.247438 kJ/mol
# Density = 2.310694 g / cm^3
# Si number density = 23.159656 Si / 1000 Ang^3
#
#
#
# Elastic Constant Matrix: (Units=GPa)
#
#
# Indices 1 2 3 4 5 6 
#
# 1 126.9245 29.9844 12.2001 0.0000 2.1992 0.0000
# 2 29.9844 79.3079 17.8496 0.0000 -14.0299 0.0000
# 3 12.2001 17.8496 57.4962 0.0000 13.2001 0.0000
# 4 0.0000 0.0000 0.0000 13.2025 0.0000 12.9192
# 5 2.1992 -14.0299 13.2001 0.0000 23.9050 0.0000
# 6 0.0000 0.0000 0.0000 12.9192 0.0000 30.0390
#
#
#
# Elastic Compliance Matrix: (Units=1/GPa)
#
#
# Indices 1 2 3 4 5 6 
#
# 1 0.008853 -0.003917 0.000060 0.000000 -0.003147 0.000000
# 2 -0.003917 0.018968 -0.008813 0.000000 0.016359 0.000000
# 3 0.000060 -0.008813 0.024397 0.000000 -0.018650 0.000000
# 4 0.000000 0.000000 0.000000 0.130783 0.000000 -0.056247
# 5 -0.003147 0.016359 -0.018650 0.000000 0.062021 0.000000
# 6 0.000000 0.000000 0.000000 -0.056247 0.000000 0.057481
#
#
# Mechanical properties :
#
#
# Convention : Reuss Voigt Hill
#
# Bulk Modulus (GPa) = 37.20593 42.64408 39.92501
# Shear Modulus (GPa) = 14.84553 27.00894 20.92723
#
# Velocity S-wave (km/s) = 2.53456 3.41868 3.00927
# Velocity P-wave (km/s) = 4.96640 5.83406 5.41763
#
# Compressibility (1/GPa) = 0.02687744
#
# Stress axis : x y z
#
# Youngs Moduli (GPa) = 112.95803 52.72170 40.98812
#
# Poissons Ratio (x) = 0.20652 -0.00246
# Poissons Ratio (y) = 0.44248 0.36123
# Poissons Ratio (z) = -0.00678 0.46463
#
# Static dielectric constant tensor:
#      x y z
#    x 1.975400 0.000000 -0.035380 
#    y 0.000000 2.032230 0.000000 
#    z -0.035380 0.000000 1.941990 
# 
# From -- ./inp_files/16227.got.cif
#   From: 2010.05.17/outbox.cif.g08.bks.cpg/sg14_9_cif.got.tgz:16227.got - 2010.06.03 17:49:19.
