data_PCOD9244339
_publ_section_title
;
Structure prediction by ZEFSAII (Michael W. Deem and Ramdas Pophale) SiO2 
 PCOD9244339
Probable space group: P 21/C
;
_chemical_formula_sum "Si O2"
_cell_formula_units_Z 24
_cell_length_a 10.063477
_cell_length_b 11.117285
_cell_length_c 8.810116
_cell_angle_alpha 90.000000
_cell_angle_beta 105.757858
_cell_angle_gamma 90.000000
_cell_volume 948.619748
_symmetry_space_group_name_H-M "P 21/C"
_symmetry_group_IT_number 14
_symmetry_cell_setting 'monoclinic'
loop_
_space_group_symop_operation_xyz
x,y,z
-x,1/2+y,1/2-z
-x,-y,-z
x,1/2-y,1/2+z
loop_
_atom_site_type_symbol
_atom_site_label
_atom_site_fract_x
_atom_site_fract_y
_atom_site_fract_z
Si Si1 0.802162 0.529036 0.539777
Si Si2 0.894492 0.136814 0.817362
Si Si3 0.527946 0.803431 0.600503
Si Si4 0.025886 0.862787 0.475168
Si Si5 0.284392 0.210293 0.594497
Si Si6 0.584605 0.405086 0.632081
O O1 0.959188 0.565895 0.622001
O O2 0.727048 0.651350 0.466870
O O3 0.736605 0.459602 0.660331
O O4 0.794753 0.437135 0.395467
O O5 0.870085 0.143244 0.632838
O O6 0.919156 0.270898 0.883469
O O7 0.610270 0.710252 0.734716
O O8 0.647406 0.858653 0.527296
O O9 0.457203 0.888477 0.704568
O O10 0.433294 0.724167 0.458266
O O11 0.868989 0.816762 0.396416
O O12 0.000000 0.000000 0.500000
O O13 0.500000 0.500000 0.500000
#
# Coordination Sequence:
#
# PCOD9244339 Si02
#       6
#     4   4   4   4   4   4
#     4  10  21  42  71  87 136 178 211 271 336 385
#     4  10  25  42  67  98 130 175 222 268 339 393
#     4  10  21  38  66  96 120 173 221 255 327 386
#     4  11  25  40  68  98 130 169 227 276 330 396
#     4  10  20  40  67  91 129 173 223 263 322 405
#     4  11  22  41  65  92 132 167 212 272 319 376
#
# _framework density 25.299917000000001
#
# number of rings (size 3 to 8) (size 9 to 14) (size 15 to 20)
#    0.000    1.667    3.333    2.000    9.333    1.333 
#    0.000    3.333    0.000    0.000    0.000    0.000 
#    0.000    0.000    0.000    0.000    0.000    0.000 
#
# Total GULP energy -134202.504926 kJ/mol
# GULP energy per Si atom -5591.771039 kJ/mol
# Density = 2.524233 g / cm^3
# Si number density = 25.299917 Si / 1000 Ang^3
#
#
#
# Elastic Constant Matrix: (Units=GPa)
#
#
# Indices 1 2 3 4 5 6 
#
# 1 53.6881 28.7253 14.3048 0.0000 -23.6996 0.0000
# 2 28.7253 88.7527 12.2990 0.0000 -13.3697 0.0000
# 3 14.3048 12.2990 90.8345 0.0000 -36.9966 0.0000
# 4 0.0000 0.0000 0.0000 47.2229 0.0000 -11.5861
# 5 -23.6996 -13.3697 -36.9966 0.0000 43.3198 0.0000
# 6 0.0000 0.0000 0.0000 -11.5861 0.0000 35.3358
#
#
#
# Elastic Compliance Matrix: (Units=1/GPa)
#
#
# Indices 1 2 3 4 5 6 
#
# 1 0.028847 -0.007330 0.002999 0.000000 0.016081 0.000000
# 2 -0.007330 0.013681 -0.000938 0.000000 -0.000589 0.000000
# 3 0.002999 -0.000938 0.017195 0.000000 0.016037 0.000000
# 4 0.000000 0.000000 0.000000 0.023029 0.000000 0.007551
# 5 0.016081 -0.000589 0.016037 0.000000 0.045396 0.000000
# 6 0.000000 0.000000 0.000000 0.007551 0.000000 0.030776
#
#
# Mechanical properties :
#
#
# Convention : Reuss Voigt Hill
#
# Bulk Modulus (GPa) = 20.33045 38.21485 29.27265
# Shear Modulus (GPa) = 26.90241 37.03878 31.97059
#
# Velocity S-wave (km/s) = 3.26443 3.83036 3.55866
# Velocity P-wave (km/s) = 4.71825 5.89065 5.33674
#
# Compressibility (1/GPa) = 0.04918730
#
# Stress axis : x y z
#
# Youngs Moduli (GPa) = 34.66511 73.09478 58.15477
#
# Poissons Ratio (x) = 0.53577 -0.17443
# Poissons Ratio (y) = 0.25409 0.05454
# Poissons Ratio (z) = -0.10397 0.06855
#
# Static dielectric constant tensor:
#      x y z
#    x 2.140750 0.000000 0.000730 
#    y 0.000000 2.000490 0.000000 
#    z 0.000730 0.000000 2.009620 
# 
# From -- ./inp_files/12431.got.cif
#   From: 2010.05.17/outbox.cif.g08.bks.cpg/sg14_7_cif.got.tgz:12431.got - 2010.06.03 17:49:19.
