data_PCOD9244847
_publ_section_title
;
Structure prediction by ZEFSAII (Michael W. Deem and Ramdas Pophale) SiO2 
 PCOD9244847
Probable space group: P 21/C
;
_chemical_formula_sum "Si O2"
_cell_formula_units_Z 24
_cell_length_a 12.876156
_cell_length_b 5.463157
_cell_length_c 15.538234
_cell_angle_alpha 90.000000
_cell_angle_beta 61.386669
_cell_angle_gamma 90.000000
_cell_volume 959.538833
_symmetry_space_group_name_H-M "P 21/C"
_symmetry_group_IT_number 14
_symmetry_cell_setting 'monoclinic'
loop_
_space_group_symop_operation_xyz
x,y,z
-x,1/2+y,1/2-z
-x,-y,-z
x,1/2-y,1/2+z
loop_
_atom_site_type_symbol
_atom_site_label
_atom_site_fract_x
_atom_site_fract_y
_atom_site_fract_z
Si Si1 0.830282 0.773336 0.931034
Si Si2 0.102394 0.737238 0.011017
Si Si3 0.508618 0.734416 0.126191
Si Si4 0.314881 0.436369 0.155176
Si Si5 0.072499 0.928104 0.837391
Si Si6 0.463887 0.745308 0.342681
O O1 0.724893 0.732958 0.906720
O O2 0.958254 0.821434 0.832903
O O3 0.851771 0.520314 0.973502
O O4 0.822733 0.021444 0.989981
O O5 0.092460 0.756107 0.912620
O O6 0.975983 0.815846 0.103092
O O7 0.406630 0.658794 0.100173
O O8 0.448745 0.736792 0.246292
O O9 0.590850 0.495994 0.100964
O O10 0.566065 0.995598 0.099006
O O11 0.193445 0.541556 0.239838
O O12 0.395830 0.282893 0.189903
#
# Coordination Sequence:
#
# PCOD9244847 Si02
#       6
#     4   4   4   4   4   4
#     4  10  21  34  51  74 105 135 171 208 253 292
#     4   9  21  38  49  65 110 148 166 200 246 311
#     4   8  16  30  47  71 104 125 160 209 263 302
#     4  10  21  30  57  82  99 131 174 220 256 283
#     4   9  21  35  52  73 106 139 175 199 250 306
#     4   8  16  31  46  71 104 126 159 209 264 300
#
# _framework density 25.012015000000002
#
# number of rings (size 3 to 8) (size 9 to 14) (size 15 to 20)
#    2.000    1.000    0.000    0.500    4.667    1.333 
#    0.000    0.000    0.000    0.000    0.000    7.000 
#    0.000    0.000    0.000    0.000    0.000    0.000 
#
# Total GULP energy -133777.712983 kJ/mol
# GULP energy per Si atom -5574.071374 kJ/mol
# Density = 2.495509 g / cm^3
# Si number density = 25.012015 Si / 1000 Ang^3
#
#
#
# Elastic Constant Matrix: (Units=GPa)
#
#
# Indices 1 2 3 4 5 6 
#
# 1 99.5254 22.7762 14.6349 0.0000 0.9508 0.0000
# 2 22.7762 182.5446 8.8108 0.0000 -2.9726 0.0000
# 3 14.6349 8.8108 43.6720 0.0000 -8.3847 0.0000
# 4 0.0000 0.0000 0.0000 10.9254 0.0000 20.3520
# 5 0.9508 -2.9726 -8.3847 0.0000 40.9821 0.0000
# 6 0.0000 0.0000 0.0000 20.3520 0.0000 15.0687
#
#
#
# Elastic Compliance Matrix: (Units=1/GPa)
#
#
# Indices 1 2 3 4 5 6 
#
# 1 0.010862 -0.001199 -0.003605 0.000000 -0.001077 0.000000
# 2 -0.001199 0.005666 -0.000684 0.000000 0.000299 0.000000
# 3 -0.003605 -0.000684 0.025242 0.000000 0.005198 0.000000
# 4 0.000000 0.000000 0.000000 -0.060378 0.000000 0.081548
# 5 -0.001077 0.000299 0.005198 0.000000 0.025511 0.000000
# 6 0.000000 0.000000 0.000000 0.081548 0.000000 -0.043777
#
#
# Mechanical properties :
#
#
# Convention : Reuss Voigt Hill
#
# Bulk Modulus (GPa) = 32.47313 46.46509 39.46911
# Shear Modulus (GPa) = -319.82763 32.02993 -143.89885
#
# Velocity S-wave (km/s) = -11.32021 3.58240 -7.59321
# Velocity P-wave (km/s) = 12.56391 5.97737 7.81418
#
# Compressibility (1/GPa) = 0.03079469
#
# Stress axis : x y z
#
# Youngs Moduli (GPa) = 92.06057 176.50478 39.61646
#
# Poissons Ratio (x) = 0.21160 0.14281
# Poissons Ratio (y) = 0.11037 0.02709
# Poissons Ratio (z) = 0.33187 0.12071
#
# Static dielectric constant tensor:
#      x y z
#    x 1.962030 0.000000 0.002780 
#    y 0.000000 2.059980 0.000000 
#    z 0.002780 0.000000 1.976490 
# 
# From -- ./inp_files/58253.got.cif
#   From: 2010.05.17/outbox.cif.g08.bks.cpg/sg14_30_cif.got.tgz:58253.got - 2010.06.03 17:49:19.
