data_PCOD9244736
_publ_section_title
;
Structure prediction by ZEFSAII (Michael W. Deem and Ramdas Pophale) SiO2 
 PCOD9244736
Probable space group: P 21/C
;
_chemical_formula_sum "Si O2"
_cell_formula_units_Z 30
_cell_length_a 8.174639
_cell_length_b 26.621337
_cell_length_c 8.649046
_cell_angle_alpha 90.000000
_cell_angle_beta 133.652936
_cell_angle_gamma 90.000000
_cell_volume 1361.839234
_symmetry_space_group_name_H-M "P 21/C"
_symmetry_group_IT_number 14
_symmetry_cell_setting 'monoclinic'
loop_
_space_group_symop_operation_xyz
x,y,z
-x,1/2+y,1/2-z
-x,-y,-z
x,1/2-y,1/2+z
loop_
_atom_site_type_symbol
_atom_site_label
_atom_site_fract_x
_atom_site_fract_y
_atom_site_fract_z
Si Si1 0.683226 0.953451 0.340672
Si Si2 0.119617 0.545903 0.904429
Si Si3 0.334227 0.615238 0.464783
Si Si4 0.000000 0.000000 0.000000
Si Si5 0.170024 0.400657 0.751465
Si Si6 0.286241 0.194644 0.800954
Si Si7 0.192030 0.647189 0.036007
Si Si8 0.370218 0.302908 0.719398
O O1 0.466370 0.934597 0.105657
O O2 0.908612 0.948188 0.383825
O O3 0.711567 0.919672 0.513002
O O4 0.685865 0.011687 0.391623
O O5 0.042835 0.514652 0.707882
O O6 0.191864 0.602321 0.911539
O O7 0.089354 0.614311 0.380482
O O8 0.291616 0.620734 0.254371
O O9 0.499152 0.661608 0.613664
O O10 0.850869 0.947474 0.877414
O O11 0.284963 0.352036 0.753150
O O12 0.057349 0.167688 0.598611
O O13 0.296786 0.251012 0.746995
O O14 0.289658 0.194883 0.989491
O O15 0.357993 0.692217 0.102602
#
# Coordination Sequence:
#
# PCOD9244736 Si02
#       8
#     4   4   4   2   4   4   4   4
#     4  10  22  40  70  98 139 183 232 280 340 420
#     4  10  20  43  66 101 143 184 232 283 342 415
#     4  11  23  42  71  99 133 185 228 286 346 409
#     4  10  24  40  68 102 150 184 228 288 352 408
#     4  11  24  45  67 105 139 184 232 287 347 424
#     4  11  26  47  67 100 135 178 230 291 343 423
#     4  11  24  46  71 101 136 182 231 289 343 416
#     4  11  29  44  74 100 137 182 231 290 357 411
#
# _framework density 22.029032999999998
#
# number of rings (size 3 to 8) (size 9 to 14) (size 15 to 20)
#    0.000    1.333    2.667    0.800    7.467    4.800 
#    0.000    2.667    0.000    0.000    0.000    0.000 
#    0.000    0.000    0.000    0.000    0.000    0.000 
#
# Total GULP energy -167304.008402 kJ/mol
# GULP energy per Si atom -5576.800280 kJ/mol
# Density = 2.197889 g / cm^3
# Si number density = 22.029033 Si / 1000 Ang^3
#
#
#
# Elastic Constant Matrix: (Units=GPa)
#
#
# Indices 1 2 3 4 5 6 
#
# 1 39.9872 9.4121 26.7283 0.0000 10.7368 0.0000
# 2 9.4121 88.6506 25.1863 0.0000 6.9892 0.0000
# 3 26.7283 25.1863 64.6586 0.0000 9.2987 0.0000
# 4 0.0000 0.0000 0.0000 30.3275 0.0000 -11.9428
# 5 10.7368 6.9892 9.2987 0.0000 31.4454 0.0000
# 6 0.0000 0.0000 0.0000 -11.9428 0.0000 8.5862
#
#
#
# Elastic Compliance Matrix: (Units=1/GPa)
#
#
# Indices 1 2 3 4 5 6 
#
# 1 0.036603 0.000826 -0.014234 0.000000 -0.008472 0.000000
# 2 0.000826 0.012763 -0.005081 0.000000 -0.001616 0.000000
# 3 -0.014234 -0.005081 0.023465 0.000000 -0.000950 0.000000
# 4 0.000000 0.000000 0.000000 0.072909 0.000000 0.101411
# 5 -0.008472 -0.001616 -0.000950 0.000000 0.035334 0.000000
# 6 0.000000 0.000000 0.000000 0.101411 0.000000 0.257522
#
#
# Mechanical properties :
#
#
# Convention : Reuss Voigt Hill
#
# Bulk Modulus (GPa) = 27.89085 35.10554 31.49819
# Shear Modulus (GPa) = 10.25587 22.86979 16.56283
#
# Velocity S-wave (km/s) = 2.16003 3.22555 2.74499
# Velocity P-wave (km/s) = 4.34849 5.46286 4.93722
#
# Compressibility (1/GPa) = 0.03585406
#
# Stress axis : x y z
#
# Youngs Moduli (GPa) = 27.32037 78.34872 42.61590
#
# Poissons Ratio (x) = -0.06470 0.60659
# Poissons Ratio (y) = -0.02256 0.21651
# Poissons Ratio (z) = 0.38888 0.39806
#
# Static dielectric constant tensor:
#      x y z
#    x 1.842470 0.000000 0.031510 
#    y 0.000000 1.806100 0.000000 
#    z 0.031510 0.000000 1.808290 
# 
# From -- ./inp_files/11204.got.cif
#   From: 2010.05.17/outbox.cif.g08.bks.cpg/sg14_6_cif.got.tgz:11204.got - 2010.06.03 17:49:19.
