data_PCOD9244601
_publ_section_title
;
Structure prediction by ZEFSAII (Michael W. Deem and Ramdas Pophale) SiO2 
 PCOD9244601
Probable space group: P 21/C
;
_chemical_formula_sum "Si O2"
_cell_formula_units_Z 28
_cell_length_a 6.535217
_cell_length_b 9.350034
_cell_length_c 23.241375
_cell_angle_alpha 90.000000
_cell_angle_beta 103.375522
_cell_angle_gamma 90.000000
_cell_volume 1381.630697
_symmetry_space_group_name_H-M "P 21/C"
_symmetry_group_IT_number 14
_symmetry_cell_setting 'monoclinic'
loop_
_space_group_symop_operation_xyz
x,y,z
-x,1/2+y,1/2-z
-x,-y,-z
x,1/2-y,1/2+z
loop_
_atom_site_type_symbol
_atom_site_label
_atom_site_fract_x
_atom_site_fract_y
_atom_site_fract_z
Si Si1 0.594675 0.751748 0.045301
Si Si2 0.143851 0.717194 0.981825
Si Si3 0.186233 0.989737 0.812040
Si Si4 0.039752 0.442733 0.921225
Si Si5 0.915965 0.220135 0.297203
Si Si6 0.949646 0.994297 0.070943
Si Si7 0.610220 0.129635 0.855700
O O1 0.724614 0.607155 0.048187
O O2 0.507708 0.775235 0.104157
O O3 0.764351 0.878602 0.047171
O O4 0.391837 0.747050 0.991836
O O5 0.038751 0.612172 0.928495
O O6 0.043931 0.873732 0.972095
O O7 0.102776 0.633535 0.039235
O O8 0.436883 0.014001 0.826323
O O9 0.071992 0.145249 0.797602
O O10 0.110542 0.878683 0.759609
O O11 0.123021 0.941346 0.871875
O O12 0.991750 0.376393 0.856187
O O13 0.697027 0.286179 0.306286
O O14 0.180079 0.931121 0.099669
#
# Coordination Sequence:
#
# PCOD9244601 Si02
#       7
#     4   4   4   4   4   4   4
#     4  11  19  41  64  88 122 165 203 247 306 362
#     4  11  24  38  62  94 127 164 205 249 309 365
#     4  10  24  41  68  89 120 160 208 253 312 359
#     4  11  23  41  61  90 128 164 200 257 310 364
#     4  11  22  45  64  90 121 162 204 258 304 364
#     4  10  22  40  62  92 125 159 209 252 297 372
#     4  10  20  42  64  91 123 158 202 251 313 355
#
# _framework density 20.265906999999999
#
# number of rings (size 3 to 8) (size 9 to 14) (size 15 to 20)
#    0.000    1.429    5.714    0.857    2.000    6.857 
#    0.000    0.000    0.000    0.000    0.000    0.000 
#    0.000    0.000    0.000    0.000    0.000    0.000 
#
# Total GULP energy -156288.868132 kJ/mol
# GULP energy per Si atom -5581.745290 kJ/mol
# Density = 2.021978 g / cm^3
# Si number density = 20.265907 Si / 1000 Ang^3
#
#
#
# Elastic Constant Matrix: (Units=GPa)
#
#
# Indices 1 2 3 4 5 6 
#
# 1 119.8106 27.8288 20.6505 0.0000 -1.1137 0.0000
# 2 27.8288 91.5686 7.1022 0.0000 3.6983 0.0000
# 3 20.6505 7.1022 56.7558 0.0000 -1.6222 0.0000
# 4 0.0000 0.0000 0.0000 39.7272 0.0000 0.5340
# 5 -1.1137 3.6983 -1.6222 0.0000 21.1795 0.0000
# 6 0.0000 0.0000 0.0000 0.5340 0.0000 15.3049
#
#
#
# Elastic Compliance Matrix: (Units=1/GPa)
#
#
# Indices 1 2 3 4 5 6 
#
# 1 0.009511 -0.002679 -0.003104 0.000000 0.000730 0.000000
# 2 -0.002679 0.011871 -0.000575 0.000000 -0.002258 0.000000
# 3 -0.003104 -0.000575 0.018860 0.000000 0.001382 0.000000
# 4 0.000000 0.000000 0.000000 0.025183 0.000000 -0.000879
# 5 0.000730 -0.002258 0.001382 0.000000 0.047754 0.000000
# 6 0.000000 0.000000 0.000000 -0.000879 0.000000 0.065369
#
#
# Mechanical properties :
#
#
# Convention : Reuss Voigt Hill
#
# Bulk Modulus (GPa) = 36.33126 42.14420 39.23773
# Shear Modulus (GPa) = 24.94509 29.41256 27.17882
#
# Velocity S-wave (km/s) = 3.51221 3.81377 3.66609
# Velocity P-wave (km/s) = 5.86632 6.34302 6.10932
#
# Compressibility (1/GPa) = 0.02752451
#
# Stress axis : x y z
#
# Youngs Moduli (GPa) = 105.14542 84.24040 53.02137
#
# Poissons Ratio (x) = 0.22569 0.16459
# Poissons Ratio (y) = 0.28170 0.03050
# Poissons Ratio (z) = 0.32640 0.04846
#
# Static dielectric constant tensor:
#      x y z
#    x 1.720680 0.000000 -0.010470 
#    y 0.000000 1.726120 0.000000 
#    z -0.010470 0.000000 1.746690 
# 
# From -- ./inp_files/75714.got.cif
#   From: 2010.05.17/outbox.cif.g08.bks.cpg/sg14_38_cif.got.tgz:75714.got - 2010.06.03 17:49:19.
