data_PCOD9244161
_publ_section_title
;
Structure prediction by ZEFSAII (Michael W. Deem and Ramdas Pophale) SiO2 
 PCOD9244161
Probable space group: P 21/C
;
_chemical_formula_sum "Si O2"
_cell_formula_units_Z 28
_cell_length_a 12.442600
_cell_length_b 8.763738
_cell_length_c 27.846824
_cell_angle_alpha 90.000000
_cell_angle_beta 153.726687
_cell_angle_gamma 90.000000
_cell_volume 1344.126604
_symmetry_space_group_name_H-M "P 21/C"
_symmetry_group_IT_number 14
_symmetry_cell_setting 'monoclinic'
loop_
_space_group_symop_operation_xyz
x,y,z
-x,1/2+y,1/2-z
-x,-y,-z
x,1/2-y,1/2+z
loop_
_atom_site_type_symbol
_atom_site_label
_atom_site_fract_x
_atom_site_fract_y
_atom_site_fract_z
Si Si1 0.651196 0.486613 0.488297
Si Si2 0.047158 0.824516 0.207757
Si Si3 0.190266 0.398207 0.104241
Si Si4 0.700983 0.440607 0.275455
Si Si5 0.093107 0.479325 0.254671
Si Si6 0.033423 0.259500 0.140595
Si Si7 0.117463 0.115444 0.009899
O O1 0.367997 0.493531 0.384858
O O2 0.819191 0.599397 0.587687
O O3 0.766706 0.317149 0.538494
O O4 0.691833 0.537645 0.449273
O O5 0.284120 0.853518 0.269486
O O6 0.013479 0.645990 0.204672
O O7 0.065761 0.914458 0.265274
O O8 0.458802 0.465892 0.208659
O O9 0.083969 0.359430 0.113614
O O10 0.000000 0.500000 0.000000
O O11 0.218432 0.248462 0.082681
O O12 0.804397 0.608014 0.303488
O O13 0.890353 0.346102 0.384256
O O14 0.091651 0.357600 0.210763
O O15 0.000000 0.000000 0.000000
#
# Coordination Sequence:
#
# PCOD9244161 Si02
#       7
#     4   4   4   4   4   4   4
#     4  10  23  44  69  93 134 172 218 261 337 383
#     4  10  23  45  66 101 120 174 222 264 328 399
#     4  12  26  36  65  98 130 164 224 259 320 384
#     4  10  24  42  64  89 137 166 216 264 320 382
#     4  12  24  44  73  90 137 168 216 281 329 379
#     4  10  25  42  62 101 127 175 221 258 327 401
#     4  10  20  40  60  89 129 174 202 255 319 382
#
# _framework density 20.831371000000001
#
# number of rings (size 3 to 8) (size 9 to 14) (size 15 to 20)
#    0.000    1.714    2.857    3.000   10.000    0.000 
#    0.000    1.429    0.000    0.000    0.000    0.000 
#    0.000    0.000    0.000    0.000    0.000    0.000 
#
# Total GULP energy -156260.175925 kJ/mol
# GULP energy per Si atom -5580.720569 kJ/mol
# Density = 2.078396 g / cm^3
# Si number density = 20.831371 Si / 1000 Ang^3
#
#
#
# Elastic Constant Matrix: (Units=GPa)
#
#
# Indices 1 2 3 4 5 6 
#
# 1 92.4502 21.3401 23.9693 0.0000 -17.2416 0.0000
# 2 21.3401 60.2138 3.5141 0.0000 -15.7188 0.0000
# 3 23.9693 3.5141 47.6391 0.0000 1.9828 0.0000
# 4 0.0000 0.0000 0.0000 26.9532 0.0000 -7.6512
# 5 -17.2416 -15.7188 1.9828 0.0000 33.6616 0.0000
# 6 0.0000 0.0000 0.0000 -7.6512 0.0000 26.6621
#
#
#
# Elastic Compliance Matrix: (Units=1/GPa)
#
#
# Indices 1 2 3 4 5 6 
#
# 1 0.014664 -0.003062 -0.007423 0.000000 0.006518 0.000000
# 2 -0.003062 0.019702 -0.000231 0.000000 0.007645 0.000000
# 3 -0.007423 -0.000231 0.024967 0.000000 -0.005381 0.000000
# 4 0.000000 0.000000 0.000000 0.040392 0.000000 0.011591
# 5 0.006518 0.007645 -0.005381 0.000000 0.036933 0.000000
# 6 0.000000 0.000000 0.000000 0.011591 0.000000 0.040833
#
#
# Mechanical properties :
#
#
# Convention : Reuss Voigt Hill
#
# Bulk Modulus (GPa) = 26.38503 33.10554 29.74529
# Shear Modulus (GPa) = 23.63435 27.55402 25.59419
#
# Velocity S-wave (km/s) = 3.37197 3.64086 3.50899
# Velocity P-wave (km/s) = 5.27767 5.79665 5.54324
#
# Compressibility (1/GPa) = 0.03790028
#
# Stress axis : x y z
#
# Youngs Moduli (GPa) = 68.19562 50.75623 40.05268
#
# Poissons Ratio (x) = 0.15542 0.29732
# Poissons Ratio (y) = 0.20882 0.00925
# Poissons Ratio (z) = 0.50624 0.01172
#
# Static dielectric constant tensor:
#      x y z
#    x 1.775940 0.000000 0.038470 
#    y 0.000000 1.797910 0.000000 
#    z 0.038470 0.000000 1.745250 
# 
# From -- ./inp_files/77153.got.cif
#   From: 2010.05.17/outbox.cif.g08.bks.cpg/sg14_39_cif.got.tgz:77153.got - 2010.06.03 17:49:19.
