data_PCOD9244634
_publ_section_title
;
Structure prediction by ZEFSAII (Michael W. Deem and Ramdas Pophale) SiO2 
 PCOD9244634
Probable space group: P 21/C
;
_chemical_formula_sum "Si O2"
_cell_formula_units_Z 30
_cell_length_a 5.784751
_cell_length_b 15.228302
_cell_length_c 16.852620
_cell_angle_alpha 90.000000
_cell_angle_beta 63.650119
_cell_angle_gamma 90.000000
_cell_volume 1330.332589
_symmetry_space_group_name_H-M "P 21/C"
_symmetry_group_IT_number 14
_symmetry_cell_setting 'monoclinic'
loop_
_space_group_symop_operation_xyz
x,y,z
-x,1/2+y,1/2-z
-x,-y,-z
x,1/2-y,1/2+z
loop_
_atom_site_type_symbol
_atom_site_label
_atom_site_fract_x
_atom_site_fract_y
_atom_site_fract_z
Si Si1 0.738129 0.833132 0.585917
Si Si2 0.262632 0.645404 0.933253
Si Si3 0.921690 0.107811 0.707834
Si Si4 0.500000 0.000000 0.000000
Si Si5 0.517518 0.290324 0.491856
Si Si6 0.374988 0.038767 0.842627
Si Si7 0.641077 0.486372 0.835443
Si Si8 0.072100 0.200641 0.832005
O O1 0.701435 0.759729 0.524053
O O2 0.758028 0.782251 0.666179
O O3 0.015826 0.875922 0.526172
O O4 0.497345 0.897818 0.617543
O O5 0.454620 0.563445 0.896117
O O6 0.150367 0.653606 0.862215
O O7 0.407091 0.731561 0.943437
O O8 0.081429 0.017142 0.674840
O O9 0.085057 0.171404 0.739421
O O10 0.657499 0.082716 0.791935
O O11 0.544749 0.892462 0.990946
O O12 0.627605 0.005240 0.071687
O O13 0.778406 0.282551 0.399734
O O14 0.346362 0.986644 0.763201
O O15 0.162746 0.114854 0.866733
#
# Coordination Sequence:
#
# PCOD9244634 Si02
#       8
#     4   4   4   2   4   4   4   4
#     4  11  22  42  65 101 130 175 214 271 330 392
#     4  10  23  41  67  99 129 170 221 268 334 387
#     4  10  20  42  67  90 131 176 212 275 324 387
#     4  12  22  46  66  92 132 168 226 264 322 394
#     4  11  24  41  67  96 129 176 214 274 329 383
#     4  10  22  43  65  91 126 177 213 275 325 380
#     4  10  23  42  68  95 133 170 219 269 336 390
#     4  10  20  42  66  87 132 175 212 264 333 378
#
# _framework density 22.550754000000001
#
# number of rings (size 3 to 8) (size 9 to 14) (size 15 to 20)
#    0.000    1.600    2.667    1.200    0.000    6.933 
#   12.000    0.000    0.000    0.000    0.000    0.000 
#    0.000    0.000    0.000    0.000    0.000    0.000 
#
# Total GULP energy -167062.302854 kJ/mol
# GULP energy per Si atom -5568.743428 kJ/mol
# Density = 2.249943 g / cm^3
# Si number density = 22.550754 Si / 1000 Ang^3
#
#
#
# Elastic Constant Matrix: (Units=GPa)
#
#
# Indices 1 2 3 4 5 6 
#
# 1 45.7654 -5.2475 2.9303 0.0000 11.5001 0.0000
# 2 -5.2475 70.3500 0.1122 0.0000 24.7156 0.0000
# 3 2.9303 0.1122 15.1578 0.0000 15.3196 0.0000
# 4 0.0000 0.0000 0.0000 26.0238 0.0000 10.4874
# 5 11.5001 24.7156 15.3196 0.0000 38.0014 0.0000
# 6 0.0000 0.0000 0.0000 10.4874 0.0000 24.4559
#
#
#
# Elastic Compliance Matrix: (Units=1/GPa)
#
#
# Indices 1 2 3 4 5 6 
#
# 1 0.026984 0.009062 0.015064 0.000000 -0.020132 0.000000
# 2 0.009062 0.026047 0.030290 0.000000 -0.031894 0.000000
# 3 0.015064 0.030290 0.147417 0.000000 -0.083687 0.000000
# 4 0.000000 0.000000 0.000000 0.046454 0.000000 -0.019921
# 5 -0.020132 -0.031894 -0.083687 0.000000 0.086888 0.000000
# 6 0.000000 0.000000 0.000000 -0.019921 0.000000 0.049433
#
#
# Mechanical properties :
#
#
# Convention : Reuss Voigt Hill
#
# Bulk Modulus (GPa) = 3.23333 14.09589 8.66461
# Shear Modulus (GPa) = 13.24552 26.59476 19.92014
#
# Velocity S-wave (km/s) = 2.42619 3.43786 2.97534
# Velocity P-wave (km/s) = 3.04720 4.69285 3.95653
#
# Compressibility (1/GPa) = 0.30927876
#
# Stress axis : x y z
#
# Youngs Moduli (GPa) = 37.05897 38.39158 6.78347
#
# Poissons Ratio (x) = -0.34789 -0.10218
# Poissons Ratio (y) = -0.33582 -0.20547
# Poissons Ratio (z) = -0.55824 -1.16288
#
# Static dielectric constant tensor:
#      x y z
#    x 1.842730 0.000000 0.013490 
#    y 0.000000 1.817620 0.000000 
#    z 0.013490 0.000000 1.873760 
# 
# From -- ./inp_files/53469.got.cif
#   From: 2010.05.17/outbox.cif.g08.bks.cpg/sg14_27_cif.got.tgz:53469.got - 2010.06.03 17:49:19.
