data_PCOD9244476
_publ_section_title
;
Structure prediction by ZEFSAII (Michael W. Deem and Ramdas Pophale) SiO2 
 PCOD9244476
Probable space group: P 21/C
;
_chemical_formula_sum "Si O2"
_cell_formula_units_Z 32
_cell_length_a 5.057796
_cell_length_b 20.859445
_cell_length_c 12.621178
_cell_angle_alpha 90.000000
_cell_angle_beta 78.485369
_cell_angle_gamma 90.000000
_cell_volume 1304.770348
_symmetry_space_group_name_H-M "P 21/C"
_symmetry_group_IT_number 14
_symmetry_cell_setting 'monoclinic'
loop_
_space_group_symop_operation_xyz
x,y,z
-x,1/2+y,1/2-z
-x,-y,-z
x,1/2-y,1/2+z
loop_
_atom_site_type_symbol
_atom_site_label
_atom_site_fract_x
_atom_site_fract_y
_atom_site_fract_z
Si Si1 0.253509 0.627109 0.456077
Si Si2 0.826956 0.368992 0.072221
Si Si3 0.487042 0.691246 0.632969
Si Si4 0.603701 0.787992 0.771526
Si Si5 0.357518 0.961813 0.777130
Si Si6 0.109047 0.240607 0.057799
Si Si7 0.081991 0.403760 0.837578
Si Si8 0.743900 0.605368 0.786409
O O1 0.313204 0.644201 0.573310
O O2 0.467269 0.664431 0.365223
O O3 0.287202 0.556483 0.405131
O O4 0.990558 0.667214 0.445152
O O5 0.890730 0.293901 0.044398
O O6 0.512439 0.382683 0.114441
O O7 0.983724 0.385541 0.168497
O O8 0.962972 0.408542 0.965368
O O9 0.390012 0.743845 0.726778
O O10 0.688173 0.648642 0.687478
O O11 0.641000 0.738852 0.541172
O O12 0.793127 0.833009 0.686501
O O13 0.787579 0.745181 0.833230
O O14 0.667518 0.949303 0.716610
O O15 0.165672 0.915572 0.722167
O O16 0.275519 0.033023 0.753748
#
# Coordination Sequence:
#
# PCOD9244476 Si02
#       8
#     4   4   4   4   4   4   4   4
#     4  10  24  40  69  98 135 183 230 271 343 421
#     4  12  26  43  71 105 137 175 234 285 353 404
#     4  11  24  41  68 102 138 176 220 287 346 402
#     4  10  20  41  64  98 136 172 221 281 344 410
#     4  11  25  47  70  95 140 188 236 277 332 406
#     4  11  22  40  67 102 134 173 221 280 346 420
#     4  11  23  44  74  99 134 186 228 284 344 399
#     4  12  28  46  66 102 141 184 231 288 330 401
#
# _framework density 24.525390999999999
#
# number of rings (size 3 to 8) (size 9 to 14) (size 15 to 20)
#    0.000    1.000    3.750    2.250    3.500    6.500 
#    0.000    0.625    0.000    0.000    0.000    0.000 
#    0.000    0.000    0.000    0.000    0.000    0.000 
#
# Total GULP energy -178832.683384 kJ/mol
# GULP energy per Si atom -5588.521356 kJ/mol
# Density = 2.446957 g / cm^3
# Si number density = 24.525391 Si / 1000 Ang^3
#
#
#
# Elastic Constant Matrix: (Units=GPa)
#
#
# Indices 1 2 3 4 5 6 
#
# 1 88.4008 -10.2264 17.9905 0.0000 1.6760 0.0000
# 2 -10.2264 46.7552 14.0295 0.0000 7.0900 0.0000
# 3 17.9905 14.0295 108.6281 0.0000 17.5056 0.0000
# 4 0.0000 0.0000 0.0000 16.1514 0.0000 -0.7129
# 5 1.6760 7.0900 17.5056 0.0000 21.8569 0.0000
# 6 0.0000 0.0000 0.0000 -0.7129 0.0000 23.7736
#
#
#
# Elastic Compliance Matrix: (Units=1/GPa)
#
#
# Indices 1 2 3 4 5 6 
#
# 1 0.012208 0.003418 -0.002450 0.000000 -0.000083 0.000000
# 2 0.003418 0.023831 -0.002705 0.000000 -0.005826 0.000000
# 3 -0.002450 -0.002705 0.011240 0.000000 -0.007937 0.000000
# 4 0.000000 0.000000 0.000000 0.061996 0.000000 0.001859
# 5 -0.000083 -0.005826 -0.007937 0.000000 0.054005 0.000000
# 6 0.000000 0.000000 0.000000 0.001859 0.000000 0.042119
#
#
# Mechanical properties :
#
#
# Convention : Reuss Voigt Hill
#
# Bulk Modulus (GPa) = 22.82901 31.93015 27.37958
# Shear Modulus (GPa) = 22.37394 27.15573 24.76483
#
# Velocity S-wave (km/s) = 3.02367 3.33115 3.18112
# Velocity P-wave (km/s) = 4.63882 5.27663 4.96797
#
# Compressibility (1/GPa) = 0.04380392
#
# Stress axis : x y z
#
# Youngs Moduli (GPa) = 81.91596 41.96282 88.96913
#
# Poissons Ratio (x) = -0.14342 0.21796
# Poissons Ratio (y) = -0.27997 0.24066
# Poissons Ratio (z) = 0.20068 0.11351
#
# Static dielectric constant tensor:
#      x y z
#    x 1.958120 0.000000 -0.043980 
#    y 0.000000 1.992420 0.000000 
#    z -0.043980 0.000000 2.031340 
# 
# From -- ./inp_files/21816.got.cif
#   From: 2010.05.17/outbox.cif.g08.bks.cpg/sg14_11_cif.got.tgz:21816.got - 2010.06.03 17:49:19.
