data_PCOD9244463
_publ_section_title
;
Structure prediction by ZEFSAII (Michael W. Deem and Ramdas Pophale) SiO2 
 PCOD9244463
Probable space group: P 21/C
;
_chemical_formula_sum "Si O2"
_cell_formula_units_Z 20
_cell_length_a 13.212032
_cell_length_b 12.777809
_cell_length_c 10.565381
_cell_angle_alpha 90.000000
_cell_angle_beta 145.442747
_cell_angle_gamma 90.000000
_cell_volume 1011.742408
_symmetry_space_group_name_H-M "P 21/C"
_symmetry_group_IT_number 14
_symmetry_cell_setting 'monoclinic'
loop_
_space_group_symop_operation_xyz
x,y,z
-x,1/2+y,1/2-z
-x,-y,-z
x,1/2-y,1/2+z
loop_
_atom_site_type_symbol
_atom_site_label
_atom_site_fract_x
_atom_site_fract_y
_atom_site_fract_z
Si Si1 0.478064 0.447999 0.266316
Si Si2 0.179366 0.491012 0.529148
Si Si3 0.714961 0.068706 0.234867
Si Si4 0.156897 0.127585 0.270372
Si Si5 0.099591 0.132864 0.697084
O O1 0.625828 0.473023 0.314116
O O2 0.400058 0.550280 0.257914
O O3 0.588291 0.391042 0.492203
O O4 0.308666 0.394105 0.030029
O O5 0.188337 0.439543 0.675938
O O6 0.113505 0.407723 0.355861
O O7 0.035557 0.585589 0.379248
O O8 0.893842 0.131599 0.442474
O O9 0.789458 0.953857 0.267593
O O10 0.163750 0.249814 0.248076
#
# Coordination Sequence:
#
# PCOD9244463 Si02
#       5
#     4   4   4   4   4
#     4  10  20  41  64  85 126 161 200 257 308 356
#     4  10  23  41  59  92 131 158 203 262 309 360
#     4   9  20  40  64  92 124 161 207 260 299 367
#     4  11  23  40  64  90 125 168 203 254 314 368
#     4  10  21  40  67  87 123 169 207 250 311 370
#
# _framework density 19.767878
#
# number of rings (size 3 to 8) (size 9 to 14) (size 15 to 20)
#    0.000    2.000    2.000    0.600    2.800    0.000 
#   10.800    8.000    0.000    0.000    0.000    0.000 
#    0.000    0.000    0.000    0.000    0.000    0.000 
#
# Total GULP energy -111615.237587 kJ/mol
# GULP energy per Si atom -5580.761879 kJ/mol
# Density = 1.972288 g / cm^3
# Si number density = 19.767878 Si / 1000 Ang^3
#
#
#
# Elastic Constant Matrix: (Units=GPa)
#
#
# Indices 1 2 3 4 5 6 
#
# 1 85.5811 -1.8355 14.4921 0.0000 16.2102 0.0000
# 2 -1.8355 44.7193 22.8789 0.0000 -4.6348 0.0000
# 3 14.4921 22.8789 127.9963 0.0000 1.0085 0.0000
# 4 0.0000 0.0000 0.0000 10.3299 0.0000 0.2251
# 5 16.2102 -4.6348 1.0085 0.0000 24.5601 0.0000
# 6 0.0000 0.0000 0.0000 0.2251 0.0000 24.2604
#
#
#
# Elastic Compliance Matrix: (Units=1/GPa)
#
#
# Indices 1 2 3 4 5 6 
#
# 1 0.013634 0.000436 -0.001552 0.000000 -0.008853 0.000000
# 2 0.000436 0.025212 -0.004593 0.000000 0.004659 0.000000
# 3 -0.001552 -0.004593 0.008811 0.000000 -0.000204 0.000000
# 4 0.000000 0.000000 0.000000 0.096826 0.000000 -0.000898
# 5 -0.008853 0.004659 -0.000204 0.000000 0.047447 0.000000
# 6 0.000000 0.000000 0.000000 -0.000898 0.000000 0.041228
#
#
# Mechanical properties :
#
#
# Convention : Reuss Voigt Hill
#
# Bulk Modulus (GPa) = 27.59391 36.59643 32.09517
# Shear Modulus (GPa) = 19.48144 26.68082 23.08113
#
# Velocity S-wave (km/s) = 3.14269 3.67782 3.42074
# Velocity P-wave (km/s) = 5.21133 6.04884 5.64563
#
# Compressibility (1/GPa) = 0.03623987
#
# Stress axis : x y z
#
# Youngs Moduli (GPa) = 73.34736 39.66357 113.49510
#
# Poissons Ratio (x) = -0.01729 0.17613
# Poissons Ratio (y) = -0.03198 0.52124
# Poissons Ratio (z) = 0.11382 0.18216
#
# Static dielectric constant tensor:
#      x y z
#    x 1.720920 0.000000 0.000850 
#    y 0.000000 1.692890 0.000000 
#    z 0.000850 0.000000 1.696550 
# 
# From -- ./inp_files/32266.got.cif
#   From: 2010.05.17/outbox.cif.g08.bks.cpg/sg14_17_cif.got.tgz:32266.got - 2010.06.03 17:49:19.
