data_PCOD9244497
_publ_section_title
;
Structure prediction by ZEFSAII (Michael W. Deem and Ramdas Pophale) SiO2 
 PCOD9244497
Probable space group: P 21/C
;
_chemical_formula_sum "Si O2"
_cell_formula_units_Z 20
_cell_length_a 19.978654
_cell_length_b 5.329945
_cell_length_c 12.495812
_cell_angle_alpha 90.000000
_cell_angle_beta 36.871094
_cell_angle_gamma 90.000000
_cell_volume 798.393103
_symmetry_space_group_name_H-M "P 21/C"
_symmetry_group_IT_number 14
_symmetry_cell_setting 'monoclinic'
loop_
_space_group_symop_operation_xyz
x,y,z
-x,1/2+y,1/2-z
-x,-y,-z
x,1/2-y,1/2+z
loop_
_atom_site_type_symbol
_atom_site_label
_atom_site_fract_x
_atom_site_fract_y
_atom_site_fract_z
Si Si1 0.745346 0.168284 0.331637
Si Si2 0.495896 0.712743 0.328713
Si Si3 0.731670 0.896078 0.579317
Si Si4 0.893869 0.214442 0.975128
Si Si5 0.892726 0.973205 0.769821
O O1 0.619333 0.235695 0.462265
O O2 0.823132 0.034373 0.144851
O O3 0.820449 0.405490 0.270153
O O4 0.731485 0.022800 0.461121
O O5 0.480402 0.461312 0.275077
O O6 0.603355 0.666634 0.265654
O O7 0.803711 0.652937 0.462919
O O8 0.798167 0.078127 0.572429
O O9 0.006527 0.296465 0.891841
O O10 0.942118 0.168628 0.793127
#
# Coordination Sequence:
#
# PCOD9244497 Si02
#       5
#     4   4   4   4   4
#     4  10  23  39  64  90 117 166 211 250 316 384
#     4  10  20  41  66  92 130 168 211 264 319 375
#     4  10  22  40  62  87 125 162 200 263 317 366
#     4  11  23  39  61  92 122 159 211 255 315 381
#     4  11  21  41  59  88 125 160 198 265 315 365
#
# _framework density 25.050315999999999
#
# number of rings (size 3 to 8) (size 9 to 14) (size 15 to 20)
#    0.000    1.600    4.000    0.600    0.000    3.200 
#    0.000    1.000    0.000    0.000    0.000    0.000 
#    0.000    0.000    0.000    0.000    0.000    0.000 
#
# Total GULP energy -111592.117075 kJ/mol
# GULP energy per Si atom -5579.605854 kJ/mol
# Density = 2.499330 g / cm^3
# Si number density = 25.050316 Si / 1000 Ang^3
#
#
#
# Elastic Constant Matrix: (Units=GPa)
#
#
# Indices 1 2 3 4 5 6 
#
# 1 58.6731 -15.6696 41.3376 0.0000 -13.3553 0.0000
# 2 -15.6696 23.6949 -13.2845 0.0000 11.6963 0.0000
# 3 41.3376 -13.2845 148.9338 0.0000 -14.2013 0.0000
# 4 0.0000 0.0000 0.0000 3.0945 0.0000 -14.3671
# 5 -13.3553 11.6963 -14.2013 0.0000 35.2155 0.0000
# 6 0.0000 0.0000 0.0000 -14.3671 0.0000 20.6489
#
#
#
# Elastic Compliance Matrix: (Units=1/GPa)
#
#
# Indices 1 2 3 4 5 6 
#
# 1 0.024809 0.011677 -0.005530 0.000000 0.003300 0.000000
# 2 0.011677 0.057316 0.000498 0.000000 -0.014407 0.000000
# 3 -0.005530 0.000498 0.008401 0.000000 0.001125 0.000000
# 4 0.000000 0.000000 0.000000 -0.144890 0.000000 -0.100811
# 5 0.003300 -0.014407 0.001125 0.000000 0.034887 0.000000
# 6 0.000000 0.000000 0.000000 -0.100811 0.000000 -0.021713
#
#
# Mechanical properties :
#
#
# Convention : Reuss Voigt Hill
#
# Bulk Modulus (GPa) = 9.63239 28.45208 19.04224
# Shear Modulus (GPa) = -251.58359 26.38633 -112.59863
#
# Velocity S-wave (km/s) = -10.03241 3.24903 -6.71167
# Velocity P-wave (km/s) = 11.41690 5.04555 7.24182
#
# Compressibility (1/GPa) = 0.10381644
#
# Stress axis : x y z
#
# Youngs Moduli (GPa) = 40.30739 17.44711 119.03482
#
# Poissons Ratio (x) = -0.20373 0.65823
# Poissons Ratio (y) = -0.47068 -0.05923
# Poissons Ratio (z) = 0.22289 -0.00868
#
# Static dielectric constant tensor:
#      x y z
#    x 2.140030 0.000000 0.078330 
#    y 0.000000 2.301950 0.000000 
#    z 0.078330 0.000000 1.988750 
# 
# From -- ./inp_files/34502.got.cif
#   From: 2010.05.17/outbox.cif.g08.bks.cpg/sg14_18_cif.got.tgz:34502.got - 2010.06.03 17:49:19.
