data_PCOD9244093
_publ_section_title
;
Structure prediction by ZEFSAII (Michael W. Deem and Ramdas Pophale) SiO2 
 PCOD9244093
Probable space group: P 21/C
;
_chemical_formula_sum "Si O2"
_cell_formula_units_Z 24
_cell_length_a 10.862362
_cell_length_b 11.848134
_cell_length_c 19.542674
_cell_angle_alpha 90.000000
_cell_angle_beta 159.468435
_cell_angle_gamma 90.000000
_cell_volume 882.110317
_symmetry_space_group_name_H-M "P 21/C"
_symmetry_group_IT_number 14
_symmetry_cell_setting 'monoclinic'
loop_
_space_group_symop_operation_xyz
x,y,z
-x,1/2+y,1/2-z
-x,-y,-z
x,1/2-y,1/2+z
loop_
_atom_site_type_symbol
_atom_site_label
_atom_site_fract_x
_atom_site_fract_y
_atom_site_fract_z
Si Si1 0.592404 0.625524 0.027113
Si Si2 0.239760 0.114942 0.241520
Si Si3 0.384891 0.640957 0.393516
Si Si4 0.246919 0.593205 0.668896
Si Si5 0.160183 0.204040 0.600272
Si Si6 0.563216 0.915988 0.136296
O O1 0.585306 0.671262 0.102214
O O2 0.986413 0.620456 0.205990
O O3 0.500000 0.500000 0.000000
O O4 0.418242 0.727274 0.895199
O O5 0.357822 0.187627 0.237824
O O6 0.307469 0.980984 0.268240
O O7 0.816662 0.125719 0.033033
O O8 0.474894 0.552433 0.381383
O O9 0.607049 0.608783 0.577896
O O10 0.624199 0.615425 0.832021
O O11 0.000000 0.500000 0.500000
O O12 0.089280 0.719735 0.578074
O O13 0.129010 0.131685 0.655262
#
# Coordination Sequence:
#
# PCOD9244093 Si02
#       6
#     4   4   4   4   4   4
#     4  11  25  43  68 100 142 187 232 280 355 421
#     4  10  22  43  65  94 139 179 227 294 351 415
#     4  10  24  39  66 101 136 179 236 283 348 414
#     4  10  22  40  65  97 131 173 237 287 343 424
#     4  11  19  39  71  92 126 184 225 281 359 405
#     4  10  20  39  67  92 132 178 228 292 348 410
#
# _framework density 27.207481000000001
#
# number of rings (size 3 to 8) (size 9 to 14) (size 15 to 20)
#    0.000    1.667    5.000    0.000    7.000    1.333 
#    3.000    3.333    0.000    0.000    0.000    0.000 
#    0.000    0.000    0.000    0.000    0.000    0.000 
#
# Total GULP energy -133748.578247 kJ/mol
# GULP energy per Si atom -5572.857427 kJ/mol
# Density = 2.714556 g / cm^3
# Si number density = 27.207481 Si / 1000 Ang^3
#
#
#
# Elastic Constant Matrix: (Units=GPa)
#
#
# Indices 1 2 3 4 5 6 
#
# 1 58.5992 40.2902 18.8810 0.0000 -8.3014 0.0000
# 2 40.2902 234.4380 45.6356 0.0000 -13.4071 0.0000
# 3 18.8810 45.6356 44.7195 0.0000 -0.8024 0.0000
# 4 0.0000 0.0000 0.0000 56.4207 0.0000 -2.0483
# 5 -8.3014 -13.4071 -0.8024 0.0000 26.4856 0.0000
# 6 0.0000 0.0000 0.0000 -2.0483 0.0000 67.5039
#
#
#
# Elastic Compliance Matrix: (Units=1/GPa)
#
#
# Indices 1 2 3 4 5 6 
#
# 1 0.021460 -0.002034 -0.006887 0.000000 0.005488 0.000000
# 2 -0.002034 0.005691 -0.004911 0.000000 0.002095 0.000000
# 3 -0.006887 -0.004911 0.030214 0.000000 -0.003729 0.000000
# 4 0.000000 0.000000 0.000000 0.017744 0.000000 0.000538
# 5 0.005488 0.002095 -0.003729 0.000000 0.040424 0.000000
# 6 0.000000 0.000000 0.000000 0.000538 0.000000 0.014830
#
#
# Mechanical properties :
#
#
# Convention : Reuss Voigt Hill
#
# Bulk Modulus (GPa) = 33.66827 60.81891 47.24359
# Shear Modulus (GPa) = 29.77507 45.61205 37.69356
#
# Velocity S-wave (km/s) = 3.31172 4.09889 3.72615
# Velocity P-wave (km/s) = 5.19854 6.69354 5.99284
#
# Compressibility (1/GPa) = 0.02970155
#
# Stress axis : x y z
#
# Youngs Moduli (GPa) = 46.59900 175.72210 33.09712
#
# Poissons Ratio (x) = 0.35735 0.22793
# Poissons Ratio (y) = 0.09476 0.16255
# Poissons Ratio (z) = 0.32091 0.86300
#
# Static dielectric constant tensor:
#      x y z
#    x 2.275060 0.000000 -0.183090 
#    y 0.000000 2.155890 0.000000 
#    z -0.183090 0.000000 2.232770 
# 
# From -- ./inp_files/73329.got.cif
#   From: 2010.05.17/outbox.cif.g08.bks.cpg/sg14_37_cif.got.tgz:73329.got - 2010.06.03 17:49:19.
