data_PCOD9244142
_publ_section_title
;
Structure prediction by ZEFSAII (Michael W. Deem and Ramdas Pophale) SiO2 
 PCOD9244142
Probable space group: P 21/C
;
_chemical_formula_sum "Si O2"
_cell_formula_units_Z 26
_cell_length_a 15.580428
_cell_length_b 7.758291
_cell_length_c 11.200767
_cell_angle_alpha 90.000000
_cell_angle_beta 132.210476
_cell_angle_gamma 90.000000
_cell_volume 1002.824338
_symmetry_space_group_name_H-M "P 21/C"
_symmetry_group_IT_number 14
_symmetry_cell_setting 'monoclinic'
loop_
_space_group_symop_operation_xyz
x,y,z
-x,1/2+y,1/2-z
-x,-y,-z
x,1/2-y,1/2+z
loop_
_atom_site_type_symbol
_atom_site_label
_atom_site_fract_x
_atom_site_fract_y
_atom_site_fract_z
Si Si1 0.998111 0.376357 0.111243
Si Si2 0.427104 0.157494 0.481493
Si Si3 0.801256 0.960438 0.019234
Si Si4 0.731542 0.309146 0.887302
Si Si5 0.000000 0.000000 0.000000
Si Si6 0.790894 0.067868 0.752051
Si Si7 0.611370 0.666470 0.798959
O O1 0.862775 0.375935 0.021076
O O2 0.098871 0.436872 0.294328
O O3 0.970654 0.682313 0.395254
O O4 0.000000 0.500000 0.000000
O O5 0.464811 0.198903 0.652222
O O6 0.429073 0.292569 0.374356
O O7 0.500000 0.000000 0.500000
O O8 0.296993 0.076077 0.372289
O O9 0.721081 0.273109 0.244313
O O10 0.715796 0.801358 0.920860
O O11 0.854871 0.988920 0.935476
O O12 0.650462 0.468607 0.836607
O O13 0.728249 0.137781 0.967200
O O14 0.086587 0.883000 0.183142
#
# Coordination Sequence:
#
# PCOD9244142 Si02
#       7
#     4   4   4   4   2   4   4
#     4  11  24  32  59  98 146 204 263 302 372 446
#     4  11  26  50  80 112 145 191 254 307 383 456
#     4   9  22  40  60  99 142 192 255 304 367 448
#     4   9  23  40  64 102 143 200 254 304 377 448
#     4  10  20  40  58  96 142 194 240 306 362 430
#     4   8  20  42  63  98 143 182 248 306 356 448
#     4  11  25  49  79 103 152 199 240 323 384 450
#
# _framework density 25.926772
#
# number of rings (size 3 to 8) (size 9 to 14) (size 15 to 20)
#    0.923    1.231    0.000    0.923    8.615    6.154 
#    0.000    1.538    0.000    0.000    0.000    0.000 
#    0.000    0.000    0.000    0.000    0.000    0.000 
#
# Total GULP energy -144886.934478 kJ/mol
# GULP energy per Si atom -5572.574403 kJ/mol
# Density = 2.586776 g / cm^3
# Si number density = 25.926772 Si / 1000 Ang^3
#
#
#
# Elastic Constant Matrix: (Units=GPa)
#
#
# Indices 1 2 3 4 5 6 
#
# 1 69.5646 38.6835 34.4453 0.0000 -6.6245 0.0000
# 2 38.6835 171.6661 58.8957 0.0000 -3.4351 0.0000
# 3 34.4453 58.8957 108.1504 0.0000 -11.8235 0.0000
# 4 0.0000 0.0000 0.0000 24.7623 0.0000 19.9287
# 5 -6.6245 -3.4351 -11.8235 0.0000 43.9996 0.0000
# 6 0.0000 0.0000 0.0000 19.9287 0.0000 38.2163
#
#
#
# Elastic Compliance Matrix: (Units=1/GPa)
#
#
# Indices 1 2 3 4 5 6 
#
# 1 0.018019 -0.002602 -0.004170 0.000000 0.001389 0.000000
# 2 -0.002602 0.007550 -0.003360 0.000000 -0.000705 0.000000
# 3 -0.004170 -0.003360 0.012680 0.000000 0.002517 0.000000
# 4 0.000000 0.000000 0.000000 0.069589 0.000000 -0.036289
# 5 0.001389 -0.000705 0.002517 0.000000 0.023558 0.000000
# 6 0.000000 0.000000 0.000000 -0.036289 0.000000 0.045090
#
#
# Mechanical properties :
#
#
# Convention : Reuss Voigt Hill
#
# Bulk Modulus (GPa) = 55.60310 68.15888 61.88099
# Shear Modulus (GPa) = 24.66147 35.88610 30.27379
#
# Velocity S-wave (km/s) = 3.08749 3.72443 3.42082
# Velocity P-wave (km/s) = 5.84833 6.69636 6.28666
#
# Compressibility (1/GPa) = 0.01798461
#
# Stress axis : x y z
#
# Youngs Moduli (GPa) = 55.49633 132.44593 78.86734
#
# Poissons Ratio (x) = 0.34462 0.32889
# Poissons Ratio (y) = 0.14440 0.26500
# Poissons Ratio (z) = 0.23143 0.44502
#
# Static dielectric constant tensor:
#      x y z
#    x 2.152180 0.000000 -0.014960 
#    y 0.000000 2.024520 0.000000 
#    z -0.014960 0.000000 2.202800 
# 
# From -- ./inp_files/15631.got.cif
#   From: 2010.05.17/outbox.cif.g08.bks.cpg/sg14_8_cif.got.tgz:15631.got - 2010.06.03 17:49:19.
