data_PCOD9244480
_publ_section_title
;
Structure prediction by ZEFSAII (Michael W. Deem and Ramdas Pophale) SiO2 
 PCOD9244480
Probable space group: P 21/C
;
_chemical_formula_sum "Si O2"
_cell_formula_units_Z 28
_cell_length_a 11.001901
_cell_length_b 9.262111
_cell_length_c 15.469586
_cell_angle_alpha 90.000000
_cell_angle_beta 50.072253
_cell_angle_gamma 90.000000
_cell_volume 1208.841419
_symmetry_space_group_name_H-M "P 21/C"
_symmetry_group_IT_number 14
_symmetry_cell_setting 'monoclinic'
loop_
_space_group_symop_operation_xyz
x,y,z
-x,1/2+y,1/2-z
-x,-y,-z
x,1/2-y,1/2+z
loop_
_atom_site_type_symbol
_atom_site_label
_atom_site_fract_x
_atom_site_fract_y
_atom_site_fract_z
Si Si1 0.501519 0.595378 0.691537
Si Si2 0.983341 0.167443 0.028140
Si Si3 0.910797 0.489878 0.893567
Si Si4 0.936211 0.237649 0.745304
Si Si5 0.408590 0.648477 0.559326
Si Si6 0.201231 0.073021 0.385092
Si Si7 0.353348 0.801892 0.894194
O O1 0.493804 0.693932 0.608896
O O2 0.355240 0.480086 0.763936
O O3 0.469151 0.707231 0.782178
O O4 0.638574 0.476281 0.625729
O O5 0.946427 0.186190 0.147074
O O6 0.829262 0.228818 0.047824
O O7 0.135978 0.263624 0.929759
O O8 0.000000 0.000000 0.000000
O O9 0.930935 0.351268 0.824890
O O10 0.919856 0.625176 0.824192
O O11 0.061534 0.496609 0.890104
O O12 0.776058 0.515411 0.026573
O O13 0.776246 0.144704 0.830894
O O14 0.500000 0.500000 0.500000
O O15 0.403218 0.727478 0.470177
#
# Coordination Sequence:
#
# PCOD9244480 Si02
#       7
#     4   4   4   4   4   4   4
#     4  11  22  43  68  94 126 180 210 268 330 393
#     4  11  25  39  65  99 132 167 220 282 324 390
#     4  10  21  35  64  92 124 167 210 265 325 387
#     4  11  21  39  61  97 132 163 214 272 326 386
#     4  10  21  40  66  91 120 169 220 252 317 398
#     4  10  20  41  65  89 125 172 215 256 339 392
#     4  11  24  42  66  92 132 170 221 266 325 389
#
# _framework density 23.162676000000001
#
# number of rings (size 3 to 8) (size 9 to 14) (size 15 to 20)
#    0.000    1.429    2.857    3.429    6.000    0.000 
#    0.000    0.714    0.000    0.000    0.000    0.000 
#    0.000    0.000    0.000    0.000    0.000    0.000 
#
# Total GULP energy -156049.272236 kJ/mol
# GULP energy per Si atom -5573.188294 kJ/mol
# Density = 2.310996 g / cm^3
# Si number density = 23.162676 Si / 1000 Ang^3
#
#
#
# Elastic Constant Matrix: (Units=GPa)
#
#
# Indices 1 2 3 4 5 6 
#
# 1 53.2980 24.6884 33.9534 0.0000 12.9588 0.0000
# 2 24.6884 107.5732 43.3243 0.0000 24.6527 0.0000
# 3 33.9534 43.3243 127.4000 0.0000 45.7130 0.0000
# 4 0.0000 0.0000 0.0000 43.6946 0.0000 10.2170
# 5 12.9588 24.6527 45.7130 0.0000 30.0785 0.0000
# 6 0.0000 0.0000 0.0000 10.2170 0.0000 34.6409
#
#
#
# Elastic Compliance Matrix: (Units=1/GPa)
#
#
# Indices 1 2 3 4 5 6 
#
# 1 0.023603 -0.003434 -0.005463 0.000000 0.000948 0.000000
# 2 -0.003434 0.012024 -0.000371 0.000000 -0.007812 0.000000
# 3 -0.005463 -0.000371 0.018646 0.000000 -0.025680 0.000000
# 4 0.000000 0.000000 0.000000 0.024581 0.000000 -0.007250
# 5 0.000948 -0.007812 -0.025680 0.000000 0.078269 0.000000
# 6 0.000000 0.000000 0.000000 -0.007250 0.000000 0.031006
#
#
# Mechanical properties :
#
#
# Convention : Reuss Voigt Hill
#
# Bulk Modulus (GPa) = 27.98190 54.68929 41.33560
# Shear Modulus (GPa) = 22.87539 34.10314 28.48926
#
# Velocity S-wave (km/s) = 3.14601 3.84126 3.51089
# Velocity P-wave (km/s) = 5.03025 6.58300 5.85830
#
# Compressibility (1/GPa) = 0.03573738
#
# Stress axis : x y z
#
# Youngs Moduli (GPa) = 42.36814 83.16936 53.63198
#
# Poissons Ratio (x) = 0.28561 0.29297
# Poissons Ratio (y) = 0.14550 0.01987
# Poissons Ratio (z) = 0.23144 0.03081
#
# Static dielectric constant tensor:
#      x y z
#    x 1.905690 0.000000 -0.017500 
#    y 0.000000 1.990600 0.000000 
#    z -0.017500 0.000000 1.958530 
# 
# From -- ./inp_files/43317.got.cif
#   From: 2010.05.17/outbox.cif.g08.bks.cpg/sg14_22_cif.got.tgz:43317.got - 2010.06.03 17:49:19.
