data_PCOD9244932
_publ_section_title
;
Structure prediction by ZEFSAII (Michael W. Deem and Ramdas Pophale) SiO2 
 PCOD9244932
Probable space group: P 21/C
;
_chemical_formula_sum "Si O2"
_cell_formula_units_Z 24
_cell_length_a 5.446222
_cell_length_b 12.375797
_cell_length_c 19.390560
_cell_angle_alpha 90.000000
_cell_angle_beta 113.609048
_cell_angle_gamma 90.000000
_cell_volume 1197.557339
_symmetry_space_group_name_H-M "P 21/C"
_symmetry_group_IT_number 14
_symmetry_cell_setting 'monoclinic'
loop_
_space_group_symop_operation_xyz
x,y,z
-x,1/2+y,1/2-z
-x,-y,-z
x,1/2-y,1/2+z
loop_
_atom_site_type_symbol
_atom_site_label
_atom_site_fract_x
_atom_site_fract_y
_atom_site_fract_z
Si Si1 0.746276 0.570177 0.495895
Si Si2 0.954581 0.298020 0.354399
Si Si3 0.362204 0.254561 0.794574
Si Si4 0.226902 0.014721 0.727051
Si Si5 0.306101 0.585141 0.799233
Si Si6 0.502808 0.826211 0.833006
O O1 0.500000 0.500000 0.500000
O O2 0.643367 0.632743 0.416953
O O3 0.000000 0.500000 0.500000
O O4 0.866588 0.651061 0.566165
O O5 0.679891 0.238964 0.346607
O O6 0.841852 0.393779 0.291457
O O7 0.149745 0.223489 0.330191
O O8 0.312102 0.127568 0.772991
O O9 0.315393 0.312377 0.715738
O O10 0.428524 0.015857 0.684739
O O11 0.914097 0.029929 0.677925
O O12 0.291968 0.916335 0.784745
O O13 0.378785 0.707139 0.829750
#
# Coordination Sequence:
#
# PCOD9244932 Si02
#       6
#     4   4   4   4   4   4
#     4  12  23  33  53  86 120 148 173 225 304 358
#     4   9  17  33  47  69 107 139 174 221 259 322
#     4   9  19  34  51  73 103 148 191 216 261 329
#     4   9  17  31  49  73 104 131 178 232 256 312
#     4   9  19  32  49  74 103 144 186 214 261 327
#     4  10  21  35  57  83 112 150 186 226 286 344
#
# _framework density 20.040793000000001
#
# number of rings (size 3 to 8) (size 9 to 14) (size 15 to 20)
#    0.000    2.667    0.000    5.000    0.000   10.667 
#    0.000    0.000    0.000    0.000    0.000   38.500 
#    0.000    0.000    0.000    0.500    0.000    0.000 
#
# Total GULP energy -133732.538002 kJ/mol
# GULP energy per Si atom -5572.189083 kJ/mol
# Density = 1.999518 g / cm^3
# Si number density = 20.040793 Si / 1000 Ang^3
#
#
#
# Elastic Constant Matrix: (Units=GPa)
#
#
# Indices 1 2 3 4 5 6 
#
# 1 174.7436 32.7276 34.8207 0.0000 -9.0019 0.0000
# 2 32.7276 89.1204 51.6305 0.0000 0.6279 0.0000
# 3 34.8207 51.6305 115.0642 0.0000 3.8227 0.0000
# 4 0.0000 0.0000 0.0000 26.5450 0.0000 5.4183
# 5 -9.0019 0.6279 3.8227 0.0000 14.1862 0.0000
# 6 0.0000 0.0000 0.0000 5.4183 0.0000 12.5069
#
#
#
# Elastic Compliance Matrix: (Units=1/GPa)
#
#
# Indices 1 2 3 4 5 6 
#
# 1 0.006543 -0.001621 -0.001406 0.000000 0.004603 0.000000
# 2 -0.001621 0.015583 -0.006503 0.000000 0.000034 0.000000
# 3 -0.001406 -0.006503 0.012163 0.000000 -0.003882 0.000000
# 4 0.000000 0.000000 0.000000 0.041326 0.000000 -0.017903
# 5 0.004603 0.000034 -0.003882 0.000000 0.074456 0.000000
# 6 0.000000 0.000000 0.000000 -0.017903 0.000000 0.087712
#
#
# Mechanical properties :
#
#
# Convention : Reuss Voigt Hill
#
# Bulk Modulus (GPa) = 65.65794 68.58730 67.12262
# Shear Modulus (GPa) = 19.08980 27.96427 23.52703
#
# Velocity S-wave (km/s) = 3.08968 3.73951 3.43002
# Velocity P-wave (km/s) = 6.74992 7.27622 7.01801
#
# Compressibility (1/GPa) = 0.01523045
#
# Stress axis : x y z
#
# Youngs Moduli (GPa) = 152.82369 64.17175 82.21585
#
# Poissons Ratio (x) = 0.10402 0.11557
# Poissons Ratio (y) = 0.24773 0.53464
# Poissons Ratio (z) = 0.21483 0.41730
#
# Static dielectric constant tensor:
#      x y z
#    x 1.877830 0.000000 -0.024390 
#    y 0.000000 1.747090 0.000000 
#    z -0.024390 0.000000 1.666700 
# 
# From -- ./inp_files/53048.got.cif
#   From: 2010.05.17/outbox.cif.g08.bks.cpg/sg14_27_cif.got.tgz:53048.got - 2010.06.03 17:49:19.
