data_PCOD9244416
_publ_section_title
;
Structure prediction by ZEFSAII (Michael W. Deem and Ramdas Pophale) SiO2 
 PCOD9244416
Probable space group: P 21/C
;
_chemical_formula_sum "Si O2"
_cell_formula_units_Z 28
_cell_length_a 14.224271
_cell_length_b 16.252547
_cell_length_c 11.035949
_cell_angle_alpha 90.000000
_cell_angle_beta 29.391390
_cell_angle_gamma 90.000000
_cell_volume 1252.107576
_symmetry_space_group_name_H-M "P 21/C"
_symmetry_group_IT_number 14
_symmetry_cell_setting 'monoclinic'
loop_
_space_group_symop_operation_xyz
x,y,z
-x,1/2+y,1/2-z
-x,-y,-z
x,1/2-y,1/2+z
loop_
_atom_site_type_symbol
_atom_site_label
_atom_site_fract_x
_atom_site_fract_y
_atom_site_fract_z
Si Si1 0.744971 0.387689 0.860877
Si Si2 0.109791 0.864481 0.386433
Si Si3 0.512964 0.850737 0.565806
Si Si4 0.470915 0.481046 0.750769
Si Si5 0.739013 0.966908 0.742428
Si Si6 0.948747 0.686008 0.646106
Si Si7 0.796708 0.276365 0.441322
O O1 0.552635 0.368619 0.997525
O O2 0.916700 0.382354 0.570139
O O3 0.806553 0.315315 0.882019
O O4 0.693725 0.466153 0.997136
O O5 0.020557 0.779142 0.534754
O O6 0.245992 0.832461 0.126670
O O7 0.931364 0.916709 0.538585
O O8 0.221594 0.936083 0.331928
O O9 0.732520 0.828816 0.346998
O O10 0.457668 0.926591 0.716597
O O11 0.371700 0.779826 0.771633
O O12 0.376436 0.433497 0.743230
O O13 0.630649 0.532440 0.495132
O O14 0.009099 0.687089 0.718880
#
# Coordination Sequence:
#
# PCOD9244416 Si02
#       7
#     4   4   4   4   4   4   4
#     4  10  24  41  62  93 126 164 202 254 311 367
#     4  10  20  41  57  91 119 152 208 256 302 362
#     4  11  23  41  64  93 123 166 202 254 314 365
#     4  11  22  41  60  90 124 163 206 253 305 367
#     4  10  22  37  65  89 118 165 207 254 308 356
#     4  10  23  40  63  92 123 162 204 252 308 369
#     4  10  21  41  63  88 129 158 201 260 306 363
#
# _framework density 22.362297000000002
#
# number of rings (size 3 to 8) (size 9 to 14) (size 15 to 20)
#    0.000    1.714    1.429    2.143    2.000    4.000 
#    5.143    0.000    0.000    0.000    0.000    0.000 
#    0.000    0.000    0.000    0.000    0.000    0.000 
#
# Total GULP energy -155946.595316 kJ/mol
# GULP energy per Si atom -5569.521261 kJ/mol
# Density = 2.231140 g / cm^3
# Si number density = 22.362297 Si / 1000 Ang^3
#
#
#
# Elastic Constant Matrix: (Units=GPa)
#
#
# Indices 1 2 3 4 5 6 
#
# 1 93.3072 -11.1499 27.2821 0.0000 -8.5330 0.0000
# 2 -11.1499 28.7366 14.7070 0.0000 13.2711 0.0000
# 3 27.2821 14.7070 62.3141 0.0000 -14.4598 0.0000
# 4 0.0000 0.0000 0.0000 -103.1632 0.0000 3.2621
# 5 -8.5330 13.2711 -14.4598 0.0000 39.1798 0.0000
# 6 0.0000 0.0000 0.0000 3.2621 0.0000 26.5353
#
#
#
# Elastic Compliance Matrix: (Units=1/GPa)
#
#
# Indices 1 2 3 4 5 6 
#
# 1 0.015256 0.014443 -0.011431 0.000000 -0.005788 0.000000
# 2 0.014443 0.070830 -0.030488 0.000000 -0.032098 0.000000
# 3 -0.011431 -0.030488 0.032883 0.000000 0.019973 0.000000
# 4 0.000000 0.000000 0.000000 -0.009656 0.000000 0.001187
# 5 -0.005788 -0.032098 0.019973 0.000000 0.042506 0.000000
# 6 0.000000 0.000000 0.000000 0.001187 0.000000 0.037540
#
#
# Mechanical properties :
#
#
# Convention : Reuss Voigt Hill
#
# Bulk Modulus (GPa) = 15.62123 27.33736 21.47930
# Shear Modulus (GPa) = 18.82167 2.74496 10.78331
#
# Velocity S-wave (km/s) = 2.90430 1.10913 2.19831
# Velocity P-wave (km/s) = 4.27169 3.72713 4.00867
#
# Compressibility (1/GPa) = 0.06401545
#
# Stress axis : x y z
#
# Youngs Moduli (GPa) = 65.54698 14.11837 30.41087
#
# Poissons Ratio (x) = -0.20391 0.34764
# Poissons Ratio (y) = -0.94670 0.92718
# Poissons Ratio (z) = 0.74929 0.43045
#
# Static dielectric constant tensor:
#      x y z
#    x 1.874630 0.000000 0.030160 
#    y 0.000000 1.885370 0.000000 
#    z 0.030160 0.000000 1.857350 
# 
# From -- ./inp_files/32910.got.cif
#   From: 2010.05.17/outbox.cif.g08.bks.cpg/sg14_17_cif.got.tgz:32910.got - 2010.06.03 17:49:19.
