data_PCOD9244479
_publ_section_title
;
Structure prediction by ZEFSAII (Michael W. Deem and Ramdas Pophale) SiO2 
 PCOD9244479
Probable space group: P 21/C
;
_chemical_formula_sum "Si O2"
_cell_formula_units_Z 32
_cell_length_a 19.729733
_cell_length_b 8.095349
_cell_length_c 13.746602
_cell_angle_alpha 90.000000
_cell_angle_beta 145.483853
_cell_angle_gamma 90.000000
_cell_volume 1244.108331
_symmetry_space_group_name_H-M "P 21/C"
_symmetry_group_IT_number 14
_symmetry_cell_setting 'monoclinic'
loop_
_space_group_symop_operation_xyz
x,y,z
-x,1/2+y,1/2-z
-x,-y,-z
x,1/2-y,1/2+z
loop_
_atom_site_type_symbol
_atom_site_label
_atom_site_fract_x
_atom_site_fract_y
_atom_site_fract_z
Si Si1 0.205017 0.591359 0.681596
Si Si2 0.395844 0.108784 0.485217
Si Si3 0.209142 0.073963 0.876026
Si Si4 0.924471 0.223452 0.789875
Si Si5 0.042232 0.797859 0.384744
Si Si6 0.350431 0.315058 0.151949
Si Si7 0.827485 0.895296 0.383519
Si Si8 0.550323 0.257381 0.018036
O O1 0.281714 0.424980 0.779196
O O2 0.136044 0.612534 0.700768
O O3 0.108812 0.626467 0.485444
O O4 0.308333 0.734658 0.798469
O O5 0.357563 0.112046 0.551509
O O6 0.481430 0.244760 0.539016
O O7 0.467086 0.938019 0.552198
O O8 0.241290 0.104181 0.800947
O O9 0.098304 0.197775 0.765739
O O10 0.155390 0.890229 0.817468
O O11 0.308734 0.128118 0.071199
O O12 0.929517 0.145348 0.689949
O O13 0.059757 0.270122 0.979401
O O14 0.099865 0.930874 0.525130
O O15 0.255679 0.378595 0.119929
O O16 0.478309 0.348712 0.355011
#
# Coordination Sequence:
#
# PCOD9244479 Si02
#       8
#     4   4   4   4   4   4   4   4
#     4  10  20  41  65  88 121 164 205 256 304 367
#     4   9  22  45  61  91 126 159 213 266 302 361
#     4  11  23  39  61  92 131 166 192 267 310 363
#     4  11  21  38  65  93 124 166 207 248 315 377
#     4  11  21  39  63  89 123 167 206 247 307 375
#     4  12  23  41  64  94 124 164 209 251 314 379
#     4  11  22  42  59  95 135 154 206 263 308 363
#     4   9  23  42  64  87 125 166 199 267 310 348
#
# _framework density 25.721233999999999
#
# number of rings (size 3 to 8) (size 9 to 14) (size 15 to 20)
#    0.750    0.750    3.750    2.250    1.750    2.000 
#    0.000    1.250    0.000    0.000    0.000    0.000 
#    0.000    0.000    0.000    0.000    0.000    0.000 
#
# Total GULP energy -178793.938591 kJ/mol
# GULP energy per Si atom -5587.310581 kJ/mol
# Density = 2.566269 g / cm^3
# Si number density = 25.721234 Si / 1000 Ang^3
#
#
#
# Elastic Constant Matrix: (Units=GPa)
#
#
# Indices 1 2 3 4 5 6 
#
# 1 173.3247 3.6836 32.8822 0.0000 -20.5448 0.0000
# 2 3.6836 34.8881 17.0911 0.0000 2.2132 0.0000
# 3 32.8822 17.0911 79.9746 0.0000 6.8241 0.0000
# 4 0.0000 0.0000 0.0000 30.2483 0.0000 -2.7139
# 5 -20.5448 2.2132 6.8241 0.0000 39.4720 0.0000
# 6 0.0000 0.0000 0.0000 -2.7139 0.0000 25.4226
#
#
#
# Elastic Compliance Matrix: (Units=1/GPa)
#
#
# Indices 1 2 3 4 5 6 
#
# 1 0.006872 0.000636 -0.003312 0.000000 0.004114 0.000000
# 2 0.000636 0.032089 -0.007099 0.000000 -0.000241 0.000000
# 3 -0.003312 -0.007099 0.015728 0.000000 -0.004045 0.000000
# 4 0.000000 0.000000 0.000000 0.033379 0.000000 0.003563
# 5 0.004114 -0.000241 -0.004045 0.000000 0.028188 0.000000
# 6 0.000000 0.000000 0.000000 0.003563 0.000000 0.039715
#
#
# Mechanical properties :
#
#
# Convention : Reuss Voigt Hill
#
# Bulk Modulus (GPa) = 28.45836 43.94458 36.20147
# Shear Modulus (GPa) = 26.70443 34.66396 30.68419
#
# Velocity S-wave (km/s) = 3.22565 3.67506 3.45766
# Velocity P-wave (km/s) = 4.99612 5.92706 5.48139
#
# Compressibility (1/GPa) = 0.03513906
#
# Stress axis : x y z
#
# Youngs Moduli (GPa) = 145.51704 31.16369 63.58048
#
# Poissons Ratio (x) = -0.01983 0.21061
# Poissons Ratio (y) = -0.09258 0.45133
# Poissons Ratio (z) = 0.48202 0.22122
#
# Static dielectric constant tensor:
#      x y z
#    x 1.973180 0.000000 0.019850 
#    y 0.000000 2.132180 0.000000 
#    z 0.019850 0.000000 2.000380 
# 
# From -- ./inp_files/33963.got.cif
#   From: 2010.05.17/outbox.cif.g08.bks.cpg/sg14_17_cif.got.tgz:33963.got - 2010.06.03 17:49:19.
