data_PCOD9244652
_publ_section_title
;
Structure prediction by ZEFSAII (Michael W. Deem and Ramdas Pophale) SiO2 
 PCOD9244652
Probable space group: P 21/C
;
_chemical_formula_sum "Si O2"
_cell_formula_units_Z 24
_cell_length_a 18.824557
_cell_length_b 9.424198
_cell_length_c 15.366635
_cell_angle_alpha 90.000000
_cell_angle_beta 159.613812
_cell_angle_gamma 90.000000
_cell_volume 949.639748
_symmetry_space_group_name_H-M "P 21/C"
_symmetry_group_IT_number 14
_symmetry_cell_setting 'monoclinic'
loop_
_space_group_symop_operation_xyz
x,y,z
-x,1/2+y,1/2-z
-x,-y,-z
x,1/2-y,1/2+z
loop_
_atom_site_type_symbol
_atom_site_label
_atom_site_fract_x
_atom_site_fract_y
_atom_site_fract_z
Si Si1 0.995449 0.523366 0.171113
Si Si2 0.423749 0.220112 0.570713
Si Si3 0.688767 0.459406 0.153387
Si Si4 0.384701 0.688271 0.533244
Si Si5 0.239387 0.472611 0.253178
Si Si6 0.110408 0.692754 0.462919
O O1 0.190716 0.609355 0.355916
O O2 0.999049 0.579036 0.273333
O O3 0.795704 0.570557 0.887044
O O4 0.990281 0.350422 0.158077
O O5 0.338485 0.365349 0.434481
O O6 0.658261 0.213318 0.807555
O O7 0.280024 0.106836 0.358820
O O8 0.441177 0.187957 0.693441
O O9 0.636601 0.351583 0.016200
O O10 0.852926 0.381239 0.401922
O O11 0.500000 0.500000 0.000000
O O12 0.370198 0.613325 0.421361
O O13 0.000000 0.500000 0.000000
#
# Coordination Sequence:
#
# PCOD9244652 Si02
#       6
#     4   4   4   4   4   4
#     4  10  22  40  65  93 136 183 228 289 347 415
#     4  10  22  39  65  99 133 180 229 284 353 420
#     4  10  21  40  66 100 135 173 227 290 338 415
#     4  10  20  42  67  93 137 178 229 282 349 419
#     4  10  21  40  66  96 131 175 224 284 349 415
#     4  10  22  41  62  98 138 180 234 286 352 413
#
# _framework density 25.272741
#
# number of rings (size 3 to 8) (size 9 to 14) (size 15 to 20)
#    0.000    2.000    1.667    1.000    2.333    2.000 
#    0.000   13.333    0.000    0.000    0.000    0.000 
#    0.000    0.000    0.000    0.000    0.000    0.000 
#
# Total GULP energy -133873.262859 kJ/mol
# GULP energy per Si atom -5578.052619 kJ/mol
# Density = 2.521522 g / cm^3
# Si number density = 25.272741 Si / 1000 Ang^3
#
#
#
# Elastic Constant Matrix: (Units=GPa)
#
#
# Indices 1 2 3 4 5 6 
#
# 1 80.5455 72.7693 121.4596 0.0000 -20.5618 0.0000
# 2 72.7693 230.7994 153.3768 0.0000 14.5765 0.0000
# 3 121.4596 153.3768 277.5622 0.0000 -11.0201 0.0000
# 4 0.0000 0.0000 0.0000 52.3022 0.0000 -19.6240
# 5 -20.5618 14.5765 -11.0201 0.0000 52.3791 0.0000
# 6 0.0000 0.0000 0.0000 -19.6240 0.0000 30.7181
#
#
#
# Elastic Compliance Matrix: (Units=1/GPa)
#
#
# Indices 1 2 3 4 5 6 
#
# 1 0.046305 -0.004003 -0.017430 0.000000 0.015624 0.000000
# 2 -0.004003 0.007602 -0.002617 0.000000 -0.004238 0.000000
# 3 -0.017430 -0.002617 0.012538 0.000000 -0.003476 0.000000
# 4 0.000000 0.000000 0.000000 0.025147 0.000000 0.016065
# 5 0.015624 -0.004238 -0.003476 0.000000 0.025673 0.000000
# 6 0.000000 0.000000 0.000000 0.016065 0.000000 0.042817
#
#
# Mechanical properties :
#
#
# Convention : Reuss Voigt Hill
#
# Bulk Modulus (GPa) = 54.51416 142.67984 98.59700
# Shear Modulus (GPa) = 23.33197 43.16662 33.24930
#
# Velocity S-wave (km/s) = 3.04173 4.13732 3.63108
# Velocity P-wave (km/s) = 5.82695 8.91077 7.52845
#
# Compressibility (1/GPa) = 0.01834386
#
# Stress axis : x y z
#
# Youngs Moduli (GPa) = 21.59603 131.54892 79.75500
#
# Poissons Ratio (x) = 0.52660 1.39016
# Poissons Ratio (y) = 0.08645 0.20873
# Poissons Ratio (z) = 0.37643 0.34428
#
# Static dielectric constant tensor:
#      x y z
#    x 2.297150 0.000000 0.028790 
#    y 0.000000 2.162110 0.000000 
#    z 0.028790 0.000000 1.956290 
# 
# From -- ./inp_files/61803.got.cif
#   From: 2010.05.17/outbox.cif.g08.bks.cpg/sg14_31_cif.got.tgz:61803.got - 2010.06.03 17:49:19.
