data_PCOD9244226
_publ_section_title
;
Structure prediction by ZEFSAII (Michael W. Deem and Ramdas Pophale) SiO2 
 PCOD9244226
Probable space group: P 21/C
;
_chemical_formula_sum "Si O2"
_cell_formula_units_Z 28
_cell_length_a 18.378792
_cell_length_b 8.300315
_cell_length_c 13.769378
_cell_angle_alpha 90.000000
_cell_angle_beta 35.739992
_cell_angle_gamma 90.000000
_cell_volume 1226.927603
_symmetry_space_group_name_H-M "P 21/C"
_symmetry_group_IT_number 14
_symmetry_cell_setting 'monoclinic'
loop_
_space_group_symop_operation_xyz
x,y,z
-x,1/2+y,1/2-z
-x,-y,-z
x,1/2-y,1/2+z
loop_
_atom_site_type_symbol
_atom_site_label
_atom_site_fract_x
_atom_site_fract_y
_atom_site_fract_z
Si Si1 0.979290 0.130862 0.744232
Si Si2 0.546623 0.200827 0.340757
Si Si3 0.681689 0.997563 0.361979
Si Si4 0.301169 0.804934 0.020396
Si Si5 0.955784 0.315725 0.947032
Si Si6 0.691797 0.454421 0.288762
Si Si7 0.854749 0.753244 0.090810
O O1 0.837887 0.167172 0.867321
O O2 0.983610 0.156808 0.854357
O O3 0.074531 0.253466 0.587533
O O4 0.018461 0.961628 0.655443
O O5 0.404731 0.143997 0.500522
O O6 0.580693 0.375374 0.348051
O O7 0.615538 0.077397 0.340042
O O8 0.604228 0.188493 0.171570
O O9 0.807407 0.919212 0.186122
O O10 0.694098 0.133264 0.430296
O O11 0.329737 0.934484 0.073450
O O12 0.047836 0.322261 0.938081
O O13 0.813812 0.341097 0.134162
O O14 0.737404 0.631245 0.210084
#
# Coordination Sequence:
#
# PCOD9244226 Si02
#       7
#     4   4   4   4   4   4   4
#     4  11  23  37  63  93 126 171 201 256 322 378
#     4  10  23  46  62  88 126 164 218 256 308 379
#     4  10  26  42  65  95 121 165 218 261 309 374
#     4  11  21  41  66  89 125 170 204 257 326 367
#     4  11  22  38  57  96 129 158 211 251 313 391
#     4  10  20  40  64  86 127 167 196 257 321 366
#     4  11  23  39  60  97 129 156 213 261 308 387
#
# _framework density 22.821231000000001
#
# number of rings (size 3 to 8) (size 9 to 14) (size 15 to 20)
#    0.000    1.429    4.286    0.857    4.000    2.286 
#    0.000    4.286    0.000    0.000    0.000    0.000 
#    0.000    0.000    0.000    0.000    0.000    0.000 
#
# Total GULP energy -156668.062280 kJ/mol
# GULP energy per Si atom -5595.287939 kJ/mol
# Density = 2.276929 g / cm^3
# Si number density = 22.821231 Si / 1000 Ang^3
#
#
#
# Elastic Constant Matrix: (Units=GPa)
#
#
# Indices 1 2 3 4 5 6 
#
# 1 46.0650 9.8007 24.6622 0.0000 15.6180 0.0000
# 2 9.8007 46.0127 37.3069 0.0000 4.9047 0.0000
# 3 24.6622 37.3069 127.3070 0.0000 28.1085 0.0000
# 4 0.0000 0.0000 0.0000 43.3948 0.0000 -3.0703
# 5 15.6180 4.9047 28.1085 0.0000 41.6718 0.0000
# 6 0.0000 0.0000 0.0000 -3.0703 0.0000 15.5068
#
#
#
# Elastic Compliance Matrix: (Units=1/GPa)
#
#
# Indices 1 2 3 4 5 6 
#
# 1 0.026308 -0.002671 -0.002592 0.000000 -0.007797 0.000000
# 2 -0.002671 0.029034 -0.008762 0.000000 0.003494 0.000000
# 3 -0.002592 -0.008762 0.012317 0.000000 -0.006305 0.000000
# 4 0.000000 0.000000 0.000000 0.023372 0.000000 0.004628
# 5 -0.007797 0.003494 -0.006305 0.000000 0.030761 0.000000
# 6 0.000000 0.000000 0.000000 0.004628 0.000000 0.065404
#
#
# Mechanical properties :
#
#
# Convention : Reuss Voigt Hill
#
# Bulk Modulus (GPa) = 25.24713 40.32492 32.78603
# Shear Modulus (GPa) = 21.88663 29.95566 25.92115
#
# Velocity S-wave (km/s) = 3.10021 3.62694 3.37387
# Velocity P-wave (km/s) = 4.88897 5.93699 5.43829
#
# Compressibility (1/GPa) = 0.03960846
#
# Stress axis : x y z
#
# Youngs Moduli (GPa) = 38.01118 34.44225 81.18737
#
# Poissons Ratio (x) = 0.09199 0.21046
# Poissons Ratio (y) = 0.10152 0.71140
# Poissons Ratio (z) = 0.09854 0.30180
#
# Static dielectric constant tensor:
#      x y z
#    x 1.794520 0.000000 -0.010520 
#    y 0.000000 1.924800 0.000000 
#    z -0.010520 0.000000 1.817280 
# 
# From -- ./inp_files/50033.got.cif
#   From: 2010.05.17/outbox.cif.g08.bks.cpg/sg14_26_cif.got.tgz:50033.got - 2010.06.03 17:49:19.
