data_PCOD9244859
_publ_section_title
;
Structure prediction by ZEFSAII (Michael W. Deem and Ramdas Pophale) SiO2 
 PCOD9244859
Probable space group: P 21/C
;
_chemical_formula_sum "Si O2"
_cell_formula_units_Z 32
_cell_length_a 21.386123
_cell_length_b 6.113174
_cell_length_c 18.289185
_cell_angle_alpha 90.000000
_cell_angle_beta 44.943737
_cell_angle_gamma 90.000000
_cell_volume 1689.084154
_symmetry_space_group_name_H-M "P 21/C"
_symmetry_group_IT_number 14
_symmetry_cell_setting 'monoclinic'
loop_
_space_group_symop_operation_xyz
x,y,z
-x,1/2+y,1/2-z
-x,-y,-z
x,1/2-y,1/2+z
loop_
_atom_site_type_symbol
_atom_site_label
_atom_site_fract_x
_atom_site_fract_y
_atom_site_fract_z
Si Si1 0.712459 0.565360 0.847970
Si Si2 0.387248 0.442565 0.659544
Si Si3 0.146312 0.377269 0.146116
Si Si4 0.251442 0.768915 0.822478
Si Si5 0.048731 0.772994 0.654520
Si Si6 0.918368 0.974862 0.514492
Si Si7 0.831650 0.598675 0.510177
Si Si8 0.451392 0.687364 0.993496
O O1 0.671449 0.772051 0.838695
O O2 0.791735 0.636269 0.834848
O O3 0.739269 0.397728 0.761454
O O4 0.637249 0.437981 0.958413
O O5 0.327498 0.583674 0.764415
O O6 0.472252 0.304348 0.617887
O O7 0.421209 0.623980 0.574194
O O8 0.118901 0.629476 0.153972
O O9 0.050061 0.268142 0.237422
O O10 0.190474 0.262478 0.038422
O O11 0.158781 0.641886 0.900350
O O12 0.245314 0.945981 0.892978
O O13 0.046566 0.958439 0.594335
O O14 0.091758 0.560226 0.583144
O O15 0.873011 0.739729 0.542158
O O16 0.000000 0.000000 0.500000
O O17 0.500000 0.500000 0.000000
#
# Coordination Sequence:
#
# PCOD9244859 Si02
#       8
#     4   4   4   4   4   4   4   4
#     4  10  21  32  59  89 121 145 195 249 291 358
#     4   9  17  33  56  86 124 143 178 233 305 361
#     4  11  22  37  54  77 114 162 204 240 294 343
#     4  10  21  34  53  84 114 150 196 239 297 348
#     4  10  22  36  53  72 107 161 199 239 290 339
#     4  10  23  35  53  76 111 150 193 248 293 342
#     4  10  22  39  51  73 115 152 204 242 287 343
#     4   8  16  33  53  86 127 140 171 232 304 356
#
# _framework density 18.945177000000001
#
# number of rings (size 3 to 8) (size 9 to 14) (size 15 to 20)
#    0.000    2.250    1.250    0.750    5.250    3.000 
#    0.000    0.000    0.000    0.000    0.000    0.000 
#  892.500    0.000    0.000    0.000    0.000    0.000 
#
# Total GULP energy -178210.709437 kJ/mol
# GULP energy per Si atom -5569.084670 kJ/mol
# Density = 1.890206 g / cm^3
# Si number density = 18.945177 Si / 1000 Ang^3
#
#
#
# Elastic Constant Matrix: (Units=GPa)
#
#
# Indices 1 2 3 4 5 6 
#
# 1 36.3955 21.2113 34.6349 0.0000 -3.5643 0.0000
# 2 21.2113 104.6743 43.8648 0.0000 -8.9920 0.0000
# 3 34.6349 43.8648 88.7710 0.0000 -9.2612 0.0000
# 4 0.0000 0.0000 0.0000 52.9907 0.0000 -3.8081
# 5 -3.5643 -8.9920 -9.2612 0.0000 13.4109 0.0000
# 6 0.0000 0.0000 0.0000 -3.8081 0.0000 10.6029
#
#
#
# Elastic Compliance Matrix: (Units=1/GPa)
#
#
# Indices 1 2 3 4 5 6 
#
# 1 0.044103 -0.002228 -0.016207 0.000000 -0.000965 0.000000
# 2 -0.002228 0.012393 -0.004795 0.000000 0.004406 0.000000
# 3 -0.016207 -0.004795 0.020661 0.000000 0.006746 0.000000
# 4 0.000000 0.000000 0.000000 0.019371 0.000000 0.006957
# 5 -0.000965 0.004406 0.006746 0.000000 0.081922 0.000000
# 6 0.000000 0.000000 0.000000 0.006957 0.000000 0.096813
#
#
# Mechanical properties :
#
#
# Convention : Reuss Voigt Hill
#
# Bulk Modulus (GPa) = 32.57605 47.69586 40.13596
# Shear Modulus (GPa) = 15.06229 24.07623 19.56926
#
# Velocity S-wave (km/s) = 2.82272 3.56875 3.21743
# Velocity P-wave (km/s) = 5.27787 6.49705 5.91893
#
# Compressibility (1/GPa) = 0.03069740
#
# Stress axis : x y z
#
# Youngs Moduli (GPa) = 22.67426 80.69257 48.40013
#
# Poissons Ratio (x) = 0.17981 0.78441
# Poissons Ratio (y) = 0.05053 0.23206
# Poissons Ratio (z) = 0.36748 0.38689
#
# Static dielectric constant tensor:
#      x y z
#    x 1.627930 0.000000 -0.013240 
#    y 0.000000 1.730360 0.000000 
#    z -0.013240 0.000000 1.715750 
# 
# From -- ./inp_files/70028.got.cif
#   From: 2010.05.17/outbox.cif.g08.bks.cpg/sg14_36_cif.got.tgz:70028.got - 2010.06.03 17:49:19.
