data_PCOD9244150
_publ_section_title
;
Structure prediction by ZEFSAII (Michael W. Deem and Ramdas Pophale) SiO2 
 PCOD9244150
Probable space group: P 21/C
;
_chemical_formula_sum "Si O2"
_cell_formula_units_Z 28
_cell_length_a 7.354057
_cell_length_b 17.059925
_cell_length_c 14.034862
_cell_angle_alpha 90.000000
_cell_angle_beta 38.641873
_cell_angle_gamma 90.000000
_cell_volume 1099.538222
_symmetry_space_group_name_H-M "P 21/C"
_symmetry_group_IT_number 14
_symmetry_cell_setting 'monoclinic'
loop_
_space_group_symop_operation_xyz
x,y,z
-x,1/2+y,1/2-z
-x,-y,-z
x,1/2-y,1/2+z
loop_
_atom_site_type_symbol
_atom_site_label
_atom_site_fract_x
_atom_site_fract_y
_atom_site_fract_z
Si Si1 0.771596 0.652086 0.473778
Si Si2 0.304474 0.581476 0.983815
Si Si3 0.042682 0.149861 0.545964
Si Si4 0.248993 0.228266 0.691173
Si Si5 0.828197 0.104649 0.839608
Si Si6 0.516978 0.237841 0.267877
Si Si7 0.194764 0.535960 0.242024
O O1 0.781807 0.720386 0.390113
O O2 0.512581 0.598605 0.536339
O O3 0.638531 0.683613 0.626331
O O4 0.066761 0.603492 0.361191
O O5 0.078163 0.601688 0.993868
O O6 0.525789 0.655289 0.904802
O O7 0.492648 0.505267 0.876503
O O8 0.175076 0.567177 0.141270
O O9 0.975090 0.108474 0.673567
O O10 0.845058 0.230748 0.625360
O O11 0.380342 0.172706 0.393770
O O12 0.370984 0.279705 0.726969
O O13 0.933590 0.188569 0.838671
O O14 0.971554 0.036536 0.840614
#
# Coordination Sequence:
#
# PCOD9244150 Si02
#       7
#     4   4   4   4   4   4   4
#     4  11  22  37  63  89 121 162 198 256 306 353
#     4   9  21  39  62  84 124 160 204 242 304 360
#     4  10  20  40  59  90 124 155 203 262 296 363
#     4  10  21  38  61  88 120 157 199 260 300 360
#     4  10  22  38  59  88 124 153 206 248 301 362
#     4  10  22  36  59  93 120 154 206 252 307 358
#     4  10  21  40  59  88 119 170 196 242 305 369
#
# _framework density 25.465236000000001
#
# number of rings (size 3 to 8) (size 9 to 14) (size 15 to 20)
#    0.000    2.000    1.429    1.286    6.000    0.571 
#    2.571   12.857    0.000    0.000    0.000    0.000 
#    0.000    0.000    0.000    0.000    0.000    0.000 
#
# Total GULP energy -156637.489459 kJ/mol
# GULP energy per Si atom -5594.196052 kJ/mol
# Density = 2.540728 g / cm^3
# Si number density = 25.465236 Si / 1000 Ang^3
#
#
#
# Elastic Constant Matrix: (Units=GPa)
#
#
# Indices 1 2 3 4 5 6 
#
# 1 77.2861 -12.4419 5.5977 0.0000 -0.4748 0.0000
# 2 -12.4419 64.1096 12.0062 0.0000 -1.9482 0.0000
# 3 5.5977 12.0062 59.3034 0.0000 -27.0064 0.0000
# 4 0.0000 0.0000 0.0000 35.9235 0.0000 -3.7296
# 5 -0.4748 -1.9482 -27.0064 0.0000 45.3824 0.0000
# 6 0.0000 0.0000 0.0000 -3.7296 0.0000 23.9588
#
#
#
# Elastic Compliance Matrix: (Units=1/GPa)
#
#
# Indices 1 2 3 4 5 6 
#
# 1 0.013601 0.003061 -0.002440 0.000000 -0.001178 0.000000
# 2 0.003061 0.017001 -0.004642 0.000000 -0.002000 0.000000
# 3 -0.002440 -0.004642 0.024595 0.000000 0.014412 0.000000
# 4 0.000000 0.000000 0.000000 0.028294 0.000000 0.004404
# 5 -0.001178 -0.002000 0.014412 0.000000 0.030513 0.000000
# 6 0.000000 0.000000 0.000000 0.004404 0.000000 0.042424
#
#
# Mechanical properties :
#
#
# Convention : Reuss Voigt Hill
#
# Bulk Modulus (GPa) = 21.20655 23.44700 22.32677
# Shear Modulus (GPa) = 27.74863 34.08875 30.91869
#
# Velocity S-wave (km/s) = 3.30459 3.66271 3.48825
# Velocity P-wave (km/s) = 4.78604 5.20718 5.00104
#
# Compressibility (1/GPa) = 0.04715525
#
# Stress axis : x y z
#
# Youngs Moduli (GPa) = 73.52302 58.82074 40.65789
#
# Poissons Ratio (x) = -0.18004 0.09921
# Poissons Ratio (y) = -0.22504 0.18872
# Poissons Ratio (z) = 0.17941 0.27303
#
# Static dielectric constant tensor:
#      x y z
#    x 1.968040 0.000000 -0.027130 
#    y 0.000000 2.108390 0.000000 
#    z -0.027130 0.000000 1.980820 
# 
# From -- ./inp_files/41778.got.cif
#   From: 2010.05.17/outbox.cif.g08.bks.cpg/sg14_21_cif.got.tgz:41778.got - 2010.06.03 17:49:19.
