data_PCOD9244234
_publ_section_title
;
Structure prediction by ZEFSAII (Michael W. Deem and Ramdas Pophale) SiO2 
 PCOD9244234
Probable space group: P 21/C
;
_chemical_formula_sum "Si O2"
_cell_formula_units_Z 30
_cell_length_a 18.135571
_cell_length_b 10.022964
_cell_length_c 15.127960
_cell_angle_alpha 90.000000
_cell_angle_beta 27.495084
_cell_angle_gamma 90.000000
_cell_volume 1269.526537
_symmetry_space_group_name_H-M "P 21/C"
_symmetry_group_IT_number 14
_symmetry_cell_setting 'monoclinic'
loop_
_space_group_symop_operation_xyz
x,y,z
-x,1/2+y,1/2-z
-x,-y,-z
x,1/2-y,1/2+z
loop_
_atom_site_type_symbol
_atom_site_label
_atom_site_fract_x
_atom_site_fract_y
_atom_site_fract_z
Si Si1 0.000000 0.500000 0.000000
Si Si2 0.931782 0.898471 0.868608
Si Si3 0.243307 0.873513 0.740665
Si Si4 0.300940 0.270244 0.963671
Si Si5 0.822382 0.178694 0.830903
Si Si6 0.367435 0.707959 0.291575
Si Si7 0.796934 0.008048 0.552349
Si Si8 0.070102 0.115952 0.845763
O O1 0.127570 0.561355 0.787822
O O2 0.148658 0.468291 0.908696
O O3 0.021279 0.764319 0.806517
O O4 0.043504 0.955007 0.672535
O O5 0.752786 0.858254 0.034556
O O6 0.959320 0.007964 0.914083
O O7 0.288392 0.783773 0.607869
O O8 0.350032 0.863894 0.714691
O O9 0.202640 0.023639 0.751614
O O10 0.064935 0.810810 0.953932
O O11 0.457446 0.274343 0.855328
O O12 0.296052 0.396081 0.903333
O O13 0.153655 0.288236 0.188725
O O14 0.736379 0.148987 0.015918
O O15 0.299714 0.854985 0.344137
#
# Coordination Sequence:
#
# PCOD9244234 Si02
#       8
#     2   4   4   4   4   4   4   4
#     4  12  20  38  72  90 120 168 228 276 308 364
#     4   9  19  38  64  88 120 159 216 264 304 376
#     4  10  20  40  64  90 124 162 215 273 309 371
#     4  11  22  40  64  95 131 171 205 257 334 395
#     4  10  21  39  63  92 123 167 212 269 311 372
#     4  11  24  41  61  90 141 170 199 261 344 389
#     4  10  22  40  64  94 122 166 220 268 311 375
#     4   9  20  37  65  95 115 159 232 266 304 374
#
# _framework density 23.630856000000001
#
# number of rings (size 3 to 8) (size 9 to 14) (size 15 to 20)
#    0.000    1.867    2.667    2.400    1.867    1.600 
#    0.000    6.000    0.000    0.000    0.000    0.000 
#    0.000    0.000    0.000    0.000    0.000    0.000 
#
# Total GULP energy -167108.333444 kJ/mol
# GULP energy per Si atom -5570.277781 kJ/mol
# Density = 2.357707 g / cm^3
# Si number density = 23.630856 Si / 1000 Ang^3
#
#
#
# Elastic Constant Matrix: (Units=GPa)
#
#
# Indices 1 2 3 4 5 6 
#
# 1 187.1585 36.6191 16.2542 0.0000 -14.7563 0.0000
# 2 36.6191 57.8519 5.1548 0.0000 -1.8059 0.0000
# 3 16.2542 5.1548 9.3917 0.0000 -4.1458 0.0000
# 4 0.0000 0.0000 0.0000 14.1814 0.0000 4.6833
# 5 -14.7563 -1.8059 -4.1458 0.0000 39.1361 0.0000
# 6 0.0000 0.0000 0.0000 4.6833 0.0000 25.6622
#
#
#
# Elastic Compliance Matrix: (Units=1/GPa)
#
#
# Indices 1 2 3 4 5 6 
#
# 1 0.006971 -0.003522 -0.009487 0.000000 0.001461 0.000000
# 2 -0.003522 0.019955 -0.005285 0.000000 -0.000967 0.000000
# 3 -0.009487 -0.005285 0.130199 0.000000 0.009971 0.000000
# 4 0.000000 0.000000 0.000000 0.075037 0.000000 -0.013694
# 5 0.001461 -0.000967 0.009971 0.000000 0.027114 0.000000
# 6 0.000000 0.000000 0.000000 -0.013694 0.000000 0.041467
#
#
# Mechanical properties :
#
#
# Convention : Reuss Voigt Hill
#
# Bulk Modulus (GPa) = 8.29609 41.16201 24.72905
# Shear Modulus (GPa) = 13.24463 28.88753 21.06608
#
# Velocity S-wave (km/s) = 2.37001 3.50015 2.98898
# Velocity P-wave (km/s) = 3.31777 5.81303 4.73281
#
# Compressibility (1/GPa) = 0.12053878
#
# Stress axis : x y z
#
# Youngs Moduli (GPa) = 143.44633 50.11175 7.68053
#
# Poissons Ratio (x) = 0.17648 0.07287
# Poissons Ratio (y) = 0.50518 0.04059
# Poissons Ratio (z) = 1.36091 0.26482
#
# Static dielectric constant tensor:
#      x y z
#    x 1.953670 0.000000 0.023300 
#    y 0.000000 1.992760 0.000000 
#    z 0.023300 0.000000 1.923420 
# 
# From -- ./inp_files/40041.got.cif
#   From: 2010.05.17/outbox.cif.g08.bks.cpg/sg14_21_cif.got.tgz:40041.got - 2010.06.03 17:49:19.
