data_PCOD9244443
_publ_section_title
;
Structure prediction by ZEFSAII (Michael W. Deem and Ramdas Pophale) SiO2 
 PCOD9244443
Probable space group: P 21/C
;
_chemical_formula_sum "Si O2"
_cell_formula_units_Z 28
_cell_length_a 11.829953
_cell_length_b 10.404508
_cell_length_c 12.907474
_cell_angle_alpha 90.000000
_cell_angle_beta 46.448906
_cell_angle_gamma 90.000000
_cell_volume 1151.437010
_symmetry_space_group_name_H-M "P 21/C"
_symmetry_group_IT_number 14
_symmetry_cell_setting 'monoclinic'
loop_
_space_group_symop_operation_xyz
x,y,z
-x,1/2+y,1/2-z
-x,-y,-z
x,1/2-y,1/2+z
loop_
_atom_site_type_symbol
_atom_site_label
_atom_site_fract_x
_atom_site_fract_y
_atom_site_fract_z
Si Si1 0.675657 0.984686 0.755245
Si Si2 0.504397 0.419127 0.830312
Si Si3 0.530881 0.212905 0.975566
Si Si4 0.782034 0.909788 0.191888
Si Si5 0.051567 0.158412 0.341610
Si Si6 0.064161 0.048873 0.109152
Si Si7 0.250969 0.787728 0.979728
O O1 0.625598 0.965775 0.667956
O O2 0.855529 0.954168 0.660763
O O3 0.616125 0.117068 0.841224
O O4 0.582152 0.877598 0.884333
O O5 0.455961 0.324839 0.953273
O O6 0.607550 0.538503 0.806228
O O7 0.626016 0.339328 0.681272
O O8 0.658664 0.263625 0.977010
O O9 0.842042 0.784668 0.211261
O O10 0.824015 0.884176 0.045077
O O11 0.899159 0.021188 0.157917
O O12 0.042278 0.125307 0.226915
O O13 0.877317 0.193021 0.486394
O O14 0.151264 0.913836 0.076767
#
# Coordination Sequence:
#
# PCOD9244443 Si02
#       7
#     4   4   4   4   4   4   4
#     4  10  23  36  61  92 111 158 202 230 293 354
#     4  10  21  38  61  83 118 156 193 242 287 350
#     4  10  20  41  63  80 118 160 195 238 287 351
#     4   9  20  34  59  86 110 155 200 230 294 350
#     4  11  20  34  62  90 120 144 197 250 289 344
#     4   9  17  35  56  83 115 152 193 238 282 347
#     4   9  19  36  60  85 110 153 197 233 295 350
#
# _framework density 24.317437999999999
#
# number of rings (size 3 to 8) (size 9 to 14) (size 15 to 20)
#    0.000    2.286    1.429    1.714    4.000    0.000 
#    0.000    1.429   18.857    0.000    0.000    0.000 
#    0.000    0.000    0.000    0.000    0.000    0.000 
#
# Total GULP energy -156724.016154 kJ/mol
# GULP energy per Si atom -5597.286291 kJ/mol
# Density = 2.426209 g / cm^3
# Si number density = 24.317438 Si / 1000 Ang^3
#
#
#
# Elastic Constant Matrix: (Units=GPa)
#
#
# Indices 1 2 3 4 5 6 
#
# 1 121.0669 28.7793 39.5271 0.0000 17.7236 0.0000
# 2 28.7793 38.7947 31.5755 0.0000 6.5117 0.0000
# 3 39.5271 31.5755 59.8811 0.0000 7.3776 0.0000
# 4 0.0000 0.0000 0.0000 47.4505 0.0000 7.7054
# 5 17.7236 6.5117 7.3776 0.0000 29.9049 0.0000
# 6 0.0000 0.0000 0.0000 7.7054 0.0000 40.5726
#
#
#
# Elastic Compliance Matrix: (Units=1/GPa)
#
#
# Indices 1 2 3 4 5 6 
#
# 1 0.011470 -0.003547 -0.005114 0.000000 -0.004764 0.000000
# 2 -0.003547 0.046743 -0.021979 0.000000 -0.002654 0.000000
# 3 -0.005114 -0.021979 0.031665 0.000000 0.000005 0.000000
# 4 0.000000 0.000000 0.000000 0.021745 0.000000 -0.004130
# 5 -0.004764 -0.002654 0.000005 0.000000 0.036839 0.000000
# 6 0.000000 0.000000 0.000000 -0.004130 0.000000 0.025431
#
#
# Mechanical properties :
#
#
# Convention : Reuss Voigt Hill
#
# Bulk Modulus (GPa) = 34.96898 46.61183 40.79040
# Shear Modulus (GPa) = 20.43264 31.57631 26.00448
#
# Velocity S-wave (km/s) = 2.90184 3.60739 3.27368
# Velocity P-wave (km/s) = 5.06350 6.04654 5.57672
#
# Compressibility (1/GPa) = 0.02859678
#
# Stress axis : x y z
#
# Youngs Moduli (GPa) = 87.18257 21.39376 31.58090
#
# Poissons Ratio (x) = 0.07588 0.16151
# Poissons Ratio (y) = 0.30923 0.69413
# Poissons Ratio (z) = 0.44586 0.47022
#
# Static dielectric constant tensor:
#      x y z
#    x 1.911880 0.000000 -0.035040 
#    y 0.000000 1.957540 0.000000 
#    z -0.035040 0.000000 1.930440 
# 
# From -- ./inp_files/43287.got.cif
#   From: 2010.05.17/outbox.cif.g08.bks.cpg/sg14_22_cif.got.tgz:43287.got - 2010.06.03 17:49:19.
