data_PCOD9244080
_publ_section_title
;
Structure prediction by ZEFSAII (Michael W. Deem and Ramdas Pophale) SiO2 
 PCOD9244080
Probable space group: P 21/C
;
_chemical_formula_sum "Si O2"
_cell_formula_units_Z 28
_cell_length_a 14.322871
_cell_length_b 5.434303
_cell_length_c 16.816300
_cell_angle_alpha 90.000000
_cell_angle_beta 113.484655
_cell_angle_gamma 90.000000
_cell_volume 1200.473890
_symmetry_space_group_name_H-M "P 21/C"
_symmetry_group_IT_number 14
_symmetry_cell_setting 'monoclinic'
loop_
_space_group_symop_operation_xyz
x,y,z
-x,1/2+y,1/2-z
-x,-y,-z
x,1/2-y,1/2+z
loop_
_atom_site_type_symbol
_atom_site_label
_atom_site_fract_x
_atom_site_fract_y
_atom_site_fract_z
Si Si1 0.808542 0.252691 0.699223
Si Si2 0.381098 0.884979 0.269009
Si Si3 0.103458 0.238031 0.702260
Si Si4 0.739797 0.743183 0.886091
Si Si5 0.254633 0.864083 0.999359
Si Si6 0.044009 0.752942 0.476367
Si Si7 0.564248 0.143377 0.362064
O O1 0.703730 0.271938 0.715155
O O2 0.878000 0.489415 0.742436
O O3 0.770047 0.276973 0.596577
O O4 0.859225 0.989917 0.741980
O O5 0.454608 0.742585 0.233546
O O6 0.317700 0.051503 0.186730
O O7 0.456390 0.035529 0.352180
O O8 0.168766 0.194073 0.643331
O O9 0.990766 0.258769 0.627791
O O10 0.654604 0.547422 0.876897
O O11 0.769801 0.857052 0.981768
O O12 0.166570 0.734671 0.023316
O O13 0.374241 0.824931 0.059036
O O14 0.000000 0.500000 0.500000
O O15 0.000000 0.000000 0.500000
#
# Coordination Sequence:
#
# PCOD9244080 Si02
#       7
#     4   4   4   4   4   4   4
#     4  11  26  44  66 100 142 179 214 283 348 409
#     4  10  21  37  66  95 126 173 232 275 336 399
#     4  11  23  44  69  96 135 180 226 272 340 403
#     4  10  20  39  66  92 127 173 226 276 322 398
#     4  11  27  41  65 100 138 175 225 284 346 399
#     4  12  25  43  73 103 130 174 232 284 325 398
#     4  11  20  39  66  97 126 180 233 280 325 407
#
# _framework density 23.324124999999999
#
# number of rings (size 3 to 8) (size 9 to 14) (size 15 to 20)
#    0.000    1.143    4.286    1.714    4.000    1.714 
#    0.000    0.714    0.000    0.000    0.000    0.000 
#    0.000    0.000    0.000    0.000    0.000    0.000 
#
# Total GULP energy -156153.098790 kJ/mol
# GULP energy per Si atom -5576.896385 kJ/mol
# Density = 2.327104 g / cm^3
# Si number density = 23.324125 Si / 1000 Ang^3
#
#
#
# Elastic Constant Matrix: (Units=GPa)
#
#
# Indices 1 2 3 4 5 6 
#
# 1 46.2713 4.7611 24.4724 0.0000 23.5066 0.0000
# 2 4.7611 98.3708 32.9969 0.0000 -4.6161 0.0000
# 3 24.4724 32.9969 103.5417 0.0000 11.2581 0.0000
# 4 0.0000 0.0000 0.0000 36.4416 0.0000 11.8321
# 5 23.5066 -4.6161 11.2581 0.0000 33.8082 0.0000
# 6 0.0000 0.0000 0.0000 11.8321 0.0000 22.4803
#
#
#
# Elastic Compliance Matrix: (Units=1/GPa)
#
#
# Indices 1 2 3 4 5 6 
#
# 1 0.036908 -0.000951 -0.005827 0.000000 -0.023852 0.000000
# 2 -0.000951 0.011681 -0.003884 0.000000 0.003549 0.000000
# 3 -0.005827 -0.003884 0.012337 0.000000 -0.000587 0.000000
# 4 0.000000 0.000000 0.000000 0.033097 0.000000 -0.017420
# 5 -0.023852 0.003549 -0.000587 0.000000 0.046842 0.000000
# 6 0.000000 0.000000 0.000000 -0.017420 0.000000 0.053652
#
#
# Mechanical properties :
#
#
# Convention : Reuss Voigt Hill
#
# Bulk Modulus (GPa) = 25.25086 41.40495 33.32791
# Shear Modulus (GPa) = 21.83007 30.94292 26.38649
#
# Velocity S-wave (km/s) = 3.06264 3.64627 3.36712
# Velocity P-wave (km/s) = 4.83280 5.95966 5.42556
#
# Compressibility (1/GPa) = 0.03960261
#
# Stress axis : x y z
#
# Youngs Moduli (GPa) = 27.09419 85.60970 81.05945
#
# Poissons Ratio (x) = 0.08142 0.47233
# Poissons Ratio (y) = 0.02577 0.31481
# Poissons Ratio (z) = 0.15788 0.33248
#
# Static dielectric constant tensor:
#      x y z
#    x 1.934300 0.000000 0.013980 
#    y 0.000000 2.170730 0.000000 
#    z 0.013980 0.000000 1.910320 
# 
# From -- ./inp_files/58503.got.cif
#   From: 2010.05.17/outbox.cif.g08.bks.cpg/sg14_30_cif.got.tgz:58503.got - 2010.06.03 17:49:19.
