data_PCOD9244021
_publ_section_title
;
Structure prediction by ZEFSAII (Michael W. Deem and Ramdas Pophale) SiO2 
 PCOD9244021
Probable space group: P 21/C
;
_chemical_formula_sum "Si O2"
_cell_formula_units_Z 20
_cell_length_a 15.215810
_cell_length_b 7.335162
_cell_length_c 25.161927
_cell_angle_alpha 90.000000
_cell_angle_beta 16.302541
_cell_angle_gamma 90.000000
_cell_volume 788.325267
_symmetry_space_group_name_H-M "P 21/C"
_symmetry_group_IT_number 14
_symmetry_cell_setting 'monoclinic'
loop_
_space_group_symop_operation_xyz
x,y,z
-x,1/2+y,1/2-z
-x,-y,-z
x,1/2-y,1/2+z
loop_
_atom_site_type_symbol
_atom_site_label
_atom_site_fract_x
_atom_site_fract_y
_atom_site_fract_z
Si Si1 0.096846 0.251884 0.412471
Si Si2 0.756600 0.138222 0.705217
Si Si3 0.489536 0.251062 0.962898
Si Si4 0.158590 0.878229 0.635774
Si Si5 0.749372 0.133187 0.021552
O O1 0.877570 0.276457 0.590450
O O2 0.028147 0.372928 0.401198
O O3 0.461023 0.245514 0.215874
O O4 0.042614 0.045882 0.420920
O O5 0.404872 0.063382 0.898573
O O6 0.749143 0.189538 0.770503
O O7 0.314557 0.424998 0.037928
O O8 0.208110 0.110460 0.137084
O O9 0.648689 0.303383 0.925747
O O10 0.177868 0.740996 0.574627
#
# Coordination Sequence:
#
# PCOD9244021 Si02
#       5
#     4   4   4   4   4
#     4   9  21  40  66  91 124 166 213 260 322 372
#     4   9  22  42  66  89 130 172 208 263 327 376
#     4  11  25  42  64  95 131 167 218 262 325 385
#     4  11  25  41  64  98 127 173 214 262 323 388
#     4  10  20  39  64  90 125 165 214 260 316 379
#
# _framework density 25.370239000000002
#
# number of rings (size 3 to 8) (size 9 to 14) (size 15 to 20)
#    1.200    0.800    0.000    2.400    2.800    6.400 
#    0.000    2.000    0.000    0.000    0.000    0.000 
#    0.000    0.000    0.000    0.000    0.000    0.000 
#
# Total GULP energy -111846.071275 kJ/mol
# GULP energy per Si atom -5592.303564 kJ/mol
# Density = 2.531249 g / cm^3
# Si number density = 25.370239 Si / 1000 Ang^3
#
#
#
# Elastic Constant Matrix: (Units=GPa)
#
#
# Indices 1 2 3 4 5 6 
#
# 1 76.2055 34.7707 36.0613 0.0000 15.8411 0.0000
# 2 34.7707 55.6358 18.2756 0.0000 9.6092 0.0000
# 3 36.0613 18.2756 95.0409 0.0000 26.5706 0.0000
# 4 0.0000 0.0000 0.0000 32.7922 0.0000 -1.8386
# 5 15.8411 9.6092 26.5706 0.0000 54.6054 0.0000
# 6 0.0000 0.0000 0.0000 -1.8386 0.0000 28.4109
#
#
#
# Elastic Compliance Matrix: (Units=1/GPa)
#
#
# Indices 1 2 3 4 5 6 
#
# 1 0.021090 -0.011133 -0.005438 0.000000 -0.001513 0.000000
# 2 -0.011133 0.025222 -0.000333 0.000000 -0.001047 0.000000
# 3 -0.005438 -0.000333 0.014112 0.000000 -0.005230 0.000000
# 4 0.000000 0.000000 0.000000 0.030606 0.000000 0.001981
# 5 -0.001513 -0.001047 -0.005230 0.000000 0.021481 0.000000
# 6 0.000000 0.000000 0.000000 0.001981 0.000000 0.035326
#
#
# Mechanical properties :
#
#
# Convention : Reuss Voigt Hill
#
# Bulk Modulus (GPa) = 37.57358 45.01082 41.29220
# Shear Modulus (GPa) = 26.24428 32.34669 29.29548
#
# Velocity S-wave (km/s) = 3.21978 3.57457 3.40180
# Velocity P-wave (km/s) = 5.35396 5.90058 5.63390
#
# Compressibility (1/GPa) = 0.02661445
#
# Stress axis : x y z
#
# Youngs Moduli (GPa) = 47.41563 39.64798 70.86366
#
# Poissons Ratio (x) = 0.44140 0.38539
# Poissons Ratio (y) = 0.52787 0.02361
# Poissons Ratio (z) = 0.25787 0.01321
#
# Static dielectric constant tensor:
#      x y z
#    x 1.961360 0.000000 0.035130 
#    y 0.000000 2.101840 0.000000 
#    z 0.035130 0.000000 1.973960 
# 
# From -- ./inp_files/19379.got.cif
#   From: 2010.05.17/outbox.cif.g08.bks.cpg/sg14_10_cif.got.tgz:19379.got - 2010.06.03 17:49:19.
