data_PCOD9244162
_publ_section_title
;
Structure prediction by ZEFSAII (Michael W. Deem and Ramdas Pophale) SiO2 
 PCOD9244162
Probable space group: P 21/C
;
_chemical_formula_sum "Si O2"
_cell_formula_units_Z 28
_cell_length_a 8.600919
_cell_length_b 12.898195
_cell_length_c 10.803683
_cell_angle_alpha 90.000000
_cell_angle_beta 102.121224
_cell_angle_gamma 90.000000
_cell_volume 1171.800547
_symmetry_space_group_name_H-M "P 21/C"
_symmetry_group_IT_number 14
_symmetry_cell_setting 'monoclinic'
loop_
_space_group_symop_operation_xyz
x,y,z
-x,1/2+y,1/2-z
-x,-y,-z
x,1/2-y,1/2+z
loop_
_atom_site_type_symbol
_atom_site_label
_atom_site_fract_x
_atom_site_fract_y
_atom_site_fract_z
Si Si1 0.138760 0.391719 0.889624
Si Si2 0.563084 0.121551 0.933514
Si Si3 0.298421 0.939196 0.280261
Si Si4 0.698981 0.167850 0.458681
Si Si5 0.814716 0.522793 0.844241
Si Si6 0.758849 0.552124 0.554070
Si Si7 0.029496 0.691570 0.589231
O O1 0.254818 0.443439 0.809120
O O2 0.075465 0.277050 0.854319
O O3 0.992443 0.473933 0.867691
O O4 0.202370 0.400544 0.041696
O O5 0.563542 0.070053 0.797780
O O6 0.574288 0.242822 0.913733
O O7 0.414522 0.100380 0.996114
O O8 0.721375 0.068263 0.019893
O O9 0.331425 0.883302 0.414765
O O10 0.152264 0.873894 0.194066
O O11 0.709377 0.077729 0.360112
O O12 0.866509 0.231661 0.480284
O O13 0.787040 0.566001 0.704383
O O14 0.903843 0.609528 0.511962
#
# Coordination Sequence:
#
# PCOD9244162 Si02
#       7
#     4   4   4   4   4   4   4
#     4   9  18  36  59  92 117 147 203 255 300 354
#     4  10  25  41  58  86 126 167 195 245 301 366
#     4  10  20  40  60  90 120 159 205 251 301 362
#     4   9  21  39  64  89 117 159 209 242 306 365
#     4   9  18  38  63  83 121 156 190 256 303 351
#     4  11  23  43  57  91 128 157 202 247 306 354
#     4  10  21  34  64  92 115 159 195 254 305 342
#
# _framework density 23.894850999999999
#
# number of rings (size 3 to 8) (size 9 to 14) (size 15 to 20)
#    0.000    2.286    1.429    0.857    6.000    3.429 
#    5.143    1.429    0.000    0.000    0.000    0.000 
#    0.000    0.000    0.000    0.000    0.000    0.000 
#
# Total GULP energy -156271.016952 kJ/mol
# GULP energy per Si atom -5581.107748 kJ/mol
# Density = 2.384047 g / cm^3
# Si number density = 23.894851 Si / 1000 Ang^3
#
#
#
# Elastic Constant Matrix: (Units=GPa)
#
#
# Indices 1 2 3 4 5 6 
#
# 1 31.1017 21.9669 -1.9659 0.0000 -7.0197 0.0000
# 2 21.9669 72.6535 10.6010 0.0000 -4.6390 0.0000
# 3 -1.9659 10.6010 65.2014 0.0000 -13.3604 0.0000
# 4 0.0000 0.0000 0.0000 19.8569 0.0000 -5.4793
# 5 -7.0197 -4.6390 -13.3604 0.0000 19.5024 0.0000
# 6 0.0000 0.0000 0.0000 -5.4793 0.0000 20.7214
#
#
#
# Elastic Compliance Matrix: (Units=1/GPa)
#
#
# Indices 1 2 3 4 5 6 
#
# 1 0.046750 -0.014041 0.007510 0.000000 0.018632 0.000000
# 2 -0.014041 0.018388 -0.004132 0.000000 -0.003511 0.000000
# 3 0.007510 -0.004132 0.019297 0.000000 0.014940 0.000000
# 4 0.000000 0.000000 0.000000 0.054324 0.000000 0.014365
# 5 0.018632 -0.003511 0.014940 0.000000 0.067382 0.000000
# 6 0.000000 0.000000 0.000000 0.014365 0.000000 0.052058
#
#
# Mechanical properties :
#
#
# Convention : Reuss Voigt Hill
#
# Bulk Modulus (GPa) = 15.84578 25.57340 20.70959
# Shear Modulus (GPa) = 16.63560 21.23978 18.93769
#
# Velocity S-wave (km/s) = 2.64142 2.98465 2.81827
# Velocity P-wave (km/s) = 3.99358 4.75429 4.39044
#
# Compressibility (1/GPa) = 0.06310828
#
# Stress axis : x y z
#
# Youngs Moduli (GPa) = 21.39057 54.38315 51.82221
#
# Poissons Ratio (x) = 0.76359 -0.38920
# Poissons Ratio (y) = 0.30034 0.21415
# Poissons Ratio (z) = -0.16065 0.22474
#
# Static dielectric constant tensor:
#      x y z
#    x 2.025840 0.000000 0.025550 
#    y 0.000000 1.893880 0.000000 
#    z 0.025550 0.000000 1.895470 
# 
# From -- ./inp_files/24961.got.cif
#   From: 2010.05.17/outbox.cif.g08.bks.cpg/sg14_13_cif.got.tgz:24961.got - 2010.06.03 17:49:19.
