data_PCOD9244284
_publ_section_title
;
Structure prediction by ZEFSAII (Michael W. Deem and Ramdas Pophale) SiO2 
 PCOD9244284
Probable space group: P 21/C
;
_chemical_formula_sum "Si O2"
_cell_formula_units_Z 28
_cell_length_a 19.296016
_cell_length_b 5.620694
_cell_length_c 14.101639
_cell_angle_alpha 90.000000
_cell_angle_beta 115.837966
_cell_angle_gamma 90.000000
_cell_volume 1376.525484
_symmetry_space_group_name_H-M "P 21/C"
_symmetry_group_IT_number 14
_symmetry_cell_setting 'monoclinic'
loop_
_space_group_symop_operation_xyz
x,y,z
-x,1/2+y,1/2-z
-x,-y,-z
x,1/2-y,1/2+z
loop_
_atom_site_type_symbol
_atom_site_label
_atom_site_fract_x
_atom_site_fract_y
_atom_site_fract_z
Si Si1 0.413694 0.968572 0.985263
Si Si2 0.803700 0.758601 0.738544
Si Si3 0.909275 0.989657 0.937037
Si Si4 0.801170 0.766142 0.023579
Si Si5 0.349425 0.976144 0.150676
Si Si6 0.354501 0.033970 0.361898
Si Si7 0.780101 0.377784 0.885319
O O1 0.381997 0.716177 0.923826
O O2 0.373797 0.219660 0.929145
O O3 0.404959 0.950438 0.094186
O O4 0.500000 0.000000 0.000000
O O5 0.808665 0.663207 0.635994
O O6 0.738536 0.963347 0.699389
O O7 0.775738 0.570492 0.799559
O O8 0.883659 0.856194 0.826009
O O9 0.873054 0.849626 0.004386
O O10 0.855661 0.223596 0.906778
O O11 0.000000 0.000000 0.000000
O O12 0.795269 0.487371 0.998658
O O13 0.722693 0.868789 0.931364
O O14 0.303068 0.741146 0.154417
O O15 0.384418 0.063277 0.271168
#
# Coordination Sequence:
#
# PCOD9244284 Si02
#       7
#     4   4   4   4   4   4   4
#     4  12  29  46  69 104 141 179 229 292 355 419
#     4  11  21  39  67  97 126 180 237 274 339 412
#     4  10  23  41  58  96 136 172 222 284 349 402
#     4  10  21  38  62  96 125 172 229 275 339 405
#     4  11  23  39  70  98 132 176 230 283 342 412
#     4  12  24  44  73  98 136 182 232 285 344 421
#     4  10  20  40  65  93 135 173 229 285 340 403
#
# _framework density 20.341069999999998
#
# number of rings (size 3 to 8) (size 9 to 14) (size 15 to 20)
#    0.000    1.143    5.714    2.143    0.000    5.714 
#    5.143    0.000    0.000    0.000    0.000    0.000 
#    0.000    0.000    0.000    0.000    0.000    0.000 
#
# Total GULP energy -156075.426751 kJ/mol
# GULP energy per Si atom -5574.122384 kJ/mol
# Density = 2.029477 g / cm^3
# Si number density = 20.341070 Si / 1000 Ang^3
#
#
#
# Elastic Constant Matrix: (Units=GPa)
#
#
# Indices 1 2 3 4 5 6 
#
# 1 55.9380 -6.2713 -6.3850 0.0000 -12.8698 0.0000
# 2 -6.2713 73.7118 19.0410 0.0000 -3.8497 0.0000
# 3 -6.3850 19.0410 64.8754 0.0000 -36.8491 0.0000
# 4 0.0000 0.0000 0.0000 24.1676 0.0000 -4.1136
# 5 -12.8698 -3.8497 -36.8491 0.0000 42.6628 0.0000
# 6 0.0000 0.0000 0.0000 -4.1136 0.0000 4.1684
#
#
#
# Elastic Compliance Matrix: (Units=1/GPa)
#
#
# Indices 1 2 3 4 5 6 
#
# 1 0.023378 -0.000316 0.012530 0.000000 0.017847 0.000000
# 2 -0.000316 0.015181 -0.007386 0.000000 -0.005105 0.000000
# 3 0.012530 -0.007386 0.040407 0.000000 0.038015 0.000000
# 4 0.000000 0.000000 0.000000 0.049731 0.000000 0.049077
# 5 0.017847 -0.005105 0.038015 0.000000 0.061197 0.000000
# 6 0.000000 0.000000 0.000000 0.049077 0.000000 0.288332
#
#
# Mechanical properties :
#
#
# Convention : Reuss Voigt Hill
#
# Bulk Modulus (GPa) = 11.28385 23.03273 17.15829
# Shear Modulus (GPa) = 10.03793 26.74246 18.39019
#
# Velocity S-wave (km/s) = 2.22385 3.62982 3.01007
# Velocity P-wave (km/s) = 3.48617 5.37729 4.53148
#
# Compressibility (1/GPa) = 0.08862222
#
# Stress axis : x y z
#
# Youngs Moduli (GPa) = 42.77562 65.87224 24.74790
#
# Poissons Ratio (x) = 0.02080 -0.31010
# Poissons Ratio (y) = 0.01351 0.18280
# Poissons Ratio (z) = -0.53599 0.48656
#
# Static dielectric constant tensor:
#      x y z
#    x 1.700400 0.000000 -0.006750 
#    y 0.000000 2.003470 0.000000 
#    z -0.006750 0.000000 1.781290 
# 
# From -- ./inp_files/48207.got.cif
#   From: 2010.05.17/outbox.cif.g08.bks.cpg/sg14_25_cif.got.tgz:48207.got - 2010.06.03 17:49:19.
