data_PCOD9244785
_publ_section_title
;
Structure prediction by ZEFSAII (Michael W. Deem and Ramdas Pophale) SiO2 
 PCOD9244785
Probable space group: P 21/C
;
_chemical_formula_sum "Si O2"
_cell_formula_units_Z 20
_cell_length_a 5.021699
_cell_length_b 14.367738
_cell_length_c 10.375131
_cell_angle_alpha 90.000000
_cell_angle_beta 85.613675
_cell_angle_gamma 90.000000
_cell_volume 746.377891
_symmetry_space_group_name_H-M "P 21/C"
_symmetry_group_IT_number 14
_symmetry_cell_setting 'monoclinic'
loop_
_space_group_symop_operation_xyz
x,y,z
-x,1/2+y,1/2-z
-x,-y,-z
x,1/2-y,1/2+z
loop_
_atom_site_type_symbol
_atom_site_label
_atom_site_fract_x
_atom_site_fract_y
_atom_site_fract_z
Si Si1 0.125972 0.138578 0.399054
Si Si2 0.488301 0.299909 0.426992
Si Si3 0.421756 0.661467 0.294237
Si Si4 0.235300 0.050784 0.769021
Si Si5 0.742343 0.070318 0.605158
O O1 0.254772 0.226320 0.462339
O O2 0.257456 0.150906 0.250749
O O3 0.840717 0.125366 0.477345
O O4 0.249580 0.038498 0.430129
O O5 0.646489 0.246586 0.302730
O O6 0.633726 0.316837 0.555812
O O7 0.333400 0.394776 0.391859
O O8 0.285251 0.560497 0.274020
O O9 0.451672 0.092839 0.663150
O O10 0.948414 0.073714 0.719097
#
# Coordination Sequence:
#
# PCOD9244785 Si02
#       5
#     4   4   4   4   4
#     4   8  20  39  69  96 138 169 237 270 344 395
#     4  10  20  44  68 102 140 181 226 286 338 408
#     4   9  21  40  69  99 141 178 233 276 344 403
#     4  11  23  43  73  99 141 174 232 278 353 387
#     4  10  21  44  68 101 128 183 221 290 325 417
#
# _framework density 26.796074999999998
#
# number of rings (size 3 to 8) (size 9 to 14) (size 15 to 20)
#    1.200    1.200    0.000    1.800    0.000    7.200 
#    3.600    9.000    0.000    0.000    0.000    0.000 
#    0.000    0.000    0.000    0.000    0.000    0.000 
#
# Total GULP energy -111567.137304 kJ/mol
# GULP energy per Si atom -5578.356865 kJ/mol
# Density = 2.673509 g / cm^3
# Si number density = 26.796075 Si / 1000 Ang^3
#
#
#
# Elastic Constant Matrix: (Units=GPa)
#
#
# Indices 1 2 3 4 5 6 
#
# 1 66.1471 13.9264 19.8844 0.0000 1.1215 0.0000
# 2 13.9264 148.9246 63.6223 0.0000 11.6781 0.0000
# 3 19.8844 63.6223 150.6906 0.0000 40.3472 0.0000
# 4 0.0000 0.0000 0.0000 55.8017 0.0000 2.3952
# 5 1.1215 11.6781 40.3472 0.0000 31.5709 0.0000
# 6 0.0000 0.0000 0.0000 2.3952 0.0000 40.9037
#
#
#
# Elastic Compliance Matrix: (Units=1/GPa)
#
#
# Indices 1 2 3 4 5 6 
#
# 1 0.015998 -0.000590 -0.002688 0.000000 0.003085 0.000000
# 2 -0.000590 0.008308 -0.003972 0.000000 0.002024 0.000000
# 3 -0.002688 -0.003972 0.012540 0.000000 -0.014461 0.000000
# 4 0.000000 0.000000 0.000000 0.017966 0.000000 -0.001052
# 5 0.003085 0.002024 -0.014461 0.000000 0.049297 0.000000
# 6 0.000000 0.000000 0.000000 -0.001052 0.000000 0.024509
#
#
# Mechanical properties :
#
#
# Convention : Reuss Voigt Hill
#
# Bulk Modulus (GPa) = 44.74965 62.29204 53.52085
# Shear Modulus (GPa) = 33.20819 43.54386 38.37603
#
# Velocity S-wave (km/s) = 3.52418 4.03551 3.78848
# Velocity P-wave (km/s) = 5.77028 6.70902 6.25728
#
# Compressibility (1/GPa) = 0.02234655
#
# Stress axis : x y z
#
# Youngs Moduli (GPa) = 62.50896 120.36577 79.74761
#
# Poissons Ratio (x) = 0.07096 0.21437
# Poissons Ratio (y) = 0.03685 0.31673
# Poissons Ratio (z) = 0.16803 0.47806
#
# Static dielectric constant tensor:
#      x y z
#    x 2.191590 0.000000 0.038540 
#    y 0.000000 2.066930 0.000000 
#    z 0.038540 0.000000 2.194170 
# 
# From -- ./inp_files/20823.got.cif
#   From: 2010.05.17/outbox.cif.g08.bks.cpg/sg14_11_cif.got.tgz:20823.got - 2010.06.03 17:49:19.
