data_PCOD9244854
_publ_section_title
;
Structure prediction by ZEFSAII (Michael W. Deem and Ramdas Pophale) SiO2 
 PCOD9244854
Probable space group: P 21/C
;
_chemical_formula_sum "Si O2"
_cell_formula_units_Z 24
_cell_length_a 12.829789
_cell_length_b 18.831479
_cell_length_c 13.859098
_cell_angle_alpha 90.000000
_cell_angle_beta 21.822701
_cell_angle_gamma 90.000000
_cell_volume 1244.724267
_symmetry_space_group_name_H-M "P 21/C"
_symmetry_group_IT_number 14
_symmetry_cell_setting 'monoclinic'
loop_
_space_group_symop_operation_xyz
x,y,z
-x,1/2+y,1/2-z
-x,-y,-z
x,1/2-y,1/2+z
loop_
_atom_site_type_symbol
_atom_site_label
_atom_site_fract_x
_atom_site_fract_y
_atom_site_fract_z
Si Si1 0.440168 0.528159 0.442728
Si Si2 0.876052 0.819470 0.784846
Si Si3 0.940136 0.471900 0.942728
Si Si4 0.624164 0.680581 0.215056
Si Si5 0.334500 0.731400 0.279003
Si Si6 0.834282 0.231361 0.279107
O O1 0.500000 0.500000 0.500000
O O2 0.560810 0.605444 0.317816
O O3 0.104873 0.523498 0.728036
O O4 0.604844 0.476589 0.228037
O O5 0.059177 0.762099 0.568024
O O6 0.000062 0.816713 0.786631
O O7 0.553078 0.795451 0.066388
O O8 0.939337 0.894615 0.682159
O O9 0.000000 0.500000 0.000000
O O10 0.500123 0.683330 0.213304
O O11 0.441072 0.737964 0.431840
O O12 0.947153 0.704582 0.933483
O O13 0.250110 0.697730 0.249958
#
# Coordination Sequence:
#
# PCOD9244854 Si02
#       6
#     4   4   4   4   4   4
#     4  10  21  32  50  78 105 146 167 221 273 315
#     4  10  21  36  51  82 111 135 190 215 272 326
#     4  10  21  32  50  78 105 146 167 221 273 315
#     4  10  21  36  51  82 111 135 190 215 272 326
#     4  10  21  34  57  76 106 150 171 234 265 313
#     4  10  21  34  57  76 106 150 171 234 265 313
#
# _framework density 19.281379000000001
#
# number of rings (size 3 to 8) (size 9 to 14) (size 15 to 20)
#    0.000    2.000    0.000    3.000   14.000    0.000 
#    0.000    0.000    0.000    2.000    0.000    0.000 
#    0.000    0.000    0.000    0.000    0.000    0.000 
#
# Total GULP energy -133823.665079 kJ/mol
# GULP energy per Si atom -5575.986045 kJ/mol
# Density = 1.923749 g / cm^3
# Si number density = 19.281379 Si / 1000 Ang^3
#
#
#
# Elastic Constant Matrix: (Units=GPa)
#
#
# Indices 1 2 3 4 5 6 
#
# 1 113.6427 8.1730 2.4443 0.0000 24.9571 0.0000
# 2 8.1730 58.7275 2.6709 0.0000 11.2745 0.0000
# 3 2.4443 2.6709 128.1139 0.0000 -1.7529 0.0000
# 4 0.0000 0.0000 0.0000 33.6073 0.0000 12.0220
# 5 24.9571 11.2745 -1.7529 0.0000 21.6420 0.0000
# 6 0.0000 0.0000 0.0000 12.0220 0.0000 15.5649
#
#
#
# Elastic Compliance Matrix: (Units=1/GPa)
#
#
# Indices 1 2 3 4 5 6 
#
# 1 0.011871 0.001115 -0.000445 0.000000 -0.014306 0.000000
# 2 0.001115 0.019061 -0.000573 0.000000 -0.011262 0.000000
# 3 -0.000445 -0.000573 0.007846 0.000000 0.001448 0.000000
# 4 0.000000 0.000000 0.000000 0.041115 0.000000 -0.031757
# 5 -0.014306 -0.011262 0.001448 0.000000 0.068688 0.000000
# 6 0.000000 0.000000 0.000000 -0.031757 0.000000 0.088775
#
#
# Mechanical properties :
#
#
# Convention : Reuss Voigt Hill
#
# Bulk Modulus (GPa) = 25.66070 36.34004 31.00037
# Shear Modulus (GPa) = 19.98781 33.30922 26.64852
#
# Velocity S-wave (km/s) = 3.22318 4.16087 3.72167
# Velocity P-wave (km/s) = 5.21433 6.47857 5.88053
#
# Compressibility (1/GPa) = 0.03897010
#
# Stress axis : x y z
#
# Youngs Moduli (GPa) = 84.24172 52.46389 127.45671
#
# Poissons Ratio (x) = -0.05848 0.05678
# Poissons Ratio (y) = -0.09390 0.07300
# Poissons Ratio (z) = 0.03753 0.03005
#
# Static dielectric constant tensor:
#      x y z
#    x 1.761380 0.000000 -0.084690 
#    y 0.000000 1.684630 0.000000 
#    z -0.084690 0.000000 1.796980 
# 
# From -- ./inp_files/30379.got.cif
#   From: 2010.05.17/outbox.cif.g08.bks.cpg/sg14_16_cif.got.tgz:30379.got - 2010.06.03 17:49:19.
