data_PCOD9244844
_publ_section_title
;
Structure prediction by ZEFSAII (Michael W. Deem and Ramdas Pophale) SiO2 
 PCOD9244844
Probable space group: P 21/C
;
_chemical_formula_sum "Si O2"
_cell_formula_units_Z 22
_cell_length_a 5.390305
_cell_length_b 7.465937
_cell_length_c 21.221275
_cell_angle_alpha 90.000000
_cell_angle_beta 117.713487
_cell_angle_gamma 90.000000
_cell_volume 756.052298
_symmetry_space_group_name_H-M "P 21/C"
_symmetry_group_IT_number 14
_symmetry_cell_setting 'monoclinic'
loop_
_space_group_symop_operation_xyz
x,y,z
-x,1/2+y,1/2-z
-x,-y,-z
x,1/2-y,1/2+z
loop_
_atom_site_type_symbol
_atom_site_label
_atom_site_fract_x
_atom_site_fract_y
_atom_site_fract_z
Si Si1 0.550363 0.266342 0.130326
Si Si2 0.265817 0.751643 0.165518
Si Si3 0.230294 0.729783 0.515137
Si Si4 0.500000 0.500000 0.000000
Si Si5 0.773179 0.940026 0.088968
Si Si6 0.806329 0.858883 0.291393
O O1 0.558124 0.069772 0.100070
O O2 0.347292 0.271490 0.165794
O O3 0.876298 0.304274 0.184176
O O4 0.459401 0.409279 0.067408
O O5 0.172462 0.753545 0.081115
O O6 0.587214 0.804732 0.210934
O O7 0.211268 0.568914 0.195074
O O8 0.043479 0.899615 0.162105
O O9 0.156952 0.558291 0.464562
O O10 0.582325 0.736991 0.551303
O O11 0.185234 0.902481 0.467869
#
# Coordination Sequence:
#
# PCOD9244844 Si02
#       6
#     4   4   4   2   4   4
#     4  11  26  48  73 113 140 201 238 315 359 453
#     4  12  26  45  71 106 147 200 240 313 362 458
#     4  10  22  44  72 107 140 194 243 313 363 442
#     4  10  20  48  74 108 146 186 254 304 372 428
#     4  10  24  44  74 103 149 182 256 298 381 419
#     4  12  29  46  76 105 155 192 252 294 380 441
#
# _framework density 29.098517000000001
#
# number of rings (size 3 to 8) (size 9 to 14) (size 15 to 20)
#    0.000    1.091    1.818    2.727    7.636    0.727 
#    9.818    0.000    0.000    0.000    0.000    0.000 
#    0.000    0.000    0.000    0.000    0.000    0.000 
#
# Total GULP energy -123010.459352 kJ/mol
# GULP energy per Si atom -5591.384516 kJ/mol
# Density = 2.903229 g / cm^3
# Si number density = 29.098517 Si / 1000 Ang^3
#
#
#
# Elastic Constant Matrix: (Units=GPa)
#
#
# Indices 1 2 3 4 5 6 
#
# 1 149.1991 31.3401 42.3663 0.0000 28.1835 0.0000
# 2 31.3401 93.6815 23.0083 0.0000 10.6987 0.0000
# 3 42.3663 23.0083 109.3757 0.0000 0.5555 0.0000
# 4 0.0000 0.0000 0.0000 44.0970 0.0000 6.0816
# 5 28.1835 10.6987 0.5555 0.0000 72.5804 0.0000
# 6 0.0000 0.0000 0.0000 6.0816 0.0000 47.9663
#
#
#
# Elastic Compliance Matrix: (Units=1/GPa)
#
#
# Indices 1 2 3 4 5 6 
#
# 1 0.008464 -0.001779 -0.002889 0.000000 -0.003002 0.000000
# 2 -0.001779 0.011829 -0.001794 0.000000 -0.001039 0.000000
# 3 -0.002889 -0.001794 0.010633 0.000000 0.001305 0.000000
# 4 0.000000 0.000000 0.000000 0.023081 0.000000 -0.002926
# 5 -0.003002 -0.001039 0.001305 0.000000 0.015087 0.000000
# 6 0.000000 0.000000 0.000000 -0.002926 0.000000 0.021219
#
#
# Mechanical properties :
#
#
# Convention : Reuss Voigt Hill
#
# Bulk Modulus (GPa) = 55.55145 60.63172 58.09158
# Shear Modulus (GPa) = 45.77260 49.96486 47.86873
#
# Velocity S-wave (km/s) = 3.97044 4.14828 4.06033
# Velocity P-wave (km/s) = 6.33651 6.62014 6.47988
#
# Compressibility (1/GPa) = 0.01800133
#
# Stress axis : x y z
#
# Youngs Moduli (GPa) = 118.15365 84.53882 94.05104
#
# Poissons Ratio (x) = 0.15040 0.27170
# Poissons Ratio (y) = 0.21020 0.16872
# Poissons Ratio (z) = 0.34133 0.15166
#
# Static dielectric constant tensor:
#      x y z
#    x 2.463750 0.000000 -0.019980 
#    y 0.000000 1.726620 0.000000 
#    z -0.019980 0.000000 2.122250 
# 
# From -- ./inp_files/62926.got.cif
#   From: 2010.05.17/outbox.cif.g08.bks.cpg/sg14_32_cif.got.tgz:62926.got - 2010.06.03 17:49:19.
