data_PCOD9244077
_publ_section_title
;
Structure prediction by ZEFSAII (Michael W. Deem and Ramdas Pophale) SiO2 
 PCOD9244077
Probable space group: P 21/C
;
_chemical_formula_sum "Si O2"
_cell_formula_units_Z 32
_cell_length_a 8.811441
_cell_length_b 8.600305
_cell_length_c 24.929368
_cell_angle_alpha 90.000000
_cell_angle_beta 125.486890
_cell_angle_gamma 90.000000
_cell_volume 1538.257201
_symmetry_space_group_name_H-M "P 21/C"
_symmetry_group_IT_number 14
_symmetry_cell_setting 'monoclinic'
loop_
_space_group_symop_operation_xyz
x,y,z
-x,1/2+y,1/2-z
-x,-y,-z
x,1/2-y,1/2+z
loop_
_atom_site_type_symbol
_atom_site_label
_atom_site_fract_x
_atom_site_fract_y
_atom_site_fract_z
Si Si1 0.137066 0.858839 0.521040
Si Si2 0.528939 0.882494 0.282190
Si Si3 0.811267 0.302942 0.746816
Si Si4 0.926533 0.779709 0.876931
Si Si5 0.087841 0.576330 0.818224
Si Si6 0.862192 0.441693 0.425464
Si Si7 0.548834 0.904444 0.632399
Si Si8 0.438804 0.053180 0.837312
O O1 0.124503 0.743553 0.569754
O O2 0.351936 0.905834 0.561686
O O3 0.059679 0.773582 0.452701
O O4 0.000000 0.000000 0.500000
O O5 0.349790 0.769910 0.249428
O O6 0.719661 0.795399 0.338788
O O7 0.554342 0.932372 0.226117
O O8 0.488273 0.020686 0.316202
O O9 0.696576 0.408700 0.679710
O O10 0.953241 0.429014 0.799061
O O11 0.916702 0.159466 0.740704
O O12 0.020341 0.710962 0.843762
O O13 0.903897 0.964636 0.879878
O O14 0.296284 0.509290 0.864461
O O15 0.649902 0.479712 0.398465
O O16 0.000000 0.500000 0.500000
O O17 0.612344 0.724939 0.652032
#
# Coordination Sequence:
#
# PCOD9244077 Si02
#       8
#     4   4   4   4   4   4   4   4
#     4  10  20  39  66  91 121 159 212 265 305 358
#     4  11  21  35  63  91 117 158 210 263 308 358
#     4  11  23  40  57  86 127 165 194 256 310 377
#     4  11  21  38  61  88 123 159 210 257 304 377
#     4  11  25  38  58  87 130 166 201 244 325 379
#     4   9  21  36  59  89 118 157 203 262 305 355
#     4  10  23  39  58  92 126 164 201 254 318 375
#     4  11  20  36  63  88 119 155 213 258 305 363
#
# _framework density 20.802762000000001
#
# number of rings (size 3 to 8) (size 9 to 14) (size 15 to 20)
#    0.000    1.500    3.750    1.500    0.000    1.500 
#    0.000    1.250    0.000    9.000    0.000    0.000 
#    0.000    0.000    0.000    0.000    0.000    0.000 
#
# Total GULP energy -178577.865603 kJ/mol
# GULP energy per Si atom -5580.558300 kJ/mol
# Density = 2.075541 g / cm^3
# Si number density = 20.802762 Si / 1000 Ang^3
#
#
#
# Elastic Constant Matrix: (Units=GPa)
#
#
# Indices 1 2 3 4 5 6 
#
# 1 101.7721 38.1541 26.5336 0.0000 14.9744 0.0000
# 2 38.1541 65.4456 1.8859 0.0000 11.9933 0.0000
# 3 26.5336 1.8859 53.8133 0.0000 25.4989 0.0000
# 4 0.0000 0.0000 0.0000 30.2433 0.0000 8.8434
# 5 14.9744 11.9933 25.4989 0.0000 31.9750 0.0000
# 6 0.0000 0.0000 0.0000 8.8434 0.0000 38.9815
#
#
#
# Elastic Compliance Matrix: (Units=1/GPa)
#
#
# Indices 1 2 3 4 5 6 
#
# 1 0.015005 -0.009098 -0.008627 0.000000 0.003265 0.000000
# 2 -0.009098 0.022412 0.009105 0.000000 -0.011407 0.000000
# 3 -0.008627 0.009105 0.035718 0.000000 -0.027859 0.000000
# 4 0.000000 0.000000 0.000000 0.035414 0.000000 -0.008034
# 5 0.003265 -0.011407 -0.027859 0.000000 0.056241 0.000000
# 6 0.000000 0.000000 0.000000 -0.008034 0.000000 0.027476
#
#
# Mechanical properties :
#
#
# Convention : Reuss Voigt Hill
#
# Bulk Modulus (GPa) = 17.89002 39.35313 28.62158
# Shear Modulus (GPa) = 21.91671 30.53713 26.22692
#
# Velocity S-wave (km/s) = 3.24936 3.83552 3.55455
# Velocity P-wave (km/s) = 4.76406 6.21074 5.53487
#
# Compressibility (1/GPa) = 0.05589707
#
# Stress axis : x y z
#
# Youngs Moduli (GPa) = 66.64291 44.61951 27.99706
#
# Poissons Ratio (x) = 0.40593 0.24152
# Poissons Ratio (y) = 0.60629 -0.25492
# Poissons Ratio (z) = 0.57491 -0.40628
#
# Static dielectric constant tensor:
#      x y z
#    x 1.753230 0.000000 0.007990 
#    y 0.000000 1.803820 0.000000 
#    z 0.007990 0.000000 1.755550 
# 
# From -- ./inp_files/72088.got.cif
#   From: 2010.05.17/outbox.cif.g08.bks.cpg/sg14_37_cif.got.tgz:72088.got - 2010.06.03 17:49:19.
