data_PCOD9244997
_publ_section_title
;
Structure prediction by ZEFSAII (Michael W. Deem and Ramdas Pophale) SiO2 
 PCOD9244997
Probable space group: P 21/C
;
_chemical_formula_sum "Si O2"
_cell_formula_units_Z 32
_cell_length_a 10.576299
_cell_length_b 19.875443
_cell_length_c 9.390734
_cell_angle_alpha 90.000000
_cell_angle_beta 39.956418
_cell_angle_gamma 90.000000
_cell_volume 1267.720689
_symmetry_space_group_name_H-M "P 21/C"
_symmetry_group_IT_number 14
_symmetry_cell_setting 'monoclinic'
loop_
_space_group_symop_operation_xyz
x,y,z
-x,1/2+y,1/2-z
-x,-y,-z
x,1/2-y,1/2+z
loop_
_atom_site_type_symbol
_atom_site_label
_atom_site_fract_x
_atom_site_fract_y
_atom_site_fract_z
Si Si1 0.003514 0.593974 0.086785
Si Si2 0.093233 0.453261 0.129108
Si Si3 0.952011 0.711613 0.330676
Si Si4 0.451513 0.680935 0.079805
Si Si5 0.473817 0.810404 0.236703
Si Si6 0.929243 0.835731 0.165683
Si Si7 0.538597 0.460248 0.820147
Si Si8 0.583033 0.946016 0.035514
O O1 0.040906 0.664360 0.129757
O O2 0.767644 0.587230 0.301844
O O3 0.075558 0.532981 0.124116
O O4 0.031206 0.577397 0.896423
O O5 0.031574 0.412762 0.323183
O O6 0.329824 0.444107 0.923916
O O7 0.713141 0.700185 0.534691
O O8 0.991470 0.787184 0.243060
O O9 0.003473 0.689535 0.447537
O O10 0.401690 0.747584 0.208964
O O11 0.374018 0.612298 0.216996
O O12 0.398742 0.690253 0.961745
O O13 0.690493 0.672111 0.868791
O O14 0.440418 0.884598 0.200081
O O15 0.644179 0.512716 0.624060
O O16 0.500000 0.500000 0.000000
O O17 0.500000 0.000000 0.000000
#
# Coordination Sequence:
#
# PCOD9244997 Si02
#       8
#     4   4   4   4   4   4   4   4
#     4  10  21  36  54  82 111 142 182 223 272 323
#     4  10  21  36  55  80 111 145 178 225 274 320
#     4   9  17  30  51  77 106 138 180 226 264 318
#     4   9  18  30  49  75 106 139 176 225 265 315
#     4   9  18  30  48  76 106 137 180 221 267 315
#     4   9  17  30  51  77 105 140 180 223 269 314
#     4  11  21  37  56  81 113 145 182 226 276 325
#     4  11  21  35  56  83 110 145 184 226 271 327
#
# _framework density 25.242153999999999
#
# number of rings (size 3 to 8) (size 9 to 14) (size 15 to 20)
#    0.000    2.250    2.500    0.750    3.500    3.500 
#    0.000    0.000    0.000    3.000    0.000    0.000 
#    0.000    0.000    0.000    0.000    0.000    0.000 
#
# Total GULP energy -178984.772186 kJ/mol
# GULP energy per Si atom -5593.274131 kJ/mol
# Density = 2.518470 g / cm^3
# Si number density = 25.242154 Si / 1000 Ang^3
#
#
#
# Elastic Constant Matrix: (Units=GPa)
#
#
# Indices 1 2 3 4 5 6 
#
# 1 85.4947 28.4910 14.5398 0.0000 12.5675 0.0000
# 2 28.4910 159.8034 20.2299 0.0000 25.1767 0.0000
# 3 14.5398 20.2299 73.6028 0.0000 10.7591 0.0000
# 4 0.0000 0.0000 0.0000 22.9705 0.0000 1.0397
# 5 12.5675 25.1767 10.7591 0.0000 38.7007 0.0000
# 6 0.0000 0.0000 0.0000 1.0397 0.0000 38.6860
#
#
#
# Elastic Compliance Matrix: (Units=1/GPa)
#
#
# Indices 1 2 3 4 5 6 
#
# 1 0.012933 -0.001674 -0.001709 0.000000 -0.002635 0.000000
# 2 -0.001674 0.007312 -0.001108 0.000000 -0.003905 0.000000
# 3 -0.001709 -0.001108 0.014637 0.000000 -0.002793 0.000000
# 4 0.000000 0.000000 0.000000 0.043587 0.000000 -0.001171
# 5 -0.002635 -0.003905 -0.002793 0.000000 0.030012 0.000000
# 6 0.000000 0.000000 0.000000 -0.001171 0.000000 0.025881
#
#
# Mechanical properties :
#
#
# Convention : Reuss Voigt Hill
#
# Bulk Modulus (GPa) = 38.61301 49.49136 44.05219
# Shear Modulus (GPa) = 32.89975 37.11413 35.00694
#
# Velocity S-wave (km/s) = 3.61413 3.83864 3.72808
# Velocity P-wave (km/s) = 5.72243 6.26866 6.00176
#
# Compressibility (1/GPa) = 0.02589800
#
# Stress axis : x y z
#
# Youngs Moduli (GPa) = 77.32375 136.76800 68.32005
#
# Poissons Ratio (x) = 0.22897 0.11679
# Poissons Ratio (y) = 0.12945 0.07571
# Poissons Ratio (z) = 0.13218 0.15155
#
# Static dielectric constant tensor:
#      x y z
#    x 2.052710 0.000000 -0.099420 
#    y 0.000000 1.955720 0.000000 
#    z -0.099420 0.000000 2.019580 
# 
# From -- ./inp_files/13733.got.cif
#   From: 2010.05.17/outbox.cif.g08.bks.cpg/sg14_7_cif.got.tgz:13733.got - 2010.06.03 17:49:19.
