data_PCOD9244116
_publ_section_title
;
Structure prediction by ZEFSAII (Michael W. Deem and Ramdas Pophale) SiO2 
 PCOD9244116
Probable space group: P 21/C
;
_chemical_formula_sum "Si O2"
_cell_formula_units_Z 28
_cell_length_a 11.455754
_cell_length_b 7.764346
_cell_length_c 20.186218
_cell_angle_alpha 90.000000
_cell_angle_beta 145.169613
_cell_angle_gamma 90.000000
_cell_volume 1025.493540
_symmetry_space_group_name_H-M "P 21/C"
_symmetry_group_IT_number 14
_symmetry_cell_setting 'monoclinic'
loop_
_space_group_symop_operation_xyz
x,y,z
-x,1/2+y,1/2-z
-x,-y,-z
x,1/2-y,1/2+z
loop_
_atom_site_type_symbol
_atom_site_label
_atom_site_fract_x
_atom_site_fract_y
_atom_site_fract_z
Si Si1 0.102066 0.723434 0.176282
Si Si2 0.958300 0.863568 0.318783
Si Si3 0.090574 0.735406 0.021678
Si Si4 0.643299 0.256390 0.039635
Si Si5 0.645563 0.626622 0.480871
Si Si6 0.342403 0.078529 0.155898
Si Si7 0.627865 0.934743 0.686382
O O1 0.870098 0.789907 0.080168
O O2 0.134184 0.551888 0.234099
O O3 0.239014 0.892394 0.249907
O O4 0.124867 0.657448 0.110278
O O5 0.080215 0.855318 0.445937
O O6 0.124942 0.818240 0.341068
O O7 0.783350 0.721829 0.242984
O O8 0.250382 0.892511 0.095020
O O9 0.860804 0.812644 0.922392
O O10 0.493680 0.219459 0.030478
O O11 0.541114 0.404822 0.947256
O O12 0.659304 0.073304 0.008653
O O13 0.557930 0.641342 0.365307
O O14 0.462418 0.077942 0.280762
#
# Coordination Sequence:
#
# PCOD9244116 Si02
#       7
#     4   4   4   4   4   4   4
#     4  10  20  39  69  96 134 185 233 288 347 422
#     4  11  20  40  69  99 139 189 227 291 358 419
#     4   8  14  30  63  98 125 177 231 275 348 415
#     4  11  23  41  71 101 149 187 236 289 358 430
#     4  10  20  42  68 101 134 194 226 290 365 424
#     4   8  14  33  66  91 138 180 228 290 349 406
#     4  10  22  43  65 105 141 184 240 300 343 418
#
# _framework density 27.303926000000001
#
# number of rings (size 3 to 8) (size 9 to 14) (size 15 to 20)
#    0.000    2.286    2.857    2.143    0.000    0.571 
#    5.143    5.714    0.000    3.429    0.000    0.000 
#    0.000    0.000    0.000    0.000    0.000    0.000 
#
# Total GULP energy -157046.682474 kJ/mol
# GULP energy per Si atom -5608.810088 kJ/mol
# Density = 2.724178 g / cm^3
# Si number density = 27.303926 Si / 1000 Ang^3
#
#
#
# Elastic Constant Matrix: (Units=GPa)
#
#
# Indices 1 2 3 4 5 6 
#
# 1 191.1565 54.1684 30.8847 0.0000 -26.9390 0.0000
# 2 54.1684 142.3605 18.6392 0.0000 2.9003 0.0000
# 3 30.8847 18.6392 82.7805 0.0000 -15.7551 0.0000
# 4 0.0000 0.0000 0.0000 29.7798 0.0000 -11.2333
# 5 -26.9390 2.9003 -15.7551 0.0000 41.1398 0.0000
# 6 0.0000 0.0000 0.0000 -11.2333 0.0000 19.4365
#
#
#
# Elastic Compliance Matrix: (Units=1/GPa)
#
#
# Indices 1 2 3 4 5 6 
#
# 1 0.006703 -0.002483 -0.001157 0.000000 0.004121 0.000000
# 2 -0.002483 0.008215 -0.001449 0.000000 -0.002760 0.000000
# 3 -0.001157 -0.001449 0.013713 0.000000 0.004596 0.000000
# 4 0.000000 0.000000 0.000000 0.042941 0.000000 0.024818
# 5 0.004121 -0.002760 0.004596 0.000000 0.028960 0.000000
# 6 0.000000 0.000000 0.000000 0.024818 0.000000 0.065793
#
#
# Mechanical properties :
#
#
# Convention : Reuss Voigt Hill
#
# Bulk Modulus (GPa) = 54.19226 69.29802 61.74514
# Shear Modulus (GPa) = 27.37419 38.91157 33.14288
#
# Velocity S-wave (km/s) = 3.16978 3.77918 3.48782
# Velocity P-wave (km/s) = 5.76954 6.66920 6.23562
#
# Compressibility (1/GPa) = 0.01845282
#
# Stress axis : x y z
#
# Youngs Moduli (GPa) = 149.19638 121.72839 72.92450
#
# Poissons Ratio (x) = 0.30222 0.08440
# Poissons Ratio (y) = 0.37042 0.10564
# Poissons Ratio (z) = 0.17267 0.17634
#
# Static dielectric constant tensor:
#      x y z
#    x 2.105680 0.000000 -0.055020 
#    y 0.000000 2.050000 0.000000 
#    z -0.055020 0.000000 2.178160 
# 
# From -- ./inp_files/57462.got.cif
#   From: 2010.05.17/outbox.cif.g08.bks.cpg/sg14_29_cif.got.tgz:57462.got - 2010.06.03 17:49:19.
