data_PCOD9244983
_publ_section_title
;
Structure prediction by ZEFSAII (Michael W. Deem and Ramdas Pophale) SiO2 
 PCOD9244983
Probable space group: P 21/C
;
_chemical_formula_sum "Si O2"
_cell_formula_units_Z 32
_cell_length_a 9.872034
_cell_length_b 8.298708
_cell_length_c 25.403656
_cell_angle_alpha 90.000000
_cell_angle_beta 146.029610
_cell_angle_gamma 90.000000
_cell_volume 1162.899193
_symmetry_space_group_name_H-M "P 21/C"
_symmetry_group_IT_number 14
_symmetry_cell_setting 'monoclinic'
loop_
_space_group_symop_operation_xyz
x,y,z
-x,1/2+y,1/2-z
-x,-y,-z
x,1/2-y,1/2+z
loop_
_atom_site_type_symbol
_atom_site_label
_atom_site_fract_x
_atom_site_fract_y
_atom_site_fract_z
Si Si1 0.784240 0.361084 0.997888
Si Si2 0.486546 0.335977 0.569225
Si Si3 0.982801 0.175748 0.967380
Si Si4 0.916710 0.824776 0.833031
Si Si5 0.731984 0.887749 0.567324
Si Si6 0.643756 0.454046 0.184435
Si Si7 0.444822 0.731728 0.251849
Si Si8 0.804963 0.496938 0.742983
O O1 0.848330 0.521507 0.052607
O O2 0.843309 0.213369 0.056501
O O3 0.940636 0.312226 0.997772
O O4 0.518052 0.400737 0.890380
O O5 0.382872 0.286346 0.479739
O O6 0.650298 0.184796 0.642961
O O7 0.640226 0.484554 0.638504
O O8 0.240675 0.321489 0.522921
O O9 0.763159 0.204599 0.855207
O O10 0.000000 0.000000 0.000000
O O11 0.686658 0.816355 0.798701
O O12 0.875906 0.674746 0.781681
O O13 0.890774 0.982992 0.789716
O O14 0.942195 0.899196 0.677416
O O15 0.500000 0.000000 0.500000
O O16 0.508745 0.374009 0.191133
O O17 0.346260 0.587411 0.257654
#
# Coordination Sequence:
#
# PCOD9244983 Si02
#       8
#     4   4   4   4   4   4   4   4
#     4  10  22  37  60  87 125 166 208 256 316 382
#     4  10  22  39  64  93 130 163 209 263 329 391
#     4  12  22  35  59  97 134 169 203 255 331 398
#     4  11  20  34  54  85 126 166 209 248 313 388
#     4  10  22  44  68  91 119 174 228 267 312 375
#     4  10  21  36  52  86 123 168 208 249 309 381
#     4  11  20  32  54  86 132 162 203 250 314 390
#     4  10  21  38  60  91 121 167 210 268 315 378
#
# _framework density 27.517431999999999
#
# number of rings (size 3 to 8) (size 9 to 14) (size 15 to 20)
#    0.000    1.500    2.500    3.750    0.000    3.500 
#    0.000    5.000    0.000    0.750    0.000    0.000 
#    0.000    0.000    0.000    0.000    0.000    0.000 
#
# Total GULP energy -179079.170903 kJ/mol
# GULP energy per Si atom -5596.224091 kJ/mol
# Density = 2.745480 g / cm^3
# Si number density = 27.517432 Si / 1000 Ang^3
#
#
#
# Elastic Constant Matrix: (Units=GPa)
#
#
# Indices 1 2 3 4 5 6 
#
# 1 102.4035 21.7523 31.8790 0.0000 24.8907 0.0000
# 2 21.7523 59.9053 18.3298 0.0000 -6.8530 0.0000
# 3 31.8790 18.3298 147.7960 0.0000 -1.4112 0.0000
# 4 0.0000 0.0000 0.0000 61.3519 0.0000 -9.1815
# 5 24.8907 -6.8530 -1.4112 0.0000 32.6614 0.0000
# 6 0.0000 0.0000 0.0000 -9.1815 0.0000 19.6884
#
#
#
# Elastic Compliance Matrix: (Units=1/GPa)
#
#
# Indices 1 2 3 4 5 6 
#
# 1 0.014988 -0.006114 -0.002597 0.000000 -0.012817 0.000000
# 2 -0.006114 0.020267 -0.001110 0.000000 0.008864 0.000000
# 3 -0.002597 -0.001110 0.007484 0.000000 0.002070 0.000000
# 4 0.000000 0.000000 0.000000 0.017522 0.000000 0.008171
# 5 -0.012817 0.008864 0.002070 0.000000 0.042334 0.000000
# 6 0.000000 0.000000 0.000000 0.008171 0.000000 0.054602
#
#
# Mechanical properties :
#
#
# Convention : Reuss Voigt Hill
#
# Bulk Modulus (GPa) = 43.29698 50.44746 46.87222
# Shear Modulus (GPa) = 27.09485 38.61659 32.85572
#
# Velocity S-wave (km/s) = 3.14131 3.75020 3.45917
# Velocity P-wave (km/s) = 5.37825 6.09300 5.74675
#
# Compressibility (1/GPa) = 0.02309630
#
# Stress axis : x y z
#
# Youngs Moduli (GPa) = 66.72099 49.34208 133.62424
#
# Poissons Ratio (x) = 0.30167 0.34702
# Poissons Ratio (y) = 0.40792 0.14834
# Poissons Ratio (z) = 0.17327 0.05478
#
# Static dielectric constant tensor:
#      x y z
#    x 2.242020 0.000000 -0.051920 
#    y 0.000000 2.177440 0.000000 
#    z -0.051920 0.000000 2.124120 
# 
# From -- ./inp_files/80031.got.cif
#   From: 2010.05.17/outbox.cif.g08.bks.cpg/sg14_41_cif.got.tgz:80031.got - 2010.06.03 17:49:19.
