data_PCOD9244291
_publ_section_title
;
Structure prediction by ZEFSAII (Michael W. Deem and Ramdas Pophale) SiO2 
 PCOD9244291
Probable space group: P 21/C
;
_chemical_formula_sum "Si O2"
_cell_formula_units_Z 20
_cell_length_a 14.505383
_cell_length_b 7.859857
_cell_length_c 19.120595
_cell_angle_alpha 90.000000
_cell_angle_beta 158.437614
_cell_angle_gamma 90.000000
_cell_volume 801.159962
_symmetry_space_group_name_H-M "P 21/C"
_symmetry_group_IT_number 14
_symmetry_cell_setting 'monoclinic'
loop_
_space_group_symop_operation_xyz
x,y,z
-x,1/2+y,1/2-z
-x,-y,-z
x,1/2-y,1/2+z
loop_
_atom_site_type_symbol
_atom_site_label
_atom_site_fract_x
_atom_site_fract_y
_atom_site_fract_z
Si Si1 0.395681 0.640659 0.519047
Si Si2 0.319588 0.157613 0.389512
Si Si3 0.136381 0.524078 0.522481
Si Si4 0.118615 0.986535 0.372547
Si Si5 0.654652 0.648308 0.845775
O O1 0.543712 0.687925 0.552919
O O2 0.586005 0.604629 0.717051
O O3 0.173358 0.506199 0.351441
O O4 0.250186 0.813780 0.440776
O O5 0.259814 0.136421 0.428946
O O6 0.500000 0.000000 0.500000
O O7 0.060714 0.111382 0.168086
O O8 0.389288 0.633359 0.698825
O O9 0.224832 0.334605 0.563836
O O10 0.000000 0.500000 0.500000
O O11 0.163583 0.019262 0.485816
#
# Coordination Sequence:
#
# PCOD9244291 Si02
#       5
#     4   4   4   4   4
#     4  11  23  42  67  98 130 180 227 282 344 408
#     4  10  20  40  65  95 128 175 226 273 339 406
#     4  12  23  44  72  96 140 182 228 287 342 409
#     4  11  23  40  67  96 132 175 226 284 341 404
#     4  12  23  41  69 102 134 180 234 276 346 413
#
# _framework density 24.963802999999999
#
# number of rings (size 3 to 8) (size 9 to 14) (size 15 to 20)
#    0.000    0.800    6.000    3.600    0.000    0.000 
#    0.000    2.000    8.800    0.000    0.000    0.000 
#    0.000    0.000    0.000    0.000    0.000    0.000 
#
# Total GULP energy -111995.814520 kJ/mol
# GULP energy per Si atom -5599.790726 kJ/mol
# Density = 2.490698 g / cm^3
# Si number density = 24.963803 Si / 1000 Ang^3
#
#
#
# Elastic Constant Matrix: (Units=GPa)
#
#
# Indices 1 2 3 4 5 6 
#
# 1 111.5547 18.2239 2.6219 0.0000 10.6200 0.0000
# 2 18.2239 96.2025 19.0753 0.0000 11.5814 0.0000
# 3 2.6219 19.0753 89.8133 0.0000 -14.3155 0.0000
# 4 0.0000 0.0000 0.0000 49.2233 0.0000 27.8251
# 5 10.6200 11.5814 -14.3155 0.0000 46.7439 0.0000
# 6 0.0000 0.0000 0.0000 27.8251 0.0000 37.2960
#
#
#
# Elastic Compliance Matrix: (Units=1/GPa)
#
#
# Indices 1 2 3 4 5 6 
#
# 1 0.009391 -0.001509 -0.000246 0.000000 -0.001835 0.000000
# 2 -0.001509 0.011692 -0.002992 0.000000 -0.003470 0.000000
# 3 -0.000246 -0.002992 0.012515 0.000000 0.004630 0.000000
# 4 0.000000 0.000000 0.000000 0.035132 0.000000 -0.026211
# 5 -0.001835 -0.003470 0.004630 0.000000 0.024088 0.000000
# 6 0.000000 0.000000 0.000000 -0.026211 0.000000 0.046367
#
#
# Mechanical properties :
#
#
# Convention : Reuss Voigt Hill
#
# Bulk Modulus (GPa) = 41.48933 41.93475 41.71204
# Shear Modulus (GPa) = 31.90515 43.82926 37.86721
#
# Velocity S-wave (km/s) = 3.57887 4.19467 3.89895
# Velocity P-wave (km/s) = 5.80807 6.34784 6.08394
#
# Compressibility (1/GPa) = 0.02410258
#
# Stress axis : x y z
#
# Youngs Moduli (GPa) = 106.48200 85.53061 79.90482
#
# Poissons Ratio (x) = 0.12909 0.01966
# Poissons Ratio (y) = 0.16071 0.23909
# Poissons Ratio (z) = 0.02621 0.25593
#
# Static dielectric constant tensor:
#      x y z
#    x 1.990150 0.000000 -0.033040 
#    y 0.000000 2.495960 0.000000 
#    z -0.033040 0.000000 2.023000 
# 
# From -- ./inp_files/38744.got.cif
#   From: 2010.05.17/outbox.cif.g08.bks.cpg/sg14_20_cif.got.tgz:38744.got - 2010.06.03 17:49:19.
