data_PCOD9244537
_publ_section_title
;
Structure prediction by ZEFSAII (Michael W. Deem and Ramdas Pophale) SiO2 
 PCOD9244537
Probable space group: P 21/C
;
_chemical_formula_sum "Si O2"
_cell_formula_units_Z 26
_cell_length_a 16.591918
_cell_length_b 7.577184
_cell_length_c 14.106168
_cell_angle_alpha 90.000000
_cell_angle_beta 146.171676
_cell_angle_gamma 90.000000
_cell_volume 987.278426
_symmetry_space_group_name_H-M "P 21/C"
_symmetry_group_IT_number 14
_symmetry_cell_setting 'monoclinic'
loop_
_space_group_symop_operation_xyz
x,y,z
-x,1/2+y,1/2-z
-x,-y,-z
x,1/2-y,1/2+z
loop_
_atom_site_type_symbol
_atom_site_label
_atom_site_fract_x
_atom_site_fract_y
_atom_site_fract_z
Si Si1 0.894268 0.020867 0.258391
Si Si2 0.577204 0.971477 0.256852
Si Si3 0.370066 0.661913 0.701900
Si Si4 0.767460 0.421751 0.126685
Si Si5 0.821331 0.666734 0.872960
Si Si6 0.918555 0.491452 0.568533
Si Si7 0.500000 0.000000 0.500000
O O1 0.828404 0.220045 0.189222
O O2 0.058682 0.046251 0.455979
O O3 0.816394 0.902306 0.261044
O O4 0.892773 0.940726 0.151463
O O5 0.549441 0.162307 0.184092
O O6 0.435874 0.883671 0.163157
O O7 0.685206 0.024089 0.449159
O O8 0.665825 0.859271 0.268838
O O9 0.198046 0.665643 0.548922
O O10 0.428801 0.509859 0.825482
O O11 0.657951 0.449319 0.105343
O O12 0.912065 0.541191 0.273874
O O13 0.877794 0.861271 0.952219
#
# Coordination Sequence:
#
# PCOD9244537 Si02
#       7
#     4   4   4   4   4   4   2
#     4  10  20  41  68  97 139 182 228 287 349 416
#     4  11  21  42  65  93 135 185 222 290 339 425
#     4  11  24  42  66  95 138 178 234 280 355 404
#     4  10  21  41  69  97 140 178 234 286 352 409
#     4  10  22  39  66  99 136 179 234 277 347 418
#     4  11  22  42  68 105 132 185 232 291 351 418
#     4  10  24  44  64 102 136 186 232 290 338 422
#
# _framework density 26.335023
#
# number of rings (size 3 to 8) (size 9 to 14) (size 15 to 20)
#    0.000    1.538    3.077    1.846    0.000    0.615 
#    8.308    0.769    0.000    0.000    0.000    0.000 
#    0.000    0.000    0.000    0.000    0.000    0.000 
#
# Total GULP energy -145089.786567 kJ/mol
# GULP energy per Si atom -5580.376406 kJ/mol
# Density = 2.627508 g / cm^3
# Si number density = 26.335023 Si / 1000 Ang^3
#
#
#
# Elastic Constant Matrix: (Units=GPa)
#
#
# Indices 1 2 3 4 5 6 
#
# 1 156.9171 21.4578 29.9368 0.0000 17.3812 0.0000
# 2 21.4578 83.0270 17.5042 0.0000 22.7928 0.0000
# 3 29.9368 17.5042 89.7194 0.0000 23.5982 0.0000
# 4 0.0000 0.0000 0.0000 15.2088 0.0000 9.0045
# 5 17.3812 22.7928 23.5982 0.0000 57.9070 0.0000
# 6 0.0000 0.0000 0.0000 9.0045 0.0000 29.2521
#
#
#
# Elastic Compliance Matrix: (Units=1/GPa)
#
#
# Indices 1 2 3 4 5 6 
#
# 1 0.006987 -0.001171 -0.001873 0.000000 -0.000873 0.000000
# 2 -0.001171 0.013855 -0.001087 0.000000 -0.004659 0.000000
# 3 -0.001873 -0.001087 0.013130 0.000000 -0.004361 0.000000
# 4 0.000000 0.000000 0.000000 0.080405 0.000000 -0.024751
# 5 -0.000873 -0.004659 -0.004361 0.000000 0.021142 0.000000
# 6 0.000000 0.000000 0.000000 -0.024751 0.000000 0.041804
#
#
# Mechanical properties :
#
#
# Convention : Reuss Voigt Hill
#
# Bulk Modulus (GPa) = 38.89654 51.94014 45.41834
# Shear Modulus (GPa) = 25.75248 37.85790 31.80519
#
# Velocity S-wave (km/s) = 3.13050 3.79562 3.47899
# Velocity P-wave (km/s) = 5.27908 6.24296 5.78114
#
# Compressibility (1/GPa) = 0.02570923
#
# Stress axis : x y z
#
# Youngs Moduli (GPa) = 143.12256 72.17546 76.16200
#
# Poissons Ratio (x) = 0.08453 0.14267
# Poissons Ratio (y) = 0.16763 0.08278
# Poissons Ratio (z) = 0.26811 0.07845
#
# Static dielectric constant tensor:
#      x y z
#    x 1.992600 0.000000 -0.035070 
#    y 0.000000 2.245510 0.000000 
#    z -0.035070 0.000000 2.010410 
# 
# From -- ./inp_files/46642.got.cif
#   From: 2010.05.17/outbox.cif.g08.bks.cpg/sg14_24_cif.got.tgz:46642.got - 2010.06.03 17:49:19.
