data_PCOD9244221
_publ_section_title
;
Structure prediction by ZEFSAII (Michael W. Deem and Ramdas Pophale) SiO2 
 PCOD9244221
Probable space group: P 21/C
;
_chemical_formula_sum "Si O2"
_cell_formula_units_Z 30
_cell_length_a 8.798853
_cell_length_b 19.302588
_cell_length_c 16.300718
_cell_angle_alpha 90.000000
_cell_angle_beta 32.594156
_cell_angle_gamma 90.000000
_cell_volume 1491.362102
_symmetry_space_group_name_H-M "P 21/C"
_symmetry_group_IT_number 14
_symmetry_cell_setting 'monoclinic'
loop_
_space_group_symop_operation_xyz
x,y,z
-x,1/2+y,1/2-z
-x,-y,-z
x,1/2-y,1/2+z
loop_
_atom_site_type_symbol
_atom_site_label
_atom_site_fract_x
_atom_site_fract_y
_atom_site_fract_z
Si Si1 0.814075 0.761068 0.225251
Si Si2 0.343544 0.319712 0.867168
Si Si3 0.667431 0.610444 0.690219
Si Si4 0.000000 0.000000 0.000000
Si Si5 0.617032 0.306065 0.476775
Si Si6 0.689068 0.976223 0.662796
Si Si7 0.755380 0.296494 0.224919
Si Si8 0.420956 0.963335 0.951193
O O1 0.726699 0.711145 0.190715
O O2 0.715103 0.838391 0.244241
O O3 0.673523 0.733010 0.371987
O O4 0.147876 0.762906 0.081385
O O5 0.371832 0.401759 0.847351
O O6 0.618008 0.278500 0.771335
O O7 0.072720 0.302414 0.047361
O O8 0.551684 0.531275 0.756298
O O9 0.441386 0.648763 0.735528
O O10 0.958068 0.586798 0.516526
O O11 0.847863 0.007964 0.976778
O O12 0.713655 0.310944 0.339405
O O13 0.608771 0.382728 0.516260
O O14 0.663130 0.972902 0.772596
O O15 0.000000 0.000000 0.500000
O O16 0.500000 0.000000 0.000000
#
# Coordination Sequence:
#
# PCOD9244221 Si02
#       8
#     4   4   4   2   4   4   4   4
#     4  11  23  40  66  93 131 168 231 264 342 403
#     4  11  23  42  66  96 125 180 222 279 333 425
#     4  10  21  39  66  94 123 168 217 272 325 416
#     4  10  20  40  64 100 130 172 220 278 336 406
#     4  12  23  42  64  97 131 176 214 292 336 402
#     4  11  22  40  67  96 132 174 219 273 353 410
#     4  11  24  41  67  94 133 171 229 279 339 406
#     4  11  24  42  70 102 133 175 229 280 343 414
#
# _framework density 20.115839000000001
#
# number of rings (size 3 to 8) (size 9 to 14) (size 15 to 20)
#    0.000    1.067    4.000    4.000    0.000    1.067 
#    0.000    2.667    0.000    4.800    0.000    0.000 
#    0.000    0.000    0.000    0.000    0.000    0.000 
#
# Total GULP energy -167023.347021 kJ/mol
# GULP energy per Si atom -5567.444901 kJ/mol
# Density = 2.007005 g / cm^3
# Si number density = 20.115839 Si / 1000 Ang^3
#
#
#
# Elastic Constant Matrix: (Units=GPa)
#
#
# Indices 1 2 3 4 5 6 
#
# 1 65.0976 23.6579 18.6046 0.0000 6.4113 0.0000
# 2 23.6579 137.0073 39.4568 0.0000 -3.1087 0.0000
# 3 18.6046 39.4568 110.9012 0.0000 18.2527 0.0000
# 4 0.0000 0.0000 0.0000 34.0171 0.0000 -5.4185
# 5 6.4113 -3.1087 18.2527 0.0000 18.4897 0.0000
# 6 0.0000 0.0000 0.0000 -5.4185 0.0000 24.4013
#
#
#
# Elastic Compliance Matrix: (Units=1/GPa)
#
#
# Indices 1 2 3 4 5 6 
#
# 1 0.017203 -0.002810 -0.000987 0.000000 -0.005463 0.000000
# 2 -0.002810 0.009005 -0.003751 0.000000 0.006192 0.000000
# 3 -0.000987 -0.003751 0.012614 0.000000 -0.012741 0.000000
# 4 0.000000 0.000000 0.000000 0.030475 0.000000 0.006767
# 5 -0.005463 0.006192 -0.012741 0.000000 0.069597 0.000000
# 6 0.000000 0.000000 0.000000 0.006767 0.000000 0.042484
#
#
# Mechanical properties :
#
#
# Convention : Reuss Voigt Hill
#
# Bulk Modulus (GPa) = 42.14963 52.93830 47.54396
# Shear Modulus (GPa) = 24.46371 30.80076 27.63223
#
# Velocity S-wave (km/s) = 3.49111 3.91726 3.71031
# Velocity P-wave (km/s) = 6.10323 6.84352 6.48395
#
# Compressibility (1/GPa) = 0.02372500
#
# Stress axis : x y z
#
# Youngs Moduli (GPa) = 58.12941 111.04893 79.27497
#
# Poissons Ratio (x) = 0.31208 0.07824
# Poissons Ratio (y) = 0.16336 0.29740
# Poissons Ratio (z) = 0.05737 0.41660
#
# Static dielectric constant tensor:
#      x y z
#    x 1.680180 0.000000 0.030830 
#    y 0.000000 1.719920 0.000000 
#    z 0.030830 0.000000 1.599040 
# 
# From -- ./inp_files/41794.got.cif
#   From: 2010.05.17/outbox.cif.g08.bks.cpg/sg14_21_cif.got.tgz:41794.got - 2010.06.03 17:49:19.
