data_PCOD9244495
_publ_section_title
;
Structure prediction by ZEFSAII (Michael W. Deem and Ramdas Pophale) SiO2 
 PCOD9244495
Probable space group: P 21/C
;
_chemical_formula_sum "Si O2"
_cell_formula_units_Z 32
_cell_length_a 6.656862
_cell_length_b 13.069695
_cell_length_c 16.729370
_cell_angle_alpha 90.000000
_cell_angle_beta 76.858954
_cell_angle_gamma 90.000000
_cell_volume 1417.393105
_symmetry_space_group_name_H-M "P 21/C"
_symmetry_group_IT_number 14
_symmetry_cell_setting 'monoclinic'
loop_
_space_group_symop_operation_xyz
x,y,z
-x,1/2+y,1/2-z
-x,-y,-z
x,1/2-y,1/2+z
loop_
_atom_site_type_symbol
_atom_site_label
_atom_site_fract_x
_atom_site_fract_y
_atom_site_fract_z
Si Si1 0.493618 0.122307 0.013154
Si Si2 0.959939 0.970786 0.251688
Si Si3 0.867009 0.484987 0.092340
Si Si4 0.340928 0.179350 0.767192
Si Si5 0.060690 0.297524 0.896935
Si Si6 0.278433 0.798058 0.165265
Si Si7 0.205905 0.732247 0.921327
Si Si8 0.125758 0.323713 0.656304
O O1 0.639977 0.177915 0.066338
O O2 0.267839 0.148172 0.067470
O O3 0.579898 0.170792 0.923367
O O4 0.500000 0.000000 0.000000
O O5 0.987703 0.965021 0.344478
O O6 0.117784 0.887658 0.200372
O O7 0.728678 0.935154 0.249576
O O8 0.042468 0.075674 0.207614
O O9 0.719129 0.386338 0.096136
O O10 0.797161 0.601031 0.116135
O O11 0.000000 0.500000 0.000000
O O12 0.569584 0.207018 0.773154
O O13 0.256462 0.253384 0.705172
O O14 0.204959 0.206116 0.857250
O O15 0.866056 0.295314 0.852271
O O16 0.955572 0.279288 0.990918
O O17 0.071538 0.764012 0.858083
#
# Coordination Sequence:
#
# PCOD9244495 Si02
#       8
#     4   4   4   4   4   4   4   4
#     4  11  24  42  61  97 130 168 217 263 328 387
#     4  11  23  41  63  93 128 168 212 267 328 386
#     4  10  20  41  66  91 125 171 214 260 322 379
#     4  11  23  40  64  93 126 166 215 263 321 391
#     4   9  20  42  65  88 125 168 215 263 325 383
#     4  10  23  43  62  92 131 166 213 274 320 388
#     4  10  23  41  66  90 129 169 209 273 315 390
#     4  12  24  39  65  96 126 168 214 261 332 386
#
# _framework density 22.576658999999999
#
# number of rings (size 3 to 8) (size 9 to 14) (size 15 to 20)
#    0.000    1.500    3.750    0.750    3.500    0.500 
#    2.250    1.250    0.000    6.750    0.000    0.000 
#    0.000    0.000    0.000    0.000    0.000    0.000 
#
# Total GULP energy -178486.760541 kJ/mol
# GULP energy per Si atom -5577.711267 kJ/mol
# Density = 2.252527 g / cm^3
# Si number density = 22.576659 Si / 1000 Ang^3
#
#
#
# Elastic Constant Matrix: (Units=GPa)
#
#
# Indices 1 2 3 4 5 6 
#
# 1 103.0356 39.4581 37.3642 0.0000 11.9022 0.0000
# 2 39.4581 120.8389 23.0397 0.0000 10.0215 0.0000
# 3 37.3642 23.0397 107.6662 0.0000 -3.9786 0.0000
# 4 0.0000 0.0000 0.0000 30.5498 0.0000 1.8347
# 5 11.9022 10.0215 -3.9786 0.0000 45.8256 0.0000
# 6 0.0000 0.0000 0.0000 1.8347 0.0000 25.5015
#
#
#
# Elastic Compliance Matrix: (Units=1/GPa)
#
#
# Indices 1 2 3 4 5 6 
#
# 1 0.012636 -0.003156 -0.003818 0.000000 -0.002923 0.000000
# 2 -0.003156 0.009613 -0.001013 0.000000 -0.001370 0.000000
# 3 -0.003818 -0.001013 0.010909 0.000000 0.002160 0.000000
# 4 0.000000 0.000000 0.000000 0.032876 0.000000 -0.002365
# 5 -0.002923 -0.001370 0.002160 0.000000 0.023068 0.000000
# 6 0.000000 0.000000 0.000000 -0.002365 0.000000 0.039384
#
#
# Mechanical properties :
#
#
# Convention : Reuss Voigt Hill
#
# Bulk Modulus (GPa) = 58.18752 59.02941 58.60847
# Shear Modulus (GPa) = 33.29192 35.82062 34.55627
#
# Velocity S-wave (km/s) = 3.84424 3.98756 3.91656
# Velocity P-wave (km/s) = 6.74785 6.88505 6.81679
#
# Compressibility (1/GPa) = 0.01718582
#
# Stress axis : x y z
#
# Youngs Moduli (GPa) = 79.13844 104.02966 91.66389
#
# Poissons Ratio (x) = 0.32829 0.34996
# Poissons Ratio (y) = 0.24974 0.09281
# Poissons Ratio (z) = 0.30214 0.10533
#
# Static dielectric constant tensor:
#      x y z
#    x 1.843610 0.000000 0.008950 
#    y 0.000000 1.891530 0.000000 
#    z 0.008950 0.000000 1.872990 
# 
# From -- ./inp_files/53484.got.cif
#   From: 2010.05.17/outbox.cif.g08.bks.cpg/sg14_27_cif.got.tgz:53484.got - 2010.06.03 17:49:19.
