data_PCOD9244941
_publ_section_title
;
Structure prediction by ZEFSAII (Michael W. Deem and Ramdas Pophale) SiO2 
 PCOD9244941
Probable space group: P 21/C
;
_chemical_formula_sum "Si O2"
_cell_formula_units_Z 28
_cell_length_a 10.405375
_cell_length_b 5.402882
_cell_length_c 21.677842
_cell_angle_alpha 90.000000
_cell_angle_beta 118.573505
_cell_angle_gamma 90.000000
_cell_volume 1070.273557
_symmetry_space_group_name_H-M "P 21/C"
_symmetry_group_IT_number 14
_symmetry_cell_setting 'monoclinic'
loop_
_space_group_symop_operation_xyz
x,y,z
-x,1/2+y,1/2-z
-x,-y,-z
x,1/2-y,1/2+z
loop_
_atom_site_type_symbol
_atom_site_label
_atom_site_fract_x
_atom_site_fract_y
_atom_site_fract_z
Si Si1 0.635661 0.942977 0.334899
Si Si2 0.305787 0.939105 0.226290
Si Si3 0.179640 0.620715 0.817503
Si Si4 0.069991 0.572837 0.914194
Si Si5 0.344257 0.377374 0.394230
Si Si6 0.325292 0.627649 0.517508
Si Si7 0.860885 0.734879 0.466390
O O1 0.460725 0.930572 0.299430
O O2 0.683562 0.701415 0.305935
O O3 0.724323 0.913340 0.418320
O O4 0.683438 0.196427 0.313559
O O5 0.169925 0.908873 0.241647
O O6 0.045593 0.604103 0.835686
O O7 0.263614 0.369290 0.855770
O O8 0.266717 0.879866 0.847617
O O9 0.966575 0.742870 0.932433
O O10 0.238245 0.661691 0.961175
O O11 0.063020 0.320795 0.952449
O O12 0.341176 0.418723 0.467417
O O13 0.515063 0.346038 0.417688
O O14 0.214191 0.525697 0.542367
#
# Coordination Sequence:
#
# PCOD9244941 Si02
#       7
#     4   4   4   4   4   4   4
#     4  10  23  40  63  90 118 161 205 254 314 364
#     4  10  22  41  63  89 120 154 209 264 307 362
#     4  11  21  42  61  93 126 163 200 268 308 369
#     4  10  24  38  61  90 129 163 213 243 314 373
#     4  10  22  33  62  92 126 156 201 248 322 364
#     4  10  21  35  57  90 126 160 201 250 304 382
#     4  11  22  41  60  89 126 173 202 256 301 389
#
# _framework density 26.161535000000001
#
# number of rings (size 3 to 8) (size 9 to 14) (size 15 to 20)
#    0.000    1.714    1.429    2.143    6.000    2.857 
#    0.000    1.429    0.000    0.000    0.000    0.000 
#    0.000    0.000    0.000    0.000    0.000    0.000 
#
# Total GULP energy -156536.006529 kJ/mol
# GULP energy per Si atom -5590.571662 kJ/mol
# Density = 2.610199 g / cm^3
# Si number density = 26.161535 Si / 1000 Ang^3
#
#
#
# Elastic Constant Matrix: (Units=GPa)
#
#
# Indices 1 2 3 4 5 6 
#
# 1 78.4907 20.7289 7.1542 0.0000 -20.2549 0.0000
# 2 20.7289 154.4257 16.5862 0.0000 -1.3993 0.0000
# 3 7.1542 16.5862 53.1556 0.0000 -14.4273 0.0000
# 4 0.0000 0.0000 0.0000 41.9687 0.0000 -2.6417
# 5 -20.2549 -1.3993 -14.4273 0.0000 47.7470 0.0000
# 6 0.0000 0.0000 0.0000 -2.6417 0.0000 32.8462
#
#
#
# Elastic Compliance Matrix: (Units=1/GPa)
#
#
# Indices 1 2 3 4 5 6 
#
# 1 0.014870 -0.001975 0.000339 0.000000 0.006353 0.000000
# 2 -0.001975 0.006972 -0.002268 0.000000 -0.001319 0.000000
# 3 0.000339 -0.002268 0.021237 0.000000 0.006494 0.000000
# 4 0.000000 0.000000 0.000000 0.023949 0.000000 0.001926
# 5 0.006353 -0.001319 0.006494 0.000000 0.025562 0.000000
# 6 0.000000 0.000000 0.000000 0.001926 0.000000 0.030600
#
#
# Mechanical properties :
#
#
# Convention : Reuss Voigt Hill
#
# Bulk Modulus (GPa) = 28.35033 41.66786 35.00910
# Shear Modulus (GPa) = 35.02492 40.61923 37.82208
#
# Velocity S-wave (km/s) = 3.66292 3.94462 3.80638
# Velocity P-wave (km/s) = 5.36186 6.05875 5.72092
#
# Compressibility (1/GPa) = 0.03527295
#
# Stress axis : x y z
#
# Youngs Moduli (GPa) = 67.24779 143.42433 47.08689
#
# Poissons Ratio (x) = 0.28325 -0.01597
# Poissons Ratio (y) = 0.13281 0.10678
# Poissons Ratio (z) = -0.02280 0.32524
#
# Static dielectric constant tensor:
#      x y z
#    x 2.106740 0.000000 -0.012960 
#    y 0.000000 2.030290 0.000000 
#    z -0.012960 0.000000 2.114900 
# 
# From -- ./inp_files/66313.got.cif
#   From: 2010.05.17/outbox.cif.g08.bks.cpg/sg14_34_cif.got.tgz:66313.got - 2010.06.03 17:49:19.
