data_PCOD9244245
_publ_section_title
;
Structure prediction by ZEFSAII (Michael W. Deem and Ramdas Pophale) SiO2 
 PCOD9244245
Probable space group: P 21/C
;
_chemical_formula_sum "Si O2"
_cell_formula_units_Z 28
_cell_length_a 13.347153
_cell_length_b 8.823445
_cell_length_c 11.259954
_cell_angle_alpha 90.000000
_cell_angle_beta 100.739527
_cell_angle_gamma 90.000000
_cell_volume 1302.834153
_symmetry_space_group_name_H-M "P 21/C"
_symmetry_group_IT_number 14
_symmetry_cell_setting 'monoclinic'
loop_
_space_group_symop_operation_xyz
x,y,z
-x,1/2+y,1/2-z
-x,-y,-z
x,1/2-y,1/2+z
loop_
_atom_site_type_symbol
_atom_site_label
_atom_site_fract_x
_atom_site_fract_y
_atom_site_fract_z
Si Si1 0.241091 0.263286 0.697363
Si Si2 0.260450 0.513739 0.044175
Si Si3 0.420633 0.775822 0.678125
Si Si4 0.951591 0.073052 0.610967
Si Si5 0.384485 0.279094 0.930366
Si Si6 0.972066 0.915971 0.869500
Si Si7 0.438497 0.427011 0.629297
O O1 0.278464 0.246358 0.839571
O O2 0.147736 0.374051 0.656205
O O3 0.342953 0.333408 0.662797
O O4 0.218457 0.100737 0.635205
O O5 0.313218 0.660807 0.111332
O O6 0.169797 0.547921 0.933492
O O7 0.352355 0.417082 0.007142
O O8 0.515833 0.830943 0.618727
O O9 0.426902 0.595589 0.673684
O O10 0.455638 0.847548 0.810150
O O11 0.973425 0.252230 0.619279
O O12 0.988545 0.001918 0.745962
O O13 0.000000 0.000000 0.500000
O O14 0.419631 0.116985 0.989410
O O15 0.000000 0.000000 0.000000
#
# Coordination Sequence:
#
# PCOD9244245 Si02
#       7
#     4   4   4   4   4   4   4
#     4  10  22  43  66  93 136 179 224 289 356 421
#     4  11  23  41  65  96 137 175 230 286 353 423
#     4  11  22  39  61  98 131 176 226 279 345 426
#     4  12  26  49  74 109 143 191 242 305 366 438
#     4  10  20  40  64  92 131 181 219 283 352 414
#     4  12  27  49  77 104 145 192 245 307 372 440
#     4  10  22  38  63  92 135 173 226 278 347 421
#
# _framework density 21.491606999999998
#
# number of rings (size 3 to 8) (size 9 to 14) (size 15 to 20)
#    0.000    1.143    2.857    4.286    2.000    1.143 
#    0.000    0.000    0.000    0.000    0.000    0.000 
#    0.000    0.000    0.000    0.000    0.000    0.000 
#
# Total GULP energy -156101.551838 kJ/mol
# GULP energy per Si atom -5575.055423 kJ/mol
# Density = 2.144269 g / cm^3
# Si number density = 21.491607 Si / 1000 Ang^3
#
#
#
# Elastic Constant Matrix: (Units=GPa)
#
#
# Indices 1 2 3 4 5 6 
#
# 1 56.5646 21.5480 27.1749 0.0000 19.5556 0.0000
# 2 21.5480 143.3635 80.0083 0.0000 20.8410 0.0000
# 3 27.1749 80.0083 140.2223 0.0000 28.1071 0.0000
# 4 0.0000 0.0000 0.0000 40.8264 0.0000 9.1262
# 5 19.5556 20.8410 28.1071 0.0000 31.3796 0.0000
# 6 0.0000 0.0000 0.0000 9.1262 0.0000 33.4026
#
#
#
# Elastic Compliance Matrix: (Units=1/GPa)
#
#
# Indices 1 2 3 4 5 6 
#
# 1 0.023017 -0.000811 -0.001500 0.000000 -0.012462 0.000000
# 2 -0.000811 0.010357 -0.005454 0.000000 -0.001488 0.000000
# 3 -0.001500 -0.005454 0.011726 0.000000 -0.005946 0.000000
# 4 0.000000 0.000000 0.000000 0.026087 0.000000 -0.007128
# 5 -0.012462 -0.001488 -0.005946 0.000000 0.045948 0.000000
# 6 0.000000 0.000000 0.000000 -0.007128 0.000000 0.031885
#
#
# Mechanical properties :
#
#
# Convention : Reuss Voigt Hill
#
# Bulk Modulus (GPa) = 33.81802 66.40142 50.10972
# Shear Modulus (GPa) = 28.66841 35.21633 31.94237
#
# Velocity S-wave (km/s) = 3.65627 4.05236 3.85940
# Velocity P-wave (km/s) = 5.79604 7.27042 6.57469
#
# Compressibility (1/GPa) = 0.02957004
#
# Stress axis : x y z
#
# Youngs Moduli (GPa) = 43.44671 96.54900 85.27882
#
# Poissons Ratio (x) = 0.07827 0.12793
# Poissons Ratio (y) = 0.03522 0.46514
# Poissons Ratio (z) = 0.06518 0.52661
#
# Static dielectric constant tensor:
#      x y z
#    x 1.787230 0.000000 -0.083220 
#    y 0.000000 1.789050 0.000000 
#    z -0.083220 0.000000 2.046370 
# 
# From -- ./inp_files/31605.got.cif
#   From: 2010.05.17/outbox.cif.g08.bks.cpg/sg14_16_cif.got.tgz:31605.got - 2010.06.03 17:49:19.
