data_PCOD9244931
_publ_section_title
;
Structure prediction by ZEFSAII (Michael W. Deem and Ramdas Pophale) SiO2 
 PCOD9244931
Probable space group: P 21/C
;
_chemical_formula_sum "Si O2"
_cell_formula_units_Z 24
_cell_length_a 18.142637
_cell_length_b 7.785883
_cell_length_c 14.331419
_cell_angle_alpha 90.000000
_cell_angle_beta 154.068450
_cell_angle_gamma 90.000000
_cell_volume 885.266521
_symmetry_space_group_name_H-M "P 21/C"
_symmetry_group_IT_number 14
_symmetry_cell_setting 'monoclinic'
loop_
_space_group_symop_operation_xyz
x,y,z
-x,1/2+y,1/2-z
-x,-y,-z
x,1/2-y,1/2+z
loop_
_atom_site_type_symbol
_atom_site_label
_atom_site_fract_x
_atom_site_fract_y
_atom_site_fract_z
Si Si1 0.385501 0.462993 0.722732
Si Si2 0.208637 0.685000 0.289964
Si Si3 0.496013 0.966141 0.847652
Si Si4 0.328910 0.168787 0.352583
Si Si5 0.038790 0.316385 0.140238
Si Si6 0.830047 0.191044 0.565415
O O1 0.431460 0.397690 0.670578
O O2 0.298845 0.361751 0.709240
O O3 0.274624 0.633917 0.574844
O O4 0.559396 0.523004 0.970652
O O5 0.405394 0.642360 0.523154
O O6 0.151919 0.817245 0.303500
O O7 0.109025 0.507978 0.202659
O O8 0.144402 0.719034 0.113814
O O9 0.295663 0.959827 0.611526
O O10 0.563299 0.840902 0.004557
O O11 0.162279 0.196132 0.223429
O O12 0.005265 0.299905 0.211014
#
# Coordination Sequence:
#
# PCOD9244931 Si02
#       6
#     4   4   4   4   4   4
#     4   9  19  37  56  81 113 146 192 230 269 335
#     4   9  21  39  54  80 115 144 186 230 279 345
#     4   9  19  37  57  78 108 146 185 230 277 329
#     4   9  19  35  57  81 111 149 184 230 279 326
#     4  10  21  37  57  83 115 148 182 231 289 335
#     4  10  21  35  57  83 108 145 187 230 281 336
#
# _framework density 27.110479000000002
#
# number of rings (size 3 to 8) (size 9 to 14) (size 15 to 20)
#    0.000    2.667    0.000    0.000    0.000   10.667 
#    0.000   11.667    0.000    0.000    0.000    0.000 
#    0.000    0.000    0.000    0.000    0.000    0.000 
#
# Total GULP energy -134402.184111 kJ/mol
# GULP energy per Si atom -5600.091005 kJ/mol
# Density = 2.704877 g / cm^3
# Si number density = 27.110479 Si / 1000 Ang^3
#
#
#
# Elastic Constant Matrix: (Units=GPa)
#
#
# Indices 1 2 3 4 5 6 
#
# 1 167.6309 25.5694 20.1941 0.0000 11.8986 0.0000
# 2 25.5694 58.7974 7.9955 0.0000 -0.7612 0.0000
# 3 20.1941 7.9955 83.2577 0.0000 -7.6356 0.0000
# 4 0.0000 0.0000 0.0000 13.5815 0.0000 -4.0409
# 5 11.8986 -0.7612 -7.6356 0.0000 46.0139 0.0000
# 6 0.0000 0.0000 0.0000 -4.0409 0.0000 34.4141
#
#
#
# Elastic Compliance Matrix: (Units=1/GPa)
#
#
# Indices 1 2 3 4 5 6 
#
# 1 0.006715 -0.002735 -0.001553 0.000000 -0.002039 0.000000
# 2 -0.002735 0.018347 -0.001021 0.000000 0.000841 0.000000
# 3 -0.001553 -0.001021 0.012714 0.000000 0.002495 0.000000
# 4 0.000000 0.000000 0.000000 0.076295 0.000000 0.008958
# 5 -0.002039 0.000841 0.002495 0.000000 0.022688 0.000000
# 6 0.000000 0.000000 0.000000 0.008958 0.000000 0.030110
#
#
# Mechanical properties :
#
#
# Convention : Reuss Voigt Hill
#
# Bulk Modulus (GPa) = 36.82318 46.35600 41.58959
# Shear Modulus (GPa) = 26.80400 35.86369 31.33385
#
# Velocity S-wave (km/s) = 3.14776 3.64108 3.40337
# Velocity P-wave (km/s) = 5.17913 5.90022 5.55140
#
# Compressibility (1/GPa) = 0.02715681
#
# Stress axis : x y z
#
# Youngs Moduli (GPa) = 148.93082 54.50545 78.65086
#
# Poissons Ratio (x) = 0.14908 0.12214
# Poissons Ratio (y) = 0.40735 0.08033
# Poissons Ratio (z) = 0.23128 0.05567
#
# Static dielectric constant tensor:
#      x y z
#    x 2.043030 0.000000 0.019110 
#    y 0.000000 2.189720 0.000000 
#    z 0.019110 0.000000 2.135420 
# 
# From -- ./inp_files/48646.got.cif
#   From: 2010.05.17/outbox.cif.g08.bks.cpg/sg14_25_cif.got.tgz:48646.got - 2010.06.03 17:49:19.
