data_PCOD9244746
_publ_section_title
;
Structure prediction by ZEFSAII (Michael W. Deem and Ramdas Pophale) SiO2 
 PCOD9244746
Probable space group: P 21/C
;
_chemical_formula_sum "Si O2"
_cell_formula_units_Z 28
_cell_length_a 7.465522
_cell_length_b 13.225778
_cell_length_c 12.739561
_cell_angle_alpha 90.000000
_cell_angle_beta 64.119110
_cell_angle_gamma 90.000000
_cell_volume 1131.710227
_symmetry_space_group_name_H-M "P 21/C"
_symmetry_group_IT_number 14
_symmetry_cell_setting 'monoclinic'
loop_
_space_group_symop_operation_xyz
x,y,z
-x,1/2+y,1/2-z
-x,-y,-z
x,1/2-y,1/2+z
loop_
_atom_site_type_symbol
_atom_site_label
_atom_site_fract_x
_atom_site_fract_y
_atom_site_fract_z
Si Si1 0.213990 0.681729 0.150246
Si Si2 0.376058 0.361293 0.028327
Si Si3 0.068987 0.020644 0.287568
Si Si4 0.295010 0.263958 0.723435
Si Si5 0.299486 0.871192 0.850170
Si Si6 0.606131 0.489226 0.148791
Si Si7 0.996831 0.627098 0.612409
O O1 0.184070 0.673731 0.281088
O O2 0.108515 0.773832 0.125184
O O3 0.137915 0.573547 0.124575
O O4 0.445098 0.697359 0.072074
O O5 0.234685 0.289397 0.129313
O O6 0.484955 0.423511 0.094875
O O7 0.297290 0.423361 0.949931
O O8 0.196095 0.125080 0.247440
O O9 0.208483 0.952971 0.327817
O O10 0.020148 0.960207 0.193872
O O11 0.531150 0.289236 0.661056
O O12 0.223118 0.181907 0.830305
O O13 0.434752 0.962856 0.768379
O O14 0.132651 0.901616 0.977353
#
# Coordination Sequence:
#
# PCOD9244746 Si02
#       7
#     4   4   4   4   4   4   4
#     4  10  23  44  66  97 139 172 230 286 333 411
#     4  10  20  43  68  95 132 186 228 282 333 406
#     4  10  24  44  61 107 138 174 234 282 348 410
#     4  10  23  44  65  98 136 180 233 273 350 404
#     4  10  22  46  64  99 138 176 232 281 342 413
#     4   9  22  39  69  98 133 180 231 280 340 408
#     4  11  24  43  69  96 138 180 223 293 342 411
#
# _framework density 24.741316999999999
#
# number of rings (size 3 to 8) (size 9 to 14) (size 15 to 20)
#    0.000    2.000    1.429    0.000    8.000    3.429 
#   20.571    0.000    0.000    0.000    0.000    0.000 
#    0.000    0.000    0.000    0.000    0.000    0.000 
#
# Total GULP energy -156033.935198 kJ/mol
# GULP energy per Si atom -5572.640543 kJ/mol
# Density = 2.468501 g / cm^3
# Si number density = 24.741317 Si / 1000 Ang^3
#
#
#
# Elastic Constant Matrix: (Units=GPa)
#
#
# Indices 1 2 3 4 5 6 
#
# 1 82.9027 16.0083 29.0784 0.0000 -2.7980 0.0000
# 2 16.0083 69.5672 49.4749 0.0000 -1.3049 0.0000
# 3 29.0784 49.4749 109.7856 0.0000 -11.9692 0.0000
# 4 0.0000 0.0000 0.0000 24.7604 0.0000 -1.7090
# 5 -2.7980 -1.3049 -11.9692 0.0000 32.7799 0.0000
# 6 0.0000 0.0000 0.0000 -1.7090 0.0000 29.7154
#
#
#
# Elastic Compliance Matrix: (Units=1/GPa)
#
#
# Indices 1 2 3 4 5 6 
#
# 1 0.013329 -0.000814 -0.003169 0.000000 -0.000052 0.000000
# 2 -0.000814 0.021445 -0.009751 0.000000 -0.002776 0.000000
# 3 -0.003169 -0.009751 0.014862 0.000000 0.004768 0.000000
# 4 0.000000 0.000000 0.000000 0.040548 0.000000 0.002332
# 5 -0.000052 -0.002776 0.004768 0.000000 0.032133 0.000000
# 6 0.000000 0.000000 0.000000 0.002332 0.000000 0.033787
#
#
# Mechanical properties :
#
#
# Convention : Reuss Voigt Hill
#
# Bulk Modulus (GPa) = 45.11180 50.15318 47.63249
# Shear Modulus (GPa) = 26.18326 28.63074 27.40700
#
# Velocity S-wave (km/s) = 3.25665 3.40546 3.33189
# Velocity P-wave (km/s) = 5.69333 5.98146 5.83917
#
# Compressibility (1/GPa) = 0.02216715
#
# Stress axis : x y z
#
# Youngs Moduli (GPa) = 75.02199 46.63172 67.28488
#
# Poissons Ratio (x) = 0.03798 0.21324
# Poissons Ratio (y) = 0.06110 0.65609
# Poissons Ratio (z) = 0.23776 0.45471
#
# Static dielectric constant tensor:
#      x y z
#    x 2.097380 0.000000 -0.100430 
#    y 0.000000 2.067110 0.000000 
#    z -0.100430 0.000000 2.024770 
# 
# From -- ./inp_files/25439.got.cif
#   From: 2010.05.17/outbox.cif.g08.bks.cpg/sg14_13_cif.got.tgz:25439.got - 2010.06.03 17:49:19.
