data_PCOD9244510
_publ_section_title
;
Structure prediction by ZEFSAII (Michael W. Deem and Ramdas Pophale) SiO2 
 PCOD9244510
Probable space group: P 21/C
;
_chemical_formula_sum "Si O2"
_cell_formula_units_Z 28
_cell_length_a 7.730475
_cell_length_b 7.364974
_cell_length_c 23.264177
_cell_angle_alpha 90.000000
_cell_angle_beta 54.892583
_cell_angle_gamma 90.000000
_cell_volume 1083.573459
_symmetry_space_group_name_H-M "P 21/C"
_symmetry_group_IT_number 14
_symmetry_cell_setting 'monoclinic'
loop_
_space_group_symop_operation_xyz
x,y,z
-x,1/2+y,1/2-z
-x,-y,-z
x,1/2-y,1/2+z
loop_
_atom_site_type_symbol
_atom_site_label
_atom_site_fract_x
_atom_site_fract_y
_atom_site_fract_z
Si Si1 0.525988 0.114403 0.321184
Si Si2 0.908642 0.142155 0.700061
Si Si3 0.322786 0.741371 0.861618
Si Si4 0.775710 0.153307 0.991735
Si Si5 0.514411 0.817017 0.057952
Si Si6 0.812079 0.874194 0.156851
Si Si7 0.856350 0.545699 0.318981
O O1 0.739970 0.220771 0.263824
O O2 0.482001 0.397562 0.183494
O O3 0.464166 0.162229 0.398689
O O4 0.352524 0.210813 0.313647
O O5 0.851552 0.140507 0.644710
O O6 0.896658 0.971160 0.743405
O O7 0.126619 0.247743 0.664777
O O8 0.260881 0.761761 0.939303
O O9 0.321333 0.945534 0.836166
O O10 0.718712 0.936799 0.003816
O O11 0.616444 0.233681 0.973958
O O12 0.015117 0.168479 0.925341
O O13 0.365064 0.964478 0.119238
O O14 0.966744 0.929242 0.179825
#
# Coordination Sequence:
#
# PCOD9244510 Si02
#       7
#     4   4   4   4   4   4   4
#     4  11  24  40  64  95 126 161 215 257 312 373
#     4  10  24  41  62  94 123 166 208 260 317 374
#     4  11  24  37  64  97 119 166 206 255 323 365
#     4  10  20  41  67  89 128 169 208 255 316 374
#     4   9  20  40  65  89 122 171 205 258 312 369
#     4  10  22  43  63  89 131 165 206 259 312 374
#     4   9  21  40  61  86 124 165 207 255 313 373
#
# _framework density 25.840426000000001
#
# number of rings (size 3 to 8) (size 9 to 14) (size 15 to 20)
#    0.000    2.000    1.429    0.429    6.000    2.286 
#    0.000    0.000    0.000    0.000    0.000    0.000 
#    0.000    0.000    0.000    0.000    0.000    0.000 
#
# Total GULP energy -156638.230942 kJ/mol
# GULP energy per Si atom -5594.222534 kJ/mol
# Density = 2.578161 g / cm^3
# Si number density = 25.840426 Si / 1000 Ang^3
#
#
#
# Elastic Constant Matrix: (Units=GPa)
#
#
# Indices 1 2 3 4 5 6 
#
# 1 101.8407 23.6431 33.6411 0.0000 20.6797 0.0000
# 2 23.6431 83.1523 16.0200 0.0000 -1.0375 0.0000
# 3 33.6411 16.0200 102.4551 0.0000 34.7651 0.0000
# 4 0.0000 0.0000 0.0000 30.6802 0.0000 -1.3621
# 5 20.6797 -1.0375 34.7651 0.0000 63.8584 0.0000
# 6 0.0000 0.0000 0.0000 -1.3621 0.0000 31.6469
#
#
#
# Elastic Compliance Matrix: (Units=1/GPa)
#
#
# Indices 1 2 3 4 5 6 
#
# 1 0.011853 -0.002900 -0.002600 0.000000 -0.002470 0.000000
# 2 -0.002900 0.013234 -0.001851 0.000000 0.002162 0.000000
# 3 -0.002600 -0.001851 0.013036 0.000000 -0.006285 0.000000
# 4 0.000000 0.000000 0.000000 0.032657 0.000000 0.001406
# 5 -0.002470 0.002162 -0.006285 0.000000 0.019916 0.000000
# 6 0.000000 0.000000 0.000000 0.001406 0.000000 0.031659
#
#
# Mechanical properties :
#
#
# Convention : Reuss Voigt Hill
#
# Bulk Modulus (GPa) = 42.69601 48.22851 45.46226
# Shear Modulus (GPa) = 34.51496 39.51337 37.01416
#
# Velocity S-wave (km/s) = 3.65868 3.91465 3.78883
# Velocity P-wave (km/s) = 5.86573 6.25597 6.06399
#
# Compressibility (1/GPa) = 0.02342139
#
# Stress axis : x y z
#
# Youngs Moduli (GPa) = 84.36640 75.56170 76.70948
#
# Poissons Ratio (x) = 0.21913 0.19948
# Poissons Ratio (y) = 0.24467 0.14196
# Poissons Ratio (z) = 0.21939 0.13983
#
# Static dielectric constant tensor:
#      x y z
#    x 2.048570 0.000000 0.004130 
#    y 0.000000 2.057740 0.000000 
#    z 0.004130 0.000000 2.063520 
# 
# From -- ./inp_files/65201.got.cif
#   From: 2010.05.17/outbox.cif.g08.bks.cpg/sg14_33_cif.got.tgz:65201.got - 2010.06.03 17:49:19.
