data_PCOD9244023
_publ_section_title
;
Structure prediction by ZEFSAII (Michael W. Deem and Ramdas Pophale) SiO2 
 PCOD9244023
Probable space group: P 21/C
;
_chemical_formula_sum "Si O2"
_cell_formula_units_Z 28
_cell_length_a 13.581083
_cell_length_b 8.942100
_cell_length_c 19.180080
_cell_angle_alpha 90.000000
_cell_angle_beta 151.033941
_cell_angle_gamma 90.000000
_cell_volume 1128.057196
_symmetry_space_group_name_H-M "P 21/C"
_symmetry_group_IT_number 14
_symmetry_cell_setting 'monoclinic'
loop_
_space_group_symop_operation_xyz
x,y,z
-x,1/2+y,1/2-z
-x,-y,-z
x,1/2-y,1/2+z
loop_
_atom_site_type_symbol
_atom_site_label
_atom_site_fract_x
_atom_site_fract_y
_atom_site_fract_z
Si Si1 0.745441 0.844801 0.530618
Si Si2 0.905623 0.936634 0.220364
Si Si3 0.124023 0.733574 0.046068
Si Si4 0.271130 0.276718 0.261335
Si Si5 0.318028 0.531344 0.759172
Si Si6 0.714258 0.361166 0.495464
Si Si7 0.425496 0.366438 0.680892
O O1 0.862704 0.708285 0.643314
O O2 0.688594 0.784007 0.416976
O O3 0.513273 0.883024 0.411290
O O4 0.873182 0.999514 0.617877
O O5 0.773227 0.891063 0.204665
O O6 0.823605 0.083869 0.131643
O O7 0.155360 0.784223 0.984212
O O8 0.333911 0.645924 0.183263
O O9 0.148957 0.856942 0.122968
O O10 0.893751 0.679223 0.900140
O O11 0.238030 0.100085 0.259215
O O12 0.505233 0.283577 0.385546
O O13 0.379719 0.438157 0.727410
O O14 0.649005 0.511951 0.418259
#
# Coordination Sequence:
#
# PCOD9244023 Si02
#       7
#     4   4   4   4   4   4   4
#     4  10  23  42  70  92 129 181 215 267 324 388
#     4  11  24  42  64  97 131 175 226 256 325 391
#     4  10  20  39  64  90 126 169 214 265 334 385
#     4  12  23  37  66  95 129 171 212 280 317 381
#     4  10  21  39  64  95 130 165 218 266 329 387
#     4  10  22  40  61  90 131 170 214 272 311 391
#     4   9  19  41  65  92 127 168 214 268 333 383
#
# _framework density 24.821434
#
# number of rings (size 3 to 8) (size 9 to 14) (size 15 to 20)
#    0.000    1.714    1.429    2.571    2.000    1.143 
#    2.571    0.000    9.429    0.000    0.000    0.000 
#    0.000    0.000    0.000    0.000    0.000    0.000 
#
# Total GULP energy -156050.405587 kJ/mol
# GULP energy per Si atom -5573.228771 kJ/mol
# Density = 2.476494 g / cm^3
# Si number density = 24.821434 Si / 1000 Ang^3
#
#
#
# Elastic Constant Matrix: (Units=GPa)
#
#
# Indices 1 2 3 4 5 6 
#
# 1 35.7419 5.6974 25.5566 0.0000 7.4270 0.0000
# 2 5.6974 65.5546 51.0499 0.0000 -10.6607 0.0000
# 3 25.5566 51.0499 140.2949 0.0000 8.0676 0.0000
# 4 0.0000 0.0000 0.0000 101.1707 0.0000 -7.3203
# 5 7.4270 -10.6607 8.0676 0.0000 21.5468 0.0000
# 6 0.0000 0.0000 0.0000 -7.3203 0.0000 -13.8598
#
#
#
# Elastic Compliance Matrix: (Units=1/GPa)
#
#
# Indices 1 2 3 4 5 6 
#
# 1 0.034012 -0.000213 -0.005557 0.000000 -0.009748 0.000000
# 2 -0.000213 0.026172 -0.010459 0.000000 0.016939 0.000000
# 3 -0.005557 -0.010459 0.012400 0.000000 -0.007902 0.000000
# 4 0.000000 0.000000 0.000000 0.009520 0.000000 -0.005028
# 5 -0.009748 0.016939 -0.007902 0.000000 0.061110 0.000000
# 6 0.000000 0.000000 0.000000 -0.005028 0.000000 -0.069495
#
#
# Mechanical properties :
#
#
# Convention : Reuss Voigt Hill
#
# Bulk Modulus (GPa) = 24.92202 45.13324 35.02763
# Shear Modulus (GPa) = 41.82230 32.39072 37.10651
#
# Velocity S-wave (km/s) = 4.10924 3.61633 3.87064
# Velocity P-wave (km/s) = 5.70761 5.97158 5.84108
#
# Compressibility (1/GPa) = 0.04012517
#
# Stress axis : x y z
#
# Youngs Moduli (GPa) = 29.40155 38.20860 80.64369
#
# Poissons Ratio (x) = 0.00816 0.44817
# Poissons Ratio (y) = 0.00628 0.84342
# Poissons Ratio (z) = 0.16340 0.39961
#
# Static dielectric constant tensor:
#      x y z
#    x 1.754270 0.000000 -0.206860 
#    y 0.000000 2.130400 0.000000 
#    z -0.206860 0.000000 1.900920 
# 
# From -- ./inp_files/68259.got.cif
#   From: 2010.05.17/outbox.cif.g08.bks.cpg/sg14_35_cif.got.tgz:68259.got - 2010.06.03 17:49:19.
