data_PCOD9244667
_publ_section_title
;
Structure prediction by ZEFSAII (Michael W. Deem and Ramdas Pophale) SiO2 
 PCOD9244667
Probable space group: P 21/C
;
_chemical_formula_sum "Si O2"
_cell_formula_units_Z 30
_cell_length_a 9.570888
_cell_length_b 21.050565
_cell_length_c 14.922712
_cell_angle_alpha 90.000000
_cell_angle_beta 24.563773
_cell_angle_gamma 90.000000
_cell_volume 1249.826849
_symmetry_space_group_name_H-M "P 21/C"
_symmetry_group_IT_number 14
_symmetry_cell_setting 'monoclinic'
loop_
_space_group_symop_operation_xyz
x,y,z
-x,1/2+y,1/2-z
-x,-y,-z
x,1/2-y,1/2+z
loop_
_atom_site_type_symbol
_atom_site_label
_atom_site_fract_x
_atom_site_fract_y
_atom_site_fract_z
Si Si1 0.581164 0.789134 0.005065
Si Si2 0.844930 0.474217 0.998560
Si Si3 0.126633 0.877056 0.175083
Si Si4 0.949524 0.172144 0.436771
Si Si5 0.500000 0.500000 0.500000
Si Si6 0.381174 0.698031 0.358509
Si Si7 0.544039 0.051406 0.397274
Si Si8 0.141066 0.673051 0.300082
O O1 0.837170 0.810489 0.777330
O O2 0.789525 0.797701 0.973758
O O3 0.279369 0.838905 0.170158
O O4 0.415643 0.720085 0.093542
O O5 0.801541 0.398464 0.023962
O O6 0.123238 0.490778 0.761787
O O7 0.000000 0.500000 0.000000
O O8 0.514884 0.513632 0.160831
O O9 0.756138 0.898604 0.413940
O O10 0.364303 0.937790 0.022632
O O11 0.167822 0.833317 0.063960
O O12 0.232753 0.179294 0.348834
O O13 0.673903 0.226710 0.603161
O O14 0.233604 0.676008 0.350256
O O15 0.860081 0.098048 0.223771
O O16 0.500000 0.000000 0.500000
#
# Coordination Sequence:
#
# PCOD9244667 Si02
#       8
#     4   4   4   4   2   4   4   4
#     4  11  22  41  69  92 131 174 221 278 328 422
#     4  11  23  42  70  97 132 183 235 277 340 421
#     4  10  23  43  68  91 127 179 222 271 342 409
#     4  11  22  42  65  94 129 176 219 276 344 403
#     4  10  20  42  68  92 128 178 224 272 342 408
#     4  11  23  40  65  95 134 166 217 289 329 407
#     4  11  25  42  66  95 133 175 222 278 339 415
#     4  12  24  40  64 101 130 169 224 275 346 399
#
# _framework density 24.003326000000001
#
# number of rings (size 3 to 8) (size 9 to 14) (size 15 to 20)
#    0.000    1.067    2.667    5.600    1.867    3.200 
#    0.000    3.333    0.000    0.000    0.000    0.000 
#    0.000    0.000    0.000    0.000    0.000    0.000 
#
# Total GULP energy -167392.932567 kJ/mol
# GULP energy per Si atom -5579.764419 kJ/mol
# Density = 2.394869 g / cm^3
# Si number density = 24.003326 Si / 1000 Ang^3
#
#
#
# Elastic Constant Matrix: (Units=GPa)
#
#
# Indices 1 2 3 4 5 6 
#
# 1 115.6770 30.0403 9.4209 0.0000 -0.5655 0.0000
# 2 30.0403 146.8766 26.3922 0.0000 4.1460 0.0000
# 3 9.4209 26.3922 31.7916 0.0000 3.1349 0.0000
# 4 0.0000 0.0000 0.0000 21.9921 0.0000 -15.9180
# 5 -0.5655 4.1460 3.1349 0.0000 20.3185 0.0000
# 6 0.0000 0.0000 0.0000 -15.9180 0.0000 41.7566
#
#
#
# Elastic Compliance Matrix: (Units=1/GPa)
#
#
# Indices 1 2 3 4 5 6 
#
# 1 0.009193 -0.001645 -0.001439 0.000000 0.000814 0.000000
# 2 -0.001645 0.008304 -0.006331 0.000000 -0.000763 0.000000
# 3 -0.001439 -0.006331 0.037585 0.000000 -0.004547 0.000000
# 4 0.000000 0.000000 0.000000 0.062798 0.000000 0.023939
# 5 0.000814 -0.000763 -0.004547 0.000000 0.050096 0.000000
# 6 0.000000 0.000000 0.000000 0.023939 0.000000 0.033074
#
#
# Mechanical properties :
#
#
# Convention : Reuss Voigt Hill
#
# Bulk Modulus (GPa) = 27.58395 47.33910 37.46153
# Shear Modulus (GPa) = 21.55496 32.04623 26.80060
#
# Velocity S-wave (km/s) = 2.99991 3.65783 3.34509
# Velocity P-wave (km/s) = 4.84933 6.13224 5.52812
#
# Compressibility (1/GPa) = 0.03625296
#
# Stress axis : x y z
#
# Youngs Moduli (GPa) = 108.77812 120.42443 26.60605
#
# Poissons Ratio (x) = 0.19805 0.03829
# Poissons Ratio (y) = 0.17890 0.16844
# Poissons Ratio (z) = 0.15655 0.76241
#
# Static dielectric constant tensor:
#      x y z
#    x 1.949500 0.000000 -0.006750 
#    y 0.000000 1.962050 0.000000 
#    z -0.006750 0.000000 1.967090 
# 
# From -- ./inp_files/42104.got.cif
#   From: 2010.05.17/outbox.cif.g08.bks.cpg/sg14_22_cif.got.tgz:42104.got - 2010.06.03 17:49:19.
