data_PCOD9244709
_publ_section_title
;
Structure prediction by ZEFSAII (Michael W. Deem and Ramdas Pophale) SiO2 
 PCOD9244709
Probable space group: P 21/C
;
_chemical_formula_sum "Si O2"
_cell_formula_units_Z 32
_cell_length_a 15.710987
_cell_length_b 5.674433
_cell_length_c 22.822715
_cell_angle_alpha 90.000000
_cell_angle_beta 138.631570
_cell_angle_gamma 90.000000
_cell_volume 1344.707987
_symmetry_space_group_name_H-M "P 21/C"
_symmetry_group_IT_number 14
_symmetry_cell_setting 'monoclinic'
loop_
_space_group_symop_operation_xyz
x,y,z
-x,1/2+y,1/2-z
-x,-y,-z
x,1/2-y,1/2+z
loop_
_atom_site_type_symbol
_atom_site_label
_atom_site_fract_x
_atom_site_fract_y
_atom_site_fract_z
Si Si1 0.985885 0.712620 0.300973
Si Si2 0.340340 0.575090 0.832319
Si Si3 0.384171 0.410991 0.083096
Si Si4 0.862959 0.067477 0.331150
Si Si5 0.758832 0.667358 0.322603
Si Si6 0.318794 0.585118 0.609458
Si Si7 0.786175 0.995808 0.614556
Si Si8 0.026916 0.458535 0.433528
O O1 0.886412 0.679356 0.197383
O O2 0.998581 0.487671 0.349452
O O3 0.930940 0.908256 0.316875
O O4 0.126117 0.776299 0.350748
O O5 0.485396 0.602024 0.886953
O O6 0.241098 0.769036 0.755689
O O7 0.292066 0.349997 0.770021
O O8 0.320228 0.545833 0.890838
O O9 0.375895 0.157959 0.111224
O O10 0.372313 0.660874 0.114320
O O11 0.270198 0.419012 0.976317
O O12 0.986865 0.191737 0.424612
O O13 0.777629 0.944976 0.338863
O O14 0.676252 0.491103 0.319339
O O15 0.907814 0.589225 0.403053
O O16 0.165991 0.563628 0.516508
#
# Coordination Sequence:
#
# PCOD9244709 Si02
#       8
#     4   4   4   4   4   4   4   4
#     4  11  22  38  69 106 142 184 234 308 375 443
#     4  11  25  48  70 102 141 197 251 300 356 435
#     4  12  31  47  72 104 152 197 249 297 364 426
#     4  10  20  42  73 107 139 187 243 304 370 447
#     4  10  24  44  78 103 140 187 244 301 380 432
#     4  12  28  49  71 110 148 191 242 308 364 448
#     4  12  23  45  71 105 145 190 244 305 372 443
#     4  10  21  43  67 108 143 175 233 302 381 442
#
# _framework density 23.796989
#
# number of rings (size 3 to 8) (size 9 to 14) (size 15 to 20)
#    0.000    1.000    5.000    2.250    8.750    2.500 
#    0.000    1.875    0.000    0.000    0.000    0.000 
#    0.000    0.000    0.000    0.000    0.000    0.000 
#
# Total GULP energy -178423.977305 kJ/mol
# GULP energy per Si atom -5575.749291 kJ/mol
# Density = 2.374283 g / cm^3
# Si number density = 23.796989 Si / 1000 Ang^3
#
#
#
# Elastic Constant Matrix: (Units=GPa)
#
#
# Indices 1 2 3 4 5 6 
#
# 1 119.0277 34.5684 2.8743 0.0000 -5.0099 0.0000
# 2 34.5684 61.6497 6.5831 0.0000 -14.4108 0.0000
# 3 2.8743 6.5831 33.4664 0.0000 -3.0500 0.0000
# 4 0.0000 0.0000 0.0000 21.2339 0.0000 -8.9442
# 5 -5.0099 -14.4108 -3.0500 0.0000 39.8492 0.0000
# 6 0.0000 0.0000 0.0000 -8.9442 0.0000 33.6006
#
#
#
# Elastic Compliance Matrix: (Units=1/GPa)
#
#
# Indices 1 2 3 4 5 6 
#
# 1 0.010063 -0.005861 0.000212 0.000000 -0.000838 0.000000
# 2 -0.005861 0.021421 -0.003093 0.000000 0.006773 0.000000
# 3 0.000212 -0.003093 0.030585 0.000000 0.001249 0.000000
# 4 0.000000 0.000000 0.000000 0.053042 0.000000 0.014119
# 5 -0.000838 0.006773 0.001249 0.000000 0.027534 0.000000
# 6 0.000000 0.000000 0.000000 0.014119 0.000000 0.033520
#
#
# Mechanical properties :
#
#
# Convention : Reuss Voigt Hill
#
# Bulk Modulus (GPa) = 22.42919 33.57726 28.00323
# Shear Modulus (GPa) = 23.97967 30.27793 27.12880
#
# Velocity S-wave (km/s) = 3.17784 3.57086 3.38007
# Velocity P-wave (km/s) = 4.78650 5.58049 5.19868
#
# Compressibility (1/GPa) = 0.04458475
#
# Stress axis : x y z
#
# Youngs Moduli (GPa) = 99.37137 46.68388 32.69602
#
# Poissons Ratio (x) = 0.27363 -0.00694
# Poissons Ratio (y) = 0.58245 0.10113
# Poissons Ratio (z) = -0.02109 0.14439
#
# Static dielectric constant tensor:
#      x y z
#    x 1.964800 0.000000 -0.041270 
#    y 0.000000 2.112330 0.000000 
#    z -0.041270 0.000000 1.936060 
# 
# From -- ./inp_files/73568.got.cif
#   From: 2010.05.17/outbox.cif.g08.bks.cpg/sg14_37_cif.got.tgz:73568.got - 2010.06.03 17:49:19.
