data_PCOD9244905
_publ_section_title
;
Structure prediction by ZEFSAII (Michael W. Deem and Ramdas Pophale) SiO2 
 PCOD9244905
Probable space group: P 21/C
;
_chemical_formula_sum "Si O2"
_cell_formula_units_Z 32
_cell_length_a 24.416906
_cell_length_b 9.549452
_cell_length_c 8.198787
_cell_angle_alpha 90.000000
_cell_angle_beta 59.779732
_cell_angle_gamma 90.000000
_cell_volume 1651.889855
_symmetry_space_group_name_H-M "P 21/C"
_symmetry_group_IT_number 14
_symmetry_cell_setting 'monoclinic'
loop_
_space_group_symop_operation_xyz
x,y,z
-x,1/2+y,1/2-z
-x,-y,-z
x,1/2-y,1/2+z
loop_
_atom_site_type_symbol
_atom_site_label
_atom_site_fract_x
_atom_site_fract_y
_atom_site_fract_z
Si Si1 0.322196 0.908706 0.214172
Si Si2 0.677832 0.408089 0.680021
Si Si3 0.939534 0.910852 0.788355
Si Si4 0.939445 0.909369 0.394287
Si Si5 0.439905 0.090355 0.035048
Si Si6 0.821308 0.407638 0.464609
Si Si7 0.178738 0.908973 0.429327
Si Si8 0.439835 0.409923 0.145269
O O1 0.337680 0.750371 0.244118
O O2 0.250483 0.940824 0.378499
O O3 0.375564 0.015875 0.193351
O O4 0.321792 0.911670 0.017646
O O5 0.749615 0.439547 0.629267
O O6 0.624523 0.515266 0.819608
O O7 0.939328 0.913874 0.591529
O O8 0.943755 0.750916 0.835654
O O9 0.874878 0.985503 0.942843
O O10 0.000076 0.000913 0.753577
O O11 0.874749 0.983523 0.433039
O O12 0.444767 0.250179 0.082664
O O13 0.438101 0.088071 0.842817
O O14 0.500000 0.000000 0.000000
O O15 0.820840 0.411476 0.268337
O O16 0.836753 0.249160 0.493808
O O17 0.500000 0.500000 0.000000
#
# Coordination Sequence:
#
# PCOD9244905 Si02
#       8
#     4   4   4   4   4   4   4   4
#     4   9  19  35  55  78 105 137 172 212 257 307
#     4   9  19  35  55  78 105 137 172 212 257 307
#     4  10  21  35  52  76 105 136 172 214 257 304
#     4  10  21  35  52  76 105 136 172 214 257 304
#     4  11  23  38  56  79 107 139 176 218 264 313
#     4   9  18  34  54  77 105 136 172 212 255 305
#     4   9  18  34  54  77 105 136 172 212 255 305
#     4  11  23  38  56  79 107 139 176 218 264 313
#
# _framework density 19.371752000000001
#
# number of rings (size 3 to 8) (size 9 to 14) (size 15 to 20)
#    0.000    2.250    0.000    2.250    0.000    6.500 
#    0.000    0.000    0.000    0.000    0.000    0.000 
#    0.000    0.000    0.000    0.000    0.000    0.000 
#
# Total GULP energy -178683.136369 kJ/mol
# GULP energy per Si atom -5583.848012 kJ/mol
# Density = 1.932766 g / cm^3
# Si number density = 19.371752 Si / 1000 Ang^3
#
#
#
# Elastic Constant Matrix: (Units=GPa)
#
#
# Indices 1 2 3 4 5 6 
#
# 1 95.6117 103.6173 43.5454 0.0000 -45.6172 0.0000
# 2 103.6173 191.8531 52.0331 0.0000 -59.8354 0.0000
# 3 43.5454 52.0331 34.4590 0.0000 -24.4973 0.0000
# 4 0.0000 0.0000 0.0000 37.6425 0.0000 -4.5914
# 5 -45.6172 -59.8354 -24.4973 0.0000 29.2831 0.0000
# 6 0.0000 0.0000 0.0000 -4.5914 0.0000 42.0756
#
#
#
# Elastic Compliance Matrix: (Units=1/GPa)
#
#
# Indices 1 2 3 4 5 6 
#
# 1 0.047321 -0.006584 -0.017310 0.000000 0.045782 0.000000
# 2 -0.006584 0.015344 0.000366 0.000000 0.021403 0.000000
# 3 -0.017310 0.000366 0.078226 0.000000 0.039225 0.000000
# 4 0.000000 0.000000 0.000000 0.026924 0.000000 0.002938
# 5 0.045782 0.021403 0.039225 0.000000 0.182016 0.000000
# 6 0.000000 0.000000 0.000000 0.002938 0.000000 0.024087
#
#
# Mechanical properties :
#
#
# Convention : Reuss Voigt Hill
#
# Bulk Modulus (GPa) = 10.65687 80.03505 45.34596
# Shear Modulus (GPa) = 11.05573 29.98213 20.51893
#
# Velocity S-wave (km/s) = 2.39155 3.93838 3.25810
# Velocity P-wave (km/s) = 3.62481 7.87948 6.13292
#
# Compressibility (1/GPa) = 0.09383615
#
# Stress axis : x y z
#
# Youngs Moduli (GPa) = 21.13216 65.17087 12.78341
#
# Poissons Ratio (x) = 0.42911 0.22128
# Poissons Ratio (y) = 0.13914 -0.00468
# Poissons Ratio (z) = 0.36579 -0.02387
#
# Static dielectric constant tensor:
#      x y z
#    x 1.696810 0.000000 -0.006440 
#    y 0.000000 1.620390 0.000000 
#    z -0.006440 0.000000 1.690490 
# 
# From -- ./inp_files/19368.got.cif
#   From: 2010.05.17/outbox.cif.g08.bks.cpg/sg14_10_cif.got.tgz:19368.got - 2010.06.03 17:49:19.
