data_PCOD9244394
_publ_section_title
;
Structure prediction by ZEFSAII (Michael W. Deem and Ramdas Pophale) SiO2 
 PCOD9244394
Probable space group: P 21/C
;
_chemical_formula_sum "Si O2"
_cell_formula_units_Z 30
_cell_length_a 10.487443
_cell_length_b 9.962712
_cell_length_c 13.596352
_cell_angle_alpha 90.000000
_cell_angle_beta 57.057213
_cell_angle_gamma 90.000000
_cell_volume 1192.181313
_symmetry_space_group_name_H-M "P 21/C"
_symmetry_group_IT_number 14
_symmetry_cell_setting 'monoclinic'
loop_
_space_group_symop_operation_xyz
x,y,z
-x,1/2+y,1/2-z
-x,-y,-z
x,1/2-y,1/2+z
loop_
_atom_site_type_symbol
_atom_site_label
_atom_site_fract_x
_atom_site_fract_y
_atom_site_fract_z
Si Si1 0.740322 0.161643 0.488010
Si Si2 0.614918 0.662879 0.530451
Si Si3 0.401915 0.432619 0.850324
Si Si4 0.000000 0.500000 0.000000
Si Si5 0.694491 0.997563 0.811650
Si Si6 0.278042 0.931208 0.892852
Si Si7 0.868951 0.074279 0.248247
Si Si8 0.003947 0.342839 0.190814
O O1 0.893566 0.096957 0.469844
O O2 0.734492 0.314490 0.522214
O O3 0.736366 0.132848 0.373939
O O4 0.606199 0.076665 0.594614
O O5 0.624654 0.814998 0.561036
O O6 0.449321 0.598372 0.623616
O O7 0.653181 0.622696 0.402732
O O8 0.724537 0.573040 0.552452
O O9 0.279750 0.444591 0.811201
O O10 0.559606 0.411339 0.728770
O O11 0.028728 0.375579 0.066371
O O12 0.840716 0.084577 0.775724
O O13 0.161201 0.921408 0.853633
O O14 0.998586 0.185447 0.213860
O O15 0.892527 0.925376 0.278026
#
# Coordination Sequence:
#
# PCOD9244394 Si02
#       8
#     4   4   4   2   4   4   4   4
#     4  11  23  42  66  94 128 181 216 264 338 394
#     4  10  23  38  67  98 126 172 217 271 336 389
#     4  11  22  38  68  95 128 172 217 270 327 402
#     4  10  20  40  70  84 120 178 220 252 316 400
#     4  10  21  43  64  91 133 173 215 270 336 396
#     4  11  22  42  62  96 136 168 214 279 333 385
#     4  11  25  41  65  95 132 173 223 275 325 398
#     4  11  22  43  66  92 128 178 219 271 331 386
#
# _framework density 25.163958999999998
#
# number of rings (size 3 to 8) (size 9 to 14) (size 15 to 20)
#    0.000    1.333    2.667    3.200    0.000    6.933 
#    0.000    1.333    0.000    0.000    0.000    0.000 
#    0.000    0.000    0.000    0.000    0.000    0.000 
#
# Total GULP energy -167527.708716 kJ/mol
# GULP energy per Si atom -5584.256957 kJ/mol
# Density = 2.510668 g / cm^3
# Si number density = 25.163959 Si / 1000 Ang^3
#
#
#
# Elastic Constant Matrix: (Units=GPa)
#
#
# Indices 1 2 3 4 5 6 
#
# 1 44.5068 21.0960 7.0835 0.0000 7.8126 0.0000
# 2 21.0960 74.6543 14.9401 0.0000 16.0856 0.0000
# 3 7.0835 14.9401 103.7239 0.0000 25.5280 0.0000
# 4 0.0000 0.0000 0.0000 37.9785 0.0000 -2.8513
# 5 7.8126 16.0856 25.5280 0.0000 30.2893 0.0000
# 6 0.0000 0.0000 0.0000 -2.8513 0.0000 29.3243
#
#
#
# Elastic Compliance Matrix: (Units=1/GPa)
#
#
# Indices 1 2 3 4 5 6 
#
# 1 0.026214 -0.006719 -0.000046 0.000000 -0.003154 0.000000
# 2 -0.006719 0.016853 -0.000243 0.000000 -0.007013 0.000000
# 3 -0.000046 -0.000243 0.012169 0.000000 -0.010115 0.000000
# 4 0.000000 0.000000 0.000000 0.026524 0.000000 0.002579
# 5 -0.003154 -0.007013 -0.010115 0.000000 0.046078 0.000000
# 6 0.000000 0.000000 0.000000 0.002579 0.000000 0.034352
#
#
# Mechanical properties :
#
#
# Convention : Reuss Voigt Hill
#
# Bulk Modulus (GPa) = 24.25964 34.34714 29.30339
# Shear Modulus (GPa) = 26.32334 31.50278 28.91306
#
# Velocity S-wave (km/s) = 3.23781 3.54206 3.39335
# Velocity P-wave (km/s) = 4.86204 5.51427 5.19840
#
# Compressibility (1/GPa) = 0.04122073
#
# Stress axis : x y z
#
# Youngs Moduli (GPa) = 38.14729 59.33570 82.17931
#
# Poissons Ratio (x) = 0.39866 0.00379
# Poissons Ratio (y) = 0.25630 0.01995
# Poissons Ratio (z) = 0.00176 0.01440
#
# Static dielectric constant tensor:
#      x y z
#    x 2.216160 0.000000 0.017440 
#    y 0.000000 1.984590 0.000000 
#    z 0.017440 0.000000 1.826010 
# 
# From -- ./inp_files/43650.got.cif
#   From: 2010.05.17/outbox.cif.g08.bks.cpg/sg14_22_cif.got.tgz:43650.got - 2010.06.03 17:49:19.
