data_PCOD9244158
_publ_section_title
;
Structure prediction by ZEFSAII (Michael W. Deem and Ramdas Pophale) SiO2 
 PCOD9244158
Probable space group: P 21/C
;
_chemical_formula_sum "Si O2"
_cell_formula_units_Z 20
_cell_length_a 8.815371
_cell_length_b 8.659520
_cell_length_c 13.178777
_cell_angle_alpha 90.000000
_cell_angle_beta 119.049733
_cell_angle_gamma 90.000000
_cell_volume 879.467126
_symmetry_space_group_name_H-M "P 21/C"
_symmetry_group_IT_number 14
_symmetry_cell_setting 'monoclinic'
loop_
_space_group_symop_operation_xyz
x,y,z
-x,1/2+y,1/2-z
-x,-y,-z
x,1/2-y,1/2+z
loop_
_atom_site_type_symbol
_atom_site_label
_atom_site_fract_x
_atom_site_fract_y
_atom_site_fract_z
Si Si1 0.615852 0.747981 0.347597
Si Si2 0.635188 0.304341 0.583650
Si Si3 0.813047 0.944433 0.260604
Si Si4 0.293457 0.607910 0.622945
Si Si5 0.955597 0.265040 0.308678
O O1 0.549394 0.764051 0.442222
O O2 0.756030 0.862858 0.345084
O O3 0.679002 0.573833 0.350698
O O4 0.440351 0.791585 0.228819
O O5 0.654467 0.461911 0.656855
O O6 0.680437 0.346299 0.484799
O O7 0.794396 0.203863 0.678666
O O8 0.880982 0.828893 0.197101
O O9 0.951578 0.081229 0.322126
O O10 0.106188 0.654989 0.608031
#
# Coordination Sequence:
#
# PCOD9244158 Si02
#       5
#     4   4   4   4   4
#     4  11  20  36  63  86 120 153 194 253 280 350
#     4   9  22  37  63  84 117 160 198 225 308 357
#     4  10  20  40  60  87 120 155 193 244 293 339
#     4  11  20  40  60  87 117 158 200 234 298 351
#     4   9  21  39  60  86 119 156 194 244 289 346
#
# _framework density 22.741043000000001
#
# number of rings (size 3 to 8) (size 9 to 14) (size 15 to 20)
#    1.200    0.800    2.000    1.800    0.000    0.800 
#    0.000   10.000    4.400    0.000    0.000    0.000 
#    0.000    0.000    0.000    0.000    0.000    0.000 
#
# Total GULP energy -111523.092971 kJ/mol
# GULP energy per Si atom -5576.154649 kJ/mol
# Density = 2.268928 g / cm^3
# Si number density = 22.741043 Si / 1000 Ang^3
#
#
#
# Elastic Constant Matrix: (Units=GPa)
#
#
# Indices 1 2 3 4 5 6 
#
# 1 -22.5599 -22.3459 -176.1238 0.0000 100.9263 0.0000
# 2 -22.3459 27.6359 -77.8117 0.0000 49.6967 0.0000
# 3 -176.1238 -77.8117 -242.7848 0.0000 191.1484 0.0000
# 4 0.0000 0.0000 0.0000 16.8805 0.0000 -14.3788
# 5 100.9263 49.6967 191.1484 0.0000 -118.9966 0.0000
# 6 0.0000 0.0000 0.0000 -14.3788 0.0000 50.4224
#
#
#
# Elastic Compliance Matrix: (Units=1/GPa)
#
#
# Indices 1 2 3 4 5 6 
#
# 1 0.019414 -0.008132 0.004485 0.000000 0.020275 0.000000
# 2 -0.008132 0.024099 -0.002529 0.000000 -0.000895 0.000000
# 3 0.004485 -0.002529 0.016618 0.000000 0.029442 0.000000
# 4 0.000000 0.000000 0.000000 0.078246 0.000000 0.022313
# 5 0.020275 -0.000895 0.029442 0.000000 0.055712 0.000000
# 6 0.000000 0.000000 0.000000 0.022313 0.000000 0.026195
#
#
# Mechanical properties :
#
#
# Convention : Reuss Voigt Hill
#
# Bulk Modulus (GPa) = 20.92954 -87.80794 -33.43920
# Shear Modulus (GPa) = 20.11576 -7.76725 6.17426
#
# Velocity S-wave (km/s) = 2.97738 -1.85012 1.64952
# Velocity P-wave (km/s) = 4.58728 6.57722 3.33292
#
# Compressibility (1/GPa) = 0.04777935
#
# Stress axis : x y z
#
# Youngs Moduli (GPa) = 51.50929 41.49602 60.17691
#
# Poissons Ratio (x) = 0.33746 -0.26992
# Poissons Ratio (y) = 0.41889 0.15217
# Poissons Ratio (z) = -0.23104 0.10493
#
# Static dielectric constant tensor:
#      x y z
#    x 1.913410 0.000000 0.027350 
#    y 0.000000 1.834610 0.000000 
#    z 0.027350 0.000000 1.888140 
# 
# From -- ./inp_files/28245.got.cif
#   From: 2010.05.17/outbox.cif.g08.bks.cpg/sg14_15_cif.got.tgz:28245.got - 2010.06.03 17:49:19.
