data_PCOD9244237
_publ_section_title
;
Structure prediction by ZEFSAII (Michael W. Deem and Ramdas Pophale) SiO2 
 PCOD9244237
Probable space group: P 21/C
;
_chemical_formula_sum "Si O2"
_cell_formula_units_Z 32
_cell_length_a 15.509166
_cell_length_b 8.454380
_cell_length_c 10.771501
_cell_angle_alpha 90.000000
_cell_angle_beta 96.494445
_cell_angle_gamma 90.000000
_cell_volume 1403.299954
_symmetry_space_group_name_H-M "P 21/C"
_symmetry_group_IT_number 14
_symmetry_cell_setting 'monoclinic'
loop_
_space_group_symop_operation_xyz
x,y,z
-x,1/2+y,1/2-z
-x,-y,-z
x,1/2-y,1/2+z
loop_
_atom_site_type_symbol
_atom_site_label
_atom_site_fract_x
_atom_site_fract_y
_atom_site_fract_z
Si Si1 0.561269 0.787243 0.917356
Si Si2 0.242649 0.176560 0.099493
Si Si3 0.477802 0.107898 0.830455
Si Si4 0.729822 0.190960 0.928914
Si Si5 0.687660 0.385629 0.678185
Si Si6 0.923647 0.708017 0.079723
Si Si7 0.901583 0.115821 0.497907
Si Si8 0.150856 0.410144 0.249309
O O1 0.664317 0.756872 0.928414
O O2 0.513632 0.687366 0.802388
O O3 0.546213 0.970514 0.873864
O O4 0.528034 0.773549 0.053067
O O5 0.163871 0.225848 0.997198
O O6 0.212861 0.264511 0.219071
O O7 0.251589 0.988986 0.107439
O O8 0.385755 0.016663 0.816598
O O9 0.692784 0.281215 0.802829
O O10 0.818566 0.274922 0.986789
O O11 0.671462 0.197813 0.043629
O O12 0.781776 0.469137 0.676856
O O13 0.909157 0.520847 0.103215
O O14 0.929006 0.827915 0.194513
O O15 0.010072 0.711170 0.010513
O O16 0.885670 0.007373 0.372952
#
# Coordination Sequence:
#
# PCOD9244237 Si02
#       8
#     4   4   4   4   4   4   4   4
#     4  11  25  45  72 103 138 177 225 278 340 408
#     4  11  22  40  67  98 125 181 222 275 343 406
#     4  11  25  47  71 100 142 176 226 280 337 411
#     4  11  24  42  66 100 135 177 229 283 339 400
#     4  11  23  45  65  97 138 176 226 285 339 405
#     4  10  20  42  64  85 135 175 226 280 341 400
#     4   9  23  39  58  99 127 172 232 282 337 402
#     4  10  20  40  64  90 130 181 226 278 341 410
#
# _framework density 22.803394000000001
#
# number of rings (size 3 to 8) (size 9 to 14) (size 15 to 20)
#    0.000    1.500    3.750    0.000    3.500    2.000 
#   13.500    0.000    0.000    0.000    0.000    0.000 
#    0.000    0.000    0.000    0.000    0.000    0.000 
#
# Total GULP energy -178685.445265 kJ/mol
# GULP energy per Si atom -5583.920165 kJ/mol
# Density = 2.275149 g / cm^3
# Si number density = 22.803394 Si / 1000 Ang^3
#
#
#
# Elastic Constant Matrix: (Units=GPa)
#
#
# Indices 1 2 3 4 5 6 
#
# 1 84.1607 5.2338 12.5309 0.0000 14.9061 0.0000
# 2 5.2338 43.3863 45.3469 0.0000 -1.1822 0.0000
# 3 12.5309 45.3469 113.9050 0.0000 -4.3442 0.0000
# 4 0.0000 0.0000 0.0000 49.6572 0.0000 -2.2312
# 5 14.9061 -1.1822 -4.3442 0.0000 20.6450 0.0000
# 6 0.0000 0.0000 0.0000 -2.2312 0.0000 34.0835
#
#
#
# Elastic Compliance Matrix: (Units=1/GPa)
#
#
# Indices 1 2 3 4 5 6 
#
# 1 0.014040 0.000092 -0.001984 0.000000 -0.010549 0.000000
# 2 0.000092 0.039497 -0.015777 0.000000 -0.001125 0.000000
# 3 -0.001984 -0.015777 0.015423 0.000000 0.003774 0.000000
# 4 0.000000 0.000000 0.000000 0.020197 0.000000 0.001322
# 5 -0.010549 -0.001125 0.003774 0.000000 0.056784 0.000000
# 6 0.000000 0.000000 0.000000 0.001322 0.000000 0.029426
#
#
# Mechanical properties :
#
#
# Convention : Reuss Voigt Hill
#
# Bulk Modulus (GPa) = 29.74219 40.85280 35.29750
# Shear Modulus (GPa) = 22.53132 32.76651 27.64892
#
# Velocity S-wave (km/s) = 3.14677 3.79478 3.48586
# Velocity P-wave (km/s) = 5.12582 6.09545 5.63155
#
# Compressibility (1/GPa) = 0.03362227
#
# Stress axis : x y z
#
# Youngs Moduli (GPa) = 71.22456 25.31814 64.84007
#
# Poissons Ratio (x) = -0.00233 0.12862
# Poissons Ratio (y) = -0.00656 1.02301
# Poissons Ratio (z) = 0.14128 0.39945
#
# Static dielectric constant tensor:
#      x y z
#    x 1.872310 0.000000 0.022550 
#    y 0.000000 1.860850 0.000000 
#    z 0.022550 0.000000 1.971990 
# 
# From -- ./inp_files/31823.got.cif
#   From: 2010.05.17/outbox.cif.g08.bks.cpg/sg14_16_cif.got.tgz:31823.got - 2010.06.03 17:49:19.
