data_PCOD9244685
_publ_section_title
;
Structure prediction by ZEFSAII (Michael W. Deem and Ramdas Pophale) SiO2 
 PCOD9244685
Probable space group: P 21/C
;
_chemical_formula_sum "Si O2"
_cell_formula_units_Z 30
_cell_length_a 9.178059
_cell_length_b 14.478255
_cell_length_c 11.059444
_cell_angle_alpha 90.000000
_cell_angle_beta 126.491490
_cell_angle_gamma 90.000000
_cell_volume 1181.481176
_symmetry_space_group_name_H-M "P 21/C"
_symmetry_group_IT_number 14
_symmetry_cell_setting 'monoclinic'
loop_
_space_group_symop_operation_xyz
x,y,z
-x,1/2+y,1/2-z
-x,-y,-z
x,1/2-y,1/2+z
loop_
_atom_site_type_symbol
_atom_site_label
_atom_site_fract_x
_atom_site_fract_y
_atom_site_fract_z
Si Si1 0.172470 0.127727 0.915090
Si Si2 0.905088 0.341509 0.609680
Si Si3 0.968526 0.704943 0.017988
Si Si4 0.534953 0.278780 0.507817
Si Si5 0.128662 0.489237 0.822871
Si Si6 0.000000 0.500000 0.000000
Si Si7 0.542620 0.816721 0.282262
Si Si8 0.705495 0.479256 0.342139
O O1 0.054405 0.052347 0.784219
O O2 0.040343 0.212269 0.887773
O O3 0.348941 0.163430 0.932145
O O4 0.259880 0.076569 0.075553
O O5 0.725682 0.332796 0.601964
O O6 0.075710 0.384705 0.761500
O O7 0.859583 0.414730 0.480146
O O8 0.950472 0.248276 0.563952
O O9 0.756054 0.688972 0.891202
O O10 0.051337 0.604190 0.071811
O O11 0.524502 0.250404 0.360637
O O12 0.532027 0.212105 0.622498
O O13 0.266671 0.517145 0.787213
O O14 0.166585 0.502106 0.980551
O O15 0.471435 0.919308 0.216669
#
# Coordination Sequence:
#
# PCOD9244685 Si02
#       8
#     4   4   4   4   4   2   4   4
#     4  10  20  44  78  89 129 180 246 273 330 412
#     4  10  21  41  75  95 125 176 243 269 335 405
#     4  11  23  47  66 101 133 187 220 284 341 420
#     4  10  23  41  65 104 129 182 222 290 335 409
#     4  11  22  42  66 102 130 182 228 292 333 418
#     4  12  30  36  60 100 148 164 216 282 366 392
#     4  10  24  42  67  96 142 177 236 275 351 400
#     4  10  20  42  70 102 122 176 238 296 318 406
#
# _framework density 25.391857000000002
#
# number of rings (size 3 to 8) (size 9 to 14) (size 15 to 20)
#    0.000    1.600    2.667    1.600    1.867   11.200 
#    0.000    3.333    0.000    0.000    0.000    0.000 
#    0.000    0.000    0.000    0.000    0.000    0.000 
#
# Total GULP energy -167112.966118 kJ/mol
# GULP energy per Si atom -5570.432204 kJ/mol
# Density = 2.533406 g / cm^3
# Si number density = 25.391857 Si / 1000 Ang^3
#
#
#
# Elastic Constant Matrix: (Units=GPa)
#
#
# Indices 1 2 3 4 5 6 
#
# 1 94.5359 20.1137 10.4731 0.0000 -17.9613 0.0000
# 2 20.1137 120.1060 17.3698 0.0000 -10.5982 0.0000
# 3 10.4731 17.3698 80.2643 0.0000 -24.1618 0.0000
# 4 0.0000 0.0000 0.0000 32.9556 0.0000 1.7964
# 5 -17.9613 -10.5982 -24.1618 0.0000 37.0014 0.0000
# 6 0.0000 0.0000 0.0000 1.7964 0.0000 32.6751
#
#
#
# Elastic Compliance Matrix: (Units=1/GPa)
#
#
# Indices 1 2 3 4 5 6 
#
# 1 0.011934 -0.001569 0.000487 0.000000 0.005661 0.000000
# 2 -0.001569 0.008874 -0.001468 0.000000 0.000821 0.000000
# 3 0.000487 -0.001468 0.015754 0.000000 0.010103 0.000000
# 4 0.000000 0.000000 0.000000 0.030435 0.000000 -0.001673
# 5 0.005661 0.000821 0.010103 0.000000 0.036607 0.000000
# 6 0.000000 0.000000 0.000000 -0.001673 0.000000 0.030696
#
#
# Mechanical properties :
#
#
# Convention : Reuss Voigt Hill
#
# Bulk Modulus (GPa) = 31.78695 43.42439 37.60567
# Shear Modulus (GPa) = 33.35820 36.98973 35.17397
#
# Velocity S-wave (km/s) = 3.62848 3.82089 3.72593
# Velocity P-wave (km/s) = 5.48637 6.05016 5.77515
#
# Compressibility (1/GPa) = 0.03145945
#
# Stress axis : x y z
#
# Youngs Moduli (GPa) = 83.79741 112.69397 63.47405
#
# Poissons Ratio (x) = 0.17685 -0.03089
# Poissons Ratio (y) = 0.13150 0.09321
# Poissons Ratio (z) = -0.04078 0.16548
#
# Static dielectric constant tensor:
#      x y z
#    x 2.017710 0.000000 -0.078860 
#    y 0.000000 2.033680 0.000000 
#    z -0.078860 0.000000 2.138280 
# 
# From -- ./inp_files/25329.got.cif
#   From: 2010.05.17/outbox.cif.g08.bks.cpg/sg14_13_cif.got.tgz:25329.got - 2010.06.03 17:49:19.
