data_PCOD9244396
_publ_section_title
;
Structure prediction by ZEFSAII (Michael W. Deem and Ramdas Pophale) SiO2 
 PCOD9244396
Probable space group: P 21/C
;
_chemical_formula_sum "Si O2"
_cell_formula_units_Z 32
_cell_length_a 9.020985
_cell_length_b 23.547378
_cell_length_c 8.763227
_cell_angle_alpha 90.000000
_cell_angle_beta 131.234174
_cell_angle_gamma 90.000000
_cell_volume 1399.880830
_symmetry_space_group_name_H-M "P 21/C"
_symmetry_group_IT_number 14
_symmetry_cell_setting 'monoclinic'
loop_
_space_group_symop_operation_xyz
x,y,z
-x,1/2+y,1/2-z
-x,-y,-z
x,1/2-y,1/2+z
loop_
_atom_site_type_symbol
_atom_site_label
_atom_site_fract_x
_atom_site_fract_y
_atom_site_fract_z
Si Si1 0.555100 0.079986 0.519668
Si Si2 0.010599 0.211938 0.420067
Si Si3 0.280896 0.260615 0.828464
Si Si4 0.192280 0.128356 0.107025
Si Si5 0.380130 0.676163 0.456473
Si Si6 0.212582 0.673104 0.671941
Si Si7 0.411302 0.493056 0.195974
Si Si8 0.333441 0.072628 0.913636
O O1 0.336424 0.089107 0.303366
O O2 0.656243 0.139881 0.618649
O O3 0.527858 0.049327 0.662797
O O4 0.669239 0.040621 0.475671
O O5 0.898190 0.272619 0.335622
O O6 0.131209 0.213406 0.658278
O O7 0.172200 0.209360 0.395907
O O8 0.826826 0.170664 0.272791
O O9 0.286189 0.308859 0.700030
O O10 0.482375 0.228868 0.002164
O O11 0.193599 0.106733 0.934228
O O12 0.966504 0.132174 0.002713
O O13 0.330958 0.687928 0.600012
O O14 0.502288 0.618811 0.521888
O O15 0.563894 0.525527 0.409354
O O16 0.269881 0.458003 0.213800
#
# Coordination Sequence:
#
# PCOD9244396 Si02
#       8
#     4   4   4   4   4   4   4   4
#     4  10  20  40  70  88 122 163 209 261 318 373
#     4  11  24  41  58  95 131 159 212 254 295 382
#     4  11  25  39  61  93 132 168 205 250 305 372
#     4  10  22  41  62  94 128 161 205 256 308 371
#     4  12  23  38  66  89 126 174 203 251 315 368
#     4  11  23  39  62  96 125 164 209 254 307 373
#     4   9  20  40  65  93 117 161 212 264 318 369
#     4  10  21  40  66  88 126 165 206 261 322 366
#
# _framework density 22.859088
#
# number of rings (size 3 to 8) (size 9 to 14) (size 15 to 20)
#    0.000    1.500    3.750    2.250    5.250    2.000 
#    0.000    6.250    0.000    0.000    0.000    0.000 
#    0.000    0.000    0.000    0.000    0.000    0.000 
#
# Total GULP energy -178662.352067 kJ/mol
# GULP energy per Si atom -5583.198502 kJ/mol
# Density = 2.280706 g / cm^3
# Si number density = 22.859088 Si / 1000 Ang^3
#
#
#
# Elastic Constant Matrix: (Units=GPa)
#
#
# Indices 1 2 3 4 5 6 
#
# 1 71.5100 5.9151 7.8930 0.0000 -7.3186 0.0000
# 2 5.9151 41.1739 -0.1379 0.0000 -10.5824 0.0000
# 3 7.8930 -0.1379 50.4696 0.0000 5.2469 0.0000
# 4 0.0000 0.0000 0.0000 29.9543 0.0000 -17.8979
# 5 -7.3186 -10.5824 5.2469 0.0000 36.1023 0.0000
# 6 0.0000 0.0000 0.0000 -17.8979 0.0000 28.4578
#
#
#
# Elastic Compliance Matrix: (Units=1/GPa)
#
#
# Indices 1 2 3 4 5 6 
#
# 1 0.014687 -0.001358 -0.002608 0.000000 0.002958 0.000000
# 2 -0.001358 0.026419 -0.000499 0.000000 0.007541 0.000000
# 3 -0.002608 -0.000499 0.020602 0.000000 -0.003669 0.000000
# 4 0.000000 0.000000 0.000000 0.053482 0.000000 0.033636
# 5 0.002958 0.007541 -0.003669 0.000000 0.031042 0.000000
# 6 0.000000 0.000000 0.000000 0.033636 0.000000 0.056294
#
#
# Mechanical properties :
#
#
# Convention : Reuss Voigt Hill
#
# Bulk Modulus (GPa) = 18.94800 21.16597 20.05699
# Shear Modulus (GPa) = 21.82922 28.86845 25.34883
#
# Velocity S-wave (km/s) = 3.09357 3.55757 3.33365
# Velocity P-wave (km/s) = 4.58991 5.11414 4.85910
#
# Compressibility (1/GPa) = 0.05277602
#
# Stress axis : x y z
#
# Youngs Moduli (GPa) = 68.08716 37.85167 48.53919
#
# Poissons Ratio (x) = 0.05142 0.12660
# Poissons Ratio (y) = 0.09249 0.02424
# Poissons Ratio (z) = 0.17758 0.01890
#
# Static dielectric constant tensor:
#      x y z
#    x 1.848090 0.000000 -0.000100 
#    y 0.000000 1.910600 0.000000 
#    z -0.000100 0.000000 1.903770 
# 
# From -- ./inp_files/11079.got.cif
#   From: 2010.05.17/outbox.cif.g08.bks.cpg/sg14_6_cif.got.tgz:11079.got - 2010.06.03 17:49:19.
