data_PCOD9244996
_publ_section_title
;
Structure prediction by ZEFSAII (Michael W. Deem and Ramdas Pophale) SiO2 
 PCOD9244996
Probable space group: P 21/C
;
_chemical_formula_sum "Si O2"
_cell_formula_units_Z 32
_cell_length_a 22.124323
_cell_length_b 5.343345
_cell_length_c 10.943902
_cell_angle_alpha 90.000000
_cell_angle_beta 86.773143
_cell_angle_gamma 90.000000
_cell_volume 1291.713731
_symmetry_space_group_name_H-M "P 21/C"
_symmetry_group_IT_number 14
_symmetry_cell_setting 'monoclinic'
loop_
_space_group_symop_operation_xyz
x,y,z
-x,1/2+y,1/2-z
-x,-y,-z
x,1/2-y,1/2+z
loop_
_atom_site_type_symbol
_atom_site_label
_atom_site_fract_x
_atom_site_fract_y
_atom_site_fract_z
Si Si1 0.676968 0.102360 0.580620
Si Si2 0.574596 0.078968 0.787638
Si Si3 0.961753 0.100915 0.740514
Si Si4 0.786159 0.386094 0.255587
Si Si5 0.933790 0.374790 0.507588
Si Si6 0.713034 0.900300 0.991687
Si Si7 0.461710 0.078256 0.621594
Si Si8 0.825870 0.618380 0.662501
O O1 0.740070 0.125131 0.646647
O O2 0.686012 0.877634 0.483450
O O3 0.625585 0.023316 0.681997
O O4 0.666032 0.384922 0.537466
O O5 0.510405 0.097087 0.725389
O O6 0.583506 0.351159 0.844680
O O7 0.568710 0.849000 0.881068
O O8 0.938016 0.149736 0.605522
O O9 0.014365 0.316880 0.748173
O O10 0.922377 0.170383 0.865641
O O11 0.745853 0.478692 0.372195
O O12 0.814278 0.109921 0.257865
O O13 0.832068 0.613878 0.225131
O O14 0.881896 0.547694 0.570663
O O15 0.000000 0.500000 0.500000
O O16 0.765640 0.871298 0.086860
O O17 0.500000 0.000000 0.500000
#
# Coordination Sequence:
#
# PCOD9244996 Si02
#       8
#     4   4   4   4   4   4   4   4
#     4  10  21  37  59  87 111 149 194 243 290 343
#     4  10  21  36  55  83 117 148 197 241 280 344
#     4  10  22  40  62  88 123 155 198 245 292 349
#     4  10  22  40  60  84 117 147 194 239 298 350
#     4  10  23  43  63  93 123 161 201 249 299 366
#     4  10  21  39  59  83 115 147 191 242 295 354
#     4  10  21  36  54  81 118 158 190 234 287 344
#     4  10  23  39  59  87 114 153 189 240 296 355
#
# _framework density 24.773288999999998
#
# number of rings (size 3 to 8) (size 9 to 14) (size 15 to 20)
#    0.000    2.000    0.000    2.250    1.750    6.000 
#    4.500    0.000    0.000    0.000    0.000    0.000 
#    0.000    0.000    0.000    0.000    0.000    0.000 
#
# Total GULP energy -178904.416345 kJ/mol
# GULP energy per Si atom -5590.763011 kJ/mol
# Density = 2.471690 g / cm^3
# Si number density = 24.773289 Si / 1000 Ang^3
#
#
#
# Elastic Constant Matrix: (Units=GPa)
#
#
# Indices 1 2 3 4 5 6 
#
# 1 65.1835 33.7419 -6.2763 0.0000 5.2318 0.0000
# 2 33.7419 142.5277 25.1369 0.0000 -4.5251 0.0000
# 3 -6.2763 25.1369 91.1049 0.0000 -13.7977 0.0000
# 4 0.0000 0.0000 0.0000 33.5116 0.0000 -6.3983
# 5 5.2318 -4.5251 -13.7977 0.0000 48.5934 0.0000
# 6 0.0000 0.0000 0.0000 -6.3983 0.0000 34.7646
#
#
#
# Elastic Compliance Matrix: (Units=1/GPa)
#
#
# Indices 1 2 3 4 5 6 
#
# 1 0.018168 -0.004762 0.002301 0.000000 -0.001746 0.000000
# 2 -0.004762 0.008624 -0.002621 0.000000 0.000572 0.000000
# 3 0.002301 -0.002621 0.012313 0.000000 0.003004 0.000000
# 4 0.000000 0.000000 0.000000 0.030927 0.000000 0.005692
# 5 -0.001746 0.000572 0.003004 0.000000 0.021673 0.000000
# 6 0.000000 0.000000 0.000000 0.005692 0.000000 0.029813
#
#
# Mechanical properties :
#
#
# Convention : Reuss Voigt Hill
#
# Bulk Modulus (GPa) = 34.55316 44.89122 39.72219
# Shear Modulus (GPa) = 35.37827 39.78816 37.58321
#
# Velocity S-wave (km/s) = 3.78310 4.01195 3.89920
# Velocity P-wave (km/s) = 5.74982 6.29454 6.02833
#
# Compressibility (1/GPa) = 0.02894091
#
# Stress axis : x y z
#
# Youngs Moduli (GPa) = 55.04103 115.95511 81.21461
#
# Poissons Ratio (x) = 0.55223 -0.18689
# Poissons Ratio (y) = 0.26213 0.21286
# Poissons Ratio (z) = -0.12666 0.30392
#
# Static dielectric constant tensor:
#      x y z
#    x 1.982910 0.000000 0.052520 
#    y 0.000000 2.059820 0.000000 
#    z 0.052520 0.000000 1.963390 
# 
# From -- ./inp_files/35598.got.cif
#   From: 2010.05.17/outbox.cif.g08.bks.cpg/sg14_18_cif.got.tgz:35598.got - 2010.06.03 17:49:19.
