data_PCOD9244696
_publ_section_title
;
Structure prediction by ZEFSAII (Michael W. Deem and Ramdas Pophale) SiO2 
 PCOD9244696
Probable space group: P 21/C
;
_chemical_formula_sum "Si O2"
_cell_formula_units_Z 30
_cell_length_a 13.579094
_cell_length_b 7.595013
_cell_length_c 12.521752
_cell_angle_alpha 90.000000
_cell_angle_beta 94.822931
_cell_angle_gamma 90.000000
_cell_volume 1286.838289
_symmetry_space_group_name_H-M "P 21/C"
_symmetry_group_IT_number 14
_symmetry_cell_setting 'monoclinic'
loop_
_space_group_symop_operation_xyz
x,y,z
-x,1/2+y,1/2-z
-x,-y,-z
x,1/2-y,1/2+z
loop_
_atom_site_type_symbol
_atom_site_label
_atom_site_fract_x
_atom_site_fract_y
_atom_site_fract_z
Si Si1 0.788569 0.142842 0.916604
Si Si2 0.615392 0.532606 0.532294
Si Si3 0.685238 0.898943 0.268176
Si Si4 0.611971 0.552407 0.991540
Si Si5 0.265658 0.466915 0.800587
Si Si6 0.072843 0.310839 0.892124
Si Si7 0.000000 0.500000 0.500000
Si Si8 0.117845 0.005056 0.614968
O O1 0.828907 0.339600 0.937102
O O2 0.765794 0.108784 0.789641
O O3 0.881594 0.026978 0.961384
O O4 0.690415 0.085427 0.970588
O O5 0.500000 0.500000 0.500000
O O6 0.642592 0.511985 0.659074
O O7 0.633132 0.739070 0.508384
O O8 0.638484 0.978497 0.370944
O O9 0.671612 0.687839 0.252942
O O10 0.802243 0.924243 0.296073
O O11 0.500000 0.500000 0.000000
O O12 0.673999 0.463524 0.092416
O O13 0.170386 0.368671 0.840990
O O14 0.982959 0.433388 0.845400
O O15 0.031784 0.114793 0.895116
O O16 0.088353 0.357743 0.020123
#
# Coordination Sequence:
#
# PCOD9244696 Si02
#       8
#     4   4   4   4   4   4   2   4
#     4  11  24  42  66 102 141 185 228 286 347 411
#     4  11  27  44  66 102 138 176 232 290 346 426
#     4  11  23  44  69  93 133 177 225 284 344 416
#     4  11  25  43  70  99 128 181 226 288 357 413
#     4  11  23  43  71  96 139 180 231 287 347 427
#     4  10  21  40  68 103 138 182 227 291 348 421
#     4  10  20  42  70  96 138 182 232 286 350 416
#     4  10  23  40  66 102 140 180 229 283 343 419
#
# _framework density 23.312953
#
# number of rings (size 3 to 8) (size 9 to 14) (size 15 to 20)
#    0.000    1.333    2.667    2.400    3.733    5.333 
#    0.000    1.333    0.000    0.000    0.000    0.000 
#    0.000    0.000    0.000    0.000    0.000    0.000 
#
# Total GULP energy -167258.507425 kJ/mol
# GULP energy per Si atom -5575.283581 kJ/mol
# Density = 2.325989 g / cm^3
# Si number density = 23.312953 Si / 1000 Ang^3
#
#
#
# Elastic Constant Matrix: (Units=GPa)
#
#
# Indices 1 2 3 4 5 6 
#
# 1 151.9908 -15.4924 57.5882 0.0000 9.4669 0.0000
# 2 -15.4924 26.4672 -6.1313 0.0000 -0.9235 0.0000
# 3 57.5882 -6.1313 144.6701 0.0000 15.9222 0.0000
# 4 0.0000 0.0000 0.0000 14.4595 0.0000 -1.3363
# 5 9.4669 -0.9235 15.9222 0.0000 34.2469 0.0000
# 6 0.0000 0.0000 0.0000 -1.3363 0.0000 25.7954
#
#
#
# Elastic Compliance Matrix: (Units=1/GPa)
#
#
# Indices 1 2 3 4 5 6 
#
# 1 0.008177 0.004065 -0.003000 0.000000 -0.000756 0.000000
# 2 0.004065 0.040181 0.000094 0.000000 -0.000084 0.000000
# 3 -0.003000 0.000094 0.008451 0.000000 -0.003097 0.000000
# 4 0.000000 0.000000 0.000000 0.069492 0.000000 0.003600
# 5 -0.000756 -0.000084 -0.003097 0.000000 0.030847 0.000000
# 6 0.000000 0.000000 0.000000 0.003600 0.000000 0.038953
#
#
# Mechanical properties :
#
#
# Convention : Reuss Voigt Hill
#
# Bulk Modulus (GPa) = 16.91224 43.89523 30.40374
# Shear Modulus (GPa) = 23.42016 34.04458 28.73237
#
# Velocity S-wave (km/s) = 3.17298 3.82557 3.51445
# Velocity P-wave (km/s) = 4.54906 6.19539 5.43492
#
# Compressibility (1/GPa) = 0.05912876
#
# Stress axis : x y z
#
# Youngs Moduli (GPa) = 122.28898 24.88738 118.32638
#
# Poissons Ratio (x) = -0.10117 0.35493
# Poissons Ratio (y) = -0.49714 -0.01111
# Poissons Ratio (z) = 0.36682 -0.00234
#
# Static dielectric constant tensor:
#      x y z
#    x 1.846640 0.000000 -0.004740 
#    y 0.000000 1.951320 0.000000 
#    z -0.004740 0.000000 1.855200 
# 
# From -- ./inp_files/31856.got.cif
#   From: 2010.05.17/outbox.cif.g08.bks.cpg/sg14_16_cif.got.tgz:31856.got - 2010.06.03 17:49:19.
