data_PCOD9244090
_publ_section_title
;
Structure prediction by ZEFSAII (Michael W. Deem and Ramdas Pophale) SiO2 
 PCOD9244090
Probable space group: P 21/C
;
_chemical_formula_sum "Si O2"
_cell_formula_units_Z 32
_cell_length_a 5.178425
_cell_length_b 15.736867
_cell_length_c 18.724481
_cell_angle_alpha 90.000000
_cell_angle_beta 106.313972
_cell_angle_gamma 90.000000
_cell_volume 1464.461339
_symmetry_space_group_name_H-M "P 21/C"
_symmetry_group_IT_number 14
_symmetry_cell_setting 'monoclinic'
loop_
_space_group_symop_operation_xyz
x,y,z
-x,1/2+y,1/2-z
-x,-y,-z
x,1/2-y,1/2+z
loop_
_atom_site_type_symbol
_atom_site_label
_atom_site_fract_x
_atom_site_fract_y
_atom_site_fract_z
Si Si1 0.263037 0.048439 0.190543
Si Si2 0.888529 0.628613 0.862160
Si Si3 0.450091 0.967822 0.416421
Si Si4 0.445112 0.629507 0.173561
Si Si5 0.851596 0.198152 0.150943
Si Si6 0.986808 0.732356 0.186483
Si Si7 0.527368 0.458634 0.579003
Si Si8 0.893632 0.913643 0.200348
O O1 0.533341 0.085620 0.246192
O O2 0.258550 0.036686 0.105505
O O3 0.060937 0.124871 0.187026
O O4 0.171295 0.965769 0.225438
O O5 0.655591 0.602618 0.899503
O O6 0.798224 0.613482 0.772139
O O7 0.147531 0.567914 0.890624
O O8 0.001631 0.725046 0.879272
O O9 0.500000 0.000000 0.500000
O O10 0.504656 0.051330 0.374095
O O11 0.158120 0.674453 0.146531
O O12 0.691204 0.694409 0.179089
O O13 0.816110 0.238974 0.227482
O O14 0.627541 0.140215 0.093609
O O15 0.940887 0.828413 0.159783
O O16 0.500000 0.500000 0.500000
O O17 0.708263 0.522173 0.641648
#
# Coordination Sequence:
#
# PCOD9244090 Si02
#       8
#     4   4   4   4   4   4   4   4
#     4  10  20  39  67  88 132 170 219 269 335 397
#     4  11  24  43  73  97 130 176 228 278 326 406
#     4  12  26  44  66  99 134 176 223 274 349 401
#     4  11  21  41  65  92 131 170 214 279 334 387
#     4   9  22  38  63  98 123 170 220 272 324 392
#     4  10  22  38  67 100 127 165 226 279 320 385
#     4  11  23  41  63  94 140 176 220 274 348 410
#     4  10  23  39  66 103 124 177 229 277 326 408
#
# _framework density 21.851037000000002
#
# number of rings (size 3 to 8) (size 9 to 14) (size 15 to 20)
#    0.000    1.500    2.500    1.875    5.250    4.000 
#    2.250    2.500    0.000    0.000    0.000    0.000 
#    0.000    0.000    0.000    0.000    0.000    0.000 
#
# Total GULP energy -178331.304352 kJ/mol
# GULP energy per Si atom -5572.853261 kJ/mol
# Density = 2.180130 g / cm^3
# Si number density = 21.851037 Si / 1000 Ang^3
#
#
#
# Elastic Constant Matrix: (Units=GPa)
#
#
# Indices 1 2 3 4 5 6 
#
# 1 55.9120 8.5489 1.3701 0.0000 -9.9840 0.0000
# 2 8.5489 119.7952 8.9977 0.0000 -1.4943 0.0000
# 3 1.3701 8.9977 70.9221 0.0000 -4.2238 0.0000
# 4 0.0000 0.0000 0.0000 20.3098 0.0000 -7.2439
# 5 -9.9840 -1.4943 -4.2238 0.0000 20.4674 0.0000
# 6 0.0000 0.0000 0.0000 -7.2439 0.0000 6.8015
#
#
#
# Elastic Compliance Matrix: (Units=1/GPa)
#
#
# Indices 1 2 3 4 5 6 
#
# 1 0.019799 -0.001320 0.000359 0.000000 0.009636 0.000000
# 2 -0.001320 0.008519 -0.001070 0.000000 -0.000243 0.000000
# 3 0.000359 -0.001070 0.014412 0.000000 0.003071 0.000000
# 4 0.000000 0.000000 0.000000 0.079397 0.000000 0.084561
# 5 0.009636 -0.000243 0.003071 0.000000 0.054174 0.000000
# 6 0.000000 0.000000 0.000000 0.084561 0.000000 0.237087
#
#
# Mechanical properties :
#
#
# Convention : Reuss Voigt Hill
#
# Bulk Modulus (GPa) = 25.86099 31.60698 28.73399
# Shear Modulus (GPa) = 11.61875 24.69659 18.15767
#
# Velocity S-wave (km/s) = 2.30842 3.36553 2.88579
# Velocity P-wave (km/s) = 4.35498 5.44045 4.92770
#
# Compressibility (1/GPa) = 0.03866828
#
# Stress axis : x y z
#
# Youngs Moduli (GPa) = 50.50813 117.38365 69.38825
#
# Poissons Ratio (x) = 0.15491 -0.02489
# Poissons Ratio (y) = 0.06665 0.07423
# Poissons Ratio (z) = -0.01812 0.12557
#
# Static dielectric constant tensor:
#      x y z
#    x 1.963940 0.000000 -0.015710 
#    y 0.000000 1.820890 0.000000 
#    z -0.015710 0.000000 1.851210 
# 
# From -- ./inp_files/53319.got.cif
#   From: 2010.05.17/outbox.cif.g08.bks.cpg/sg14_27_cif.got.tgz:53319.got - 2010.06.03 17:49:19.
