data_PCOD9244516
_publ_section_title
;
Structure prediction by ZEFSAII (Michael W. Deem and Ramdas Pophale) SiO2 
 PCOD9244516
Probable space group: P 21/C
;
_chemical_formula_sum "Si O2"
_cell_formula_units_Z 20
_cell_length_a 14.837377
_cell_length_b 5.333511
_cell_length_c 24.891603
_cell_angle_alpha 90.000000
_cell_angle_beta 157.498756
_cell_angle_gamma 90.000000
_cell_volume 753.851177
_symmetry_space_group_name_H-M "P 21/C"
_symmetry_group_IT_number 14
_symmetry_cell_setting 'monoclinic'
loop_
_space_group_symop_operation_xyz
x,y,z
-x,1/2+y,1/2-z
-x,-y,-z
x,1/2-y,1/2+z
loop_
_atom_site_type_symbol
_atom_site_label
_atom_site_fract_x
_atom_site_fract_y
_atom_site_fract_z
Si Si1 0.366435 0.661806 0.552342
Si Si2 0.342384 0.750436 0.421949
Si Si3 0.154116 0.732307 0.023378
Si Si4 0.835331 0.149383 0.284878
Si Si5 0.310716 0.486752 0.707226
O O1 0.256345 0.754524 0.436334
O O2 0.181284 0.542404 0.491267
O O3 0.606614 0.535571 0.666880
O O4 0.443631 0.848403 0.644798
O O5 0.500000 0.500000 0.500000
O O6 0.145830 0.721901 0.267508
O O7 0.500000 0.000000 0.500000
O O8 0.321171 0.807091 0.166743
O O9 0.043875 0.495556 0.928954
O O10 0.902461 0.794875 0.918143
O O11 0.734385 0.382801 0.261308
#
# Coordination Sequence:
#
# PCOD9244516 Si02
#       5
#     4   4   4   4   4
#     4  10  22  39  63  95 122 174 226 269 346 412
#     4  10  20  41  67  93 131 172 221 276 337 404
#     4  10  23  39  58  98 125 166 222 280 334 412
#     4  10  21  40  62  88 129 170 211 275 339 394
#     4  10  21  40  62  85 133 165 214 281 340 401
#
# _framework density 26.530432999999999
#
# number of rings (size 3 to 8) (size 9 to 14) (size 15 to 20)
#    0.000    2.000    2.000    0.600    2.800    1.600 
#    3.600    0.000    0.000    0.000    0.000    0.000 
#    0.000    0.000    0.000    0.000    0.000    0.000 
#
# Total GULP energy -111370.232869 kJ/mol
# GULP energy per Si atom -5568.511643 kJ/mol
# Density = 2.647005 g / cm^3
# Si number density = 26.530433 Si / 1000 Ang^3
#
#
#
# Elastic Constant Matrix: (Units=GPa)
#
#
# Indices 1 2 3 4 5 6 
#
# 1 107.7507 -5.7058 47.7413 0.0000 -11.1352 0.0000
# 2 -5.7058 99.2573 43.1201 0.0000 -2.3112 0.0000
# 3 47.7413 43.1201 92.7265 0.0000 -18.0737 0.0000
# 4 0.0000 0.0000 0.0000 8.3531 0.0000 -12.1566
# 5 -11.1352 -2.3112 -18.0737 0.0000 46.3435 0.0000
# 6 0.0000 0.0000 0.0000 -12.1566 0.0000 27.9470
#
#
#
# Elastic Compliance Matrix: (Units=1/GPa)
#
#
# Indices 1 2 3 4 5 6 
#
# 1 0.013636 0.004812 -0.009278 0.000000 -0.000102 0.000000
# 2 0.004812 0.014463 -0.009565 0.000000 -0.001853 0.000000
# 3 -0.009278 -0.009565 0.021084 0.000000 0.005516 0.000000
# 4 0.000000 0.000000 0.000000 0.326251 0.000000 0.141915
# 5 -0.000102 -0.001853 0.005516 0.000000 0.023612 0.000000
# 6 0.000000 0.000000 0.000000 0.141915 0.000000 0.097513
#
#
# Mechanical properties :
#
#
# Convention : Reuss Voigt Hill
#
# Bulk Modulus (GPa) = 47.34291 52.22729 49.78510
# Shear Modulus (GPa) = 9.40446 30.83396 20.11921
#
# Velocity S-wave (km/s) = 1.88480 3.41282 2.75679
# Velocity P-wave (km/s) = 4.75606 5.93787 5.37952
#
# Compressibility (1/GPa) = 0.02112249
#
# Stress axis : x y z
#
# Youngs Moduli (GPa) = 73.33571 69.13991 47.42834
#
# Poissons Ratio (x) = -0.33272 0.44006
# Poissons Ratio (y) = -0.35291 0.45363
# Poissons Ratio (z) = 0.68043 0.66129
#
# Static dielectric constant tensor:
#      x y z
#    x 2.158010 0.000000 0.104650 
#    y 0.000000 2.125770 0.000000 
#    z 0.104650 0.000000 2.204380 
# 
# From -- ./inp_files/50873.got.cif
#   From: 2010.05.17/outbox.cif.g08.bks.cpg/sg14_26_cif.got.tgz:50873.got - 2010.06.03 17:49:19.
