data_PCOD9244491
_publ_section_title
;
Structure prediction by ZEFSAII (Michael W. Deem and Ramdas Pophale) SiO2 
 PCOD9244491
Probable space group: P 21/C
;
_chemical_formula_sum "Si O2"
_cell_formula_units_Z 20
_cell_length_a 8.267602
_cell_length_b 9.743901
_cell_length_c 10.849818
_cell_angle_alpha 90.000000
_cell_angle_beta 59.544627
_cell_angle_gamma 90.000000
_cell_volume 753.449837
_symmetry_space_group_name_H-M "P 21/C"
_symmetry_group_IT_number 14
_symmetry_cell_setting 'monoclinic'
loop_
_space_group_symop_operation_xyz
x,y,z
-x,1/2+y,1/2-z
-x,-y,-z
x,1/2-y,1/2+z
loop_
_atom_site_type_symbol
_atom_site_label
_atom_site_fract_x
_atom_site_fract_y
_atom_site_fract_z
Si Si1 0.479825 0.829494 0.493362
Si Si2 0.175114 0.325536 0.707806
Si Si3 0.669548 0.484981 0.168070
Si Si4 0.186842 0.790171 0.793055
Si Si5 0.696444 0.454640 0.544217
O O1 0.697776 0.803439 0.380910
O O2 0.386472 0.951648 0.450344
O O3 0.394549 0.824866 0.662352
O O4 0.393151 0.686329 0.472018
O O5 0.230358 0.376689 0.822956
O O6 0.230818 0.449480 0.592618
O O7 0.959825 0.298342 0.761103
O O8 0.806590 0.361677 0.155415
O O9 0.476059 0.470499 0.320298
O O10 0.155491 0.900727 0.912353
#
# Coordination Sequence:
#
# PCOD9244491 Si02
#       5
#     4   4   4   4   4
#     4  10  21  41  64  87 128 161 201 254 307 369
#     4  11  21  41  67  90 124 164 204 253 311 362
#     4  10  21  41  61  90 128 162 203 253 306 365
#     4  11  22  37  66  95 117 166 212 248 301 370
#     4  10  20  41  66  86 125 164 201 253 315 362
#
# _framework density 26.544568000000002
#
# number of rings (size 3 to 8) (size 9 to 14) (size 15 to 20)
#    0.000    1.600    4.000    1.800    0.000    3.200 
#    7.200    0.000    0.000    0.000    0.000    0.000 
#    0.000    0.000    0.000    0.000    0.000    0.000 
#
# Total GULP energy -112020.902823 kJ/mol
# GULP energy per Si atom -5601.045141 kJ/mol
# Density = 2.648415 g / cm^3
# Si number density = 26.544568 Si / 1000 Ang^3
#
#
#
# Elastic Constant Matrix: (Units=GPa)
#
#
# Indices 1 2 3 4 5 6 
#
# 1 131.2846 19.5246 10.2314 0.0000 10.2793 0.0000
# 2 19.5246 87.9060 18.4298 0.0000 -4.3356 0.0000
# 3 10.2314 18.4298 57.3442 0.0000 9.7698 0.0000
# 4 0.0000 0.0000 0.0000 41.2375 0.0000 6.7345
# 5 10.2793 -4.3356 9.7698 0.0000 40.3106 0.0000
# 6 0.0000 0.0000 0.0000 6.7345 0.0000 29.4628
#
#
#
# Elastic Compliance Matrix: (Units=1/GPa)
#
#
# Indices 1 2 3 4 5 6 
#
# 1 0.008091 -0.001797 -0.000502 0.000000 -0.002135 0.000000
# 2 -0.001797 0.012816 -0.004288 0.000000 0.002876 0.000000
# 3 -0.000502 -0.004288 0.019780 0.000000 -0.005127 0.000000
# 4 0.000000 0.000000 0.000000 0.025190 0.000000 -0.005758
# 5 -0.002135 0.002876 -0.005127 0.000000 0.026904 0.000000
# 6 0.000000 0.000000 0.000000 -0.005758 0.000000 0.035257
#
#
# Mechanical properties :
#
#
# Convention : Reuss Voigt Hill
#
# Bulk Modulus (GPa) = 36.34878 41.43405 38.89142
# Shear Modulus (GPa) = 33.24853 37.42546 35.33700
#
# Velocity S-wave (km/s) = 3.54299 3.75895 3.65256
# Velocity P-wave (km/s) = 5.51908 5.87220 5.69837
#
# Compressibility (1/GPa) = 0.02751124
#
# Stress axis : x y z
#
# Youngs Moduli (GPa) = 123.60077 78.02876 50.55647
#
# Poissons Ratio (x) = 0.14021 0.02540
# Poissons Ratio (y) = 0.22210 0.21680
# Poissons Ratio (z) = 0.06209 0.33460
#
# Static dielectric constant tensor:
#      x y z
#    x 2.124760 0.000000 0.045790 
#    y 0.000000 2.144630 0.000000 
#    z 0.045790 0.000000 2.027640 
# 
# From -- ./inp_files/23397.got.cif
#   From: 2010.05.17/outbox.cif.g08.bks.cpg/sg14_12_cif.got.tgz:23397.got - 2010.06.03 17:49:19.
