data_PCOD9244949
_publ_section_title
;
Structure prediction by ZEFSAII (Michael W. Deem and Ramdas Pophale) SiO2 
 PCOD9244949
Probable space group: P 21/C
;
_chemical_formula_sum "Si O2"
_cell_formula_units_Z 28
_cell_length_a 7.025515
_cell_length_b 11.860555
_cell_length_c 19.983091
_cell_angle_alpha 90.000000
_cell_angle_beta 138.572907
_cell_angle_gamma 90.000000
_cell_volume 1101.754883
_symmetry_space_group_name_H-M "P 21/C"
_symmetry_group_IT_number 14
_symmetry_cell_setting 'monoclinic'
loop_
_space_group_symop_operation_xyz
x,y,z
-x,1/2+y,1/2-z
-x,-y,-z
x,1/2-y,1/2+z
loop_
_atom_site_type_symbol
_atom_site_label
_atom_site_fract_x
_atom_site_fract_y
_atom_site_fract_z
Si Si1 0.360396 0.347603 0.889984
Si Si2 0.580187 0.039159 0.250442
Si Si3 0.495982 0.104141 0.898646
Si Si4 0.719024 0.196874 0.179346
Si Si5 0.930398 0.828000 0.547117
Si Si6 0.226041 0.406650 0.466437
Si Si7 0.475902 0.569458 0.850046
O O1 0.530483 0.238878 0.907802
O O2 0.301848 0.339660 0.953245
O O3 0.492636 0.464638 0.903835
O O4 0.040963 0.345977 0.773156
O O5 0.534765 0.152534 0.195294
O O6 0.829361 0.085194 0.365371
O O7 0.616866 0.948068 0.200736
O O8 0.384629 0.977919 0.253585
O O9 0.767894 0.027532 0.995010
O O10 0.262170 0.085935 0.896608
O O11 0.538980 0.143944 0.072261
O O12 0.731993 0.330635 0.182004
O O13 0.988646 0.692942 0.566608
O O14 0.783113 0.866547 0.439652
#
# Coordination Sequence:
#
# PCOD9244949 Si02
#       7
#     4   4   4   4   4   4   4
#     4  10  21  35  59  86 116 151 207 241 281 345
#     4  10  21  36  59  85 121 154 192 244 302 350
#     4   9  18  34  58  84 113 154 195 240 287 341
#     4   9  21  36  57  86 115 157 200 240 291 347
#     4   9  19  38  58  87 111 155 198 242 291 353
#     4   8  16  35  60  81 110 155 199 239 288 335
#     4  11  22  36  61  85 122 155 192 245 299 350
#
# _framework density 25.414002
#
# number of rings (size 3 to 8) (size 9 to 14) (size 15 to 20)
#    0.000    2.571    0.000    0.857    8.000    0.000 
#    0.000    0.000    0.000    1.714    0.000    0.000 
#    0.000    0.000    0.000    0.000    0.000    0.000 
#
# Total GULP energy -156198.639731 kJ/mol
# GULP energy per Si atom -5578.522848 kJ/mol
# Density = 2.535616 g / cm^3
# Si number density = 25.414002 Si / 1000 Ang^3
#
#
#
# Elastic Constant Matrix: (Units=GPa)
#
#
# Indices 1 2 3 4 5 6 
#
# 1 52.0883 16.6569 4.5811 0.0000 -8.3667 0.0000
# 2 16.6569 178.6053 6.1475 0.0000 -3.0152 0.0000
# 3 4.5811 6.1475 73.8537 0.0000 -7.4466 0.0000
# 4 0.0000 0.0000 0.0000 41.7054 0.0000 -7.0299
# 5 -8.3667 -3.0152 -7.4466 0.0000 18.6336 0.0000
# 6 0.0000 0.0000 0.0000 -7.0299 0.0000 30.5260
#
#
#
# Elastic Compliance Matrix: (Units=1/GPa)
#
#
# Indices 1 2 3 4 5 6 
#
# 1 0.021273 -0.001821 -0.000244 0.000000 0.009160 0.000000
# 2 -0.001821 0.005781 -0.000371 0.000000 -0.000031 0.000000
# 3 -0.000244 -0.000371 0.014139 0.000000 0.005481 0.000000
# 4 0.000000 0.000000 0.000000 0.024946 0.000000 0.005745
# 5 0.009160 -0.000031 0.005481 0.000000 0.059965 0.000000
# 6 0.000000 0.000000 0.000000 0.005745 0.000000 0.034082
#
#
# Mechanical properties :
#
#
# Convention : Reuss Voigt Hill
#
# Bulk Modulus (GPa) = 27.53319 39.92425 33.72872
# Shear Modulus (GPa) = 28.22216 36.65044 32.43630
#
# Velocity S-wave (km/s) = 3.33603 3.80167 3.57643
# Velocity P-wave (km/s) = 5.06914 5.91725 5.50954
#
# Compressibility (1/GPa) = 0.03631981
#
# Stress axis : x y z
#
# Youngs Moduli (GPa) = 47.00745 172.97977 70.72656
#
# Poissons Ratio (x) = 0.31498 0.01729
# Poissons Ratio (y) = 0.08560 0.02626
# Poissons Ratio (z) = 0.01149 0.06423
#
# Static dielectric constant tensor:
#      x y z
#    x 2.033650 0.000000 0.003730 
#    y 0.000000 2.056010 0.000000 
#    z 0.003730 0.000000 2.022320 
# 
# From -- ./inp_files/72296.got.cif
#   From: 2010.05.17/outbox.cif.g08.bks.cpg/sg14_37_cif.got.tgz:72296.got - 2010.06.03 17:49:19.
