data_PCOD9244199
_publ_section_title
;
Structure prediction by ZEFSAII (Michael W. Deem and Ramdas Pophale) SiO2 
 PCOD9244199
Probable space group: P 21/C
;
_chemical_formula_sum "Si O2"
_cell_formula_units_Z 32
_cell_length_a 29.771537
_cell_length_b 11.232594
_cell_length_c 9.348270
_cell_angle_alpha 90.000000
_cell_angle_beta 150.822441
_cell_angle_gamma 90.000000
_cell_volume 1524.063196
_symmetry_space_group_name_H-M "P 21/C"
_symmetry_group_IT_number 14
_symmetry_cell_setting 'monoclinic'
loop_
_space_group_symop_operation_xyz
x,y,z
-x,1/2+y,1/2-z
-x,-y,-z
x,1/2-y,1/2+z
loop_
_atom_site_type_symbol
_atom_site_label
_atom_site_fract_x
_atom_site_fract_y
_atom_site_fract_z
Si Si1 0.315661 0.463295 0.279149
Si Si2 0.859960 0.966315 0.192969
Si Si3 0.546003 0.740291 0.791272
Si Si4 0.289839 0.139688 0.423998
Si Si5 0.814988 0.630321 0.850178
Si Si6 0.981270 0.131297 0.007588
Si Si7 0.455094 0.620295 0.810902
Si Si8 0.939165 0.153429 0.207805
O O1 0.391742 0.356447 0.500388
O O2 0.228389 0.421596 0.127143
O O3 0.359616 0.578340 0.475470
O O4 0.292437 0.463794 0.048204
O O5 0.823954 0.971268 0.254962
O O6 0.959163 0.902930 0.482321
O O7 0.874028 0.082264 0.135809
O O8 0.786047 0.886948 0.905446
O O9 0.514935 0.673935 0.847395
O O10 0.461306 0.785921 0.457815
O O11 0.612232 0.659308 0.877911
O O12 0.253242 0.264073 0.390434
O O13 0.917267 0.678915 0.164104
O O14 0.923179 0.136696 0.993666
O O15 0.942603 0.212002 0.773027
O O16 0.000000 0.000000 0.000000
O O17 0.500000 0.500000 0.000000
#
# Coordination Sequence:
#
# PCOD9244199 Si02
#       8
#     4   4   4   4   4   4   4   4
#     4  10  22  36  64  93 122 160 213 262 328 376
#     4  10  22  37  61  93 132 157 210 276 327 379
#     4  10  20  40  62  93 127 160 213 264 317 388
#     4  11  20  35  65  99 122 160 213 278 321 377
#     4  10  21  37  63  94 125 161 215 276 324 382
#     4  11  25  40  67  90 129 177 221 269 321 392
#     4  10  22  40  62  92 128 167 206 267 324 400
#     4  10  24  41  61  95 128 174 219 264 333 386
#
# _framework density 20.996504000000002
#
# number of rings (size 3 to 8) (size 9 to 14) (size 15 to 20)
#    0.000    1.750    2.500    1.500   12.250    0.500 
#    0.000    0.000    5.500    0.000    0.000    0.000 
#    0.000    0.000    0.000    0.000    0.000    0.000 
#
# Total GULP energy -178571.700440 kJ/mol
# GULP energy per Si atom -5580.365639 kJ/mol
# Density = 2.094871 g / cm^3
# Si number density = 20.996504 Si / 1000 Ang^3
#
#
#
# Elastic Constant Matrix: (Units=GPa)
#
#
# Indices 1 2 3 4 5 6 
#
# 1 92.8498 36.3529 4.8984 0.0000 -30.2742 0.0000
# 2 36.3529 74.6492 -8.6502 0.0000 -14.9540 0.0000
# 3 4.8984 -8.6502 31.2388 0.0000 -15.6346 0.0000
# 4 0.0000 0.0000 0.0000 34.2711 0.0000 -10.3035
# 5 -30.2742 -14.9540 -15.6346 0.0000 30.8811 0.0000
# 6 0.0000 0.0000 0.0000 -10.3035 0.0000 28.5805
#
#
#
# Elastic Compliance Matrix: (Units=1/GPa)
#
#
# Indices 1 2 3 4 5 6 
#
# 1 0.018251 -0.004695 0.004895 0.000000 0.018097 0.000000
# 2 -0.004695 0.019025 0.011132 0.000000 0.010246 0.000000
# 3 0.004895 0.011132 0.052807 0.000000 0.036925 0.000000
# 4 0.000000 0.000000 0.000000 0.032726 0.000000 0.011798
# 5 0.018097 0.010246 0.036925 0.000000 0.073779 0.000000
# 6 0.000000 0.000000 0.000000 0.011798 0.000000 0.039242
#
#
# Mechanical properties :
#
#
# Convention : Reuss Voigt Hill
#
# Bulk Modulus (GPa) = 8.86947 29.32668 19.09807
# Shear Modulus (GPa) = 19.94033 29.82231 24.88132
#
# Velocity S-wave (km/s) = 3.08506 3.77284 3.44615
# Velocity P-wave (km/s) = 4.11383 5.74254 4.99502
#
# Compressibility (1/GPa) = 0.11274631
#
# Stress axis : x y z
#
# Youngs Moduli (GPa) = 54.79233 52.56247 18.93698
#
# Poissons Ratio (x) = 0.24680 -0.09270
# Poissons Ratio (y) = 0.25727 -0.21081
# Poissons Ratio (z) = -0.26822 -0.58513
#
# Static dielectric constant tensor:
#      x y z
#    x 1.742130 0.000000 -0.016400 
#    y 0.000000 1.774560 0.000000 
#    z -0.016400 0.000000 1.790830 
# 
# From -- ./inp_files/18943.got.cif
#   From: 2010.05.17/outbox.cif.g08.bks.cpg/sg14_10_cif.got.tgz:18943.got - 2010.06.03 17:49:19.
