data_PCOD9244294
_publ_section_title
;
Structure prediction by ZEFSAII (Michael W. Deem and Ramdas Pophale) SiO2 
 PCOD9244294
Probable space group: P 21/C
;
_chemical_formula_sum "Si O2"
_cell_formula_units_Z 28
_cell_length_a 12.987380
_cell_length_b 20.557645
_cell_length_c 8.232127
_cell_angle_alpha 90.000000
_cell_angle_beta 29.765813
_cell_angle_gamma 90.000000
_cell_volume 1091.158453
_symmetry_space_group_name_H-M "P 21/C"
_symmetry_group_IT_number 14
_symmetry_cell_setting 'monoclinic'
loop_
_space_group_symop_operation_xyz
x,y,z
-x,1/2+y,1/2-z
-x,-y,-z
x,1/2-y,1/2+z
loop_
_atom_site_type_symbol
_atom_site_label
_atom_site_fract_x
_atom_site_fract_y
_atom_site_fract_z
Si Si1 0.212194 0.813263 0.734332
Si Si2 0.077738 0.570752 0.603757
Si Si3 0.287724 0.453517 0.142527
Si Si4 0.438489 0.283157 0.735392
Si Si5 0.483422 0.604342 0.615582
Si Si6 0.715357 0.023719 0.883903
Si Si7 0.216700 0.321759 0.358063
O O1 0.147058 0.855024 0.981228
O O2 0.332986 0.746810 0.598403
O O3 0.370499 0.858313 0.415312
O O4 0.007236 0.805647 0.907303
O O5 0.227415 0.523073 0.295308
O O6 0.093346 0.544558 0.764876
O O7 0.861344 0.561694 0.806060
O O8 0.235472 0.399247 0.349174
O O9 0.519918 0.451705 0.761778
O O10 0.417303 0.340698 0.635218
O O11 0.277346 0.224976 0.920001
O O12 0.387296 0.306843 0.984911
O O13 0.311123 0.564374 0.746147
O O14 0.649088 0.550481 0.442624
#
# Coordination Sequence:
#
# PCOD9244294 Si02
#       7
#     4   4   4   4   4   4   4
#     4  11  25  45  67  99 131 177 225 273 330 400
#     4  10  22  39  72  96 129 176 219 269 337 397
#     4  10  20  40  66 101 129 161 232 270 318 407
#     4  12  25  46  64  96 133 182 219 277 330 396
#     4  11  25  43  66 100 139 166 227 279 328 393
#     4  11  22  43  68  97 133 177 211 281 339 382
#     4  11  26  42  69  95 132 176 225 273 330 399
#
# _framework density 25.660802
#
# number of rings (size 3 to 8) (size 9 to 14) (size 15 to 20)
#    0.000    1.143    4.286    1.286    4.000    0.000 
#    2.571    5.714    0.000    0.000    0.000    0.000 
#    0.000    0.000    0.000    0.000    0.000    0.000 
#
# Total GULP energy -157008.798996 kJ/mol
# GULP energy per Si atom -5607.457107 kJ/mol
# Density = 2.560240 g / cm^3
# Si number density = 25.660802 Si / 1000 Ang^3
#
#
#
# Elastic Constant Matrix: (Units=GPa)
#
#
# Indices 1 2 3 4 5 6 
#
# 1 102.0446 21.6842 10.3067 0.0000 -9.2847 0.0000
# 2 21.6842 88.6997 13.1886 0.0000 -14.7614 0.0000
# 3 10.3067 13.1886 44.2639 0.0000 -2.1887 0.0000
# 4 0.0000 0.0000 0.0000 29.4225 0.0000 11.2748
# 5 -9.2847 -14.7614 -2.1887 0.0000 28.0081 0.0000
# 6 0.0000 0.0000 0.0000 11.2748 0.0000 26.3046
#
#
#
# Elastic Compliance Matrix: (Units=1/GPa)
#
#
# Indices 1 2 3 4 5 6 
#
# 1 0.010605 -0.001936 -0.001776 0.000000 0.002356 0.000000
# 2 -0.001936 0.013234 -0.003192 0.000000 0.006084 0.000000
# 3 -0.001776 -0.003192 0.023936 0.000000 -0.000400 0.000000
# 4 0.000000 0.000000 0.000000 0.040667 0.000000 -0.017431
# 5 0.002356 0.006084 -0.000400 0.000000 0.039660 0.000000
# 6 0.000000 0.000000 0.000000 -0.017431 0.000000 0.045488
#
#
# Mechanical properties :
#
#
# Convention : Reuss Voigt Hill
#
# Bulk Modulus (GPa) = 29.43936 36.15193 32.79565
# Shear Modulus (GPa) = 25.16092 29.40229 27.28160
#
# Velocity S-wave (km/s) = 3.13472 3.38865 3.26415
# Velocity P-wave (km/s) = 4.95978 5.42490 5.19754
#
# Compressibility (1/GPa) = 0.03396813
#
# Stress axis : x y z
#
# Youngs Moduli (GPa) = 94.29636 75.56079 41.77736
#
# Poissons Ratio (x) = 0.14631 0.07419
# Poissons Ratio (y) = 0.18259 0.13333
# Poissons Ratio (z) = 0.16746 0.24116
#
# Static dielectric constant tensor:
#      x y z
#    x 2.040830 0.000000 -0.005320 
#    y 0.000000 2.019960 0.000000 
#    z -0.005320 0.000000 2.009320 
# 
# From -- ./inp_files/14256.got.cif
#   From: 2010.05.17/outbox.cif.g08.bks.cpg/sg14_8_cif.got.tgz:14256.got - 2010.06.03 17:49:19.
