data_PCOD9244042
_publ_section_title
;
Structure prediction by ZEFSAII (Michael W. Deem and Ramdas Pophale) SiO2 
 PCOD9244042
Probable space group: P 21/C
;
_chemical_formula_sum "Si O2"
_cell_formula_units_Z 32
_cell_length_a 9.182697
_cell_length_b 17.809157
_cell_length_c 21.624234
_cell_angle_alpha 90.000000
_cell_angle_beta 25.789597
_cell_angle_gamma 90.000000
_cell_volume 1538.548232
_symmetry_space_group_name_H-M "P 21/C"
_symmetry_group_IT_number 14
_symmetry_cell_setting 'monoclinic'
loop_
_space_group_symop_operation_xyz
x,y,z
-x,1/2+y,1/2-z
-x,-y,-z
x,1/2-y,1/2+z
loop_
_atom_site_type_symbol
_atom_site_label
_atom_site_fract_x
_atom_site_fract_y
_atom_site_fract_z
Si Si1 0.980233 0.107633 0.239396
Si Si2 0.320657 0.733023 0.074514
Si Si3 0.073731 0.961372 0.268070
Si Si4 0.050769 0.277752 0.599813
Si Si5 0.271831 0.455692 0.969637
Si Si6 0.736168 0.839950 0.314319
Si Si7 0.639369 0.095177 0.653604
Si Si8 0.459125 0.343815 0.346432
O O1 0.927470 0.164690 0.316207
O O2 0.616284 0.076331 0.361436
O O3 0.072020 0.157564 0.144598
O O4 0.176284 0.034480 0.189299
O O5 0.097890 0.806900 0.159492
O O6 0.604647 0.732990 0.018776
O O7 0.533530 0.718467 0.932908
O O8 0.918797 0.983477 0.394763
O O9 0.805003 0.913546 0.330288
O O10 0.363040 0.901768 0.174102
O O11 0.118987 0.313439 0.506837
O O12 0.728894 0.224124 0.731103
O O13 0.352234 0.515772 0.885289
O O14 0.017092 0.396680 0.035089
O O15 0.510400 0.852525 0.341307
O O16 0.418585 0.109722 0.798751
#
# Coordination Sequence:
#
# PCOD9244042 Si02
#       8
#     4   4   4   4   4   4   4   4
#     4  12  21  35  69  98 121 161 217 266 313 366
#     4  12  21  38  62  96 123 163 206 270 311 370
#     4  11  20  36  67  97 122 158 215 268 310 362
#     4  12  22  41  66  92 125 168 218 258 315 379
#     4  10  20  39  64  96 123 168 210 255 318 383
#     4  12  22  40  63  93 132 157 212 268 318 365
#     4  10  23  39  63  89 132 161 208 263 312 375
#     4  11  24  43  64  90 129 176 212 256 315 386
#
# _framework density 20.798826999999999
#
# number of rings (size 3 to 8) (size 9 to 14) (size 15 to 20)
#    0.000    0.750    7.500    1.875    0.000    1.500 
#    0.000    0.625    0.000    0.000    0.000    0.000 
#    0.000    0.000    0.000    0.000    0.000    0.000 
#
# Total GULP energy -178407.129468 kJ/mol
# GULP energy per Si atom -5575.222796 kJ/mol
# Density = 2.075149 g / cm^3
# Si number density = 20.798827 Si / 1000 Ang^3
#
#
#
# Elastic Constant Matrix: (Units=GPa)
#
#
# Indices 1 2 3 4 5 6 
#
# 1 67.7635 13.8286 -15.0779 0.0000 10.4544 0.0000
# 2 13.8286 79.4955 24.5937 0.0000 15.2994 0.0000
# 3 -15.0779 24.5937 41.9639 0.0000 15.4779 0.0000
# 4 0.0000 0.0000 0.0000 25.5703 0.0000 14.3770
# 5 10.4544 15.2994 15.4779 0.0000 20.3193 0.0000
# 6 0.0000 0.0000 0.0000 14.3770 0.0000 26.6335
#
#
#
# Elastic Compliance Matrix: (Units=1/GPa)
#
#
# Indices 1 2 3 4 5 6 
#
# 1 0.024527 -0.006222 0.021397 0.000000 -0.024233 0.000000
# 2 -0.006222 0.017597 -0.012298 0.000000 -0.000681 0.000000
# 3 0.021397 -0.012298 0.054754 0.000000 -0.043457 0.000000
# 4 0.000000 0.000000 0.000000 0.056150 0.000000 -0.030310
# 5 -0.024233 -0.000681 -0.043457 0.000000 0.095297 0.000000
# 6 0.000000 0.000000 0.000000 -0.030310 0.000000 0.053908
#
#
# Mechanical properties :
#
#
# Convention : Reuss Voigt Hill
#
# Bulk Modulus (GPa) = 9.74355 26.21241 17.97798
# Shear Modulus (GPa) = 15.11986 25.56320 20.34153
#
# Velocity S-wave (km/s) = 2.69914 3.50961 3.13071
# Velocity P-wave (km/s) = 3.79587 5.39012 4.66165
#
# Compressibility (1/GPa) = 0.10263203
#
# Stress axis : x y z
#
# Youngs Moduli (GPa) = 40.77196 56.82653 18.26343
#
# Poissons Ratio (x) = 0.35360 -0.39079
# Poissons Ratio (y) = 0.25370 0.22460
# Poissons Ratio (z) = -0.87241 0.69885
#
# Static dielectric constant tensor:
#      x y z
#    x 1.761580 0.000000 0.028940 
#    y 0.000000 1.832830 0.000000 
#    z 0.028940 0.000000 1.747260 
# 
# From -- ./inp_files/66026.got.cif
#   From: 2010.05.17/outbox.cif.g08.bks.cpg/sg14_34_cif.got.tgz:66026.got - 2010.06.03 17:49:19.
