data_PCOD9244081
_publ_section_title
;
Structure prediction by ZEFSAII (Michael W. Deem and Ramdas Pophale) SiO2 
 PCOD9244081
Probable space group: P 21/C
;
_chemical_formula_sum "Si O2"
_cell_formula_units_Z 32
_cell_length_a 16.220612
_cell_length_b 8.047276
_cell_length_c 11.240111
_cell_angle_alpha 90.000000
_cell_angle_beta 57.369316
_cell_angle_gamma 90.000000
_cell_volume 1235.615290
_symmetry_space_group_name_H-M "P 21/C"
_symmetry_group_IT_number 14
_symmetry_cell_setting 'monoclinic'
loop_
_space_group_symop_operation_xyz
x,y,z
-x,1/2+y,1/2-z
-x,-y,-z
x,1/2-y,1/2+z
loop_
_atom_site_type_symbol
_atom_site_label
_atom_site_fract_x
_atom_site_fract_y
_atom_site_fract_z
Si Si1 0.189479 0.509315 0.116175
Si Si2 0.029616 0.680839 0.336403
Si Si3 0.873753 0.855089 0.570807
Si Si4 0.385342 0.848848 0.388417
Si Si5 0.701642 0.608255 0.627164
Si Si6 0.140741 0.511539 0.664603
Si Si7 0.553665 0.636579 0.304864
Si Si8 0.369958 0.112877 0.579483
O O1 0.115894 0.547059 0.281369
O O2 0.264255 0.363567 0.096915
O O3 0.126774 0.463739 0.049731
O O4 0.271388 0.642740 0.010845
O O5 0.979828 0.766158 0.488806
O O6 0.937380 0.607761 0.338985
O O7 0.087702 0.811523 0.209902
O O8 0.784367 0.730739 0.617643
O O9 0.851751 0.958434 0.704416
O O10 0.441341 0.677532 0.363766
O O11 0.407872 0.952154 0.250362
O O12 0.428217 0.983364 0.452092
O O13 0.757857 0.506967 0.484119
O O14 0.661346 0.513039 0.775020
O O15 0.582667 0.717431 0.409396
O O16 0.611671 0.765856 0.171429
#
# Coordination Sequence:
#
# PCOD9244081 Si02
#       8
#     4   4   4   4   4   4   4   4
#     4  10  21  41  65  90 129 174 215 258 328 376
#     4  11  24  40  63  95 125 172 211 265 326 385
#     4  11  22  41  64  93 126 175 206 279 316 381
#     4  10  21  39  66  91 133 164 211 268 315 400
#     4   9  21  36  67  89 120 171 218 254 321 392
#     4  11  25  41  64  94 131 165 221 267 327 383
#     4  10  20  39  66  94 123 172 206 260 333 377
#     4   8  20  39  62  87 126 171 205 260 319 384
#
# _framework density 25.898029999999999
#
# number of rings (size 3 to 8) (size 9 to 14) (size 15 to 20)
#    1.500    0.500    2.500    0.750    5.250    2.000 
#    0.000    3.125    0.000    0.000    0.000    0.000 
#    0.000    0.000    0.000    0.000    0.000    0.000 
#
# Total GULP energy -178557.426103 kJ/mol
# GULP energy per Si atom -5579.919566 kJ/mol
# Density = 2.583908 g / cm^3
# Si number density = 25.898030 Si / 1000 Ang^3
#
#
#
# Elastic Constant Matrix: (Units=GPa)
#
#
# Indices 1 2 3 4 5 6 
#
# 1 80.7930 13.2969 22.6501 0.0000 -21.6368 0.0000
# 2 13.2969 43.2357 0.4957 0.0000 -5.2799 0.0000
# 3 22.6501 0.4957 88.0609 0.0000 -23.0613 0.0000
# 4 0.0000 0.0000 0.0000 25.0416 0.0000 -15.4781
# 5 -21.6368 -5.2799 -23.0613 0.0000 45.9444 0.0000
# 6 0.0000 0.0000 0.0000 -15.4781 0.0000 27.1605
#
#
#
# Elastic Compliance Matrix: (Units=1/GPa)
#
#
# Indices 1 2 3 4 5 6 
#
# 1 0.015182 -0.003974 -0.002452 0.000000 0.005462 0.000000
# 2 -0.003974 0.024532 0.001304 0.000000 0.001602 0.000000
# 3 -0.002452 0.001304 0.013489 0.000000 0.005766 0.000000
# 4 0.000000 0.000000 0.000000 0.061648 0.000000 0.035132
# 5 0.005462 0.001602 0.005766 0.000000 0.027416 0.000000
# 6 0.000000 0.000000 0.000000 0.035132 0.000000 0.056839
#
#
# Mechanical properties :
#
#
# Convention : Reuss Voigt Hill
#
# Bulk Modulus (GPa) = 23.27870 31.66389 27.47129
# Shear Modulus (GPa) = 22.35442 31.33909 26.84676
#
# Velocity S-wave (km/s) = 2.94116 3.48242 3.22317
# Velocity P-wave (km/s) = 4.53233 5.33128 4.94796
#
# Compressibility (1/GPa) = 0.04295773
#
# Stress axis : x y z
#
# Youngs Moduli (GPa) = 65.86958 40.76331 74.13410
#
# Poissons Ratio (x) = 0.16199 0.18178
# Poissons Ratio (y) = 0.26176 -0.09664
# Poissons Ratio (z) = 0.16152 -0.05314
#
# Static dielectric constant tensor:
#      x y z
#    x 2.048200 0.000000 0.045450 
#    y 0.000000 2.168280 0.000000 
#    z 0.045450 0.000000 2.091540 
# 
# From -- ./inp_files/34964.got.cif
#   From: 2010.05.17/outbox.cif.g08.bks.cpg/sg14_18_cif.got.tgz:34964.got - 2010.06.03 17:49:19.
