data_PCOD9244134
_publ_section_title
;
Structure prediction by ZEFSAII (Michael W. Deem and Ramdas Pophale) SiO2 
 PCOD9244134
Probable space group: P 21/C
;
_chemical_formula_sum "Si O2"
_cell_formula_units_Z 26
_cell_length_a 14.197129
_cell_length_b 13.650241
_cell_length_c 9.226574
_cell_angle_alpha 90.000000
_cell_angle_beta 35.968909
_cell_angle_gamma 90.000000
_cell_volume 1050.208311
_symmetry_space_group_name_H-M "P 21/C"
_symmetry_group_IT_number 14
_symmetry_cell_setting 'monoclinic'
loop_
_space_group_symop_operation_xyz
x,y,z
-x,1/2+y,1/2-z
-x,-y,-z
x,1/2-y,1/2+z
loop_
_atom_site_type_symbol
_atom_site_label
_atom_site_fract_x
_atom_site_fract_y
_atom_site_fract_z
Si Si1 0.927938 0.842229 0.846176
Si Si2 0.590488 0.249900 0.413687
Si Si3 0.000000 0.500000 0.500000
Si Si4 0.116996 0.646307 0.608771
Si Si5 0.802151 0.066936 0.691446
Si Si6 0.791143 0.558682 0.945600
Si Si7 0.378273 0.246298 0.921569
O O1 0.013901 0.740403 0.790703
O O2 0.045863 0.886236 0.578436
O O3 0.907650 0.916175 0.002868
O O4 0.767041 0.816536 0.959021
O O5 0.657735 0.359303 0.341991
O O6 0.539974 0.217089 0.636084
O O7 0.425783 0.254297 0.528893
O O8 0.727299 0.185292 0.167090
O O9 0.184928 0.530599 0.192085
O O10 0.164100 0.574244 0.680358
O O11 0.983927 0.590451 0.674577
O O12 0.775046 0.968825 0.633369
O O13 0.671207 0.642384 0.053866
#
# Coordination Sequence:
#
# PCOD9244134 Si02
#       7
#     4   4   2   4   4   4   4
#     4   9  22  35  67  85 124 161 219 265 315 379
#     4  11  23  39  62  89 134 166 211 256 333 386
#     4  10  20  40  58 100 122 156 208 280 314 362
#     4  10  21  39  63  90 121 171 215 263 318 384
#     4  10  21  41  61  93 120 170 212 276 310 385
#     4  10  23  38  67  91 128 163 223 269 318 380
#     4  11  23  41  63  97 125 180 207 266 325 401
#
# _framework density 24.756993999999999
#
# number of rings (size 3 to 8) (size 9 to 14) (size 15 to 20)
#    0.000    1.846    1.538    1.385   10.769    1.846 
#    0.000    0.000    0.000    8.308    0.000    0.000 
#    0.000    0.000    0.000    0.000    0.000    0.000 
#
# Total GULP energy -145105.641831 kJ/mol
# GULP energy per Si atom -5580.986224 kJ/mol
# Density = 2.470065 g / cm^3
# Si number density = 24.756994 Si / 1000 Ang^3
#
#
#
# Elastic Constant Matrix: (Units=GPa)
#
#
# Indices 1 2 3 4 5 6 
#
# 1 104.4487 30.9282 7.8759 0.0000 9.0626 0.0000
# 2 30.9282 62.9951 6.6205 0.0000 -6.3029 0.0000
# 3 7.8759 6.6205 78.7679 0.0000 4.7773 0.0000
# 4 0.0000 0.0000 0.0000 36.3894 0.0000 1.6461
# 5 9.0626 -6.3029 4.7773 0.0000 41.5252 0.0000
# 6 0.0000 0.0000 0.0000 1.6461 0.0000 37.4862
#
#
#
# Elastic Compliance Matrix: (Units=1/GPa)
#
#
# Indices 1 2 3 4 5 6 
#
# 1 0.011691 -0.006034 -0.000455 0.000000 -0.003415 0.000000
# 2 -0.006034 0.019414 -0.001296 0.000000 0.004413 0.000000
# 3 -0.000455 -0.001296 0.012946 0.000000 -0.001587 0.000000
# 4 0.000000 0.000000 0.000000 0.027535 0.000000 -0.001209
# 5 -0.003415 0.004413 -0.001587 0.000000 0.025679 0.000000
# 6 0.000000 0.000000 0.000000 -0.001209 0.000000 0.026730
#
#
# Mechanical properties :
#
#
# Convention : Reuss Voigt Hill
#
# Bulk Modulus (GPa) = 35.10933 37.45121 36.28027
# Shear Modulus (GPa) = 33.54355 36.46595 35.00475
#
# Velocity S-wave (km/s) = 3.68491 3.84207 3.76431
# Velocity P-wave (km/s) = 5.68481 5.90275 5.79480
#
# Compressibility (1/GPa) = 0.02848246
#
# Stress axis : x y z
#
# Youngs Moduli (GPa) = 85.53310 51.50810 77.24286
#
# Poissons Ratio (x) = 0.31080 0.03512
# Poissons Ratio (y) = 0.51610 0.10012
# Poissons Ratio (z) = 0.03889 0.06676
#
# Static dielectric constant tensor:
#      x y z
#    x 1.973690 0.000000 0.039110 
#    y 0.000000 2.029110 0.000000 
#    z 0.039110 0.000000 2.033930 
# 
# From -- ./inp_files/16169.got.cif
#   From: 2010.05.17/outbox.cif.g08.bks.cpg/sg14_9_cif.got.tgz:16169.got - 2010.06.03 17:49:19.
