data_PCOD9244428
_publ_section_title
;
Structure prediction by ZEFSAII (Michael W. Deem and Ramdas Pophale) SiO2 
 PCOD9244428
Probable space group: P 21/C
;
_chemical_formula_sum "Si O2"
_cell_formula_units_Z 24
_cell_length_a 12.674707
_cell_length_b 9.009527
_cell_length_c 10.063536
_cell_angle_alpha 90.000000
_cell_angle_beta 90.476589
_cell_angle_gamma 90.000000
_cell_volume 1149.146767
_symmetry_space_group_name_H-M "P 21/C"
_symmetry_group_IT_number 14
_symmetry_cell_setting 'monoclinic'
loop_
_space_group_symop_operation_xyz
x,y,z
-x,1/2+y,1/2-z
-x,-y,-z
x,1/2-y,1/2+z
loop_
_atom_site_type_symbol
_atom_site_label
_atom_site_fract_x
_atom_site_fract_y
_atom_site_fract_z
Si Si1 0.547273 0.091365 0.120307
Si Si2 0.861409 0.474116 0.241198
Si Si3 0.783812 0.023275 0.440625
Si Si4 0.072329 0.632549 0.288814
Si Si5 0.762564 0.133390 0.984774
Si Si6 0.441420 0.088947 0.614733
O O1 0.670817 0.102728 0.088156
O O2 0.490213 0.248752 0.125723
O O3 0.533666 0.000634 0.252861
O O4 0.500000 0.000000 0.000000
O O5 0.909096 0.306262 0.243963
O O6 0.768818 0.463153 0.350514
O O7 0.950813 0.588043 0.287265
O O8 0.827223 0.506911 0.089553
O O9 0.871213 0.032003 0.324954
O O10 0.745295 0.194971 0.445003
O O11 0.684625 0.918764 0.409392
O O12 0.129315 0.612326 0.431483
O O13 0.500000 0.000000 0.500000
#
# Coordination Sequence:
#
# PCOD9244428 Si02
#       6
#     4   4   4   4   4   4
#     4  12  27  46  69 101 135 178 231 279 344 411
#     4  10  22  38  67  92 131 177 221 271 337 393
#     4  10  21  39  66  93 130 176 218 275 336 393
#     4  10  20  41  61  92 130 173 222 276 330 397
#     4  10  21  41  65  92 133 177 217 270 342 400
#     4  12  25  44  72  98 137 179 230 281 337 410
#
# _framework density 20.885061
#
# number of rings (size 3 to 8) (size 9 to 14) (size 15 to 20)
#    0.000    1.333    3.333    2.000    2.333    0.000 
#    6.000    0.000    0.000    0.000    0.000    0.000 
#    0.000    0.000    0.000    0.000    0.000    0.000 
#
# Total GULP energy -134156.241513 kJ/mol
# GULP energy per Si atom -5589.843396 kJ/mol
# Density = 2.083753 g / cm^3
# Si number density = 20.885061 Si / 1000 Ang^3
#
#
#
# Elastic Constant Matrix: (Units=GPa)
#
#
# Indices 1 2 3 4 5 6 
#
# 1 70.1724 43.8463 26.9061 0.0000 8.8272 0.0000
# 2 43.8463 82.1096 40.7465 0.0000 4.9866 0.0000
# 3 26.9061 40.7465 120.7693 0.0000 0.1308 0.0000
# 4 0.0000 0.0000 0.0000 30.4338 0.0000 3.7848
# 5 8.8272 4.9866 0.1308 0.0000 34.6326 0.0000
# 6 0.0000 0.0000 0.0000 3.7848 0.0000 26.0409
#
#
#
# Elastic Compliance Matrix: (Units=1/GPa)
#
#
# Indices 1 2 3 4 5 6 
#
# 1 0.022054 -0.010924 -0.001223 0.000000 -0.004044 0.000000
# 2 -0.010924 0.020192 -0.004379 0.000000 -0.000106 0.000000
# 3 -0.001223 -0.004379 0.010029 0.000000 0.000904 0.000000
# 4 0.000000 0.000000 0.000000 0.033463 0.000000 -0.004864
# 5 -0.004044 -0.000106 0.000904 0.000000 0.029917 0.000000
# 6 0.000000 0.000000 0.000000 -0.004864 0.000000 0.039108
#
#
# Mechanical properties :
#
#
# Convention : Reuss Voigt Hill
#
# Bulk Modulus (GPa) = 52.02181 55.11657 53.56919
# Shear Modulus (GPa) = 25.74360 28.99160 27.36760
#
# Velocity S-wave (km/s) = 3.51470 3.72983 3.62386
# Velocity P-wave (km/s) = 6.43688 6.70795 6.57381
#
# Compressibility (1/GPa) = 0.01922271
#
# Stress axis : x y z
#
# Youngs Moduli (GPa) = 45.34282 49.52542 99.70984
#
# Poissons Ratio (x) = 0.54103 0.12198
# Poissons Ratio (y) = 0.49534 0.43659
# Poissons Ratio (z) = 0.05547 0.21685
#
# Static dielectric constant tensor:
#      x y z
#    x 1.978350 0.000000 -0.024660 
#    y 0.000000 1.723320 0.000000 
#    z -0.024660 0.000000 1.735370 
# 
# From -- ./inp_files/15008.got.cif
#   From: 2010.05.17/outbox.cif.g08.bks.cpg/sg14_8_cif.got.tgz:15008.got - 2010.06.03 17:49:19.
