data_PCOD9244558
_publ_section_title
;
Structure prediction by ZEFSAII (Michael W. Deem and Ramdas Pophale) SiO2 
 PCOD9244558
Probable space group: P 21/C
;
_chemical_formula_sum "Si O2"
_cell_formula_units_Z 32
_cell_length_a 9.397716
_cell_length_b 24.977865
_cell_length_c 6.229238
_cell_angle_alpha 90.000000
_cell_angle_beta 104.581548
_cell_angle_gamma 90.000000
_cell_volume 1415.121793
_symmetry_space_group_name_H-M "P 21/C"
_symmetry_group_IT_number 14
_symmetry_cell_setting 'monoclinic'
loop_
_space_group_symop_operation_xyz
x,y,z
-x,1/2+y,1/2-z
-x,-y,-z
x,1/2-y,1/2+z
loop_
_atom_site_type_symbol
_atom_site_label
_atom_site_fract_x
_atom_site_fract_y
_atom_site_fract_z
Si Si1 0.170880 0.004984 0.522065
Si Si2 0.915056 0.765350 0.694653
Si Si3 0.188173 0.892738 0.695458
Si Si4 0.617984 0.005677 0.737014
Si Si5 0.939096 0.626183 0.385061
Si Si6 0.595055 0.130047 0.863063
Si Si7 0.683664 0.583250 0.587661
Si Si8 0.837010 0.315553 0.208012
O O1 0.241201 0.948080 0.616256
O O2 0.222669 0.009980 0.298290
O O3 0.238743 0.052109 0.688749
O O4 0.000000 0.000000 0.500000
O O5 0.862771 0.750948 0.426118
O O6 0.084702 0.742508 0.772313
O O7 0.889911 0.828364 0.700700
O O8 0.147630 0.849177 0.503302
O O9 0.313016 0.865903 0.884713
O O10 0.048398 0.909908 0.787527
O O11 0.500000 0.000000 0.500000
O O12 0.621412 0.068229 0.798704
O O13 0.596052 0.962283 0.917576
O O14 0.806372 0.606422 0.477217
O O15 0.054407 0.654081 0.588765
O O16 0.423715 0.128615 0.857727
O O17 0.671507 0.172747 0.731825
#
# Coordination Sequence:
#
# PCOD9244558 Si02
#       8
#     4   4   4   4   4   4   4   4
#     4  12  24  35  59  88 130 176 222 271 324 388
#     4  10  20  41  71 100 125 166 221 287 356 419
#     4  11  20  38  59  88 121 168 222 271 321 396
#     4  12  23  40  58  86 133 191 224 266 331 402
#     4  10  23  39  63  94 125 166 216 281 354 409
#     4  11  23  38  61  87 127 177 224 267 323 401
#     4  12  25  40  57  93 140 176 223 274 332 405
#     4  10  21  39  67  94 119 161 225 283 334 410
#
# _framework density 22.612895000000002
#
# number of rings (size 3 to 8) (size 9 to 14) (size 15 to 20)
#    0.000    1.000    5.000    2.625    1.750    1.000 
#    0.000    0.000    0.000    9.000    0.000    0.000 
#    0.000    0.000    0.000    0.000    0.000    0.000 
#
# Total GULP energy -178336.795926 kJ/mol
# GULP energy per Si atom -5573.024873 kJ/mol
# Density = 2.256143 g / cm^3
# Si number density = 22.612895 Si / 1000 Ang^3
#
#
#
# Elastic Constant Matrix: (Units=GPa)
#
#
# Indices 1 2 3 4 5 6 
#
# 1 101.5905 2.3068 10.8759 0.0000 -31.4534 0.0000
# 2 2.3068 43.9552 0.4466 0.0000 -14.5247 0.0000
# 3 10.8759 0.4466 73.0702 0.0000 -17.3036 0.0000
# 4 0.0000 0.0000 0.0000 41.0059 0.0000 -11.4081
# 5 -31.4534 -14.5247 -17.3036 0.0000 39.6122 0.0000
# 6 0.0000 0.0000 0.0000 -11.4081 0.0000 24.3390
#
#
#
# Elastic Compliance Matrix: (Units=1/GPa)
#
#
# Indices 1 2 3 4 5 6 
#
# 1 0.013490 0.003358 0.000892 0.000000 0.012332 0.000000
# 2 0.003358 0.027084 0.002585 0.000000 0.013727 0.000000
# 3 0.000892 0.002585 0.015536 0.000000 0.008443 0.000000
# 4 0.000000 0.000000 0.000000 0.028044 0.000000 0.013145
# 5 0.012332 0.013727 0.008443 0.000000 0.043758 0.000000
# 6 0.000000 0.000000 0.000000 0.013145 0.000000 0.047247
#
#
# Mechanical properties :
#
#
# Convention : Reuss Voigt Hill
#
# Bulk Modulus (GPa) = 14.33058 27.31939 20.82499
# Shear Modulus (GPa) = 27.06377 34.65719 30.86048
#
# Velocity S-wave (km/s) = 3.46328 3.91913 3.69823
# Velocity P-wave (km/s) = 4.72689 5.70850 5.24073
#
# Compressibility (1/GPa) = 0.06978083
#
# Stress axis : x y z
#
# Youngs Moduli (GPa) = 74.12934 36.92242 64.36569
#
# Poissons Ratio (x) = -0.12399 -0.05742
# Poissons Ratio (y) = -0.24894 -0.16640
# Poissons Ratio (z) = -0.06613 -0.09545
#
# Static dielectric constant tensor:
#      x y z
#    x 1.915610 0.000000 -0.046530 
#    y 0.000000 1.896080 0.000000 
#    z -0.046530 0.000000 1.887580 
# 
# From -- ./inp_files/2234.got.cif
#   From: 2010.05.17/outbox.cif.g08.bks.cpg/sg14_2_cif.got.tgz:2234.got - 2010.06.03 17:49:19.
