data_PCOD9244492
_publ_section_title
;
Structure prediction by ZEFSAII (Michael W. Deem and Ramdas Pophale) SiO2 
 PCOD9244492
Probable space group: P 21/C
;
_chemical_formula_sum "Si O2"
_cell_formula_units_Z 28
_cell_length_a 14.340297
_cell_length_b 9.679359
_cell_length_c 16.352580
_cell_angle_alpha 90.000000
_cell_angle_beta 29.287514
_cell_angle_gamma 90.000000
_cell_volume 1110.377685
_symmetry_space_group_name_H-M "P 21/C"
_symmetry_group_IT_number 14
_symmetry_cell_setting 'monoclinic'
loop_
_space_group_symop_operation_xyz
x,y,z
-x,1/2+y,1/2-z
-x,-y,-z
x,1/2-y,1/2+z
loop_
_atom_site_type_symbol
_atom_site_label
_atom_site_fract_x
_atom_site_fract_y
_atom_site_fract_z
Si Si1 0.684671 0.238083 0.037819
Si Si2 0.867841 0.462073 0.181148
Si Si3 0.363955 0.289028 0.662753
Si Si4 0.867753 0.751107 0.006585
Si Si5 0.362956 0.427580 0.039810
Si Si6 0.551418 0.974506 0.700496
Si Si7 0.009858 0.408381 0.738504
O O1 0.570554 0.243385 0.039952
O O2 0.623332 0.090124 0.117227
O O3 0.600609 0.362935 0.159344
O O4 0.901924 0.273173 0.858000
O O5 0.678086 0.547212 0.305580
O O6 0.914450 0.300305 0.149727
O O7 0.914076 0.515339 0.238334
O O8 0.000000 0.500000 0.000000
O O9 0.328828 0.223620 0.602082
O O10 0.220952 0.213584 0.837326
O O11 0.863901 0.853817 0.933388
O O12 0.735727 0.617440 0.085208
O O13 0.164804 0.502982 0.167846
O O14 0.500000 0.500000 0.000000
O O15 0.482002 0.429763 0.866378
#
# Coordination Sequence:
#
# PCOD9244492 Si02
#       7
#     4   4   4   4   4   4   4
#     4  10  21  42  66  93 127 170 219 268 326 387
#     4  10  21  40  63  89 130 173 206 260 332 391
#     4  10  21  40  67  92 126 171 216 269 325 390
#     4  10  21  41  64  93 129 171 212 261 336 397
#     4  11  20  40  64  91 130 163 212 274 319 372
#     4  10  20  41  66  89 131 169 213 267 323 386
#     4  11  22  41  66  94 131 171 214 268 330 392
#
# _framework density 25.216643999999999
#
# number of rings (size 3 to 8) (size 9 to 14) (size 15 to 20)
#    0.000    1.714    5.714    0.857    0.000    0.571 
#   12.857    0.714    0.000    0.000    0.000    0.000 
#    0.000    0.000    0.000    0.000    0.000    0.000 
#
# Total GULP energy -156225.477594 kJ/mol
# GULP energy per Si atom -5579.481343 kJ/mol
# Density = 2.515925 g / cm^3
# Si number density = 25.216644 Si / 1000 Ang^3
#
#
#
# Elastic Constant Matrix: (Units=GPa)
#
#
# Indices 1 2 3 4 5 6 
#
# 1 101.2902 12.8109 -0.8726 0.0000 14.9455 0.0000
# 2 12.8109 85.3840 32.4516 0.0000 -5.4968 0.0000
# 3 -0.8726 32.4516 54.6561 0.0000 9.1898 0.0000
# 4 0.0000 0.0000 0.0000 45.9158 0.0000 4.3843
# 5 14.9455 -5.4968 9.1898 0.0000 35.1518 0.0000
# 6 0.0000 0.0000 0.0000 4.3843 0.0000 38.7382
#
#
#
# Elastic Compliance Matrix: (Units=1/GPa)
#
#
# Indices 1 2 3 4 5 6 
#
# 1 0.011214 -0.003272 0.003148 0.000000 -0.006102 0.000000
# 2 -0.003272 0.016943 -0.011287 0.000000 0.006991 0.000000
# 3 0.003148 -0.011287 0.026746 0.000000 -0.010095 0.000000
# 4 0.000000 0.000000 0.000000 0.022017 0.000000 -0.002492
# 5 -0.006102 0.006991 -0.010095 0.000000 0.034775 0.000000
# 6 0.000000 0.000000 0.000000 -0.002492 0.000000 0.026096
#
#
# Mechanical properties :
#
#
# Convention : Reuss Voigt Hill
#
# Bulk Modulus (GPa) = 31.17252 36.67888 33.92570
# Shear Modulus (GPa) = 29.18745 37.09052 33.13899
#
# Velocity S-wave (km/s) = 3.40585 3.83936 3.62908
# Velocity P-wave (km/s) = 5.27780 5.85075 5.57164
#
# Compressibility (1/GPa) = 0.03207954
#
# Stress axis : x y z
#
# Youngs Moduli (GPa) = 89.17473 59.02258 37.38924
#
# Poissons Ratio (x) = 0.19310 -0.11769
# Poissons Ratio (y) = 0.29175 0.42202
# Poissons Ratio (z) = -0.28069 0.66621
#
# Static dielectric constant tensor:
#      x y z
#    x 2.016980 0.000000 -0.009490 
#    y 0.000000 2.097780 0.000000 
#    z -0.009490 0.000000 2.106000 
# 
# From -- ./inp_files/59259.got.cif
#   From: 2010.05.17/outbox.cif.g08.bks.cpg/sg14_30_cif.got.tgz:59259.got - 2010.06.03 17:49:19.
