data_PCOD9244588
_publ_section_title
;
Structure prediction by ZEFSAII (Michael W. Deem and Ramdas Pophale) SiO2 
 PCOD9244588
Probable space group: P 21/C
;
_chemical_formula_sum "Si O2"
_cell_formula_units_Z 28
_cell_length_a 20.845522
_cell_length_b 5.168645
_cell_length_c 14.466242
_cell_angle_alpha 90.000000
_cell_angle_beta 47.032304
_cell_angle_gamma 90.000000
_cell_volume 1140.514670
_symmetry_space_group_name_H-M "P 21/C"
_symmetry_group_IT_number 14
_symmetry_cell_setting 'monoclinic'
loop_
_space_group_symop_operation_xyz
x,y,z
-x,1/2+y,1/2-z
-x,-y,-z
x,1/2-y,1/2+z
loop_
_atom_site_type_symbol
_atom_site_label
_atom_site_fract_x
_atom_site_fract_y
_atom_site_fract_z
Si Si1 0.174350 0.752147 0.650592
Si Si2 0.469305 0.052046 0.633987
Si Si3 0.642868 0.047619 0.735151
Si Si4 0.341105 0.029350 0.482723
Si Si5 0.071327 0.331448 0.378754
Si Si6 0.035663 0.907056 0.667265
Si Si7 0.765144 0.875967 0.771682
O O1 0.132844 0.792358 0.590938
O O2 0.169616 0.492266 0.713693
O O3 0.278747 0.783515 0.556029
O O4 0.122659 0.972852 0.757381
O O5 0.398033 0.834869 0.733689
O O6 0.556314 0.020024 0.609820
O O7 0.500000 0.000000 0.500000
O O8 0.433899 0.343043 0.667575
O O9 0.678907 0.917468 0.605099
O O10 0.711801 0.044736 0.751228
O O11 0.305666 0.214088 0.599026
O O12 0.154984 0.260928 0.361694
O O13 0.000000 0.500000 0.500000
O O14 0.005019 0.132128 0.392670
O O15 0.980014 0.701733 0.785777
#
# Coordination Sequence:
#
# PCOD9244588 Si02
#       7
#     4   4   4   4   4   4   4
#     4  10  23  42  69  95 139 182 230 298 353 415
#     4  12  25  49  74 104 146 190 232 292 357 428
#     4  12  28  45  73 109 144 191 241 290 361 432
#     4  11  26  44  72 103 143 187 240 294 352 429
#     4  10  23  42  65  96 134 182 234 293 352 430
#     4  10  20  42  63  90 125 173 222 270 343 406
#     4  11  24  45  68 103 143 184 239 301 361 415
#
# _framework density 24.550319999999999
#
# number of rings (size 3 to 8) (size 9 to 14) (size 15 to 20)
#    0.000    1.143    2.857    2.143    6.000    2.857 
#    5.143    0.000    0.000    0.000    0.000    0.000 
#    0.000    0.000    0.000    0.000    0.000    0.000 
#
# Total GULP energy -156002.111196 kJ/mol
# GULP energy per Si atom -5571.503971 kJ/mol
# Density = 2.449444 g / cm^3
# Si number density = 24.550320 Si / 1000 Ang^3
#
#
#
# Elastic Constant Matrix: (Units=GPa)
#
#
# Indices 1 2 3 4 5 6 
#
# 1 151.1164 21.5470 22.3370 0.0000 -24.6485 0.0000
# 2 21.5470 58.8152 -13.8361 0.0000 -11.8040 0.0000
# 3 22.3370 -13.8361 43.9767 0.0000 1.5589 0.0000
# 4 0.0000 0.0000 0.0000 16.7560 0.0000 -3.4931
# 5 -24.6485 -11.8040 1.5589 0.0000 38.1722 0.0000
# 6 0.0000 0.0000 0.0000 -3.4931 0.0000 32.3368
#
#
#
# Elastic Compliance Matrix: (Units=1/GPa)
#
#
# Indices 1 2 3 4 5 6 
#
# 1 0.008761 -0.003604 -0.005753 0.000000 0.004778 0.000000
# 2 -0.003604 0.021051 0.008317 0.000000 0.003843 0.000000
# 3 -0.005753 0.008317 0.028360 0.000000 -0.002301 0.000000
# 4 0.000000 0.000000 0.000000 0.061055 0.000000 0.006595
# 5 0.004778 0.003843 -0.002301 0.000000 0.030564 0.000000
# 6 0.000000 0.000000 0.000000 0.006595 0.000000 0.031637
#
#
# Mechanical properties :
#
#
# Convention : Reuss Voigt Hill
#
# Bulk Modulus (GPa) = 17.82793 34.88934 26.35864
# Shear Modulus (GPa) = 24.72738 32.37704 28.55221
#
# Velocity S-wave (km/s) = 3.17710 3.63547 3.41399
# Velocity P-wave (km/s) = 4.55370 5.64486 5.12838
#
# Compressibility (1/GPa) = 0.05609175
#
# Stress axis : x y z
#
# Youngs Moduli (GPa) = 114.14225 47.50441 35.26091
#
# Poissons Ratio (x) = 0.17122 0.20287
# Poissons Ratio (y) = 0.41139 -0.29328
# Poissons Ratio (z) = 0.65669 -0.39512
#
# Static dielectric constant tensor:
#      x y z
#    x 2.059030 0.000000 -0.013930 
#    y 0.000000 2.174090 0.000000 
#    z -0.013930 0.000000 2.548950 
# 
# From -- ./inp_files/49645.got.cif
#   From: 2010.05.17/outbox.cif.g08.bks.cpg/sg14_25_cif.got.tgz:49645.got - 2010.06.03 17:49:19.
