data_PCOD9244410
_publ_section_title
;
Structure prediction by ZEFSAII (Michael W. Deem and Ramdas Pophale) SiO2 
 PCOD9244410
Probable space group: P 21/C
;
_chemical_formula_sum "Si O2"
_cell_formula_units_Z 30
_cell_length_a 7.225263
_cell_length_b 21.360592
_cell_length_c 10.953500
_cell_angle_alpha 90.000000
_cell_angle_beta 132.523448
_cell_angle_gamma 90.000000
_cell_volume 1245.913274
_symmetry_space_group_name_H-M "P 21/C"
_symmetry_group_IT_number 14
_symmetry_cell_setting 'monoclinic'
loop_
_space_group_symop_operation_xyz
x,y,z
-x,1/2+y,1/2-z
-x,-y,-z
x,1/2-y,1/2+z
loop_
_atom_site_type_symbol
_atom_site_label
_atom_site_fract_x
_atom_site_fract_y
_atom_site_fract_z
Si Si1 0.500000 0.500000 0.500000
Si Si2 0.053193 0.210606 0.724251
Si Si3 0.090601 0.050378 0.169827
Si Si4 0.278158 0.684641 0.129330
Si Si5 0.392718 0.953836 0.165613
Si Si6 0.499097 0.311435 0.230013
Si Si7 0.272823 0.124068 0.028697
Si Si8 0.869991 0.660465 0.134172
O O1 0.377766 0.485269 0.301600
O O2 0.582232 0.574432 0.490152
O O3 0.285294 0.206269 0.733196
O O4 0.016806 0.284137 0.733141
O O5 0.812155 0.181162 0.549736
O O6 0.131762 0.172778 0.879272
O O7 0.092400 0.086767 0.040961
O O8 0.167378 0.097021 0.308897
O O9 0.278669 0.993700 0.225800
O O10 0.791981 0.032812 0.040488
O O11 0.289532 0.758773 0.164900
O O12 0.539839 0.658303 0.293429
O O13 0.068809 0.650385 0.115669
O O14 0.424884 0.882179 0.208023
O O15 0.373941 0.312126 0.040979
#
# Coordination Sequence:
#
# PCOD9244410 Si02
#       8
#     2   4   4   4   4   4   4   4
#     4  10  20  40  74  90 128 180 214 268 330 382
#     4  11  24  40  63  96 129 165 217 269 324 392
#     4  10  23  40  64  93 129 169 218 259 323 395
#     4  11  25  40  66  96 129 171 215 269 330 379
#     4  10  21  40  66  93 126 175 218 267 325 387
#     4  11  23  41  63  93 129 166 219 273 324 385
#     4  11  22  43  66  96 129 172 214 267 327 387
#     4  11  24  39  62  94 131 164 216 269 325 394
#
# _framework density 24.078721999999999
#
# number of rings (size 3 to 8) (size 9 to 14) (size 15 to 20)
#    0.000    1.333    2.667    2.400    5.600    1.600 
#    0.000    0.667    8.800    0.000    0.000    0.000 
#    0.000    0.000    0.000    0.000    0.000    0.000 
#
# Total GULP energy -167401.725195 kJ/mol
# GULP energy per Si atom -5580.057507 kJ/mol
# Density = 2.402392 g / cm^3
# Si number density = 24.078722 Si / 1000 Ang^3
#
#
#
# Elastic Constant Matrix: (Units=GPa)
#
#
# Indices 1 2 3 4 5 6 
#
# 1 83.6340 6.3284 2.9245 0.0000 -9.8647 0.0000
# 2 6.3284 103.0276 6.8361 0.0000 -0.5704 0.0000
# 3 2.9245 6.8361 79.4279 0.0000 14.2192 0.0000
# 4 0.0000 0.0000 0.0000 49.4040 0.0000 -16.3174
# 5 -9.8647 -0.5704 14.2192 0.0000 8.4630 0.0000
# 6 0.0000 0.0000 0.0000 -16.3174 0.0000 47.7354
#
#
#
# Elastic Compliance Matrix: (Units=1/GPa)
#
#
# Indices 1 2 3 4 5 6 
#
# 1 0.015336 -0.000441 -0.005323 0.000000 0.026789 0.000000
# 2 -0.000441 0.009827 -0.001224 0.000000 0.002206 0.000000
# 3 -0.005323 -0.001224 0.020046 0.000000 -0.039968 0.000000
# 4 0.000000 0.000000 0.000000 0.022817 0.000000 0.007800
# 5 0.026789 0.002206 -0.039968 0.000000 0.216690 0.000000
# 6 0.000000 0.000000 0.000000 0.007800 0.000000 0.023615
#
#
# Mechanical properties :
#
#
# Convention : Reuss Voigt Hill
#
# Bulk Modulus (GPa) = 32.01631 33.14084 32.57858
# Shear Modulus (GPa) = 15.02775 37.78717 26.40746
#
# Velocity S-wave (km/s) = 2.50093 3.96576 3.31526
# Velocity P-wave (km/s) = 4.65456 5.89602 5.31168
#
# Compressibility (1/GPa) = 0.03123408
#
# Stress axis : x y z
#
# Youngs Moduli (GPa) = 65.20533 101.76398 49.88409
#
# Poissons Ratio (x) = 0.04483 0.26551
# Poissons Ratio (y) = 0.02873 0.06108
# Poissons Ratio (z) = 0.34706 0.12461
#
# Static dielectric constant tensor:
#      x y z
#    x 2.303410 0.000000 0.068310 
#    y 0.000000 1.943950 0.000000 
#    z 0.068310 0.000000 1.960020 
# 
# From -- ./inp_files/26698.got.cif
#   From: 2010.05.17/outbox.cif.g08.bks.cpg/sg14_14_cif.got.tgz:26698.got - 2010.06.03 17:49:19.
