data_PCOD9244314
_publ_section_title
;
Structure prediction by ZEFSAII (Michael W. Deem and Ramdas Pophale) SiO2 
 PCOD9244314
Probable space group: P 21/C
;
_chemical_formula_sum "Si O2"
_cell_formula_units_Z 20
_cell_length_a 8.079075
_cell_length_b 11.070919
_cell_length_c 8.685467
_cell_angle_alpha 90.000000
_cell_angle_beta 98.217513
_cell_angle_gamma 90.000000
_cell_volume 768.876094
_symmetry_space_group_name_H-M "P 21/C"
_symmetry_group_IT_number 14
_symmetry_cell_setting 'monoclinic'
loop_
_space_group_symop_operation_xyz
x,y,z
-x,1/2+y,1/2-z
-x,-y,-z
x,1/2-y,1/2+z
loop_
_atom_site_type_symbol
_atom_site_label
_atom_site_fract_x
_atom_site_fract_y
_atom_site_fract_z
Si Si1 0.771996 0.529883 0.603972
Si Si2 0.760419 0.613392 0.289102
Si Si3 0.753704 0.360656 0.124834
Si Si4 0.929629 0.157034 0.339759
Si Si5 0.508321 0.321999 0.510302
O O1 0.859124 0.585112 0.463872
O O2 0.880015 0.469853 0.750411
O O3 0.659995 0.417100 0.527771
O O4 0.628585 0.627487 0.627878
O O5 0.726199 0.489733 0.194886
O O6 0.590979 0.663663 0.340927
O O7 0.883865 0.685043 0.193418
O O8 0.811184 0.263290 0.259712
O O9 0.587743 0.309282 0.019431
O O10 0.896820 0.358710 0.014114
#
# Coordination Sequence:
#
# PCOD9244314 Si02
#       5
#     4   4   4   4   4
#     4   8  17  37  63  84 123 161 202 251 314 360
#     4  10  20  40  66  91 127 164 213 264 309 368
#     4  11  22  40  63  92 130 167 207 258 317 376
#     4  11  22  37  63  96 128 168 208 257 314 375
#     4   8  18  37  65  88 122 168 208 244 326 367
#
# _framework density 26.011994999999999
#
# number of rings (size 3 to 8) (size 9 to 14) (size 15 to 20)
#    1.200    1.200    0.000    3.600    0.000    0.000 
#    0.000   16.000    4.400    0.000    0.000    0.000 
#    0.000    0.000    0.000    0.000    0.000    0.000 
#
# Total GULP energy -111780.535463 kJ/mol
# GULP energy per Si atom -5589.026773 kJ/mol
# Density = 2.595279 g / cm^3
# Si number density = 26.011995 Si / 1000 Ang^3
#
#
#
# Elastic Constant Matrix: (Units=GPa)
#
#
# Indices 1 2 3 4 5 6 
#
# 1 77.7093 24.8448 18.6232 0.0000 -17.0334 0.0000
# 2 24.8448 59.6506 25.5083 0.0000 14.7926 0.0000
# 3 18.6232 25.5083 117.7295 0.0000 -29.5585 0.0000
# 4 0.0000 0.0000 0.0000 36.4393 0.0000 -2.5365
# 5 -17.0334 14.7926 -29.5585 0.0000 44.1488 0.0000
# 6 0.0000 0.0000 0.0000 -2.5365 0.0000 38.4830
#
#
#
# Elastic Compliance Matrix: (Units=1/GPa)
#
#
# Indices 1 2 3 4 5 6 
#
# 1 0.019243 -0.012836 0.003223 0.000000 0.013883 0.000000
# 2 -0.012836 0.032434 -0.010781 0.000000 -0.023038 0.000000
# 3 0.003223 -0.010781 0.013871 0.000000 0.014143 0.000000
# 4 0.000000 0.000000 0.000000 0.027569 0.000000 0.001817
# 5 0.013883 -0.023038 0.014143 0.000000 0.045195 0.000000
# 6 0.000000 0.000000 0.000000 0.001817 0.000000 0.026105
#
#
# Mechanical properties :
#
#
# Convention : Reuss Voigt Hill
#
# Bulk Modulus (GPa) = 40.38841 43.67134 42.02987
# Shear Modulus (GPa) = 23.42385 36.22176 29.82280
#
# Velocity S-wave (km/s) = 3.00409 3.73567 3.38968
# Velocity P-wave (km/s) = 5.25293 5.95251 5.61363
#
# Compressibility (1/GPa) = 0.02475958
#
# Stress axis : x y z
#
# Youngs Moduli (GPa) = 51.96739 30.83217 72.09304
#
# Poissons Ratio (x) = 0.39575 -0.23233
# Poissons Ratio (y) = 0.66703 0.77724
# Poissons Ratio (z) = -0.16747 0.33240
#
# Static dielectric constant tensor:
#      x y z
#    x 2.073620 0.000000 0.030700 
#    y 0.000000 2.085950 0.000000 
#    z 0.030700 0.000000 2.013970 
# 
# From -- ./inp_files/7847.got.cif
#   From: 2010.05.17/outbox.cif.g08.bks.cpg/sg14_4_cif.got.tgz:7847.got - 2010.06.03 17:49:19.
