data_PCOD9244627
_publ_section_title
;
Structure prediction by ZEFSAII (Michael W. Deem and Ramdas Pophale) SiO2 
 PCOD9244627
Probable space group: P 21/C
;
_chemical_formula_sum "Si O2"
_cell_formula_units_Z 30
_cell_length_a 23.135216
_cell_length_b 7.400049
_cell_length_c 13.448522
_cell_angle_alpha 90.000000
_cell_angle_beta 148.998904
_cell_angle_gamma 90.000000
_cell_volume 1185.866699
_symmetry_space_group_name_H-M "P 21/C"
_symmetry_group_IT_number 14
_symmetry_cell_setting 'monoclinic'
loop_
_space_group_symop_operation_xyz
x,y,z
-x,1/2+y,1/2-z
-x,-y,-z
x,1/2-y,1/2+z
loop_
_atom_site_type_symbol
_atom_site_label
_atom_site_fract_x
_atom_site_fract_y
_atom_site_fract_z
Si Si1 0.558988 0.219357 0.975233
Si Si2 0.725698 0.736066 0.293635
Si Si3 0.052377 0.244873 0.750404
Si Si4 0.765074 0.239066 0.643999
Si Si5 0.134288 0.380944 0.667140
Si Si6 0.373592 0.567368 0.236422
Si Si7 0.500000 0.500000 0.000000
Si Si8 0.956949 0.129852 0.304640
O O1 0.669720 0.192424 0.076428
O O2 0.502334 0.413419 0.884564
O O3 0.583244 0.237095 0.132842
O O4 0.477369 0.049714 0.849790
O O5 0.838326 0.688147 0.522316
O O6 0.762367 0.724439 0.232192
O O7 0.690130 0.933816 0.281413
O O8 0.623324 0.603030 0.162179
O O9 0.107567 0.358506 0.743757
O O10 0.965774 0.330801 0.700233
O O11 0.994213 0.070488 0.615705
O O12 0.841043 0.374491 0.693014
O O13 0.840069 0.090981 0.812392
O O14 0.700747 0.129242 0.462983
O O15 0.028528 0.288811 0.458673
#
# Coordination Sequence:
#
# PCOD9244627 Si02
#       8
#     4   4   4   4   4   4   2   4
#     4  10  24  44  67 101 138 178 226 279 339 399
#     4  10  22  42  71  95 137 176 221 282 337 405
#     4  11  24  46  67 102 133 181 226 284 348 410
#     4  12  24  44  71 104 133 185 228 281 341 420
#     4  11  23  44  67  98 135 177 227 279 345 403
#     4  10  24  45  66  99 141 179 222 282 333 410
#     4  10  20  42  66 100 132 176 220 276 334 390
#     4  11  27  41  69  98 136 175 229 289 341 407
#
# _framework density 25.297954000000001
#
# number of rings (size 3 to 8) (size 9 to 14) (size 15 to 20)
#    0.000    1.333    2.667    1.600    5.600    3.200 
#    4.800    0.000    0.000    0.000    0.000    0.000 
#    0.000    0.000    0.000    0.000    0.000    0.000 
#
# Total GULP energy -167348.991161 kJ/mol
# GULP energy per Si atom -5578.299705 kJ/mol
# Density = 2.524037 g / cm^3
# Si number density = 25.297954 Si / 1000 Ang^3
#
#
#
# Elastic Constant Matrix: (Units=GPa)
#
#
# Indices 1 2 3 4 5 6 
#
# 1 208.1636 31.3458 29.4079 0.0000 40.0008 0.0000
# 2 31.3458 52.6521 -2.2706 0.0000 1.1242 0.0000
# 3 29.4079 -2.2706 39.9054 0.0000 -3.4261 0.0000
# 4 0.0000 0.0000 0.0000 13.9485 0.0000 8.8494
# 5 40.0008 1.1242 -3.4261 0.0000 42.3650 0.0000
# 6 0.0000 0.0000 0.0000 8.8494 0.0000 36.6776
#
#
#
# Elastic Compliance Matrix: (Units=1/GPa)
#
#
# Indices 1 2 3 4 5 6 
#
# 1 0.008071 -0.004931 -0.006919 0.000000 -0.008049 0.000000
# 2 -0.004931 0.022060 0.005275 0.000000 0.004497 0.000000
# 3 -0.006919 0.005275 0.031224 0.000000 0.008918 0.000000
# 4 0.000000 0.000000 0.000000 0.084650 0.000000 -0.020424
# 5 -0.008049 0.004497 0.008918 0.000000 0.031806 0.000000
# 6 0.000000 0.000000 0.000000 -0.020424 0.000000 0.032192
#
#
# Mechanical properties :
#
#
# Convention : Reuss Voigt Hill
#
# Bulk Modulus (GPa) = 20.74498 46.40970 33.57734
# Shear Modulus (GPa) = 20.90111 34.74742 27.82427
#
# Velocity S-wave (km/s) = 2.87748 3.71013 3.32002
# Velocity P-wave (km/s) = 4.38839 6.06123 5.29134
#
# Compressibility (1/GPa) = 0.04820443
#
# Stress axis : x y z
#
# Youngs Moduli (GPa) = 123.90511 45.33114 32.02644
#
# Poissons Ratio (x) = 0.22354 0.22160
# Poissons Ratio (y) = 0.61102 -0.16895
# Poissons Ratio (z) = 0.85733 -0.23914
#
# Static dielectric constant tensor:
#      x y z
#    x 1.975990 0.000000 -0.104360 
#    y 0.000000 1.481590 0.000000 
#    z -0.104360 0.000000 1.867690 
# 
# From -- ./inp_files/51287.got.cif
#   From: 2010.05.17/outbox.cif.g08.bks.cpg/sg14_26_cif.got.tgz:51287.got - 2010.06.03 17:49:19.
