data_PCOD9244068
_publ_section_title
;
Structure prediction by ZEFSAII (Michael W. Deem and Ramdas Pophale) SiO2 
 PCOD9244068
Probable space group: P 21/C
;
_chemical_formula_sum "Si O2"
_cell_formula_units_Z 28
_cell_length_a 18.742534
_cell_length_b 4.988927
_cell_length_c 16.468161
_cell_angle_alpha 90.000000
_cell_angle_beta 43.262165
_cell_angle_gamma 90.000000
_cell_volume 1055.322346
_symmetry_space_group_name_H-M "P 21/C"
_symmetry_group_IT_number 14
_symmetry_cell_setting 'monoclinic'
loop_
_space_group_symop_operation_xyz
x,y,z
-x,1/2+y,1/2-z
-x,-y,-z
x,1/2-y,1/2+z
loop_
_atom_site_type_symbol
_atom_site_label
_atom_site_fract_x
_atom_site_fract_y
_atom_site_fract_z
Si Si1 0.971360 0.744195 0.467952
Si Si2 0.370245 0.867448 0.603293
Si Si3 0.238223 0.295289 0.800280
Si Si4 0.666731 0.363344 0.151110
Si Si5 0.840631 0.401374 0.282438
Si Si6 0.288021 0.145005 0.984960
Si Si7 0.487595 0.977118 0.902035
O O1 0.047385 0.772456 0.327854
O O2 0.000000 0.500000 0.500000
O O3 0.847561 0.697917 0.563692
O O4 0.000000 0.000000 0.500000
O O5 0.256727 0.788990 0.661703
O O6 0.438864 0.649835 0.598185
O O7 0.448282 0.821849 0.460360
O O8 0.335963 0.114444 0.690686
O O9 0.269914 0.571365 0.819148
O O10 0.177916 0.362030 0.767829
O O11 0.671808 0.061184 0.117337
O O12 0.553860 0.489721 0.264783
O O13 0.716528 0.554512 0.042019
O O14 0.816358 0.525268 0.389711
O O15 0.376911 0.124863 0.981087
#
# Coordination Sequence:
#
# PCOD9244068 Si02
#       7
#     4   4   4   4   4   4   4
#     4  10  21  38  69 101 131 167 220 285 348 412
#     4  10  20  39  66 101 130 169 229 291 340 397
#     4  11  23  40  72  99 135 174 231 289 349 411
#     4  12  25  44  61  94 135 179 224 280 341 406
#     4  10  22  43  65 100 130 175 226 282 346 411
#     4  11  27  42  65  90 137 182 225 275 342 412
#     4  10  22  41  63  95 133 182 228 277 340 409
#
# _framework density 26.53218
#
# number of rings (size 3 to 8) (size 9 to 14) (size 15 to 20)
#    0.000    1.429    2.857    1.714    4.000    1.714 
#    2.571    1.429    0.000    0.000    0.000    0.000 
#    0.000    0.000    0.000    0.000    0.000    0.000 
#
# Total GULP energy -156133.326493 kJ/mol
# GULP energy per Si atom -5576.190232 kJ/mol
# Density = 2.647179 g / cm^3
# Si number density = 26.532180 Si / 1000 Ang^3
#
#
#
# Elastic Constant Matrix: (Units=GPa)
#
#
# Indices 1 2 3 4 5 6 
#
# 1 37.7239 13.2058 -1.6783 0.0000 -2.5324 0.0000
# 2 13.2058 115.8711 7.1501 0.0000 -1.3981 0.0000
# 3 -1.6783 7.1501 145.6568 0.0000 -20.8428 0.0000
# 4 0.0000 0.0000 0.0000 30.0053 0.0000 -5.8374
# 5 -2.5324 -1.3981 -20.8428 0.0000 45.5811 0.0000
# 6 0.0000 0.0000 0.0000 -5.8374 0.0000 32.7238
#
#
#
# Elastic Compliance Matrix: (Units=1/GPa)
#
#
# Indices 1 2 3 4 5 6 
#
# 1 0.027777 -0.003189 0.000731 0.000000 0.001780 0.000000
# 2 -0.003189 0.009023 -0.000498 0.000000 -0.000128 0.000000
# 3 0.000731 -0.000498 0.007385 0.000000 0.003402 0.000000
# 4 0.000000 0.000000 0.000000 0.034526 0.000000 0.006159
# 5 0.001780 -0.000128 0.003402 0.000000 0.023590 0.000000
# 6 0.000000 0.000000 0.000000 0.006159 0.000000 0.031657
#
#
# Mechanical properties :
#
#
# Convention : Reuss Voigt Hill
#
# Bulk Modulus (GPa) = 26.12818 37.40080 31.76449
# Shear Modulus (GPa) = 32.75949 40.36699 36.56324
#
# Velocity S-wave (km/s) = 3.51765 3.90479 3.71627
# Velocity P-wave (km/s) = 5.13494 5.86999 5.51473
#
# Compressibility (1/GPa) = 0.03827286
#
# Stress axis : x y z
#
# Youngs Moduli (GPa) = 36.00111 110.82845 135.40616
#
# Poissons Ratio (x) = 0.35347 -0.09902
# Poissons Ratio (y) = 0.11482 0.06743
# Poissons Ratio (z) = -0.02633 0.05519
#
# Static dielectric constant tensor:
#      x y z
#    x 2.151820 0.000000 0.071680 
#    y 0.000000 2.112260 0.000000 
#    z 0.071680 0.000000 2.305930 
# 
# From -- ./inp_files/60928.got.cif
#   From: 2010.05.17/outbox.cif.g08.bks.cpg/sg14_31_cif.got.tgz:60928.got - 2010.06.03 17:49:19.
