data_PCOD9244296
_publ_section_title
;
Structure prediction by ZEFSAII (Michael W. Deem and Ramdas Pophale) SiO2 
 PCOD9244296
Probable space group: P 21/C
;
_chemical_formula_sum "Si O2"
_cell_formula_units_Z 24
_cell_length_a 4.915288
_cell_length_b 14.429885
_cell_length_c 13.636061
_cell_angle_alpha 90.000000
_cell_angle_beta 115.273978
_cell_angle_gamma 90.000000
_cell_volume 874.585038
_symmetry_space_group_name_H-M "P 21/C"
_symmetry_group_IT_number 14
_symmetry_cell_setting 'monoclinic'
loop_
_space_group_symop_operation_xyz
x,y,z
-x,1/2+y,1/2-z
-x,-y,-z
x,1/2-y,1/2+z
loop_
_atom_site_type_symbol
_atom_site_label
_atom_site_fract_x
_atom_site_fract_y
_atom_site_fract_z
Si Si1 0.537953 0.649052 0.704757
Si Si2 0.414618 0.691814 0.905854
Si Si3 0.123764 0.184882 0.927090
Si Si4 0.034785 0.870386 0.820989
Si Si5 0.599746 0.053813 0.287750
Si Si6 0.500000 0.500000 0.500000
Si Si7 0.500000 0.500000 0.000000
O O1 0.525080 0.683310 0.812018
O O2 0.815702 0.675904 0.680102
O O3 0.530018 0.537401 0.710818
O O4 0.228382 0.681487 0.606814
O O5 0.172359 0.773087 0.874346
O O6 0.707290 0.724104 0.011250
O O7 0.320563 0.591422 0.929660
O O8 0.305052 0.095995 0.994463
O O9 0.119575 0.897621 0.721250
O O10 0.678939 0.877759 0.769331
O O11 0.191529 0.948377 0.911939
O O12 0.617750 0.024805 0.403582
#
# Coordination Sequence:
#
# PCOD9244296 Si02
#       7
#     4   4   4   4   4   2   2
#     4  11  23  44  69 100 141 181 228 283 352 415
#     4  10  27  44  71 105 140 192 238 290 352 427
#     4  11  24  42  71 103 140 178 228 294 344 421
#     4  11  24  42  73 106 140 181 232 292 356 423
#     4  11  23  46  72 103 143 185 230 291 354 425
#     4  10  20  40  66 102 132 166 220 280 352 402
#     4  10  26  50  74 104 148 194 244 292 362 430
#
# _framework density 27.441586999999998
#
# number of rings (size 3 to 8) (size 9 to 14) (size 15 to 20)
#    0.000    1.333    3.333    0.000    4.667    8.667 
#    0.000    6.667    0.000    0.000    0.000    0.000 
#    0.000    0.000    0.000    0.000    0.000    0.000 
#
# Total GULP energy -133816.937406 kJ/mol
# GULP energy per Si atom -5575.705725 kJ/mol
# Density = 2.737913 g / cm^3
# Si number density = 27.441587 Si / 1000 Ang^3
#
#
#
# Elastic Constant Matrix: (Units=GPa)
#
#
# Indices 1 2 3 4 5 6 
#
# 1 102.1978 22.6032 23.9895 0.0000 -10.1759 0.0000
# 2 22.6032 64.5580 19.1460 0.0000 8.2093 0.0000
# 3 23.9895 19.1460 77.3592 0.0000 -12.1979 0.0000
# 4 0.0000 0.0000 0.0000 39.3488 0.0000 -8.0155
# 5 -10.1759 8.2093 -12.1979 0.0000 27.4427 0.0000
# 6 0.0000 0.0000 0.0000 -8.0155 0.0000 33.2924
#
#
#
# Elastic Compliance Matrix: (Units=1/GPa)
#
#
# Indices 1 2 3 4 5 6 
#
# 1 0.011595 -0.004116 -0.001834 0.000000 0.004716 0.000000
# 2 -0.004116 0.019683 -0.005123 0.000000 -0.009691 0.000000
# 3 -0.001834 -0.005123 0.016021 0.000000 0.007974 0.000000
# 4 0.000000 0.000000 0.000000 0.026724 0.000000 0.006434
# 5 0.004716 -0.009691 0.007974 0.000000 0.044631 0.000000
# 6 0.000000 0.000000 0.000000 0.006434 0.000000 0.031586
#
#
# Mechanical properties :
#
#
# Convention : Reuss Voigt Hill
#
# Bulk Modulus (GPa) = 39.75569 41.73250 40.74410
# Shear Modulus (GPa) = 27.65956 31.90853 29.78405
#
# Velocity S-wave (km/s) = 3.17826 3.41366 3.29806
# Velocity P-wave (km/s) = 5.29030 5.54781 5.42058
#
# Compressibility (1/GPa) = 0.02515363
#
# Stress axis : x y z
#
# Youngs Moduli (GPa) = 86.24292 50.80611 62.41995
#
# Poissons Ratio (x) = 0.20910 0.11445
# Poissons Ratio (y) = 0.35494 0.31979
# Poissons Ratio (z) = 0.15813 0.26029
#
# Static dielectric constant tensor:
#      x y z
#    x 2.082230 0.000000 -0.065290 
#    y 0.000000 2.128470 0.000000 
#    z -0.065290 0.000000 2.249210 
# 
# From -- ./inp_files/37276.got.cif
#   From: 2010.05.17/outbox.cif.g08.bks.cpg/sg14_19_cif.got.tgz:37276.got - 2010.06.03 17:49:19.
