data_PCOD9244413
_publ_section_title
;
Structure prediction by ZEFSAII (Michael W. Deem and Ramdas Pophale) SiO2 
 PCOD9244413
Probable space group: P 21/C
;
_chemical_formula_sum "Si O2"
_cell_formula_units_Z 22
_cell_length_a 4.875969
_cell_length_b 19.062331
_cell_length_c 9.466618
_cell_angle_alpha 90.000000
_cell_angle_beta 72.522301
_cell_angle_gamma 90.000000
_cell_volume 839.275524
_symmetry_space_group_name_H-M "P 21/C"
_symmetry_group_IT_number 14
_symmetry_cell_setting 'monoclinic'
loop_
_space_group_symop_operation_xyz
x,y,z
-x,1/2+y,1/2-z
-x,-y,-z
x,1/2-y,1/2+z
loop_
_atom_site_type_symbol
_atom_site_label
_atom_site_fract_x
_atom_site_fract_y
_atom_site_fract_z
Si Si1 0.931473 0.745561 0.623996
Si Si2 0.419035 0.410286 0.613917
Si Si3 0.697965 0.223584 0.196541
Si Si4 0.000000 0.500000 0.500000
Si Si5 0.684516 0.492149 0.110606
Si Si6 0.108265 0.589627 0.679869
O O1 0.082012 0.758623 0.450032
O O2 0.087062 0.798198 0.710349
O O3 0.023205 0.668565 0.668043
O O4 0.585274 0.744420 0.682489
O O5 0.534926 0.333446 0.625322
O O6 0.154775 0.426828 0.554800
O O7 0.370054 0.445530 0.770371
O O8 0.698246 0.442987 0.485121
O O9 0.875684 0.530543 0.681781
O O10 0.718554 0.422702 0.204816
O O11 0.500000 0.500000 0.000000
O O12 0.000000 0.500000 0.000000
#
# Coordination Sequence:
#
# PCOD9244413 Si02
#       6
#     4   4   4   2   4   4
#     4  11  26  46  73 103 143 190 241 294 359 426
#     4  10  25  43  73  96 137 192 241 290 347 445
#     4  11  26  46  73 103 143 190 241 294 359 426
#     4  10  20  40  76  96 130 176 264 280 340 416
#     4  11  26  41  64 102 139 171 222 296 365 397
#     4  10  25  43  73  96 137 192 241 290 347 445
#
# _framework density 26.213083000000001
#
# number of rings (size 3 to 8) (size 9 to 14) (size 15 to 20)
#    0.000    1.455    0.000    3.273   20.364    4.364 
#    0.000    0.000    0.000    0.000    0.000    0.000 
#    0.000    0.000    0.000    0.000    0.000    0.000 
#
# Total GULP energy -122592.550929 kJ/mol
# GULP energy per Si atom -5572.388679 kJ/mol
# Density = 2.615342 g / cm^3
# Si number density = 26.213083 Si / 1000 Ang^3
#
#
#
# Elastic Constant Matrix: (Units=GPa)
#
#
# Indices 1 2 3 4 5 6 
#
# 1 194.1607 -7.7398 73.4477 0.0000 1.4027 0.0000
# 2 -7.7398 43.0668 -4.6230 0.0000 -5.0151 0.0000
# 3 73.4477 -4.6230 198.0997 0.0000 6.0917 0.0000
# 4 0.0000 0.0000 0.0000 33.0730 0.0000 6.4536
# 5 1.4027 -5.0151 6.0917 0.0000 61.9365 0.0000
# 6 0.0000 0.0000 0.0000 6.4536 0.0000 31.4393
#
#
#
# Elastic Compliance Matrix: (Units=1/GPa)
#
#
# Indices 1 2 3 4 5 6 
#
# 1 0.006022 0.000862 -0.002217 0.000000 0.000151 0.000000
# 2 0.000862 0.023612 0.000174 0.000000 0.001875 0.000000
# 3 -0.002217 0.000174 0.005890 0.000000 -0.000515 0.000000
# 4 0.000000 0.000000 0.000000 0.031498 0.000000 -0.006466
# 5 0.000151 0.001875 -0.000515 0.000000 0.016345 0.000000
# 6 0.000000 0.000000 0.000000 -0.006466 0.000000 0.033135
#
#
# Mechanical properties :
#
#
# Convention : Reuss Voigt Hill
#
# Bulk Modulus (GPa) = 30.15615 61.94408 46.05011
# Shear Modulus (GPa) = 38.48580 50.23926 44.36253
#
# Velocity S-wave (km/s) = 3.83585 4.38262 4.11832
# Velocity P-wave (km/s) = 5.58100 7.02083 6.34191
#
# Compressibility (1/GPa) = 0.03316074
#
# Stress axis : x y z
#
# Youngs Moduli (GPa) = 166.04520 42.35189 169.77945
#
# Poissons Ratio (x) = -0.03651 0.37648
# Poissons Ratio (y) = -0.14312 -0.02950
# Poissons Ratio (z) = 0.36819 -0.00736
#
# Static dielectric constant tensor:
#      x y z
#    x 0.688930 0.000000 1.406990 
#    y 0.000000 2.089430 0.000000 
#    z 1.406990 0.000000 0.703180 
# 
# From -- ./inp_files/6163.got.cif
#   From: 2010.05.17/outbox.cif.g08.bks.cpg/sg14_4_cif.got.tgz:6163.got - 2010.06.03 17:49:19.
