data_PCOD9244434
_publ_section_title
;
Structure prediction by ZEFSAII (Michael W. Deem and Ramdas Pophale) SiO2 
 PCOD9244434
Probable space group: P 21/C
;
_chemical_formula_sum "Si O2"
_cell_formula_units_Z 28
_cell_length_a 8.925675
_cell_length_b 19.630000
_cell_length_c 13.812168
_cell_angle_alpha 90.000000
_cell_angle_beta 29.856466
_cell_angle_gamma 90.000000
_cell_volume 1204.767771
_symmetry_space_group_name_H-M "P 21/C"
_symmetry_group_IT_number 14
_symmetry_cell_setting 'monoclinic'
loop_
_space_group_symop_operation_xyz
x,y,z
-x,1/2+y,1/2-z
-x,-y,-z
x,1/2-y,1/2+z
loop_
_atom_site_type_symbol
_atom_site_label
_atom_site_fract_x
_atom_site_fract_y
_atom_site_fract_z
Si Si1 0.947555 0.809502 0.419144
Si Si2 0.796231 0.791620 0.168088
Si Si3 0.156178 0.431381 0.874703
Si Si4 0.267166 0.719377 0.569692
Si Si5 0.703335 0.456490 0.673789
Si Si6 0.610996 0.416766 0.061323
Si Si7 0.352377 0.844117 0.647344
O O1 0.947195 0.744061 0.490398
O O2 0.910700 0.873250 0.509659
O O3 0.222030 0.824732 0.191624
O O4 0.644740 0.805295 0.524501
O O5 0.044786 0.804747 0.110476
O O6 0.581642 0.857742 0.273913
O O7 0.576562 0.735466 0.342145
O O8 0.516066 0.441147 0.680404
O O9 0.965958 0.411306 0.887043
O O10 0.000000 0.500000 0.000000
O O11 0.180624 0.791316 0.672795
O O12 0.772328 0.387312 0.693113
O O13 0.000000 0.500000 0.500000
O O14 0.491549 0.508197 0.852177
O O15 0.546537 0.400745 0.986619
#
# Coordination Sequence:
#
# PCOD9244434 Si02
#       7
#     4   4   4   4   4   4   4
#     4  11  22  40  67  90 130 168 212 271 323 384
#     4  11  25  38  65  95 129 170 212 272 326 385
#     4   9  21  41  66  87 125 172 212 254 326 386
#     4  11  23  41  58  97 124 165 219 256 331 389
#     4  10  22  39  63  95 121 165 217 264 315 381
#     4  10  20  41  62  87 125 169 212 256 326 387
#     4  10  22  40  61  90 124 168 207 264 320 385
#
# _framework density 23.240994000000001
#
# number of rings (size 3 to 8) (size 9 to 14) (size 15 to 20)
#    0.000    1.714    2.857    2.143    6.000    1.143 
#    2.571    0.714    0.000    0.000    0.000    0.000 
#    0.000    0.000    0.000    0.000    0.000    0.000 
#
# Total GULP energy -156132.841213 kJ/mol
# GULP energy per Si atom -5576.172900 kJ/mol
# Density = 2.318810 g / cm^3
# Si number density = 23.240994 Si / 1000 Ang^3
#
#
#
# Elastic Constant Matrix: (Units=GPa)
#
#
# Indices 1 2 3 4 5 6 
#
# 1 105.1658 37.6709 25.0418 0.0000 -3.7671 0.0000
# 2 37.6709 90.2925 -1.3166 0.0000 -12.8587 0.0000
# 3 25.0418 -1.3166 52.2538 0.0000 -1.4602 0.0000
# 4 0.0000 0.0000 0.0000 38.2433 0.0000 -5.3151
# 5 -3.7671 -12.8587 -1.4602 0.0000 33.6679 0.0000
# 6 0.0000 0.0000 0.0000 -5.3151 0.0000 33.0303
#
#
#
# Elastic Compliance Matrix: (Units=1/GPa)
#
#
# Indices 1 2 3 4 5 6 
#
# 1 0.013033 -0.005671 -0.006416 0.000000 -0.000986 0.000000
# 2 -0.005671 0.014189 0.003213 0.000000 0.004924 0.000000
# 3 -0.006416 0.003213 0.022335 0.000000 0.001478 0.000000
# 4 0.000000 0.000000 0.000000 0.026747 0.000000 0.004304
# 5 -0.000986 0.004924 0.001478 0.000000 0.031536 0.000000
# 6 0.000000 0.000000 0.000000 0.004304 0.000000 0.030968
#
#
# Mechanical properties :
#
#
# Convention : Reuss Voigt Hill
#
# Bulk Modulus (GPa) = 31.43910 41.16714 36.30312
# Shear Modulus (GPa) = 29.91164 33.40936 31.66050
#
# Velocity S-wave (km/s) = 3.59140 3.79558 3.69490
# Velocity P-wave (km/s) = 5.54566 6.07949 5.81870
#
# Compressibility (1/GPa) = 0.03180753
#
# Stress axis : x y z
#
# Youngs Moduli (GPa) = 76.72939 70.47527 44.77377
#
# Poissons Ratio (x) = 0.39969 0.28728
# Poissons Ratio (y) = 0.43516 -0.14386
# Poissons Ratio (z) = 0.49231 -0.22644
#
# Static dielectric constant tensor:
#      x y z
#    x 1.756090 0.000000 0.111410 
#    y 0.000000 1.933170 0.000000 
#    z 0.111410 0.000000 1.902850 
# 
# From -- ./inp_files/42029.got.cif
#   From: 2010.05.17/outbox.cif.g08.bks.cpg/sg14_22_cif.got.tgz:42029.got - 2010.06.03 17:49:19.
