data_PCOD9244635
_publ_section_title
;
Structure prediction by ZEFSAII (Michael W. Deem and Ramdas Pophale) SiO2 
 PCOD9244635
Probable space group: P 21/C
;
_chemical_formula_sum "Si O2"
_cell_formula_units_Z 22
_cell_length_a 16.406517
_cell_length_b 11.467589
_cell_length_c 8.218854
_cell_angle_alpha 90.000000
_cell_angle_beta 141.824695
_cell_angle_gamma 90.000000
_cell_volume 955.734316
_symmetry_space_group_name_H-M "P 21/C"
_symmetry_group_IT_number 14
_symmetry_cell_setting 'monoclinic'
loop_
_space_group_symop_operation_xyz
x,y,z
-x,1/2+y,1/2-z
-x,-y,-z
x,1/2-y,1/2+z
loop_
_atom_site_type_symbol
_atom_site_label
_atom_site_fract_x
_atom_site_fract_y
_atom_site_fract_z
Si Si1 0.500000 0.500000 0.500000
Si Si2 0.372220 0.421185 0.753394
Si Si3 0.325963 0.188099 0.526031
Si Si4 0.182242 0.884846 0.993489
Si Si5 0.082763 0.440648 0.776950
Si Si6 0.265831 0.636028 0.001418
O O1 0.580424 0.595662 0.737739
O O2 0.412265 0.605865 0.281205
O O3 0.378290 0.319030 0.630597
O O4 0.257107 0.510021 0.523566
O O5 0.500000 0.500000 0.000000
O O6 0.328076 0.350087 0.842914
O O7 0.178533 0.162427 0.364646
O O8 0.222116 0.765494 0.972954
O O9 0.239290 0.885620 0.268620
O O10 0.025572 0.900704 0.764210
O O11 0.000000 0.500000 0.500000
O O12 0.178650 0.546697 0.973803
#
# Coordination Sequence:
#
# PCOD9244635 Si02
#       6
#     2   4   4   4   4   4
#     4  10  20  42  66  88 136 178 222 260 344 384
#     4  12  27  44  67 102 137 179 230 275 348 400
#     4  11  25  43  70  99 134 182 220 294 327 411
#     4  11  23  44  68 102 131 179 221 280 334 404
#     4   9  19  43  71  92 138 175 225 268 348 392
#     4  10  22  41  69  95 135 176 222 279 331 404
#
# _framework density 23.018951999999999
#
# number of rings (size 3 to 8) (size 9 to 14) (size 15 to 20)
#    0.000    1.455    5.455    1.091    5.091    4.364 
#    3.273    0.909    0.000    0.000    0.000    0.000 
#    0.000    0.000    0.000    0.000    0.000    0.000 
#
# Total GULP energy -122514.224997 kJ/mol
# GULP energy per Si atom -5568.828409 kJ/mol
# Density = 2.296656 g / cm^3
# Si number density = 23.018952 Si / 1000 Ang^3
#
#
#
# Elastic Constant Matrix: (Units=GPa)
#
#
# Indices 1 2 3 4 5 6 
#
# 1 60.0585 60.7077 12.2811 0.0000 23.3844 0.0000
# 2 60.7077 150.1849 2.2743 0.0000 11.2269 0.0000
# 3 12.2811 2.2743 47.6426 0.0000 5.6629 0.0000
# 4 0.0000 0.0000 0.0000 -35.6538 0.0000 -180.6421
# 5 23.3844 11.2269 5.6629 0.0000 15.3509 0.0000
# 6 0.0000 0.0000 0.0000 -180.6421 0.0000 -436.1578
#
#
#
# Elastic Compliance Matrix: (Units=1/GPa)
#
#
# Indices 1 2 3 4 5 6 
#
# 1 0.093886 -0.028951 -0.008719 0.000000 -0.118629 0.000000
# 2 -0.028951 0.015975 0.002977 0.000000 0.031320 0.000000
# 3 -0.008719 0.002977 0.022774 0.000000 0.002703 0.000000
# 4 0.000000 0.000000 0.000000 0.025535 0.000000 -0.010576
# 5 -0.118629 0.031320 0.002703 0.000000 0.221950 0.000000
# 6 0.000000 0.000000 0.000000 -0.010576 0.000000 0.002087
#
#
# Mechanical properties :
#
#
# Convention : Reuss Voigt Hill
#
# Bulk Modulus (GPa) = 15.81022 45.37913 30.59468
# Shear Modulus (GPa) = 10.57811 -79.11728 -34.26959
#
# Velocity S-wave (km/s) = 2.14601 -5.86900 -3.86263
# Velocity P-wave (km/s) = 3.60884 5.11568 2.56383
#
# Compressibility (1/GPa) = 0.06325024
#
# Stress axis : x y z
#
# Youngs Moduli (GPa) = 10.65118 62.59969 43.91027
#
# Poissons Ratio (x) = 1.81230 0.38285
# Poissons Ratio (y) = 0.30836 -0.13074
# Poissons Ratio (z) = 0.09287 -0.18639
#
# Static dielectric constant tensor:
#      x y z
#    x 1.969080 0.000000 0.030400 
#    y 0.000000 1.842300 0.000000 
#    z 0.030400 0.000000 1.862140 
# 
# From -- ./inp_files/17806.got.cif
#   From: 2010.05.17/outbox.cif.g08.bks.cpg/sg14_9_cif.got.tgz:17806.got - 2010.06.03 17:49:19.
