data_PCOD9244181
_publ_section_title
;
Structure prediction by ZEFSAII (Michael W. Deem and Ramdas Pophale) SiO2 
 PCOD9244181
Probable space group: P 21/C
;
_chemical_formula_sum "Si O2"
_cell_formula_units_Z 32
_cell_length_a 7.819682
_cell_length_b 15.770367
_cell_length_c 11.108607
_cell_angle_alpha 90.000000
_cell_angle_beta 117.768380
_cell_angle_gamma 90.000000
_cell_volume 1212.144434
_symmetry_space_group_name_H-M "P 21/C"
_symmetry_group_IT_number 14
_symmetry_cell_setting 'monoclinic'
loop_
_space_group_symop_operation_xyz
x,y,z
-x,1/2+y,1/2-z
-x,-y,-z
x,1/2-y,1/2+z
loop_
_atom_site_type_symbol
_atom_site_label
_atom_site_fract_x
_atom_site_fract_y
_atom_site_fract_z
Si Si1 0.018036 0.769242 0.016907
Si Si2 0.197989 0.613527 0.866050
Si Si3 0.065131 0.589424 0.068256
Si Si4 0.796028 0.623276 0.621037
Si Si5 0.599625 0.238382 0.195761
Si Si6 0.640532 0.044774 0.162952
Si Si7 0.735574 0.783405 0.736692
Si Si8 0.581617 0.972152 0.659976
O O1 0.914754 0.850622 0.041830
O O2 0.700055 0.787628 0.125649
O O3 0.940730 0.674531 0.028139
O O4 0.231148 0.756553 0.145748
O O5 0.329855 0.692905 0.875372
O O6 0.247588 0.540804 0.787008
O O7 0.966115 0.617469 0.776901
O O8 0.229892 0.605042 0.019911
O O9 0.141465 0.568497 0.224227
O O10 0.000000 0.500000 0.000000
O O11 0.669608 0.536985 0.584277
O O12 0.958111 0.781975 0.858247
O O13 0.579396 0.143810 0.131477
O O14 0.398774 0.248622 0.197620
O O15 0.532452 0.013799 0.250854
O O16 0.665416 0.877467 0.683507
O O17 0.500000 0.000000 0.500000
#
# Coordination Sequence:
#
# PCOD9244181 Si02
#       8
#     4   4   4   4   4   4   4   4
#     4  10  23  43  61  96 136 176 228 275 359 408
#     4  11  21  37  63  98 129 172 223 282 348 408
#     4  11  19  34  65  94 130 170 223 294 339 406
#     4  11  23  38  66  93 135 182 222 279 349 421
#     4   9  23  41  64  92 133 176 227 281 344 416
#     4  10  20  40  61  92 133 175 226 280 340 412
#     4  11  23  43  67 101 139 178 226 292 343 423
#     4  11  24  38  67 102 132 168 230 288 348 404
#
# _framework density 26.399493
#
# number of rings (size 3 to 8) (size 9 to 14) (size 15 to 20)
#    0.000    1.500    3.750    0.750    1.750    3.000 
#    0.000    5.000    2.750    0.000    0.000    0.000 
#    0.000    0.000    0.000    0.000    0.000    0.000 
#
# Total GULP energy -178242.845397 kJ/mol
# GULP energy per Si atom -5570.088919 kJ/mol
# Density = 2.633941 g / cm^3
# Si number density = 26.399493 Si / 1000 Ang^3
#
#
#
# Elastic Constant Matrix: (Units=GPa)
#
#
# Indices 1 2 3 4 5 6 
#
# 1 81.5716 60.9069 7.4004 0.0000 -11.7943 0.0000
# 2 60.9069 137.7496 2.9290 0.0000 -11.5007 0.0000
# 3 7.4004 2.9290 22.2214 0.0000 2.5049 0.0000
# 4 0.0000 0.0000 0.0000 54.2853 0.0000 -11.9487
# 5 -11.7943 -11.5007 2.5049 0.0000 32.0477 0.0000
# 6 0.0000 0.0000 0.0000 -11.9487 0.0000 60.9842
#
#
#
# Elastic Compliance Matrix: (Units=1/GPa)
#
#
# Indices 1 2 3 4 5 6 
#
# 1 0.019552 -0.008122 -0.005976 0.000000 0.004748 0.000000
# 2 -0.008122 0.010895 0.001175 0.000000 0.000829 0.000000
# 3 -0.005976 0.001175 0.047455 0.000000 -0.005487 0.000000
# 4 0.000000 0.000000 0.000000 0.019251 0.000000 0.003772
# 5 0.004748 0.000829 -0.005487 0.000000 0.033677 0.000000
# 6 0.000000 0.000000 0.000000 0.003772 0.000000 0.017137
#
#
# Mechanical properties :
#
#
# Convention : Reuss Voigt Hill
#
# Bulk Modulus (GPa) = 19.20959 42.66834 30.93897
# Shear Modulus (GPa) = 26.15544 40.81721 33.48632
#
# Velocity S-wave (km/s) = 3.15104 3.93636 3.56539
# Velocity P-wave (km/s) = 4.53112 6.07104 5.35671
#
# Compressibility (1/GPa) = 0.05205734
#
# Stress axis : x y z
#
# Youngs Moduli (GPa) = 51.14578 91.78728 21.07240
#
# Poissons Ratio (x) = 0.74545 0.12593
# Poissons Ratio (y) = 0.41538 -0.02477
# Poissons Ratio (z) = 0.30565 -0.10787
#
# Static dielectric constant tensor:
#      x y z
#    x 2.287490 0.000000 0.192280 
#    y 0.000000 2.376830 0.000000 
#    z 0.192280 0.000000 2.309320 
# 
# From -- ./inp_files/40977.got.cif
#   From: 2010.05.17/outbox.cif.g08.bks.cpg/sg14_21_cif.got.tgz:40977.got - 2010.06.03 17:49:19.
