data_PCOD9244782
_publ_section_title
;
Structure prediction by ZEFSAII (Michael W. Deem and Ramdas Pophale) SiO2 
 PCOD9244782
Probable space group: P 21/C
;
_chemical_formula_sum "Si O2"
_cell_formula_units_Z 32
_cell_length_a 12.201888
_cell_length_b 8.305149
_cell_length_c 23.655826
_cell_angle_alpha 90.000000
_cell_angle_beta 144.912485
_cell_angle_gamma 90.000000
_cell_volume 1378.001558
_symmetry_space_group_name_H-M "P 21/C"
_symmetry_group_IT_number 14
_symmetry_cell_setting 'monoclinic'
loop_
_space_group_symop_operation_xyz
x,y,z
-x,1/2+y,1/2-z
-x,-y,-z
x,1/2-y,1/2+z
loop_
_atom_site_type_symbol
_atom_site_label
_atom_site_fract_x
_atom_site_fract_y
_atom_site_fract_z
Si Si1 0.089208 0.274945 0.516523
Si Si2 0.674936 0.222311 0.656784
Si Si3 0.838538 0.083221 0.617885
Si Si4 0.253098 0.414413 0.347522
Si Si5 0.568974 0.926013 0.351865
Si Si6 0.416717 0.752971 0.077114
Si Si7 0.910778 0.715747 0.614113
Si Si8 0.701398 0.413480 0.368155
O O1 0.213406 0.114495 0.571887
O O2 0.096408 0.325045 0.454036
O O3 0.197041 0.414369 0.596465
O O4 0.868728 0.279933 0.439315
O O5 0.696920 0.107900 0.611380
O O6 0.682452 0.404908 0.638446
O O7 0.503376 0.184614 0.626573
O O8 0.869824 0.198033 0.774238
O O9 0.764036 0.199126 0.536766
O O10 0.050981 0.121181 0.730882
O O11 0.849316 0.900482 0.600370
O O12 0.410312 0.292506 0.391308
O O13 0.214747 0.393150 0.397606
O O14 0.443874 0.890115 0.243973
O O15 0.538157 0.103777 0.362553
O O16 0.391515 0.900775 0.109468
#
# Coordination Sequence:
#
# PCOD9244782 Si02
#       8
#     4   4   4   4   4   4   4   4
#     4  11  24  45  71  93 129 182 218 274 328 388
#     4  10  22  41  68  99 138 170 212 275 329 394
#     4  10  23  42  64 102 136 173 215 267 338 394
#     4  10  24  40  68 102 135 172 213 274 328 396
#     4  12  24  44  69  97 134 175 221 276 326 389
#     4  12  26  42  68 100 131 178 219 271 330 397
#     4  10  20  44  67  98 134 173 217 265 334 392
#     4  11  27  46  65  99 132 174 230 272 325 387
#
# _framework density 23.222035000000002
#
# number of rings (size 3 to 8) (size 9 to 14) (size 15 to 20)
#    0.000    1.250    2.500    2.250    3.500    6.000 
#    0.000    0.000    0.000    0.000    0.000    0.000 
#    0.000    0.000    0.000    0.000    0.000    0.000 
#
# Total GULP energy -179175.466550 kJ/mol
# GULP energy per Si atom -5599.233330 kJ/mol
# Density = 2.316918 g / cm^3
# Si number density = 23.222035 Si / 1000 Ang^3
#
#
#
# Elastic Constant Matrix: (Units=GPa)
#
#
# Indices 1 2 3 4 5 6 
#
# 1 74.6026 0.8065 21.8255 0.0000 -3.3579 0.0000
# 2 0.8065 43.2225 -5.1417 0.0000 12.4298 0.0000
# 3 21.8255 -5.1417 82.9251 0.0000 -3.2219 0.0000
# 4 0.0000 0.0000 0.0000 28.2467 0.0000 -1.2599
# 5 -3.3579 12.4298 -3.2219 0.0000 24.7291 0.0000
# 6 0.0000 0.0000 0.0000 -1.2599 0.0000 37.4891
#
#
#
# Elastic Compliance Matrix: (Units=1/GPa)
#
#
# Indices 1 2 3 4 5 6 
#
# 1 0.014644 -0.001355 -0.003854 0.000000 0.002167 0.000000
# 2 -0.001355 0.027281 0.001516 0.000000 -0.013699 0.000000
# 3 -0.003854 0.001516 0.013184 0.000000 0.000432 0.000000
# 4 0.000000 0.000000 0.000000 0.035455 0.000000 0.001192
# 5 0.002167 -0.013699 0.000432 0.000000 0.047675 0.000000
# 6 0.000000 0.000000 0.000000 0.001192 0.000000 0.026714
#
#
# Mechanical properties :
#
#
# Convention : Reuss Voigt Hill
#
# Bulk Modulus (GPa) = 20.95414 26.19232 23.57323
# Shear Modulus (GPa) = 26.56067 30.31030 28.43549
#
# Velocity S-wave (km/s) = 3.38564 3.61673 3.50309
# Velocity P-wave (km/s) = 4.93218 5.36139 5.15126
#
# Compressibility (1/GPa) = 0.04772326
#
# Stress axis : x y z
#
# Youngs Moduli (GPa) = 68.28682 36.65519 75.84804
#
# Poissons Ratio (x) = 0.04967 0.29232
# Poissons Ratio (y) = 0.09253 -0.11498
# Poissons Ratio (z) = 0.26318 -0.05557
#
# Static dielectric constant tensor:
#      x y z
#    x 1.824440 0.000000 0.023770 
#    y 0.000000 1.865770 0.000000 
#    z 0.023770 0.000000 1.864100 
# 
# From -- ./inp_files/73130.got.cif
#   From: 2010.05.17/outbox.cif.g08.bks.cpg/sg14_37_cif.got.tgz:73130.got - 2010.06.03 17:49:19.
