data_PCOD9244512
_publ_section_title
;
Structure prediction by ZEFSAII (Michael W. Deem and Ramdas Pophale) SiO2 
 PCOD9244512
Probable space group: P 21/C
;
_chemical_formula_sum "Si O2"
_cell_formula_units_Z 24
_cell_length_a 9.781207
_cell_length_b 9.101363
_cell_length_c 15.024325
_cell_angle_alpha 90.000000
_cell_angle_beta 42.267887
_cell_angle_gamma 90.000000
_cell_volume 899.599774
_symmetry_space_group_name_H-M "P 21/C"
_symmetry_group_IT_number 14
_symmetry_cell_setting 'monoclinic'
loop_
_space_group_symop_operation_xyz
x,y,z
-x,1/2+y,1/2-z
-x,-y,-z
x,1/2-y,1/2+z
loop_
_atom_site_type_symbol
_atom_site_label
_atom_site_fract_x
_atom_site_fract_y
_atom_site_fract_z
Si Si1 0.337406 0.518815 0.756895
Si Si2 0.862741 0.220303 0.046363
Si Si3 0.186474 0.898657 0.747458
Si Si4 0.996955 0.089472 0.706052
Si Si5 0.648245 0.382745 0.010262
Si Si6 0.334770 0.317449 0.306727
O O1 0.215299 0.515663 0.723250
O O2 0.543585 0.612550 0.668960
O O3 0.370643 0.356609 0.776419
O O4 0.182566 0.617505 0.890892
O O5 0.095220 0.178019 0.930668
O O6 0.757733 0.240157 0.001499
O O7 0.773520 0.118865 0.167764
O O8 0.035662 0.760460 0.795888
O O9 0.368861 0.869385 0.588275
O O10 0.062287 0.038577 0.772512
O O11 0.187087 0.014991 0.561597
O O12 0.443694 0.389301 0.166434
#
# Coordination Sequence:
#
# PCOD9244512 Si02
#       6
#     4   4   4   4   4   4
#     4  10  22  40  66  95 128 168 214 262 325 379
#     4  10  20  41  67  91 123 177 212 255 326 384
#     4   9  20  36  67  89 125 177 209 258 331 374
#     4   9  19  42  63  87 128 170 213 263 322 379
#     4   9  21  39  63  92 129 158 222 267 316 375
#     4  11  21  36  67  98 124 170 214 267 314 387
#
# _framework density 26.678529000000001
#
# number of rings (size 3 to 8) (size 9 to 14) (size 15 to 20)
#    1.000    1.333    1.667    0.500    7.000    1.333 
#    0.000   28.333    0.000    4.000    0.000    0.000 
#    0.000    0.000    0.000    0.000    0.000    0.000 
#
# Total GULP energy -134018.328417 kJ/mol
# GULP energy per Si atom -5584.097017 kJ/mol
# Density = 2.661781 g / cm^3
# Si number density = 26.678529 Si / 1000 Ang^3
#
#
#
# Elastic Constant Matrix: (Units=GPa)
#
#
# Indices 1 2 3 4 5 6 
#
# 1 165.3629 9.0440 42.7071 0.0000 -16.3741 0.0000
# 2 9.0440 84.8883 36.8947 0.0000 -10.1645 0.0000
# 3 42.7071 36.8947 149.2659 0.0000 -36.2068 0.0000
# 4 0.0000 0.0000 0.0000 49.8037 0.0000 -5.7708
# 5 -16.3741 -10.1645 -36.2068 0.0000 34.2477 0.0000
# 6 0.0000 0.0000 0.0000 -5.7708 0.0000 48.4072
#
#
#
# Elastic Compliance Matrix: (Units=1/GPa)
#
#
# Indices 1 2 3 4 5 6 
#
# 1 0.006593 0.000157 -0.001545 0.000000 0.001565 0.000000
# 2 0.000157 0.013212 -0.003149 0.000000 0.000667 0.000000
# 3 -0.001545 -0.003149 0.010105 0.000000 0.009010 0.000000
# 4 0.000000 0.000000 0.000000 0.020360 0.000000 0.002427
# 5 0.001565 0.000667 0.009010 0.000000 0.039671 0.000000
# 6 0.000000 0.000000 0.000000 0.002427 0.000000 0.020947
#
#
# Mechanical properties :
#
#
# Convention : Reuss Voigt Hill
#
# Bulk Modulus (GPa) = 47.99540 64.08987 56.04263
# Shear Modulus (GPa) = 39.39853 47.21646 43.30750
#
# Velocity S-wave (km/s) = 3.84707 4.21150 4.03340
# Velocity P-wave (km/s) = 6.14513 6.90827 6.53784
#
# Compressibility (1/GPa) = 0.02083533
#
# Stress axis : x y z
#
# Youngs Moduli (GPa) = 151.68031 75.68962 98.95661
#
# Poissons Ratio (x) = -0.01186 0.15294
# Poissons Ratio (y) = -0.02376 0.31157
# Poissons Ratio (z) = 0.23442 0.23831
#
# Static dielectric constant tensor:
#      x y z
#    x 2.130460 0.000000 0.070260 
#    y 0.000000 2.188530 0.000000 
#    z 0.070260 0.000000 2.165150 
# 
# From -- ./inp_files/44274.got.cif
#   From: 2010.05.17/outbox.cif.g08.bks.cpg/sg14_23_cif.got.tgz:44274.got - 2010.06.03 17:49:19.
