data_PCOD9244590
_publ_section_title
;
Structure prediction by ZEFSAII (Michael W. Deem and Ramdas Pophale) SiO2 
 PCOD9244590
Probable space group: P 21/C
;
_chemical_formula_sum "Si O2"
_cell_formula_units_Z 32
_cell_length_a 11.607279
_cell_length_b 9.135974
_cell_length_c 14.113014
_cell_angle_alpha 90.000000
_cell_angle_beta 97.511914
_cell_angle_gamma 90.000000
_cell_volume 1483.753370
_symmetry_space_group_name_H-M "P 21/C"
_symmetry_group_IT_number 14
_symmetry_cell_setting 'monoclinic'
loop_
_space_group_symop_operation_xyz
x,y,z
-x,1/2+y,1/2-z
-x,-y,-z
x,1/2-y,1/2+z
loop_
_atom_site_type_symbol
_atom_site_label
_atom_site_fract_x
_atom_site_fract_y
_atom_site_fract_z
Si Si1 0.571260 0.409349 0.120955
Si Si2 0.524242 0.769505 0.553418
Si Si3 0.783463 0.834218 0.113859
Si Si4 0.200837 0.921347 0.735900
Si Si5 0.131790 0.563084 0.526729
Si Si6 0.815185 0.186646 0.600680
Si Si7 0.331839 0.676240 0.665677
Si Si8 0.966430 0.929933 0.599066
O O1 0.518164 0.567185 0.096410
O O2 0.692108 0.392633 0.074786
O O3 0.605092 0.382918 0.233194
O O4 0.491811 0.287752 0.061402
O O5 0.652170 0.719172 0.593890
O O6 0.422462 0.672732 0.588734
O O7 0.877999 0.707457 0.099221
O O8 0.796609 0.917661 0.216789
O O9 0.798576 0.954537 0.033770
O O10 0.201746 0.810358 0.823694
O O11 0.299528 0.847399 0.681619
O O12 0.083050 0.899274 0.666841
O O13 0.135540 0.726099 0.483516
O O14 0.212481 0.586601 0.628875
O O15 0.000000 0.500000 0.500000
O O16 0.902871 0.064302 0.643910
O O17 0.000000 0.000000 0.500000
#
# Coordination Sequence:
#
# PCOD9244590 Si02
#       8
#     4   4   4   4   4   4   4   4
#     4  10  23  43  67  95 137 185 222 285 354 423
#     4  11  24  44  69  96 145 177 236 292 347 425
#     4  11  25  44  68 106 135 181 237 292 352 416
#     4  10  24  42  67  95 137 178 232 285 348 423
#     4  11  23  44  70  99 137 176 232 287 348 420
#     4  10  20  42  63  91 132 180 217 276 355 401
#     4  11  24  43  71 100 135 190 234 281 366 417
#     4  12  23  40  68  99 137 181 231 289 354 415
#
# _framework density 21.566928000000001
#
# number of rings (size 3 to 8) (size 9 to 14) (size 15 to 20)
#    0.000    1.250    2.500    3.000    1.750    4.500 
#    4.500    0.000    0.000    0.000    0.000    0.000 
#    0.000    0.000    0.000    0.000    0.000    0.000 
#
# Total GULP energy -178394.271932 kJ/mol
# GULP energy per Si atom -5574.820998 kJ/mol
# Density = 2.151784 g / cm^3
# Si number density = 21.566928 Si / 1000 Ang^3
#
#
#
# Elastic Constant Matrix: (Units=GPa)
#
#
# Indices 1 2 3 4 5 6 
#
# 1 105.6971 33.2631 42.3911 0.0000 14.8578 0.0000
# 2 33.2631 69.6634 15.0170 0.0000 -1.0998 0.0000
# 3 42.3911 15.0170 97.1811 0.0000 20.3373 0.0000
# 4 0.0000 0.0000 0.0000 26.0986 0.0000 9.6007
# 5 14.8578 -1.0998 20.3373 0.0000 28.6180 0.0000
# 6 0.0000 0.0000 0.0000 9.6007 0.0000 30.0766
#
#
#
# Elastic Compliance Matrix: (Units=1/GPa)
#
#
# Indices 1 2 3 4 5 6 
#
# 1 0.013483 -0.005619 -0.004115 0.000000 -0.004292 0.000000
# 2 -0.005619 0.017355 -0.001152 0.000000 0.004403 0.000000
# 3 -0.004115 -0.001152 0.013891 0.000000 -0.007780 0.000000
# 4 0.000000 0.000000 0.000000 0.043414 0.000000 -0.013858
# 5 -0.004292 0.004403 -0.007780 0.000000 0.042869 0.000000
# 6 0.000000 0.000000 0.000000 -0.013858 0.000000 0.037672
#
#
# Mechanical properties :
#
#
# Convention : Reuss Voigt Hill
#
# Bulk Modulus (GPa) = 43.55868 50.43156 46.99512
# Shear Modulus (GPa) = 25.23863 29.08333 27.16098
#
# Velocity S-wave (km/s) = 3.42460 3.67620 3.55263
# Velocity P-wave (km/s) = 5.98982 6.43846 6.21819
#
# Compressibility (1/GPa) = 0.02295754
#
# Stress axis : x y z
#
# Youngs Moduli (GPa) = 74.16862 57.61888 71.98806
#
# Poissons Ratio (x) = 0.32373 0.29623
# Poissons Ratio (y) = 0.41672 0.08296
# Poissons Ratio (z) = 0.30520 0.06640
#
# Static dielectric constant tensor:
#      x y z
#    x 1.832650 0.000000 -0.014450 
#    y 0.000000 1.802040 0.000000 
#    z -0.014450 0.000000 1.847830 
# 
# From -- ./inp_files/43777.got.cif
#   From: 2010.05.17/outbox.cif.g08.bks.cpg/sg14_22_cif.got.tgz:43777.got - 2010.06.03 17:49:19.
