data_PCOD9244797
_publ_section_title
;
Structure prediction by ZEFSAII (Michael W. Deem and Ramdas Pophale) SiO2 
 PCOD9244797
Probable space group: P 21/C
;
_chemical_formula_sum "Si O2"
_cell_formula_units_Z 24
_cell_length_a 14.895756
_cell_length_b 11.669459
_cell_length_c 14.450052
_cell_angle_alpha 90.000000
_cell_angle_beta 26.520137
_cell_angle_gamma 90.000000
_cell_volume 1121.543506
_symmetry_space_group_name_H-M "P 21/C"
_symmetry_group_IT_number 14
_symmetry_cell_setting 'monoclinic'
loop_
_space_group_symop_operation_xyz
x,y,z
-x,1/2+y,1/2-z
-x,-y,-z
x,1/2-y,1/2+z
loop_
_atom_site_type_symbol
_atom_site_label
_atom_site_fract_x
_atom_site_fract_y
_atom_site_fract_z
Si Si1 0.032904 0.981646 0.748508
Si Si2 0.440130 0.131467 0.146789
Si Si3 0.659022 0.818346 0.557663
Si Si4 0.316133 0.527978 0.285945
Si Si5 0.726331 0.917745 0.890365
Si Si6 0.331984 0.646690 0.085841
O O1 0.182995 0.879394 0.638711
O O2 0.934046 0.965606 0.739511
O O3 0.159889 0.097935 0.637971
O O4 0.854361 0.987999 0.987309
O O5 0.349591 0.182446 0.323787
O O6 0.283134 0.113182 0.208966
O O7 0.608362 0.222036 0.957537
O O8 0.552209 0.012362 0.065196
O O9 0.457896 0.879655 0.706192
O O10 0.680348 0.695221 0.492283
O O11 0.240306 0.589021 0.262374
O O12 0.461244 0.423176 0.123186
#
# Coordination Sequence:
#
# PCOD9244797 Si02
#       6
#     4   4   4   4   4   4
#     4  11  24  41  70 103 131 177 234 283 334 405
#     4  11  24  45  71  96 139 184 222 279 351 412
#     4  11  24  44  69  95 135 186 223 281 341 407
#     4  10  20  44  69  99 137 175 230 282 335 407
#     4  11  25  45  67 101 136 178 229 279 348 411
#     4  10  22  41  73 100 130 180 227 286 342 398
#
# _framework density 21.399080000000001
#
# number of rings (size 3 to 8) (size 9 to 14) (size 15 to 20)
#    0.000    1.333    3.333    1.500    4.667    0.667 
#    3.000    0.000    0.000    0.000    0.000    0.000 
#    0.000    0.000    0.000    0.000    0.000    0.000 
#
# Total GULP energy -134257.879431 kJ/mol
# GULP energy per Si atom -5594.078310 kJ/mol
# Density = 2.135037 g / cm^3
# Si number density = 21.399080 Si / 1000 Ang^3
#
#
#
# Elastic Constant Matrix: (Units=GPa)
#
#
# Indices 1 2 3 4 5 6 
#
# 1 154.8888 30.0229 21.4558 0.0000 -8.4043 0.0000
# 2 30.0229 97.4764 12.1197 0.0000 -8.2208 0.0000
# 3 21.4558 12.1197 15.5057 0.0000 -10.9590 0.0000
# 4 0.0000 0.0000 0.0000 3.3481 0.0000 4.5201
# 5 -8.4043 -8.2208 -10.9590 0.0000 28.0375 0.0000
# 6 0.0000 0.0000 0.0000 4.5201 0.0000 24.0474
#
#
#
# Elastic Compliance Matrix: (Units=1/GPa)
#
#
# Indices 1 2 3 4 5 6 
#
# 1 0.008265 -0.001234 -0.012404 0.000000 -0.002733 0.000000
# 2 -0.001234 0.011548 -0.007167 0.000000 0.000215 0.000000
# 3 -0.012404 -0.007167 0.114882 0.000000 0.039085 0.000000
# 4 0.000000 0.000000 0.000000 0.400237 0.000000 -0.075231
# 5 -0.002733 0.000215 0.039085 0.000000 0.050187 0.000000
# 6 0.000000 0.000000 0.000000 -0.075231 0.000000 0.055725
#
#
# Mechanical properties :
#
#
# Convention : Reuss Voigt Hill
#
# Bulk Modulus (GPa) = 10.74281 43.89643 27.31962
# Shear Modulus (GPa) = 7.00786 24.70478 15.85632
#
# Velocity S-wave (km/s) = 1.81162 3.40145 2.72505
# Velocity P-wave (km/s) = 3.06709 5.99869 4.76399
#
# Compressibility (1/GPa) = 0.09308553
#
# Stress axis : x y z
#
# Youngs Moduli (GPa) = 120.98624 86.59357 8.70457
#
# Poissons Ratio (x) = 0.10685 0.10797
# Poissons Ratio (y) = 0.14929 0.06239
# Poissons Ratio (z) = 1.50070 0.62063
#
# Static dielectric constant tensor:
#      x y z
#    x 1.798570 0.000000 0.009250 
#    y 0.000000 1.768840 0.000000 
#    z 0.009250 0.000000 1.740040 
# 
# From -- ./inp_files/47048.got.cif
#   From: 2010.05.17/outbox.cif.g08.bks.cpg/sg14_24_cif.got.tgz:47048.got - 2010.06.03 17:49:19.
