data_PCOD9244832
_publ_section_title
;
Structure prediction by ZEFSAII (Michael W. Deem and Ramdas Pophale) SiO2 
 PCOD9244832
Probable space group: P 21/C
;
_chemical_formula_sum "Si O2"
_cell_formula_units_Z 28
_cell_length_a 9.531685
_cell_length_b 8.376943
_cell_length_c 21.050613
_cell_angle_alpha 90.000000
_cell_angle_beta 38.631922
_cell_angle_gamma 90.000000
_cell_volume 1049.358059
_symmetry_space_group_name_H-M "P 21/C"
_symmetry_group_IT_number 14
_symmetry_cell_setting 'monoclinic'
loop_
_space_group_symop_operation_xyz
x,y,z
-x,1/2+y,1/2-z
-x,-y,-z
x,1/2-y,1/2+z
loop_
_atom_site_type_symbol
_atom_site_label
_atom_site_fract_x
_atom_site_fract_y
_atom_site_fract_z
Si Si1 0.173907 0.275917 0.735065
Si Si2 0.960877 0.231911 0.031182
Si Si3 0.696238 0.231283 0.338812
Si Si4 0.500000 0.500000 0.500000
Si Si5 0.253454 0.428965 0.330395
Si Si6 0.341156 0.733369 0.480796
Si Si7 0.500000 0.000000 0.500000
Si Si8 0.252461 0.573979 0.797082
O O1 0.215048 0.142024 0.774031
O O2 0.386008 0.291207 0.611242
O O3 0.184534 0.437411 0.772027
O O4 0.954934 0.256694 0.770173
O O5 0.753919 0.242845 0.054565
O O6 0.941035 0.381401 0.084662
O O7 0.902280 0.076387 0.093454
O O8 0.173129 0.205432 0.910722
O O9 0.546688 0.365113 0.427391
O O10 0.586171 0.066270 0.399949
O O11 0.697078 0.272043 0.264673
O O12 0.277875 0.573246 0.539716
O O13 0.513778 0.467058 0.251158
O O14 0.307565 0.888362 0.534212
#
# Coordination Sequence:
#
# PCOD9244832 Si02
#       8
#     4   4   4   2   4   4   2   4
#     4  12  26  44  72 103 147 184 242 299 367 432
#     4  11  25  45  74 103 143 189 247 294 369 432
#     4  11  26  45  69 106 142 192 243 303 365 428
#     4  10  20  46  70  92 144 186 238 290 358 430
#     4  11  23  46  73 101 137 194 237 297 365 435
#     4  11  22  45  68 107 148 188 237 308 351 437
#     4  10  26  40  68 100 142 188 242 292 352 420
#     4  12  25  46  70 108 144 189 239 305 367 435
#
# _framework density 26.682980000000001
#
# number of rings (size 3 to 8) (size 9 to 14) (size 15 to 20)
#    0.000    0.857    4.286    1.714    4.000    4.000 
#    7.714    0.000    0.000    0.000    0.000    0.000 
#    0.000    0.000    0.000    0.000    0.000    0.000 
#
# Total GULP energy -155892.533234 kJ/mol
# GULP energy per Si atom -5567.590473 kJ/mol
# Density = 2.662225 g / cm^3
# Si number density = 26.682980 Si / 1000 Ang^3
#
#
#
# Elastic Constant Matrix: (Units=GPa)
#
#
# Indices 1 2 3 4 5 6 
#
# 1 101.4362 24.7934 5.2560 0.0000 -7.8057 0.0000
# 2 24.7934 40.5492 1.0377 0.0000 -0.3323 0.0000
# 3 5.2560 1.0377 106.8621 0.0000 -0.8582 0.0000
# 4 0.0000 0.0000 0.0000 30.8500 0.0000 4.6788
# 5 -7.8057 -0.3323 -0.8582 0.0000 52.3900 0.0000
# 6 0.0000 0.0000 0.0000 4.6788 0.0000 19.5737
#
#
#
# Elastic Compliance Matrix: (Units=1/GPa)
#
#
# Indices 1 2 3 4 5 6 
#
# 1 0.011767 -0.007168 -0.000495 0.000000 0.001700 0.000000
# 2 -0.007168 0.029035 0.000064 0.000000 -0.000883 0.000000
# 3 -0.000495 0.000064 0.009382 0.000000 0.000080 0.000000
# 4 0.000000 0.000000 0.000000 0.033634 0.000000 -0.008040
# 5 0.001700 -0.000883 0.000080 0.000000 0.019337 0.000000
# 6 0.000000 0.000000 0.000000 -0.008040 0.000000 0.053011
#
#
# Mechanical properties :
#
#
# Convention : Reuss Voigt Hill
#
# Bulk Modulus (GPa) = 28.58419 34.55795 31.57107
# Shear Modulus (GPa) = 27.31822 35.08009 31.19915
#
# Velocity S-wave (km/s) = 3.20317 3.62981 3.42314
# Velocity P-wave (km/s) = 4.94127 5.52692 5.24228
#
# Compressibility (1/GPa) = 0.03498437
#
# Stress axis : x y z
#
# Youngs Moduli (GPa) = 84.98387 34.44065 106.58418
#
# Poissons Ratio (x) = 0.24688 0.05281
# Poissons Ratio (y) = 0.60918 -0.00677
# Poissons Ratio (z) = 0.04211 -0.00219
#
# Static dielectric constant tensor:
#      x y z
#    x 1.990180 0.000000 -0.009110 
#    y 0.000000 0.954130 0.000000 
#    z -0.009110 0.000000 2.032620 
# 
# From -- ./inp_files/46778.got.cif
#   From: 2010.05.17/outbox.cif.g08.bks.cpg/sg14_24_cif.got.tgz:46778.got - 2010.06.03 17:49:19.
