data_PCOD9244644
_publ_section_title
;
Structure prediction by ZEFSAII (Michael W. Deem and Ramdas Pophale) SiO2 
 PCOD9244644
Probable space group: P 21/C
;
_chemical_formula_sum "Si O2"
_cell_formula_units_Z 30
_cell_length_a 14.103457
_cell_length_b 8.861827
_cell_length_c 10.892993
_cell_angle_alpha 90.000000
_cell_angle_beta 118.779358
_cell_angle_gamma 90.000000
_cell_volume 1193.268491
_symmetry_space_group_name_H-M "P 21/C"
_symmetry_group_IT_number 14
_symmetry_cell_setting 'monoclinic'
loop_
_space_group_symop_operation_xyz
x,y,z
-x,1/2+y,1/2-z
-x,-y,-z
x,1/2-y,1/2+z
loop_
_atom_site_type_symbol
_atom_site_label
_atom_site_fract_x
_atom_site_fract_y
_atom_site_fract_z
Si Si1 0.500000 0.500000 0.000000
Si Si2 0.140879 0.518542 0.522070
Si Si3 0.361884 0.986526 0.745163
Si Si4 0.318562 0.395517 0.483429
Si Si5 0.990151 0.757286 0.492908
Si Si6 0.499279 0.267349 0.773503
Si Si7 0.977249 0.498115 0.193326
Si Si8 0.744105 0.930665 0.560019
O O1 0.514855 0.637442 0.111484
O O2 0.367690 0.490852 0.951255
O O3 0.260306 0.498465 0.547538
O O4 0.104221 0.668971 0.566125
O O5 0.103041 0.368565 0.568879
O O6 0.063039 0.515590 0.353925
O O7 0.340962 0.011653 0.874503
O O8 0.466123 0.095219 0.778428
O O9 0.270496 0.049953 0.597409
O O10 0.388113 0.817277 0.717771
O O11 0.419357 0.318175 0.613889
O O12 0.247661 0.247633 0.406598
O O13 0.978772 0.855690 0.607066
O O14 0.989914 0.862090 0.374632
O O15 0.853550 0.483409 0.160273
#
# Coordination Sequence:
#
# PCOD9244644 Si02
#       8
#     2   4   4   4   4   4   4   4
#     4  10  20  42  66  98 122 162 224 268 320 408
#     4  11  24  42  66  98 133 175 224 275 329 405
#     4  10  22  41  65  92 131 171 222 271 334 398
#     4  11  22  40  66  96 128 180 222 267 337 406
#     4  10  24  41  62  94 134 169 222 276 324 396
#     4  10  22  41  65  94 128 170 218 276 334 390
#     4  11  23  42  68  94 135 180 218 277 345 383
#     4  10  22  39  68  95 125 178 223 272 335 399
#
# _framework density 25.141031999999999
#
# number of rings (size 3 to 8) (size 9 to 14) (size 15 to 20)
#    0.000    1.600    2.667    1.200    3.733    2.133 
#    4.800    0.000    2.933    0.000    0.000    0.000 
#    0.000    0.000    0.000    0.000    0.000    0.000 
#
# Total GULP energy -167445.018639 kJ/mol
# GULP energy per Si atom -5581.500621 kJ/mol
# Density = 2.508381 g / cm^3
# Si number density = 25.141032 Si / 1000 Ang^3
#
#
#
# Elastic Constant Matrix: (Units=GPa)
#
#
# Indices 1 2 3 4 5 6 
#
# 1 85.6300 11.3565 9.1419 0.0000 -18.6025 0.0000
# 2 11.3565 57.2154 27.0370 0.0000 -12.2630 0.0000
# 3 9.1419 27.0370 72.0338 0.0000 -4.8762 0.0000
# 4 0.0000 0.0000 0.0000 21.5019 0.0000 -1.1171
# 5 -18.6025 -12.2630 -4.8762 0.0000 24.0820 0.0000
# 6 0.0000 0.0000 0.0000 -1.1171 0.0000 27.6038
#
#
#
# Elastic Compliance Matrix: (Units=1/GPa)
#
#
# Indices 1 2 3 4 5 6 
#
# 1 0.014114 -0.000009 -0.001065 0.000000 0.010682 0.000000
# 2 -0.000009 0.023538 -0.008134 0.000000 0.010332 0.000000
# 3 -0.001065 -0.008134 0.016967 0.000000 -0.001529 0.000000
# 4 0.000000 0.000000 0.000000 0.046606 0.000000 0.001886
# 5 0.010682 0.010332 -0.001529 0.000000 0.054728 0.000000
# 6 0.000000 0.000000 0.000000 0.001886 0.000000 0.036303
#
#
# Mechanical properties :
#
#
# Convention : Reuss Voigt Hill
#
# Bulk Modulus (GPa) = 27.62178 34.43888 31.03033
# Shear Modulus (GPa) = 22.44786 25.79379 24.12083
#
# Velocity S-wave (km/s) = 2.99135 3.20654 3.10081
# Velocity P-wave (km/s) = 4.78972 5.23806 5.01890
#
# Compressibility (1/GPa) = 0.03620331
#
# Stress axis : x y z
#
# Youngs Moduli (GPa) = 70.85355 42.48482 58.93771
#
# Poissons Ratio (x) = 0.00037 0.06276
# Poissons Ratio (y) = 0.00061 0.47941
# Poissons Ratio (z) = 0.07545 0.34558
#
# Static dielectric constant tensor:
#      x y z
#    x 2.018980 0.000000 -0.012440 
#    y 0.000000 1.997510 0.000000 
#    z -0.012440 0.000000 1.979040 
# 
# From -- ./inp_files/31637.got.cif
#   From: 2010.05.17/outbox.cif.g08.bks.cpg/sg14_16_cif.got.tgz:31637.got - 2010.06.03 17:49:19.
