data_PCOD9244165
_publ_section_title
;
Structure prediction by ZEFSAII (Michael W. Deem and Ramdas Pophale) SiO2 
 PCOD9244165
Probable space group: P 21/C
;
_chemical_formula_sum "Si O2"
_cell_formula_units_Z 32
_cell_length_a 13.346638
_cell_length_b 11.966752
_cell_length_c 11.913942
_cell_angle_alpha 90.000000
_cell_angle_beta 50.091932
_cell_angle_gamma 90.000000
_cell_volume 1459.625292
_symmetry_space_group_name_H-M "P 21/C"
_symmetry_group_IT_number 14
_symmetry_cell_setting 'monoclinic'
loop_
_space_group_symop_operation_xyz
x,y,z
-x,1/2+y,1/2-z
-x,-y,-z
x,1/2-y,1/2+z
loop_
_atom_site_type_symbol
_atom_site_label
_atom_site_fract_x
_atom_site_fract_y
_atom_site_fract_z
Si Si1 0.426141 0.075522 0.642768
Si Si2 0.786805 0.255387 0.955132
Si Si3 0.986911 0.235314 0.125119
Si Si4 0.186112 0.924708 0.882443
Si Si5 0.169275 0.419618 0.585889
Si Si6 0.522221 0.542861 0.642107
Si Si7 0.476962 0.691946 0.471202
Si Si8 0.017317 0.599856 0.072670
O O1 0.496524 0.068004 0.713918
O O2 0.422326 0.204927 0.607420
O O3 0.500000 0.000000 0.500000
O O4 0.289020 0.013421 0.761264
O O5 0.904181 0.211700 0.787624
O O6 0.846852 0.370697 0.961139
O O7 0.755731 0.177658 0.085490
O O8 0.657734 0.248274 0.973146
O O9 0.897070 0.129537 0.155755
O O10 0.129741 0.200066 0.063599
O O11 0.001422 0.296419 0.996950
O O12 0.116429 0.992440 0.032277
O O13 0.321420 0.444007 0.491433
O O14 0.091534 0.420411 0.756368
O O15 0.458980 0.634529 0.605652
O O16 0.487317 0.416020 0.631445
O O17 0.000000 0.500000 0.000000
#
# Coordination Sequence:
#
# PCOD9244165 Si02
#       8
#     4   4   4   4   4   4   4   4
#     4  11  24  41  67 101 135 173 245 295 343 431
#     4  10  20  40  66  93 129 178 225 275 349 424
#     4  10  21  36  68  94 128 177 220 282 342 426
#     4  10  20  40  61  90 131 174 219 280 354 413
#     4  10  20  40  60  91 128 164 222 271 347 411
#     4  10  25  44  68  98 135 189 230 295 357 422
#     4  11  23  44  70  95 136 188 236 284 362 422
#     4  10  22  37  60 100 132 169 225 284 342 417
#
# _framework density 21.923434
#
# number of rings (size 3 to 8) (size 9 to 14) (size 15 to 20)
#    0.000    1.750    2.500    1.875    1.750    4.000 
#    2.250    5.000    0.000    0.000    0.000    0.000 
#    0.000    0.000    0.000    0.000    0.000    0.000 
#
# Total GULP energy -178420.858061 kJ/mol
# GULP energy per Si atom -5575.651814 kJ/mol
# Density = 2.187353 g / cm^3
# Si number density = 21.923434 Si / 1000 Ang^3
#
#
#
# Elastic Constant Matrix: (Units=GPa)
#
#
# Indices 1 2 3 4 5 6 
#
# 1 70.3087 47.7441 28.0559 0.0000 11.6156 0.0000
# 2 47.7441 119.7251 68.3593 0.0000 2.0235 0.0000
# 3 28.0559 68.3593 100.9316 0.0000 21.2866 0.0000
# 4 0.0000 0.0000 0.0000 31.5574 0.0000 13.8837
# 5 11.6156 2.0235 21.2866 0.0000 31.1759 0.0000
# 6 0.0000 0.0000 0.0000 13.8837 0.0000 33.4794
#
#
#
# Elastic Compliance Matrix: (Units=1/GPa)
#
#
# Indices 1 2 3 4 5 6 
#
# 1 0.021398 -0.009925 0.002710 0.000000 -0.009179 0.000000
# 2 -0.009925 0.019381 -0.012713 0.000000 0.011120 0.000000
# 3 0.002710 -0.012713 0.020799 0.000000 -0.014386 0.000000
# 4 0.000000 0.000000 0.000000 0.038760 0.000000 -0.016074
# 5 -0.009179 0.011120 -0.014386 0.000000 0.044597 0.000000
# 6 0.000000 0.000000 0.000000 -0.016074 0.000000 0.036535
#
#
# Mechanical properties :
#
#
# Convention : Reuss Voigt Hill
#
# Bulk Modulus (GPa) = 46.03758 64.36491 55.20124
# Shear Modulus (GPa) = 21.87551 29.02959 25.45255
#
# Velocity S-wave (km/s) = 3.16225 3.64281 3.41100
# Velocity P-wave (km/s) = 5.86327 6.86412 6.38334
#
# Compressibility (1/GPa) = 0.02172139
#
# Stress axis : x y z
#
# Youngs Moduli (GPa) = 46.73356 51.59618 48.08012
#
# Poissons Ratio (x) = 0.51211 -0.13030
# Poissons Ratio (y) = 0.46385 0.61124
# Poissons Ratio (z) = -0.12665 0.65594
#
# Static dielectric constant tensor:
#      x y z
#    x 1.858770 0.000000 -0.001590 
#    y 0.000000 1.930720 0.000000 
#    z -0.001590 0.000000 1.799710 
# 
# From -- ./inp_files/32369.got.cif
#   From: 2010.05.17/outbox.cif.g08.bks.cpg/sg14_17_cif.got.tgz:32369.got - 2010.06.03 17:49:19.
