data_PCOD9244288
_publ_section_title
;
Structure prediction by ZEFSAII (Michael W. Deem and Ramdas Pophale) SiO2 
 PCOD9244288
Probable space group: P 21/C
;
_chemical_formula_sum "Si O2"
_cell_formula_units_Z 20
_cell_length_a 7.765090
_cell_length_b 4.944747
_cell_length_c 27.930169
_cell_angle_alpha 90.000000
_cell_angle_beta 56.218090
_cell_angle_gamma 90.000000
_cell_volume 891.351095
_symmetry_space_group_name_H-M "P 21/C"
_symmetry_group_IT_number 14
_symmetry_cell_setting 'monoclinic'
loop_
_space_group_symop_operation_xyz
x,y,z
-x,1/2+y,1/2-z
-x,-y,-z
x,1/2-y,1/2+z
loop_
_atom_site_type_symbol
_atom_site_label
_atom_site_fract_x
_atom_site_fract_y
_atom_site_fract_z
Si Si1 0.808413 0.621210 0.690654
Si Si2 0.553790 0.115799 0.376364
Si Si3 0.369608 0.250902 0.999999
Si Si4 0.428960 0.121202 0.190656
Si Si5 0.059241 0.384196 0.123634
O O1 0.755628 0.750004 0.749999
O O2 0.598220 0.500004 0.700888
O O3 0.962320 0.368750 0.666402
O O4 0.901130 0.866207 0.644987
O O5 0.385214 0.225555 0.440450
O O6 0.627945 0.368742 0.333595
O O7 0.481091 0.866199 0.355011
O O8 0.747363 0.999999 0.376321
O O9 0.500000 0.500000 0.000000
O O10 0.147015 0.274444 0.059547
O O11 0.500000 0.000000 0.000000
#
# Coordination Sequence:
#
# PCOD9244288 Si02
#       5
#     4   4   4   4   4
#     4  12  25  44  64  90 132 173 207 257 325 378
#     4  11  23  42  69  97 124 163 216 263 308 377
#     4  10  20  40  65  94 131 164 199 260 331 370
#     4  12  25  44  64  90 132 173 207 257 325 378
#     4  11  23  42  69  97 124 163 216 263 308 377
#
# _framework density 22.437850000000001
#
# number of rings (size 3 to 8) (size 9 to 14) (size 15 to 20)
#    0.000    0.800    0.000   10.800    0.000    3.200 
#    0.000   10.000    0.000    0.000    0.000    0.000 
#    0.000    0.000    0.000    0.000    0.000    0.000 
#
# Total GULP energy -111904.158644 kJ/mol
# GULP energy per Si atom -5595.207932 kJ/mol
# Density = 2.238678 g / cm^3
# Si number density = 22.437850 Si / 1000 Ang^3
#
#
#
# Elastic Constant Matrix: (Units=GPa)
#
#
# Indices 1 2 3 4 5 6 
#
# 1 23.4036 18.7982 22.4433 0.0000 -1.3657 0.0000
# 2 18.7982 194.2613 77.5254 0.0000 -0.7917 0.0000
# 3 22.4433 77.5254 158.3236 0.0000 -0.4565 0.0000
# 4 0.0000 0.0000 0.0000 41.4624 0.0000 0.1737
# 5 -1.3657 -0.7917 -0.4565 0.0000 50.8835 0.0000
# 6 0.0000 0.0000 0.0000 0.1737 0.0000 54.3215
#
#
#
# Elastic Compliance Matrix: (Units=1/GPa)
#
#
# Indices 1 2 3 4 5 6 
#
# 1 0.050505 -0.002519 -0.005922 0.000000 0.001263 0.000000
# 2 -0.002519 0.006524 -0.002837 0.000000 0.000008 0.000000
# 3 -0.005922 -0.002837 0.008545 0.000000 -0.000126 0.000000
# 4 0.000000 0.000000 0.000000 0.024119 0.000000 -0.000077
# 5 0.001263 0.000008 -0.000126 0.000000 0.019686 0.000000
# 6 0.000000 0.000000 0.000000 -0.000077 0.000000 0.018409
#
#
# Mechanical properties :
#
#
# Convention : Reuss Voigt Hill
#
# Bulk Modulus (GPa) = 23.24697 68.16913 45.70805
# Shear Modulus (GPa) = 30.36150 46.48158 38.42154
#
# Velocity S-wave (km/s) = 3.68249 4.55639 4.14255
# Velocity P-wave (km/s) = 5.33518 7.62418 6.57998
#
# Compressibility (1/GPa) = 0.04301636
#
# Stress axis : x y z
#
# Youngs Moduli (GPa) = 19.80015 153.28467 117.03102
#
# Poissons Ratio (x) = 0.38605 0.69311
# Poissons Ratio (y) = 0.04987 0.33207
# Poissons Ratio (z) = 0.11727 0.43493
#
# Static dielectric constant tensor:
#      x y z
#    x 1.836600 0.000000 -0.000830 
#    y 0.000000 1.784330 0.000000 
#    z -0.000830 0.000000 1.897380 
# 
# From -- ./inp_files/75994.got.cif
#   From: 2010.05.17/outbox.cif.g08.bks.cpg/sg14_38_cif.got.tgz:75994.got - 2010.06.03 17:49:19.
