data_PCOD9244869
_publ_section_title
;
Structure prediction by ZEFSAII (Michael W. Deem and Ramdas Pophale) SiO2 
 PCOD9244869
Probable space group: P 21/C
;
_chemical_formula_sum "Si O2"
_cell_formula_units_Z 28
_cell_length_a 7.772562
_cell_length_b 15.693979
_cell_length_c 9.333153
_cell_angle_alpha 90.000000
_cell_angle_beta 80.315403
_cell_angle_gamma 90.000000
_cell_volume 1122.255838
_symmetry_space_group_name_H-M "P 21/C"
_symmetry_group_IT_number 14
_symmetry_cell_setting 'monoclinic'
loop_
_space_group_symop_operation_xyz
x,y,z
-x,1/2+y,1/2-z
-x,-y,-z
x,1/2-y,1/2+z
loop_
_atom_site_type_symbol
_atom_site_label
_atom_site_fract_x
_atom_site_fract_y
_atom_site_fract_z
Si Si1 0.395898 0.220016 0.997288
Si Si2 0.373666 0.595049 0.402003
Si Si3 0.965948 0.681050 0.974798
Si Si4 0.915245 0.164736 0.859413
Si Si5 0.718354 0.586386 0.681379
Si Si6 0.625837 0.124372 0.403453
Si Si7 0.731160 0.963931 0.512892
O O1 0.445453 0.145673 0.100870
O O2 0.211881 0.266793 0.044407
O O3 0.382440 0.172263 0.845961
O O4 0.548568 0.289053 0.973833
O O5 0.255649 0.622192 0.552527
O O6 0.364926 0.493556 0.388345
O O7 0.289535 0.630095 0.264922
O O8 0.891436 0.591549 0.047478
O O9 0.071119 0.669808 0.813237
O O10 0.059332 0.741375 0.076109
O O11 0.081210 0.107135 0.885876
O O12 0.719711 0.563996 0.847607
O O13 0.448733 0.068908 0.394837
O O14 0.728751 0.065887 0.501976
#
# Coordination Sequence:
#
# PCOD9244869 Si02
#       7
#     4   4   4   4   4   4   4
#     4  10  21  33  58  82 113 140 191 234 280 333
#     4  11  22  33  57  83 115 142 187 239 283 335
#     4   9  20  36  58  79 112 154 193 230 283 343
#     4  10  21  37  57  82 114 154 190 232 288 346
#     4   9  19  38  56  82 108 152 186 228 282 348
#     4   9  19  31  52  83 108 141 180 228 282 323
#     4   8  16  34  56  76 108 144 186 225 273 341
#
# _framework density 24.949746000000001
#
# number of rings (size 3 to 8) (size 9 to 14) (size 15 to 20)
#    0.000    2.571    0.000    0.857   12.000    0.000 
#    0.000    0.000    0.000    0.857    0.000    0.000 
#    0.000    0.000    0.000    0.000    0.000    0.000 
#
# Total GULP energy -156590.092905 kJ/mol
# GULP energy per Si atom -5592.503318 kJ/mol
# Density = 2.489296 g / cm^3
# Si number density = 24.949746 Si / 1000 Ang^3
#
#
#
# Elastic Constant Matrix: (Units=GPa)
#
#
# Indices 1 2 3 4 5 6 
#
# 1 81.4209 12.2040 10.2382 0.0000 -4.6615 0.0000
# 2 12.2040 102.4176 24.7090 0.0000 8.6665 0.0000
# 3 10.2382 24.7090 83.7869 0.0000 -12.0536 0.0000
# 4 0.0000 0.0000 0.0000 36.5302 0.0000 6.7068
# 5 -4.6615 8.6665 -12.0536 0.0000 28.7703 0.0000
# 6 0.0000 0.0000 0.0000 6.7068 0.0000 19.7359
#
#
#
# Elastic Compliance Matrix: (Units=1/GPa)
#
#
# Indices 1 2 3 4 5 6 
#
# 1 0.012733 -0.001510 -0.000796 0.000000 0.002184 0.000000
# 2 -0.001510 0.011339 -0.003922 0.000000 -0.005304 0.000000
# 3 -0.000796 -0.003922 0.014196 0.000000 0.007000 0.000000
# 4 0.000000 0.000000 0.000000 0.029196 0.000000 -0.009922
# 5 0.002184 -0.005304 0.007000 0.000000 0.039642 0.000000
# 6 0.000000 0.000000 0.000000 -0.009922 0.000000 0.054041
#
#
# Mechanical properties :
#
#
# Convention : Reuss Voigt Hill
#
# Bulk Modulus (GPa) = 38.74325 40.21420 39.47872
# Shear Modulus (GPa) = 27.44101 31.70555 29.57328
#
# Velocity S-wave (km/s) = 3.32000 3.56866 3.44657
# Velocity P-wave (km/s) = 5.50079 5.75617 5.62993
#
# Compressibility (1/GPa) = 0.02581095
#
# Stress axis : x y z
#
# Youngs Moduli (GPa) = 78.53370 88.19144 70.44186
#
# Poissons Ratio (x) = 0.13317 0.05610
# Poissons Ratio (y) = 0.11859 0.27630
# Poissons Ratio (z) = 0.06254 0.34592
#
# Static dielectric constant tensor:
#      x y z
#    x 2.027570 0.000000 0.002570 
#    y 0.000000 2.027900 0.000000 
#    z 0.002570 0.000000 1.935500 
# 
# From -- ./inp_files/25106.got.cif
#   From: 2010.05.17/outbox.cif.g08.bks.cpg/sg14_13_cif.got.tgz:25106.got - 2010.06.03 17:49:19.
