data_PCOD9244220
_publ_section_title
;
Structure prediction by ZEFSAII (Michael W. Deem and Ramdas Pophale) SiO2 
 PCOD9244220
Probable space group: P 21/C
;
_chemical_formula_sum "Si O2"
_cell_formula_units_Z 28
_cell_length_a 13.965355
_cell_length_b 11.282130
_cell_length_c 8.943504
_cell_angle_alpha 90.000000
_cell_angle_beta 113.698820
_cell_angle_gamma 90.000000
_cell_volume 1290.298475
_symmetry_space_group_name_H-M "P 21/C"
_symmetry_group_IT_number 14
_symmetry_cell_setting 'monoclinic'
loop_
_space_group_symop_operation_xyz
x,y,z
-x,1/2+y,1/2-z
-x,-y,-z
x,1/2-y,1/2+z
loop_
_atom_site_type_symbol
_atom_site_label
_atom_site_fract_x
_atom_site_fract_y
_atom_site_fract_z
Si Si1 0.944782 0.855018 0.338261
Si Si2 0.284563 0.029730 0.466607
Si Si3 0.853778 0.101670 0.367695
Si Si4 0.346472 0.825237 0.931503
Si Si5 0.175506 0.262769 0.481622
Si Si6 0.549672 0.385456 0.815581
Si Si7 0.677723 0.529273 0.340063
O O1 0.855105 0.794078 0.380968
O O2 0.054627 0.832217 0.486373
O O3 0.914849 0.994799 0.319614
O O4 0.931107 0.793982 0.171233
O O5 0.244860 0.163800 0.443785
O O6 0.280997 0.984963 0.294282
O O7 0.213633 0.958861 0.541069
O O8 0.400816 0.011312 0.603712
O O9 0.771701 0.171965 0.212241
O O10 0.419261 0.857466 0.835568
O O11 0.391858 0.709013 0.040883
O O12 0.347895 0.926188 0.059559
O O13 0.238213 0.383294 0.536240
O O14 0.426444 0.394243 0.756718
#
# Coordination Sequence:
#
# PCOD9244220 Si02
#       7
#     4   4   4   4   4   4   4
#     4  10  20  40  63  96 125 172 210 273 327 382
#     4  10  23  42  63  96 130 170 215 270 319 390
#     4   9  21  42  66  87 133 167 217 268 325 384
#     4  11  24  44  63  96 130 177 221 269 326 388
#     4  11  22  38  66  99 130 166 219 266 329 385
#     4  11  26  40  66  94 135 179 218 266 330 385
#     4  12  24  40  68  95 136 171 220 269 322 393
#
# _framework density 21.700406000000001
#
# number of rings (size 3 to 8) (size 9 to 14) (size 15 to 20)
#    0.000    1.429    2.857    1.714    4.000    2.286 
#    0.000    2.143    0.000    0.000    0.000    0.000 
#    0.000    0.000    0.000    0.000    0.000    0.000 
#
# Total GULP energy -156387.574807 kJ/mol
# GULP energy per Si atom -5585.270529 kJ/mol
# Density = 2.165101 g / cm^3
# Si number density = 21.700406 Si / 1000 Ang^3
#
#
#
# Elastic Constant Matrix: (Units=GPa)
#
#
# Indices 1 2 3 4 5 6 
#
# 1 30.4662 -4.5196 18.6915 0.0000 5.1667 0.0000
# 2 -4.5196 51.8945 33.7804 0.0000 5.6525 0.0000
# 3 18.6915 33.7804 112.8265 0.0000 1.5821 0.0000
# 4 0.0000 0.0000 0.0000 36.5969 0.0000 2.2821
# 5 5.1667 5.6525 1.5821 0.0000 42.5284 0.0000
# 6 0.0000 0.0000 0.0000 2.2821 0.0000 10.0822
#
#
#
# Elastic Compliance Matrix: (Units=1/GPa)
#
#
# Indices 1 2 3 4 5 6 
#
# 1 0.041642 0.010841 -0.010059 0.000000 -0.006126 0.000000
# 2 0.010841 0.027124 -0.009853 0.000000 -0.004556 0.000000
# 3 -0.010059 -0.009853 0.013451 0.000000 0.002031 0.000000
# 4 0.000000 0.000000 0.000000 0.027716 0.000000 -0.006273
# 5 -0.006126 -0.004556 0.002031 0.000000 0.024788 0.000000
# 6 0.000000 0.000000 0.000000 -0.006273 0.000000 0.100605
#
#
# Mechanical properties :
#
#
# Convention : Reuss Voigt Hill
#
# Bulk Modulus (GPa) = 15.60644 32.34354 23.97499
# Shear Modulus (GPa) = 18.19340 27.65714 22.92527
#
# Velocity S-wave (km/s) = 2.89864 3.57389 3.25382
# Velocity P-wave (km/s) = 4.29071 5.65395 5.01883
#
# Compressibility (1/GPa) = 0.06407612
#
# Stress axis : x y z
#
# Youngs Moduli (GPa) = 24.01448 36.86751 74.34328
#
# Poissons Ratio (x) = -0.39970 0.74779
# Poissons Ratio (y) = -0.26035 0.73252
# Poissons Ratio (z) = 0.24155 0.36326
#
# Static dielectric constant tensor:
#      x y z
#    x 1.785650 0.000000 -0.002540 
#    y 0.000000 1.800900 0.000000 
#    z -0.002540 0.000000 1.793690 
# 
# From -- ./inp_files/15447.got.cif
#   From: 2010.05.17/outbox.cif.g08.bks.cpg/sg14_8_cif.got.tgz:15447.got - 2010.06.03 17:49:19.
