data_PCOD9244788
_publ_section_title
;
Structure prediction by ZEFSAII (Michael W. Deem and Ramdas Pophale) SiO2 
 PCOD9244788
Probable space group: P 21/C
;
_chemical_formula_sum "Si O2"
_cell_formula_units_Z 28
_cell_length_a 9.068250
_cell_length_b 12.892383
_cell_length_c 9.512653
_cell_angle_alpha 90.000000
_cell_angle_beta 113.008625
_cell_angle_gamma 90.000000
_cell_volume 1023.662195
_symmetry_space_group_name_H-M "P 21/C"
_symmetry_group_IT_number 14
_symmetry_cell_setting 'monoclinic'
loop_
_space_group_symop_operation_xyz
x,y,z
-x,1/2+y,1/2-z
-x,-y,-z
x,1/2-y,1/2+z
loop_
_atom_site_type_symbol
_atom_site_label
_atom_site_fract_x
_atom_site_fract_y
_atom_site_fract_z
Si Si1 0.457249 0.302009 0.257604
Si Si2 0.344713 0.719802 0.936237
Si Si3 0.500000 0.500000 0.000000
Si Si4 0.205648 0.034649 0.642536
Si Si5 0.009584 0.389754 0.817743
Si Si6 0.000000 0.000000 0.000000
Si Si7 0.994055 0.328864 0.272322
Si Si8 0.252942 0.404957 0.683879
O O1 0.545321 0.300406 0.438547
O O2 0.594234 0.274643 0.199367
O O3 0.378917 0.412873 0.185183
O O4 0.325444 0.209514 0.198952
O O5 0.399096 0.605929 0.006399
O O6 0.154267 0.721828 0.868992
O O7 0.358886 0.464170 0.834686
O O8 0.119254 0.040223 0.459859
O O9 0.112894 0.115041 0.710161
O O10 0.166885 0.924961 0.701596
O O11 0.065961 0.274006 0.869062
O O12 0.063258 0.407881 0.675305
O O13 0.803456 0.964945 0.973579
O O14 0.933292 0.096037 0.869868
#
# Coordination Sequence:
#
# PCOD9244788 Si02
#       8
#     4   4   2   4   4   2   4   4
#     4  11  25  44  71 101 145 193 242 297 366 447
#     4  11  26  46  71 102 145 194 241 295 371 433
#     4  10  20  44  68  94 136 190 236 276 366 438
#     4  11  23  44  72  99 138 187 240 293 363 423
#     4  11  24  42  72 103 139 180 244 301 353 422
#     4  12  24  40  72 102 138 182 246 288 352 430
#     4  12  26  45  71 104 139 185 239 298 356 439
#     4  11  22  42  71 102 139 189 234 294 362 433
#
# _framework density 27.352775000000001
#
# number of rings (size 3 to 8) (size 9 to 14) (size 15 to 20)
#    0.000    0.857    4.286    2.571    4.000    1.143 
#    5.143    0.714    0.000    0.000    0.000    0.000 
#    0.000    0.000    0.000    0.000    0.000    0.000 
#
# Total GULP energy -155952.626669 kJ/mol
# GULP energy per Si atom -5569.736667 kJ/mol
# Density = 2.729052 g / cm^3
# Si number density = 27.352775 Si / 1000 Ang^3
#
#
#
# Elastic Constant Matrix: (Units=GPa)
#
#
# Indices 1 2 3 4 5 6 
#
# 1 85.1195 3.3011 9.4942 0.0000 1.3553 0.0000
# 2 3.3011 106.5313 -6.1942 0.0000 -2.0254 0.0000
# 3 9.4942 -6.1942 101.8201 0.0000 27.7910 0.0000
# 4 0.0000 0.0000 0.0000 -28.3854 0.0000 16.7595
# 5 1.3553 -2.0254 27.7910 0.0000 44.0318 0.0000
# 6 0.0000 0.0000 0.0000 16.7595 0.0000 42.2609
#
#
#
# Elastic Compliance Matrix: (Units=1/GPa)
#
#
# Indices 1 2 3 4 5 6 
#
# 1 0.011897 -0.000433 -0.001245 0.000000 0.000399 0.000000
# 2 -0.000433 0.009436 0.000595 0.000000 0.000072 0.000000
# 3 -0.001245 0.000595 0.012028 0.000000 -0.007526 0.000000
# 4 0.000000 0.000000 0.000000 -0.028546 0.000000 0.011320
# 5 0.000399 0.000072 -0.007526 0.000000 0.027452 0.000000
# 6 0.000000 0.000000 0.000000 0.011320 0.000000 0.019173
#
#
# Mechanical properties :
#
#
# Convention : Reuss Voigt Hill
#
# Bulk Modulus (GPa) = 32.05693 34.07479 33.06586
# Shear Modulus (GPa) = 78.11812 30.70612 54.41212
#
# Velocity S-wave (km/s) = 5.34991 3.35415 4.46496
# Velocity P-wave (km/s) = 7.06451 5.24262 6.22062
#
# Compressibility (1/GPa) = 0.03119450
#
# Stress axis : x y z
#
# Youngs Moduli (GPa) = 84.05136 105.97377 83.14246
#
# Poissons Ratio (x) = 0.04594 0.10349
# Poissons Ratio (y) = 0.03643 -0.04946
# Poissons Ratio (z) = 0.10463 -0.06304
#
# Static dielectric constant tensor:
#      x y z
#    x 1.560510 0.000000 0.699700 
#    y 0.000000 2.316830 0.000000 
#    z 0.699700 0.000000 1.556860 
# 
# From -- ./inp_files/25397.got.cif
#   From: 2010.05.17/outbox.cif.g08.bks.cpg/sg14_13_cif.got.tgz:25397.got - 2010.06.03 17:49:19.
