data_PCOD9244044
_publ_section_title
;
Structure prediction by ZEFSAII (Michael W. Deem and Ramdas Pophale) SiO2 
 PCOD9244044
Probable space group: P 21/C
;
_chemical_formula_sum "Si O2"
_cell_formula_units_Z 28
_cell_length_a 8.695744
_cell_length_b 12.020903
_cell_length_c 13.708509
_cell_angle_alpha 90.000000
_cell_angle_beta 63.905243
_cell_angle_gamma 90.000000
_cell_volume 1286.895255
_symmetry_space_group_name_H-M "P 21/C"
_symmetry_group_IT_number 14
_symmetry_cell_setting 'monoclinic'
loop_
_space_group_symop_operation_xyz
x,y,z
-x,1/2+y,1/2-z
-x,-y,-z
x,1/2-y,1/2+z
loop_
_atom_site_type_symbol
_atom_site_label
_atom_site_fract_x
_atom_site_fract_y
_atom_site_fract_z
Si Si1 0.197409 0.023463 0.952440
Si Si2 0.567987 0.342600 0.650277
Si Si3 0.556603 0.782527 0.122635
Si Si4 0.933053 0.440855 0.118557
Si Si5 0.698923 0.901120 0.435100
Si Si6 0.624360 0.120970 0.572532
Si Si7 0.298731 0.985837 0.147224
O O1 0.251044 0.995822 0.048290
O O2 0.294607 0.934309 0.858308
O O3 0.270414 0.145446 0.911069
O O4 0.000000 0.000000 0.000000
O O5 0.500512 0.277661 0.762771
O O6 0.647112 0.252539 0.553962
O O7 0.417129 0.410139 0.641967
O O8 0.412424 0.873846 0.132592
O O9 0.600066 0.684378 0.034262
O O10 0.748652 0.398740 0.129814
O O11 0.866301 0.497207 0.236494
O O12 0.099709 0.372976 0.110347
O O13 0.000000 0.500000 0.000000
O O14 0.583096 0.894692 0.369607
O O15 0.682850 0.028703 0.477832
#
# Coordination Sequence:
#
# PCOD9244044 Si02
#       7
#     4   4   4   4   4   4   4
#     4  11  27  46  67 101 143 182 237 288 352 425
#     4  11  22  42  71  94 135 178 232 274 356 415
#     4  11  23  42  72  96 135 182 229 283 351 417
#     4  10  21  40  66  98 133 173 229 284 339 409
#     4  10  22  38  67  98 133 172 228 278 344 410
#     4  10  20  39  64  96 133 169 220 281 339 404
#     4  11  23  47  68  99 141 189 220 296 356 412
#
# _framework density 21.757792999999999
#
# number of rings (size 3 to 8) (size 9 to 14) (size 15 to 20)
#    0.000    1.429    1.429    5.143    4.000    1.143 
#    5.143    1.429    0.000    0.000    0.000    0.000 
#    0.000    0.000    0.000    0.000    0.000    0.000 
#
# Total GULP energy -155923.701587 kJ/mol
# GULP energy per Si atom -5568.703628 kJ/mol
# Density = 2.170827 g / cm^3
# Si number density = 21.757793 Si / 1000 Ang^3
#
#
#
# Elastic Constant Matrix: (Units=GPa)
#
#
# Indices 1 2 3 4 5 6 
#
# 1 164.7984 17.7951 31.2059 0.0000 -0.4008 0.0000
# 2 17.7951 119.7522 44.7700 0.0000 1.7051 0.0000
# 3 31.2059 44.7700 108.5037 0.0000 -9.0916 0.0000
# 4 0.0000 0.0000 0.0000 39.9349 0.0000 -0.4399
# 5 -0.4008 1.7051 -9.0916 0.0000 17.6661 0.0000
# 6 0.0000 0.0000 0.0000 -0.4399 0.0000 9.8966
#
#
#
# Elastic Compliance Matrix: (Units=1/GPa)
#
#
# Indices 1 2 3 4 5 6 
#
# 1 0.006437 -0.000272 -0.001802 0.000000 -0.000755 0.000000
# 2 -0.000272 0.010060 -0.004342 0.000000 -0.003212 0.000000
# 3 -0.001802 -0.004342 0.012079 0.000000 0.006594 0.000000
# 4 0.000000 0.000000 0.000000 0.025053 0.000000 0.001114
# 5 -0.000755 -0.003212 0.006594 0.000000 0.060292 0.000000
# 6 0.000000 0.000000 0.000000 0.001114 0.000000 0.101095
#
#
# Mechanical properties :
#
#
# Convention : Reuss Voigt Hill
#
# Bulk Modulus (GPa) = 63.51885 64.51069 64.01477
# Shear Modulus (GPa) = 21.45052 33.45173 27.45112
#
# Velocity S-wave (km/s) = 3.14327 3.92530 3.55585
# Velocity P-wave (km/s) = 6.51387 7.08927 6.80766
#
# Compressibility (1/GPa) = 0.01574336
#
# Stress axis : x y z
#
# Youngs Moduli (GPa) = 155.35591 99.40472 82.79102
#
# Poissons Ratio (x) = 0.02703 0.14922
# Poissons Ratio (y) = 0.04225 0.35945
# Poissons Ratio (z) = 0.28000 0.43159
#
# Static dielectric constant tensor:
#      x y z
#    x 1.895850 0.000000 0.002940 
#    y 0.000000 1.839250 0.000000 
#    z 0.002940 0.000000 1.824780 
# 
# From -- ./inp_files/40233.got.cif
#   From: 2010.05.17/outbox.cif.g08.bks.cpg/sg14_21_cif.got.tgz:40233.got - 2010.06.03 17:49:19.
