data_PCOD9244412
_publ_section_title
;
Structure prediction by ZEFSAII (Michael W. Deem and Ramdas Pophale) SiO2 
 PCOD9244412
Probable space group: P 21/C
;
_chemical_formula_sum "Si O2"
_cell_formula_units_Z 22
_cell_length_a 11.968649
_cell_length_b 4.944426
_cell_length_c 22.951384
_cell_angle_alpha 90.000000
_cell_angle_beta 134.585945
_cell_angle_gamma 90.000000
_cell_volume 967.321418
_symmetry_space_group_name_H-M "P 21/C"
_symmetry_group_IT_number 14
_symmetry_cell_setting 'monoclinic'
loop_
_space_group_symop_operation_xyz
x,y,z
-x,1/2+y,1/2-z
-x,-y,-z
x,1/2-y,1/2+z
loop_
_atom_site_type_symbol
_atom_site_label
_atom_site_fract_x
_atom_site_fract_y
_atom_site_fract_z
Si Si1 0.443362 0.985368 0.889436
Si Si2 0.500000 0.000000 0.500000
Si Si3 0.112630 0.751371 0.531635
Si Si4 0.437004 0.906913 0.195341
Si Si5 0.744834 0.222884 0.544095
Si Si6 0.896129 0.934098 0.198734
O O1 0.265783 0.087253 0.824436
O O2 0.515638 0.990660 0.851724
O O3 0.449530 0.697405 0.922915
O O4 0.554956 0.188077 0.969633
O O5 0.306255 0.053402 0.444558
O O6 0.262539 0.714780 0.628089
O O7 0.184726 0.781528 0.493528
O O8 0.000000 0.500000 0.500000
O O9 0.000000 0.000000 0.500000
O O10 0.547271 0.662484 0.256569
O O11 0.846206 0.417615 0.620521
O O12 0.007701 0.158444 0.270191
#
# Coordination Sequence:
#
# PCOD9244412 Si02
#       6
#     4   2   4   4   4   4
#     4  10  25  43  73  99 138 191 250 288 354 447
#     4  10  20  40  76  94 128 178 254 294 334 422
#     4  11  26  46  73 104 144 191 247 302 367 436
#     4  11  26  46  73 103 147 197 246 301 371 440
#     4  10  25  43  73  96 139 188 247 284 356 438
#     4  11  26  41  64 102 140 173 221 300 370 403
#
# _framework density 22.743219
#
# number of rings (size 3 to 8) (size 9 to 14) (size 15 to 20)
#    0.000    1.455    0.000    3.273   20.364    4.364 
#    0.000    0.000    0.000    0.000    0.000    0.000 
#    0.000    0.000    0.000    0.000    0.000    0.000 
#
# Total GULP energy -122706.010785 kJ/mol
# GULP energy per Si atom -5577.545945 kJ/mol
# Density = 2.269145 g / cm^3
# Si number density = 22.743219 Si / 1000 Ang^3
#
#
#
# Elastic Constant Matrix: (Units=GPa)
#
#
# Indices 1 2 3 4 5 6 
#
# 1 141.6778 40.4543 53.7449 0.0000 14.6129 0.0000
# 2 40.4543 117.0988 33.9886 0.0000 4.9768 0.0000
# 3 53.7449 33.9886 114.6870 0.0000 12.5693 0.0000
# 4 0.0000 0.0000 0.0000 51.2514 0.0000 16.4429
# 5 14.6129 4.9768 12.5693 0.0000 39.1076 0.0000
# 6 0.0000 0.0000 0.0000 16.4429 0.0000 26.6207
#
#
#
# Elastic Compliance Matrix: (Units=1/GPa)
#
#
# Indices 1 2 3 4 5 6 
#
# 1 0.009176 -0.002079 -0.003459 0.000000 -0.002052 0.000000
# 2 -0.002079 0.009818 -0.001953 0.000000 0.000155 0.000000
# 3 -0.003459 -0.001953 0.011143 0.000000 -0.002040 0.000000
# 4 0.000000 0.000000 0.000000 0.024334 0.000000 -0.015030
# 5 -0.002052 0.000155 -0.002040 0.000000 0.026973 0.000000
# 6 0.000000 0.000000 0.000000 -0.015030 0.000000 0.046849
#
#
# Mechanical properties :
#
#
# Convention : Reuss Voigt Hill
#
# Bulk Modulus (GPa) = 65.98067 69.98215 67.98141
# Shear Modulus (GPa) = 33.70988 39.74767 36.72877
#
# Velocity S-wave (km/s) = 3.85410 4.18505 4.02298
# Velocity P-wave (km/s) = 6.99140 7.36140 7.17878
#
# Compressibility (1/GPa) = 0.01515595
#
# Stress axis : x y z
#
# Youngs Moduli (GPa) = 108.98432 101.85290 89.74577
#
# Poissons Ratio (x) = 0.21172 0.31042
# Poissons Ratio (y) = 0.22655 0.17523
# Poissons Ratio (z) = 0.37697 0.19887
#
# Static dielectric constant tensor:
#      x y z
#    x 1.875880 0.000000 -0.101810 
#    y 0.000000 2.155330 0.000000 
#    z -0.101810 0.000000 1.892110 
# 
# From -- ./inp_files/72813.got.cif
#   From: 2010.05.17/outbox.cif.g08.bks.cpg/sg14_37_cif.got.tgz:72813.got - 2010.06.03 17:49:19.
