data_PCOD9244878
_publ_section_title
;
Structure prediction by ZEFSAII (Michael W. Deem and Ramdas Pophale) SiO2 
 PCOD9244878
Probable space group: P 21/C
;
_chemical_formula_sum "Si O2"
_cell_formula_units_Z 32
_cell_length_a 17.686548
_cell_length_b 11.815888
_cell_length_c 15.254560
_cell_angle_alpha 90.000000
_cell_angle_beta 21.976392
_cell_angle_gamma 90.000000
_cell_volume 1193.002563
_symmetry_space_group_name_H-M "P 21/C"
_symmetry_group_IT_number 14
_symmetry_cell_setting 'monoclinic'
loop_
_space_group_symop_operation_xyz
x,y,z
-x,1/2+y,1/2-z
-x,-y,-z
x,1/2-y,1/2+z
loop_
_atom_site_type_symbol
_atom_site_label
_atom_site_fract_x
_atom_site_fract_y
_atom_site_fract_z
Si Si1 0.660989 0.008325 0.949735
Si Si2 0.774173 0.067470 0.312742
Si Si3 0.500285 0.103181 0.300805
Si Si4 0.109352 0.539633 0.037631
Si Si5 0.114659 0.001544 0.059657
Si Si6 0.163971 0.782729 0.350525
Si Si7 0.422602 0.298821 0.260218
Si Si8 0.279477 0.336463 0.747226
O O1 0.602534 0.893764 0.960786
O O2 0.887240 0.980811 0.737005
O O3 0.707142 0.123195 0.844034
O O4 0.529948 0.035219 0.176121
O O5 0.637308 0.955173 0.475635
O O6 0.770895 0.152889 0.233649
O O7 0.650016 0.151609 0.512602
O O8 0.003659 0.035118 0.089544
O O9 0.411149 0.218267 0.356832
O O10 0.730095 0.100527 0.090966
O O11 0.159746 0.665703 0.952696
O O12 0.243772 0.449426 0.842748
O O13 0.079541 0.499830 0.168382
O O14 0.252416 0.105506 0.944042
O O15 0.936056 0.790785 0.555511
O O16 0.372505 0.247777 0.217673
#
# Coordination Sequence:
#
# PCOD9244878 Si02
#       8
#     4   4   4   4   4   4   4   4
#     4   8  15  30  50  78 112 135 164 208 260 330
#     4  11  21  33  52  77 106 143 177 210 260 311
#     4  10  21  34  50  77 107 139 175 209 253 314
#     4   8  16  30  54  78 104 142 171 205 264 316
#     4  10  21  36  51  73 109 139 175 215 255 312
#     4   9  15  31  53  77 108 138 170 210 260 316
#     4  11  21  33  52  77 109 140 173 212 258 317
#     4   9  16  29  53  79 110 143 159 204 274 312
#
# _framework density 26.823077000000001
#
# number of rings (size 3 to 8) (size 9 to 14) (size 15 to 20)
#    0.000    2.500    2.500    2.250    0.000    1.500 
#    2.250    0.000    0.000    0.750    0.000    1.750 
#    0.000    0.000    0.000    0.000    0.000    0.000 
#
# Total GULP energy -178529.565586 kJ/mol
# GULP energy per Si atom -5579.048925 kJ/mol
# Density = 2.676203 g / cm^3
# Si number density = 26.823077 Si / 1000 Ang^3
#
#
#
# Elastic Constant Matrix: (Units=GPa)
#
#
# Indices 1 2 3 4 5 6 
#
# 1 97.1890 23.4414 22.3158 0.0000 -5.5925 0.0000
# 2 23.4414 81.8461 33.6718 0.0000 3.2497 0.0000
# 3 22.3158 33.6718 84.6170 0.0000 -23.1441 0.0000
# 4 0.0000 0.0000 0.0000 29.0633 0.0000 3.5180
# 5 -5.5925 3.2497 -23.1441 0.0000 34.8866 0.0000
# 6 0.0000 0.0000 0.0000 3.5180 0.0000 51.4096
#
#
#
# Elastic Compliance Matrix: (Units=1/GPa)
#
#
# Indices 1 2 3 4 5 6 
#
# 1 0.011360 -0.002585 -0.001714 0.000000 0.000924 0.000000
# 2 -0.002585 0.016459 -0.007819 0.000000 -0.007135 0.000000
# 3 -0.001714 -0.007819 0.018943 0.000000 0.013020 0.000000
# 4 0.000000 0.000000 0.000000 0.034695 0.000000 -0.002374
# 5 0.000924 -0.007135 0.013020 0.000000 0.038115 0.000000
# 6 0.000000 0.000000 0.000000 -0.002374 0.000000 0.019614
#
#
# Mechanical properties :
#
#
# Convention : Reuss Voigt Hill
#
# Bulk Modulus (GPa) = 44.39683 46.94558 45.67120
# Shear Modulus (GPa) = 29.25176 35.35343 32.30259
#
# Velocity S-wave (km/s) = 3.30592 3.63440 3.47404
# Velocity P-wave (km/s) = 5.58210 5.92889 5.75810
#
# Compressibility (1/GPa) = 0.02252413
#
# Stress axis : x y z
#
# Youngs Moduli (GPa) = 88.03188 60.75885 52.79028
#
# Poissons Ratio (x) = 0.15705 0.09050
# Poissons Ratio (y) = 0.22755 0.41278
# Poissons Ratio (z) = 0.15092 0.47508
#
# Static dielectric constant tensor:
#      x y z
#    x 2.170990 0.000000 0.070480 
#    y 0.000000 2.142510 0.000000 
#    z 0.070480 0.000000 2.191760 
# 
# From -- ./inp_files/61443.got.cif
#   From: 2010.05.17/outbox.cif.g08.bks.cpg/sg14_31_cif.got.tgz:61443.got - 2010.06.03 17:49:19.
