data_PCOD9244113
_publ_section_title
;
Structure prediction by ZEFSAII (Michael W. Deem and Ramdas Pophale) SiO2 
 PCOD9244113
Probable space group: P 21/C
;
_chemical_formula_sum "Si O2"
_cell_formula_units_Z 14
_cell_length_a 5.014960
_cell_length_b 7.912583
_cell_length_c 12.315694
_cell_angle_alpha 90.000000
_cell_angle_beta 104.082805
_cell_angle_gamma 90.000000
_cell_volume 474.014675
_symmetry_space_group_name_H-M "P 21/C"
_symmetry_group_IT_number 14
_symmetry_cell_setting 'monoclinic'
loop_
_space_group_symop_operation_xyz
x,y,z
-x,1/2+y,1/2-z
-x,-y,-z
x,1/2-y,1/2+z
loop_
_atom_site_type_symbol
_atom_site_label
_atom_site_fract_x
_atom_site_fract_y
_atom_site_fract_z
Si Si1 0.500000 0.500000 0.000000
Si Si2 0.188386 0.639339 0.628307
Si Si3 0.911007 0.503155 0.816857
Si Si4 0.674424 0.693260 0.428329
O O1 0.809572 0.512213 0.084455
O O2 0.518370 0.289762 0.006556
O O3 0.019394 0.547693 0.709726
O O4 0.406310 0.491812 0.620727
O O5 0.967441 0.664996 0.511992
O O6 0.246781 0.825802 0.682132
O O7 0.721009 0.651062 0.848377
#
# Coordination Sequence:
#
# PCOD9244113 Si02
#       4
#     2   4   4   4
#     4  10  22  40  64  94 128 164 220 268 322 382
#     4  10  20  39  69  89 129 177 216 258 341 380
#     4  11  21  43  64  94 133 176 214 273 323 397
#     4  10  22  43  63  93 129 172 217 276 321 398
#
# _framework density 29.534951
#
# number of rings (size 3 to 8) (size 9 to 14) (size 15 to 20)
#    0.000    1.714    2.857    3.429    0.000    0.000 
#   10.286   22.857    0.000    0.000    0.000    0.000 
#    0.000    0.000    0.000    0.000    0.000    0.000 
#
# Total GULP energy -78052.865822 kJ/mol
# GULP energy per Si atom -5575.204702 kJ/mol
# Density = 2.946773 g / cm^3
# Si number density = 29.534951 Si / 1000 Ang^3
#
#
#
# Elastic Constant Matrix: (Units=GPa)
#
#
# Indices 1 2 3 4 5 6 
#
# 1 98.4353 46.9742 16.1902 0.0000 28.1682 0.0000
# 2 46.9742 403.2244 55.9993 0.0000 1.4923 0.0000
# 3 16.1902 55.9993 63.4743 0.0000 12.9873 0.0000
# 4 0.0000 0.0000 0.0000 58.3894 0.0000 -12.2199
# 5 28.1682 1.4923 12.9873 0.0000 30.2537 0.0000
# 6 0.0000 0.0000 0.0000 -12.2199 0.0000 68.9334
#
#
#
# Elastic Compliance Matrix: (Units=1/GPa)
#
#
# Indices 1 2 3 4 5 6 
#
# 1 0.014934 -0.001777 0.000642 0.000000 -0.014092 0.000000
# 2 -0.001777 0.003067 -0.002806 0.000000 0.002708 0.000000
# 3 0.000642 -0.002806 0.019909 0.000000 -0.009006 0.000000
# 4 0.000000 0.000000 0.000000 0.017786 0.000000 0.003153
# 5 -0.014092 0.002708 -0.009006 0.000000 0.049907 0.000000
# 6 0.000000 0.000000 0.000000 0.003153 0.000000 0.015066
#
#
# Mechanical properties :
#
#
# Convention : Reuss Voigt Hill
#
# Bulk Modulus (GPa) = 33.30321 89.27350 61.28836
# Shear Modulus (GPa) = 36.08522 61.24664 48.66593
#
# Velocity S-wave (km/s) = 3.49919 4.55873 4.06364
# Velocity P-wave (km/s) = 5.25605 7.61586 6.54322
#
# Compressibility (1/GPa) = 0.03002714
#
# Stress axis : x y z
#
# Youngs Moduli (GPa) = 66.96165 326.08131 50.22780
#
# Poissons Ratio (x) = 0.57935 -0.03223
# Poissons Ratio (y) = 0.11897 0.14096
# Poissons Ratio (z) = -0.04297 0.91512
#
# Static dielectric constant tensor:
#      x y z
#    x 1.833860 0.000000 0.298390 
#    y 0.000000 2.353430 0.000000 
#    z 0.298390 0.000000 1.734270 
# 
# From -- ./inp_files/36575.got.cif
#   From: 2010.05.17/outbox.cif.g08.bks.cpg/sg14_19_cif.got.tgz:36575.got - 2010.06.03 17:49:19.
