data_PCOD9244252
_publ_section_title
;
Structure prediction by ZEFSAII (Michael W. Deem and Ramdas Pophale) SiO2 
 PCOD9244252
Probable space group: P 21/C
;
_chemical_formula_sum "Si O2"
_cell_formula_units_Z 16
_cell_length_a 7.696824
_cell_length_b 4.793040
_cell_length_c 15.847849
_cell_angle_alpha 90.000000
_cell_angle_beta 70.120860
_cell_angle_gamma 90.000000
_cell_volume 549.808046
_symmetry_space_group_name_H-M "P 21/C"
_symmetry_group_IT_number 14
_symmetry_cell_setting 'monoclinic'
loop_
_space_group_symop_operation_xyz
x,y,z
-x,1/2+y,1/2-z
-x,-y,-z
x,1/2-y,1/2+z
loop_
_atom_site_type_symbol
_atom_site_label
_atom_site_fract_x
_atom_site_fract_y
_atom_site_fract_z
Si Si1 0.812290 0.092721 0.459518
Si Si2 0.319864 0.733823 0.849381
Si Si3 0.454344 0.230230 0.911659
Si Si4 0.946998 0.915490 0.209571
O O1 0.835530 0.213765 0.550409
O O2 0.634291 0.199427 0.435002
O O3 0.976951 0.216963 0.377035
O O4 0.725990 0.789051 0.499315
O O5 0.406919 0.428879 0.838907
O O6 0.467395 0.927820 0.871336
O O7 0.226688 0.896765 0.788905
O O8 0.919067 0.672775 0.284243
#
# Coordination Sequence:
#
# PCOD9244252 Si02
#       4
#     4   4   4   4
#     4   9  22  39  68  94 121 161 222 273 313 373
#     4  10  20  40  64  94 117 167 219 265 314 376
#     4   9  20  36  72  93 114 152 230 277 308 359
#     4  12  27  40  58  92 141 176 206 259 335 395
#
# _framework density 29.101064000000001
#
# number of rings (size 3 to 8) (size 9 to 14) (size 15 to 20)
#    1.500    0.500    0.000    3.000    3.500    1.000 
#    0.000    5.000    0.000    0.000    0.000    0.000 
#    0.000    0.000    0.000    0.000    0.000    0.000 
#
# Total GULP energy -89267.017460 kJ/mol
# GULP energy per Si atom -5579.188591 kJ/mol
# Density = 2.903483 g / cm^3
# Si number density = 29.101064 Si / 1000 Ang^3
#
#
#
# Elastic Constant Matrix: (Units=GPa)
#
#
# Indices 1 2 3 4 5 6 
#
# 1 118.5097 11.5648 36.9269 0.0000 7.0643 0.0000
# 2 11.5648 143.5169 18.6738 0.0000 22.8593 0.0000
# 3 36.9269 18.6738 109.2353 0.0000 -0.8273 0.0000
# 4 0.0000 0.0000 0.0000 49.7086 0.0000 37.5243
# 5 7.0643 22.8593 -0.8273 0.0000 46.5283 0.0000
# 6 0.0000 0.0000 0.0000 37.5243 0.0000 34.9569
#
#
#
# Elastic Compliance Matrix: (Units=1/GPa)
#
#
# Indices 1 2 3 4 5 6 
#
# 1 0.009538 -0.000120 -0.003215 0.000000 -0.001446 0.000000
# 2 -0.000120 0.007756 -0.001314 0.000000 -0.003816 0.000000
# 3 -0.003215 -0.001314 0.010476 0.000000 0.001320 0.000000
# 4 0.000000 0.000000 0.000000 0.106064 0.000000 -0.113854
# 5 -0.001446 -0.003816 0.001320 0.000000 0.023610 0.000000
# 6 0.000000 0.000000 0.000000 -0.113854 0.000000 0.150823
#
#
# Mechanical properties :
#
#
# Convention : Reuss Voigt Hill
#
# Bulk Modulus (GPa) = 54.13549 56.17698 55.15624
# Shear Modulus (GPa) = 15.44532 46.51186 30.97859
#
# Velocity S-wave (km/s) = 2.30630 4.00220 3.26623
# Velocity P-wave (km/s) = 5.07296 6.37987 5.76358
#
# Compressibility (1/GPa) = 0.01847217
#
# Stress axis : x y z
#
# Youngs Moduli (GPa) = 104.84686 128.92787 95.45684
#
# Poissons Ratio (x) = 0.01546 0.30686
# Poissons Ratio (y) = 0.01257 0.12546
# Poissons Ratio (z) = 0.33705 0.16945
#
# Static dielectric constant tensor:
#      x y z
#    x 2.316070 0.000000 -0.096870 
#    y 0.000000 2.244790 0.000000 
#    z -0.096870 0.000000 2.391510 
# 
# From -- ./inp_files/53766.got.cif
#   From: 2010.05.17/outbox.cif.g08.bks.cpg/sg14_27_cif.got.tgz:53766.got - 2010.06.03 17:49:19.
