data_PCOD9244845
_publ_section_title
;
Structure prediction by ZEFSAII (Michael W. Deem and Ramdas Pophale) SiO2 
 PCOD9244845
Probable space group: P 21/C
;
_chemical_formula_sum "Si O2"
_cell_formula_units_Z 26
_cell_length_a 27.798414
_cell_length_b 4.824691
_cell_length_c 22.900549
_cell_angle_alpha 90.000000
_cell_angle_beta 19.548119
_cell_angle_gamma 90.000000
_cell_volume 1027.683260
_symmetry_space_group_name_H-M "P 21/C"
_symmetry_group_IT_number 14
_symmetry_cell_setting 'monoclinic'
loop_
_space_group_symop_operation_xyz
x,y,z
-x,1/2+y,1/2-z
-x,-y,-z
x,1/2-y,1/2+z
loop_
_atom_site_type_symbol
_atom_site_label
_atom_site_fract_x
_atom_site_fract_y
_atom_site_fract_z
Si Si1 0.822126 0.680706 0.313389
Si Si2 0.697368 0.097002 0.789003
Si Si3 0.447838 0.619108 0.342431
Si Si4 0.303081 0.097141 0.790378
Si Si5 0.549513 0.742099 0.555866
Si Si6 0.013005 0.962186 0.192521
Si Si7 0.000000 0.500000 0.000000
O O1 0.721055 0.442368 0.456872
O O2 0.704144 0.833861 0.406300
O O3 0.945259 0.567987 0.130404
O O4 0.895067 0.858220 0.280687
O O5 0.713736 0.909425 0.712470
O O6 0.684059 0.411419 0.783508
O O7 0.580948 0.942893 0.962575
O O8 0.838229 0.084520 0.667331
O O9 0.493121 0.929263 0.277935
O O10 0.514186 0.469894 0.323302
O O11 0.443545 0.991413 0.663468
O O12 0.160612 0.020564 0.989163
O O13 0.035386 0.729462 0.216105
#
# Coordination Sequence:
#
# PCOD9244845 Si02
#       7
#     4   4   4   4   4   4   2
#     4   9  23  46  72 103 140 189 237 299 357 430
#     4  11  24  45  69 103 141 176 235 290 362 422
#     4  10  24  42  66  97 133 176 231 282 338 420
#     4  12  25  44  70 101 139 182 230 295 352 421
#     4   9  24  44  71 101 133 185 229 297 353 419
#     4  12  28  45  67 101 144 187 234 288 354 430
#     4  10  20  50  68 112 136 188 234 304 360 430
#
# _framework density 25.299624000000001
#
# number of rings (size 3 to 8) (size 9 to 14) (size 15 to 20)
#    0.923    0.615    1.538    1.846    4.308    3.077 
#    0.000    0.000    0.000    0.000    0.000    0.000 
#    0.000    0.000    0.000    0.000    0.000    0.000 
#
# Total GULP energy -145115.473624 kJ/mol
# GULP energy per Si atom -5581.364370 kJ/mol
# Density = 2.524204 g / cm^3
# Si number density = 25.299624 Si / 1000 Ang^3
#
#
#
# Elastic Constant Matrix: (Units=GPa)
#
#
# Indices 1 2 3 4 5 6 
#
# 1 98.9410 11.2679 25.8436 0.0000 -2.3192 0.0000
# 2 11.2679 76.6604 29.5960 0.0000 11.5654 0.0000
# 3 25.8436 29.5960 46.0964 0.0000 12.4814 0.0000
# 4 0.0000 0.0000 0.0000 26.3918 0.0000 13.4595
# 5 -2.3192 11.5654 12.4814 0.0000 47.2559 0.0000
# 6 0.0000 0.0000 0.0000 13.4595 0.0000 18.3694
#
#
#
# Elastic Compliance Matrix: (Units=1/GPa)
#
#
# Indices 1 2 3 4 5 6 
#
# 1 0.012179 0.000970 -0.008130 0.000000 0.002508 0.000000
# 2 0.000970 0.017508 -0.011457 0.000000 -0.001211 0.000000
# 3 -0.008130 -0.011457 0.035495 0.000000 -0.006970 0.000000
# 4 0.000000 0.000000 0.000000 0.060497 0.000000 -0.044327
# 5 0.002508 -0.001211 -0.006970 0.000000 0.023422 0.000000
# 6 0.000000 0.000000 0.000000 -0.044327 0.000000 0.086918
#
#
# Mechanical properties :
#
#
# Convention : Reuss Voigt Hill
#
# Bulk Modulus (GPa) = 35.78017 39.45698 37.61857
# Shear Modulus (GPa) = 17.69490 28.73608 23.21549
#
# Velocity S-wave (km/s) = 2.64751 3.37386 3.03251
# Velocity P-wave (km/s) = 4.84964 5.55041 5.21182
#
# Compressibility (1/GPa) = 0.02794845
#
# Stress axis : x y z
#
# Youngs Moduli (GPa) = 82.10942 57.11751 28.17312
#
# Poissons Ratio (x) = -0.05542 0.22905
# Poissons Ratio (y) = -0.07967 0.32278
# Poissons Ratio (z) = 0.66755 0.65439
#
# Static dielectric constant tensor:
#      x y z
#    x 2.033530 0.000000 0.000460 
#    y 0.000000 2.073930 0.000000 
#    z 0.000460 0.000000 1.933090 
# 
# From -- ./inp_files/75263.got.cif
#   From: 2010.05.17/outbox.cif.g08.bks.cpg/sg14_38_cif.got.tgz:75263.got - 2010.06.03 17:49:19.
