data_PCOD9244216
_publ_section_title
;
Structure prediction by ZEFSAII (Michael W. Deem and Ramdas Pophale) SiO2 
 PCOD9244216
Probable space group: P 21/C
;
_chemical_formula_sum "Si O2"
_cell_formula_units_Z 24
_cell_length_a 29.266222
_cell_length_b 9.846234
_cell_length_c 8.762303
_cell_angle_alpha 90.000000
_cell_angle_beta 151.262519
_cell_angle_gamma 90.000000
_cell_volume 1213.995305
_symmetry_space_group_name_H-M "P 21/C"
_symmetry_group_IT_number 14
_symmetry_cell_setting 'monoclinic'
loop_
_space_group_symop_operation_xyz
x,y,z
-x,1/2+y,1/2-z
-x,-y,-z
x,1/2-y,1/2+z
loop_
_atom_site_type_symbol
_atom_site_label
_atom_site_fract_x
_atom_site_fract_y
_atom_site_fract_z
Si Si1 0.442123 0.609329 0.228592
Si Si2 0.673329 0.136991 0.064527
Si Si3 0.105512 0.555359 0.292676
Si Si4 0.622541 0.635176 0.568898
Si Si5 0.190354 0.736241 0.284068
Si Si6 0.707861 0.601157 0.156585
O O1 0.500000 0.500000 0.500000
O O2 0.512971 0.647311 0.300204
O O3 0.407130 0.749316 0.200264
O O4 0.345763 0.525697 0.920260
O O5 0.750038 0.141320 0.155476
O O6 0.732020 0.187367 0.384563
O O7 0.631747 0.991688 0.982814
O O8 0.122169 0.648447 0.192095
O O9 0.136162 0.651898 0.523715
O O10 0.181311 0.432097 0.507084
O O11 0.000000 0.500000 0.000000
O O12 0.667453 0.765712 0.619900
O O13 0.678337 0.607858 0.891661
#
# Coordination Sequence:
#
# PCOD9244216 Si02
#       6
#     4   4   4   4   4   4
#     4  10  20  40  63  92 131 176 222 273 326 403
#     4  11  20  41  67  89 136 178 221 268 335 403
#     4  11  24  45  70  96 133 171 228 287 339 407
#     4  11  24  37  61  97 133 176 220 273 336 385
#     4  10  21  43  69  94 121 180 221 266 348 396
#     4  11  23  42  60  93 138 167 226 281 326 396
#
# _framework density 19.769435999999999
#
# number of rings (size 3 to 8) (size 9 to 14) (size 15 to 20)
#    0.000    1.333    5.000    2.000    2.333    2.667 
#    0.000    6.667    0.000    0.000    0.000    0.000 
#    0.000    0.000    0.000    0.000    0.000    0.000 
#
# Total GULP energy -134082.263548 kJ/mol
# GULP energy per Si atom -5586.760981 kJ/mol
# Density = 1.972444 g / cm^3
# Si number density = 19.769436 Si / 1000 Ang^3
#
#
#
# Elastic Constant Matrix: (Units=GPa)
#
#
# Indices 1 2 3 4 5 6 
#
# 1 111.1904 57.5383 53.6835 0.0000 9.4113 0.0000
# 2 57.5383 135.9700 34.3755 0.0000 10.5686 0.0000
# 3 53.6835 34.3755 85.4890 0.0000 13.7011 0.0000
# 4 0.0000 0.0000 0.0000 28.6505 0.0000 6.4948
# 5 9.4113 10.5686 13.7011 0.0000 40.0248 0.0000
# 6 0.0000 0.0000 0.0000 6.4948 0.0000 44.8068
#
#
#
# Elastic Compliance Matrix: (Units=1/GPa)
#
#
# Indices 1 2 3 4 5 6 
#
# 1 0.014951 -0.004412 -0.007658 0.000000 0.000271 0.000000
# 2 -0.004412 0.009534 -0.000874 0.000000 -0.001181 0.000000
# 3 -0.007658 -0.000874 0.017492 0.000000 -0.003956 0.000000
# 4 0.000000 0.000000 0.000000 0.036089 0.000000 -0.005231
# 5 0.000271 -0.001181 -0.003956 0.000000 0.026587 0.000000
# 6 0.000000 0.000000 0.000000 -0.005231 0.000000 0.023076
#
#
# Mechanical properties :
#
#
# Convention : Reuss Voigt Hill
#
# Bulk Modulus (GPa) = 62.15293 69.31603 65.73448
# Shear Modulus (GPa) = 31.45041 35.16656 33.30848
#
# Velocity S-wave (km/s) = 3.99289 4.22220 4.10914
# Velocity P-wave (km/s) = 7.26393 7.67513 7.47236
#
# Compressibility (1/GPa) = 0.01608935
#
# Stress axis : x y z
#
# Youngs Moduli (GPa) = 66.88521 104.88478 57.16948
#
# Poissons Ratio (x) = 0.46273 0.43780
# Poissons Ratio (y) = 0.29508 0.04997
# Poissons Ratio (z) = 0.51221 0.09168
#
# Static dielectric constant tensor:
#      x y z
#    x 1.700370 0.000000 -0.031540 
#    y 0.000000 1.687000 0.000000 
#    z -0.031540 0.000000 1.712100 
# 
# From -- ./inp_files/15012.got.cif
#   From: 2010.05.17/outbox.cif.g08.bks.cpg/sg14_8_cif.got.tgz:15012.got - 2010.06.03 17:49:19.
