data_PCOD9244711
_publ_section_title
;
Structure prediction by ZEFSAII (Michael W. Deem and Ramdas Pophale) SiO2 
 PCOD9244711
Probable space group: P 21/C
;
_chemical_formula_sum "Si O2"
_cell_formula_units_Z 32
_cell_length_a 16.481350
_cell_length_b 6.158944
_cell_length_c 13.537325
_cell_angle_alpha 90.000000
_cell_angle_beta 98.815399
_cell_angle_gamma 90.000000
_cell_volume 1357.910448
_symmetry_space_group_name_H-M "P 21/C"
_symmetry_group_IT_number 14
_symmetry_cell_setting 'monoclinic'
loop_
_space_group_symop_operation_xyz
x,y,z
-x,1/2+y,1/2-z
-x,-y,-z
x,1/2-y,1/2+z
loop_
_atom_site_type_symbol
_atom_site_label
_atom_site_fract_x
_atom_site_fract_y
_atom_site_fract_z
Si Si1 0.978938 0.295330 0.701947
Si Si2 0.245206 0.521841 0.725213
Si Si3 0.801758 0.053471 0.216898
Si Si4 0.599992 0.456373 0.341128
Si Si5 0.517528 0.188600 0.632399
Si Si6 0.628425 0.411386 0.977416
Si Si7 0.124493 0.242551 0.096573
Si Si8 0.775338 0.806743 0.570588
O O1 0.882210 0.330011 0.687512
O O2 0.006660 0.544900 0.749018
O O3 0.029912 0.279613 0.609410
O O4 0.330020 0.411760 0.706005
O O5 0.174589 0.476351 0.632287
O O6 0.215721 0.440143 0.826520
O O7 0.258201 0.775426 0.744873
O O8 0.835188 0.903625 0.313399
O O9 0.762511 0.927482 0.117691
O O10 0.534942 0.594160 0.390252
O O11 0.546938 0.333529 0.249277
O O12 0.651400 0.300938 0.421464
O O13 0.595795 0.158608 0.578084
O O14 0.451870 0.005325 0.591486
O O15 0.698667 0.590038 0.999790
O O16 0.147989 0.306682 0.989961
#
# Coordination Sequence:
#
# PCOD9244711 Si02
#       8
#     4   4   4   4   4   4   4   4
#     4  10  20  42  75 104 148 200 246 303 365 435
#     4  11  23  43  65  98 135 179 235 286 358 427
#     4  10  23  42  68 100 140 187 236 297 353 434
#     4  12  23  43  69  94 133 179 228 289 358 427
#     4  11  24  43  65  97 126 174 235 287 350 434
#     4  11  24  45  66  96 137 174 230 290 358 425
#     4  10  22  42  67  99 139 187 237 287 364 424
#     4  11  24  42  66 104 139 178 235 293 358 434
#
# _framework density 23.565619000000002
#
# number of rings (size 3 to 8) (size 9 to 14) (size 15 to 20)
#    0.000    1.250    3.750    1.875    0.000    4.500 
#    4.500    0.625    0.000    0.000    0.000    0.000 
#    0.000    0.000    0.000    0.000    0.000    0.000 
#
# Total GULP energy -178445.943344 kJ/mol
# GULP energy per Si atom -5576.435730 kJ/mol
# Density = 2.351198 g / cm^3
# Si number density = 23.565619 Si / 1000 Ang^3
#
#
#
# Elastic Constant Matrix: (Units=GPa)
#
#
# Indices 1 2 3 4 5 6 
#
# 1 61.2822 29.8833 -0.7856 0.0000 -22.7671 0.0000
# 2 29.8833 79.3092 33.7860 0.0000 -9.4698 0.0000
# 3 -0.7856 33.7860 61.4889 0.0000 -20.1279 0.0000
# 4 0.0000 0.0000 0.0000 25.7962 0.0000 2.1871
# 5 -22.7671 -9.4698 -20.1279 0.0000 40.0379 0.0000
# 6 0.0000 0.0000 0.0000 2.1871 0.0000 38.5488
#
#
#
# Elastic Compliance Matrix: (Units=1/GPa)
#
#
# Indices 1 2 3 4 5 6 
#
# 1 0.034290 -0.017752 0.018195 0.000000 0.024447 0.000000
# 2 -0.017752 0.025673 -0.018733 0.000000 -0.013440 0.000000
# 3 0.018195 -0.018733 0.034383 0.000000 0.023201 0.000000
# 4 0.000000 0.000000 0.000000 0.038953 0.000000 -0.002210
# 5 0.024447 -0.013440 0.023201 0.000000 0.047363 0.000000
# 6 0.000000 0.000000 0.000000 -0.002210 0.000000 0.026067
#
#
# Mechanical properties :
#
#
# Convention : Reuss Voigt Hill
#
# Bulk Modulus (GPa) = 17.31118 36.42753 26.86936
# Shear Modulus (GPa) = 19.04291 30.15634 24.59962
#
# Velocity S-wave (km/s) = 2.84576 3.58114 3.23441
# Velocity P-wave (km/s) = 4.26142 5.70884 5.03739
#
# Compressibility (1/GPa) = 0.05776612
#
# Stress axis : x y z
#
# Youngs Moduli (GPa) = 29.16278 38.95077 29.08397
#
# Poissons Ratio (x) = 0.69147 -0.52918
# Poissons Ratio (y) = 0.51771 0.54483
# Poissons Ratio (z) = -0.53062 0.72966
#
# Static dielectric constant tensor:
#      x y z
#    x 1.865360 0.000000 -0.011960 
#    y 0.000000 2.058760 0.000000 
#    z -0.011960 0.000000 1.880170 
# 
# From -- ./inp_files/47998.got.cif
#   From: 2010.05.17/outbox.cif.g08.bks.cpg/sg14_24_cif.got.tgz:47998.got - 2010.06.03 17:49:19.
