data_PCOD9244978
_publ_section_title
;
Structure prediction by ZEFSAII (Michael W. Deem and Ramdas Pophale) SiO2 
 PCOD9244978
Probable space group: P 21/C
;
_chemical_formula_sum "Si O2"
_cell_formula_units_Z 26
_cell_length_a 14.928726
_cell_length_b 5.004770
_cell_length_c 16.164262
_cell_angle_alpha 90.000000
_cell_angle_beta 102.929979
_cell_angle_gamma 90.000000
_cell_volume 1177.087849
_symmetry_space_group_name_H-M "P 21/C"
_symmetry_group_IT_number 14
_symmetry_cell_setting 'monoclinic'
loop_
_space_group_symop_operation_xyz
x,y,z
-x,1/2+y,1/2-z
-x,-y,-z
x,1/2-y,1/2+z
loop_
_atom_site_type_symbol
_atom_site_label
_atom_site_fract_x
_atom_site_fract_y
_atom_site_fract_z
Si Si1 0.843009 0.813849 0.776032
Si Si2 0.487869 0.524080 0.126644
Si Si3 0.001643 0.750525 0.440260
Si Si4 0.361632 0.281033 0.228680
Si Si5 0.500000 0.000000 0.000000
Si Si6 0.640285 0.363463 0.613558
Si Si7 0.842169 0.204078 0.162328
O O1 0.740006 0.838771 0.791219
O O2 0.842156 0.589113 0.703693
O O3 0.914558 0.740709 0.861314
O O4 0.871467 0.089742 0.739307
O O5 0.400438 0.394358 0.151810
O O6 0.540758 0.292662 0.083086
O O7 0.562687 0.586322 0.214305
O O8 0.468874 0.793411 0.073951
O O9 0.090824 0.731787 0.400439
O O10 0.000000 0.500000 0.500000
O O11 0.000000 0.000000 0.500000
O O12 0.356488 0.523071 0.293869
O O13 0.388747 0.088103 0.957177
O O14 0.736233 0.227515 0.617092
#
# Coordination Sequence:
#
# PCOD9244978 Si02
#       7
#     4   4   4   4   2   4   4
#     4  11  23  44  71 102 128 179 231 268 333 407
#     4  11  19  39  57  93 126 172 217 274 320 391
#     4  12  26  46  68 103 138 168 215 284 349 400
#     4  10  21  35  66  91 125 168 225 276 312 383
#     4  10  24  36  56  88 134 174 212 266 336 396
#     4  10  21  39  59  89 126 168 223 261 330 386
#     4  11  23  44  73  95 132 179 226 275 326 407
#
# _framework density 22.08841
#
# number of rings (size 3 to 8) (size 9 to 14) (size 15 to 20)
#    0.000    1.231    3.077    3.231    0.000    1.231 
#    2.769    0.000    0.000    0.000    0.000    0.000 
#    0.000    0.000    0.000    0.000    0.000    0.000 
#
# Total GULP energy -144985.355964 kJ/mol
# GULP energy per Si atom -5576.359845 kJ/mol
# Density = 2.203814 g / cm^3
# Si number density = 22.088410 Si / 1000 Ang^3
#
#
#
# Elastic Constant Matrix: (Units=GPa)
#
#
# Indices 1 2 3 4 5 6 
#
# 1 129.0813 19.1086 67.4973 0.0000 -27.1156 0.0000
# 2 19.1086 77.8770 12.3129 0.0000 -14.7894 0.0000
# 3 67.4973 12.3129 99.2497 0.0000 -3.7769 0.0000
# 4 0.0000 0.0000 0.0000 49.0109 0.0000 -1.2905
# 5 -27.1156 -14.7894 -3.7769 0.0000 27.8614 0.0000
# 6 0.0000 0.0000 0.0000 -1.2905 0.0000 26.1713
#
#
#
# Elastic Compliance Matrix: (Units=1/GPa)
#
#
# Indices 1 2 3 4 5 6 
#
# 1 0.016291 0.000460 -0.010578 0.000000 0.014665 0.000000
# 2 0.000460 0.014516 -0.001813 0.000000 0.007908 0.000000
# 3 -0.010578 -0.001813 0.017155 0.000000 -0.008932 0.000000
# 4 0.000000 0.000000 0.000000 0.020430 0.000000 0.001007
# 5 0.014665 0.007908 -0.008932 0.000000 0.053151 0.000000
# 6 0.000000 0.000000 0.000000 0.001007 0.000000 0.038259
#
#
# Mechanical properties :
#
#
# Convention : Reuss Voigt Hill
#
# Bulk Modulus (GPa) = 41.49375 56.00508 48.74941
# Shear Modulus (GPa) = 26.08276 34.42801 30.25538
#
# Velocity S-wave (km/s) = 3.44006 3.95225 3.70502
# Velocity P-wave (km/s) = 5.88258 6.79978 6.35774
#
# Compressibility (1/GPa) = 0.02410001
#
# Stress axis : x y z
#
# Youngs Moduli (GPa) = 61.38388 68.88860 58.29368
#
# Poissons Ratio (x) = -0.03170 0.61664
# Poissons Ratio (y) = -0.02825 0.10568
# Poissons Ratio (z) = 0.64932 0.12489
#
# Static dielectric constant tensor:
#      x y z
#    x 1.824440 0.000000 0.025930 
#    y 0.000000 2.167720 0.000000 
#    z 0.025930 0.000000 1.978520 
# 
# From -- ./inp_files/45959.got.cif
#   From: 2010.05.17/outbox.cif.g08.bks.cpg/sg14_23_cif.got.tgz:45959.got - 2010.06.03 17:49:19.
