data_PCOD9244193
_publ_section_title
;
Structure prediction by ZEFSAII (Michael W. Deem and Ramdas Pophale) SiO2 
 PCOD9244193
Probable space group: P 21/C
;
_chemical_formula_sum "Si O2"
_cell_formula_units_Z 26
_cell_length_a 17.997066
_cell_length_b 12.351783
_cell_length_c 14.755964
_cell_angle_alpha 90.000000
_cell_angle_beta 21.739466
_cell_angle_gamma 90.000000
_cell_volume 1214.938499
_symmetry_space_group_name_H-M "P 21/C"
_symmetry_group_IT_number 14
_symmetry_cell_setting 'monoclinic'
loop_
_space_group_symop_operation_xyz
x,y,z
-x,1/2+y,1/2-z
-x,-y,-z
x,1/2-y,1/2+z
loop_
_atom_site_type_symbol
_atom_site_label
_atom_site_fract_x
_atom_site_fract_y
_atom_site_fract_z
Si Si1 0.884640 0.641395 0.158417
Si Si2 0.500000 0.000000 0.000000
Si Si3 0.262685 0.383094 0.198052
Si Si4 0.191815 0.617677 0.974646
Si Si5 0.978927 0.506645 0.378718
Si Si6 0.711533 0.086752 0.890040
Si Si7 0.668058 0.144520 0.144785
O O1 0.787668 0.756674 0.255940
O O2 0.722937 0.541656 0.340354
O O3 0.005271 0.634496 0.116368
O O4 0.060046 0.623292 0.885339
O O5 0.669045 0.026439 0.727318
O O6 0.562561 0.120806 0.979662
O O7 0.190542 0.424483 0.377129
O O8 0.125272 0.450568 0.284325
O O9 0.489517 0.398821 0.909809
O O10 0.307816 0.728593 0.863979
O O11 0.102947 0.579716 0.170259
O O12 0.871330 0.413365 0.444028
O O13 0.640482 0.113007 0.070282
#
# Coordination Sequence:
#
# PCOD9244193 Si02
#       7
#     4   2   4   4   4   4   4
#     4  10  20  40  62  91 123 172 207 267 331 388
#     4  10  22  40  66  98 128 168 218 282 314 400
#     4  11  24  41  64  90 135 173 219 266 327 392
#     4  11  22  42  67  97 132 167 224 270 332 387
#     4  11  24  44  64  93 133 176 211 275 329 392
#     4  10  21  38  66  92 129 163 221 271 327 384
#     4  12  23  42  66  99 128 173 224 271 326 400
#
# _framework density 21.400259999999999
#
# number of rings (size 3 to 8) (size 9 to 14) (size 15 to 20)
#    0.000    1.231    3.077    3.231    0.000    0.000 
#    2.769    1.538    0.000    0.000    0.000    0.000 
#    0.000    0.000    0.000    0.000    0.000    0.000 
#
# Total GULP energy -144904.429464 kJ/mol
# GULP energy per Si atom -5573.247287 kJ/mol
# Density = 2.135155 g / cm^3
# Si number density = 21.400260 Si / 1000 Ang^3
#
#
#
# Elastic Constant Matrix: (Units=GPa)
#
#
# Indices 1 2 3 4 5 6 
#
# 1 52.8607 11.6826 47.7181 0.0000 20.4471 0.0000
# 2 11.6826 81.2301 32.3019 0.0000 7.0384 0.0000
# 3 47.7181 32.3019 92.8171 0.0000 19.2533 0.0000
# 4 0.0000 0.0000 0.0000 34.6380 0.0000 -4.7615
# 5 20.4471 7.0384 19.2533 0.0000 42.1690 0.0000
# 6 0.0000 0.0000 0.0000 -4.7615 0.0000 10.2093
#
#
#
# Elastic Compliance Matrix: (Units=1/GPa)
#
#
# Indices 1 2 3 4 5 6 
#
# 1 0.039914 0.002862 -0.019223 0.000000 -0.011055 0.000000
# 2 0.002862 0.014494 -0.006325 0.000000 -0.000919 0.000000
# 3 -0.019223 -0.006325 0.022871 0.000000 -0.000066 0.000000
# 4 0.000000 0.000000 0.000000 0.030848 0.000000 0.014387
# 5 -0.011055 -0.000919 -0.000066 0.000000 0.029258 0.000000
# 6 0.000000 0.000000 0.000000 0.014387 0.000000 0.104659
#
#
# Mechanical properties :
#
#
# Convention : Reuss Voigt Hill
#
# Bulk Modulus (GPa) = 31.34089 45.59035 38.46562
# Shear Modulus (GPa) = 16.77560 26.41698 21.59629
#
# Velocity S-wave (km/s) = 2.80285 3.51725 3.18017
# Velocity P-wave (km/s) = 5.01513 6.15180 5.61231
#
# Compressibility (1/GPa) = 0.03190720
#
# Stress axis : x y z
#
# Youngs Moduli (GPa) = 25.05381 68.99494 43.72291
#
# Poissons Ratio (x) = -0.19743 0.84048
# Poissons Ratio (y) = -0.07169 0.27653
# Poissons Ratio (z) = 0.48161 0.43637
#
# Static dielectric constant tensor:
#      x y z
#    x 1.206210 0.000000 0.212850 
#    y 0.000000 1.706920 0.000000 
#    z 0.212850 0.000000 1.723890 
# 
# From -- ./inp_files/50439.got.cif
#   From: 2010.05.17/outbox.cif.g08.bks.cpg/sg14_26_cif.got.tgz:50439.got - 2010.06.03 17:49:19.
