data_PCOD9244732
_publ_section_title
;
Structure prediction by ZEFSAII (Michael W. Deem and Ramdas Pophale) SiO2 
 PCOD9244732
Probable space group: P 21/C
;
_chemical_formula_sum "Si O2"
_cell_formula_units_Z 18
_cell_length_a 4.789484
_cell_length_b 8.004741
_cell_length_c 19.481352
_cell_angle_alpha 90.000000
_cell_angle_beta 55.817973
_cell_angle_gamma 90.000000
_cell_volume 617.867680
_symmetry_space_group_name_H-M "P 21/C"
_symmetry_group_IT_number 14
_symmetry_cell_setting 'monoclinic'
loop_
_space_group_symop_operation_xyz
x,y,z
-x,1/2+y,1/2-z
-x,-y,-z
x,1/2-y,1/2+z
loop_
_atom_site_type_symbol
_atom_site_label
_atom_site_fract_x
_atom_site_fract_y
_atom_site_fract_z
Si Si1 0.851073 0.125896 0.413288
Si Si2 0.669703 0.851880 0.245796
Si Si3 0.296067 0.460475 0.681170
Si Si4 0.500000 0.500000 0.500000
Si Si5 0.909022 0.796510 0.478436
O O1 0.460342 0.127887 0.446107
O O2 0.082705 0.227885 0.330838
O O3 0.862280 0.225021 0.485381
O O4 0.994182 0.944859 0.413454
O O5 0.586773 0.729337 0.320257
O O6 0.406154 0.918193 0.227670
O O7 0.893184 0.012472 0.234686
O O8 0.465292 0.525262 0.588318
O O9 0.830328 0.625356 0.452516
#
# Coordination Sequence:
#
# PCOD9244732 Si02
#       5
#     4   4   4   2   4
#     4  10  20  43  64  97 141 186 231 285 366 434
#     4  12  25  52  68 110 141 205 237 316 356 465
#     4  12  29  47  79 102 158 184 260 292 390 420
#     4  12  24  48  70 118 136 200 238 324 338 456
#     4  10  22  37  70 101 139 182 230 295 358 431
#
# _framework density 29.132448
#
# number of rings (size 3 to 8) (size 9 to 14) (size 15 to 20)
#    0.000    0.889    4.444    1.333    3.111    3.556 
#    8.000    0.000    0.000    0.000    0.000    0.000 
#    0.000    0.000    0.000    0.000    0.000    0.000 
#
# Total GULP energy -100637.177697 kJ/mol
# GULP energy per Si atom -5590.954316 kJ/mol
# Density = 2.906614 g / cm^3
# Si number density = 29.132448 Si / 1000 Ang^3
#
#
#
# Elastic Constant Matrix: (Units=GPa)
#
#
# Indices 1 2 3 4 5 6 
#
# 1 93.1521 -11.7807 21.7367 0.0000 23.5870 0.0000
# 2 -11.7807 121.6471 23.0886 0.0000 3.6117 0.0000
# 3 21.7367 23.0886 136.5506 0.0000 20.3267 0.0000
# 4 0.0000 0.0000 0.0000 48.0688 0.0000 -7.2957
# 5 23.5870 3.6117 20.3267 0.0000 28.3801 0.0000
# 6 0.0000 0.0000 0.0000 -7.2957 0.0000 52.1983
#
#
#
# Elastic Compliance Matrix: (Units=1/GPa)
#
#
# Indices 1 2 3 4 5 6 
#
# 1 0.014027 0.001858 -0.000869 0.000000 -0.011272 0.000000
# 2 0.001858 0.008739 -0.001542 0.000000 -0.001552 0.000000
# 3 -0.000869 -0.001542 0.008491 0.000000 -0.005163 0.000000
# 4 0.000000 0.000000 0.000000 0.021254 0.000000 0.002971
# 5 -0.011272 -0.001552 -0.005163 0.000000 0.048499 0.000000
# 6 0.000000 0.000000 0.000000 0.002971 0.000000 0.019573
#
#
# Mechanical properties :
#
#
# Convention : Reuss Voigt Hill
#
# Bulk Modulus (GPa) = 33.16721 46.38213 39.77467
# Shear Modulus (GPa) = 37.95316 46.94980 42.45148
#
# Velocity S-wave (km/s) = 3.61332 4.01883 3.82146
# Velocity P-wave (km/s) = 5.36822 6.12293 5.75796
#
# Compressibility (1/GPa) = 0.03015026
#
# Stress axis : x y z
#
# Youngs Moduli (GPa) = 71.29056 114.42610 117.77198
#
# Poissons Ratio (x) = -0.21261 0.10236
# Poissons Ratio (y) = -0.13246 0.18166
# Poissons Ratio (z) = 0.06196 0.17650
#
# Static dielectric constant tensor:
#      x y z
#    x 2.296490 0.000000 -0.080450 
#    y 0.000000 3.049250 0.000000 
#    z -0.080450 0.000000 2.230260 
# 
# From -- ./inp_files/62844.got.cif
#   From: 2010.05.17/outbox.cif.g08.bks.cpg/sg14_32_cif.got.tgz:62844.got - 2010.06.03 17:49:19.
