data_PCOD9244004
_publ_section_title
;
Structure prediction by ZEFSAII (Michael W. Deem and Ramdas Pophale) SiO2 
 PCOD9244004
Probable space group: P 21/C
;
_chemical_formula_sum "Si O2"
_cell_formula_units_Z 28
_cell_length_a 9.217143
_cell_length_b 12.838885
_cell_length_c 14.094433
_cell_angle_alpha 90.000000
_cell_angle_beta 119.968729
_cell_angle_gamma 90.000000
_cell_volume 1444.902820
_symmetry_space_group_name_H-M "P 21/C"
_symmetry_group_IT_number 14
_symmetry_cell_setting 'monoclinic'
loop_
_space_group_symop_operation_xyz
x,y,z
-x,1/2+y,1/2-z
-x,-y,-z
x,1/2-y,1/2+z
loop_
_atom_site_type_symbol
_atom_site_label
_atom_site_fract_x
_atom_site_fract_y
_atom_site_fract_z
Si Si1 0.636419 0.516355 0.948223
Si Si2 0.123017 0.385405 0.820566
Si Si3 0.043444 0.995336 0.904470
Si Si4 0.622727 0.090926 0.073835
Si Si5 0.182937 0.520960 0.187315
Si Si6 0.973842 0.662339 0.743016
Si Si7 0.629021 0.332212 0.082086
O O1 0.753237 0.502700 0.895716
O O2 0.478075 0.593636 0.881095
O O3 0.730998 0.571864 0.066733
O O4 0.608002 0.399370 0.978452
O O5 0.093846 0.452241 0.715523
O O6 0.962155 0.395267 0.838530
O O7 0.125484 0.268899 0.785738
O O8 0.207087 0.926652 0.932274
O O9 0.066732 0.111358 0.871963
O O10 0.000000 0.000000 0.000000
O O11 0.570047 0.212177 0.053057
O O12 0.668504 0.060870 0.196823
O O13 0.500000 0.000000 0.000000
O O14 0.100203 0.417479 0.204515
O O15 0.173330 0.674205 0.825980
#
# Coordination Sequence:
#
# PCOD9244004 Si02
#       7
#     4   4   4   4   4   4   4
#     4  11  24  39  64  96 123 160 208 257 310 364
#     4  10  20  39  64  87 124 159 205 254 307 362
#     4  10  22  38  63  90 114 158 211 248 299 369
#     4  10  23  45  60  87 129 165 198 256 313 362
#     4  10  22  41  64  91 119 163 215 248 307 373
#     4  10  20  40  64  85 125 159 202 254 308 366
#     4  11  22  42  61  89 131 159 198 260 315 358
#
# _framework density 19.378467000000001
#
# number of rings (size 3 to 8) (size 9 to 14) (size 15 to 20)
#    0.000    2.000    5.714    0.429    4.000    3.429 
#    2.571    0.000    0.000    0.000    0.000    0.000 
#    0.000    0.000    0.000    0.000    0.000    0.000 
#
# Total GULP energy -155921.748003 kJ/mol
# GULP energy per Si atom -5568.633857 kJ/mol
# Density = 1.933436 g / cm^3
# Si number density = 19.378467 Si / 1000 Ang^3
#
#
#
# Elastic Constant Matrix: (Units=GPa)
#
#
# Indices 1 2 3 4 5 6 
#
# 1 56.6103 6.7525 39.6904 0.0000 -18.5402 0.0000
# 2 6.7525 118.6683 14.7122 0.0000 10.2022 0.0000
# 3 39.6904 14.7122 74.5481 0.0000 -10.2290 0.0000
# 4 0.0000 0.0000 0.0000 15.3539 0.0000 9.5402
# 5 -18.5402 10.2022 -10.2290 0.0000 36.9648 0.0000
# 6 0.0000 0.0000 0.0000 9.5402 0.0000 20.4170
#
#
#
# Elastic Compliance Matrix: (Units=1/GPa)
#
#
# Indices 1 2 3 4 5 6 
#
# 1 0.032731 -0.001003 -0.015527 0.000000 0.012397 0.000000
# 2 -0.001003 0.008994 -0.001716 0.000000 -0.003460 0.000000
# 3 -0.015527 -0.001716 0.021846 0.000000 -0.001269 0.000000
# 4 0.000000 0.000000 0.000000 0.091777 0.000000 -0.042884
# 5 0.012397 -0.003460 -0.001269 0.000000 0.033874 0.000000
# 6 0.000000 0.000000 0.000000 -0.042884 0.000000 0.069017
#
#
# Mechanical properties :
#
#
# Convention : Reuss Voigt Hill
#
# Bulk Modulus (GPa) = 36.93030 41.34854 39.13942
# Shear Modulus (GPa) = 16.46054 27.12525 21.79289
#
# Velocity S-wave (km/s) = 2.91765 3.74540 3.35713
# Velocity P-wave (km/s) = 5.51806 6.33149 5.93872
#
# Compressibility (1/GPa) = 0.02707804
#
# Stress axis : x y z
#
# Youngs Moduli (GPa) = 30.55232 111.18365 45.77596
#
# Poissons Ratio (x) = 0.11154 0.71078
# Poissons Ratio (y) = 0.03065 0.07854
# Poissons Ratio (z) = 0.47440 0.19076
#
# Static dielectric constant tensor:
#      x y z
#    x 1.735540 0.000000 0.054770 
#    y 0.000000 1.781580 0.000000 
#    z 0.054770 0.000000 1.681860 
# 
# From -- ./inp_files/40123.got.cif
#   From: 2010.05.17/outbox.cif.g08.bks.cpg/sg14_21_cif.got.tgz:40123.got - 2010.06.03 17:49:19.
