data_PCOD9244052
_publ_section_title
;
Structure prediction by ZEFSAII (Michael W. Deem and Ramdas Pophale) SiO2 
 PCOD9244052
Probable space group: P 21/C
;
_chemical_formula_sum "Si O2"
_cell_formula_units_Z 28
_cell_length_a 11.541313
_cell_length_b 7.082905
_cell_length_c 12.969245
_cell_angle_alpha 90.000000
_cell_angle_beta 102.556066
_cell_angle_gamma 90.000000
_cell_volume 1034.828572
_symmetry_space_group_name_H-M "P 21/C"
_symmetry_group_IT_number 14
_symmetry_cell_setting 'monoclinic'
loop_
_space_group_symop_operation_xyz
x,y,z
-x,1/2+y,1/2-z
-x,-y,-z
x,1/2-y,1/2+z
loop_
_atom_site_type_symbol
_atom_site_label
_atom_site_fract_x
_atom_site_fract_y
_atom_site_fract_z
Si Si1 0.696103 0.927884 0.454366
Si Si2 0.482446 0.836555 0.893874
Si Si3 0.588874 0.302449 0.343950
Si Si4 0.838243 0.469084 0.437992
Si Si5 0.224485 0.780375 0.390845
Si Si6 0.128801 0.998982 0.701722
Si Si7 0.943553 0.716597 0.617727
O O1 0.610987 0.104490 0.403209
O O2 0.756924 0.001672 0.573315
O O3 0.781344 0.937534 0.369438
O O4 0.603490 0.760644 0.454349
O O5 0.460760 0.744300 0.777390
O O6 0.356406 0.805642 0.921977
O O7 0.500031 0.058397 0.883577
O O8 0.712322 0.423733 0.361658
O O9 0.847341 0.306759 0.527343
O O10 0.948738 0.433897 0.385002
O O11 0.852581 0.659796 0.508363
O O12 0.173509 0.681935 0.278574
O O13 0.007497 0.918526 0.629620
O O14 0.107001 0.162158 0.780678
#
# Coordination Sequence:
#
# PCOD9244052 Si02
#       7
#     4   4   4   4   4   4   4
#     4  11  23  42  62  94 136 166 216 277 310 399
#     4  12  22  38  66 100 126 179 213 255 339 384
#     4  11  21  39  65  90 137 166 218 265 316 388
#     4   9  20  38  64  88 124 171 218 263 325 387
#     4  10  20  40  66  89 132 170 208 273 322 385
#     4  11  21  41  64  92 127 170 222 265 333 374
#     4  10  20  39  65  87 121 174 214 268 332 372
#
# _framework density 27.057621999999999
#
# number of rings (size 3 to 8) (size 9 to 14) (size 15 to 20)
#    0.000    1.429    5.714    0.429    0.000    3.429 
#    2.571    0.714    0.000    0.000    0.000    0.000 
#    0.000    0.000    0.000    0.000    0.000    0.000 
#
# Total GULP energy -156739.941331 kJ/mol
# GULP energy per Si atom -5597.855048 kJ/mol
# Density = 2.699604 g / cm^3
# Si number density = 27.057622 Si / 1000 Ang^3
#
#
#
# Elastic Constant Matrix: (Units=GPa)
#
#
# Indices 1 2 3 4 5 6 
#
# 1 113.2560 27.1625 45.5645 0.0000 0.2086 0.0000
# 2 27.1625 99.0578 49.2073 0.0000 -13.1380 0.0000
# 3 45.5645 49.2073 91.3933 0.0000 8.9487 0.0000
# 4 0.0000 0.0000 0.0000 58.1801 0.0000 6.0507
# 5 0.2086 -13.1380 8.9487 0.0000 45.5913 0.0000
# 6 0.0000 0.0000 0.0000 6.0507 0.0000 36.5407
#
#
#
# Elastic Compliance Matrix: (Units=1/GPa)
#
#
# Indices 1 2 3 4 5 6 
#
# 1 0.011096 -0.000157 -0.005545 0.000000 0.000992 0.000000
# 2 -0.000157 0.015304 -0.008762 0.000000 0.006131 0.000000
# 3 -0.005545 -0.008762 0.019034 0.000000 -0.006236 0.000000
# 4 0.000000 0.000000 0.000000 0.017489 0.000000 -0.002896
# 5 0.000992 0.006131 -0.006236 0.000000 0.024920 0.000000
# 6 0.000000 0.000000 0.000000 -0.002896 0.000000 0.027846
#
#
# Mechanical properties :
#
#
# Convention : Reuss Voigt Hill
#
# Bulk Modulus (GPa) = 60.57941 60.84174 60.71058
# Shear Modulus (GPa) = 33.30701 40.18059 36.74380
#
# Velocity S-wave (km/s) = 3.51232 3.85775 3.68908
# Velocity P-wave (km/s) = 6.23588 6.50982 6.37432
#
# Compressibility (1/GPa) = 0.01650726
#
# Stress axis : x y z
#
# Youngs Moduli (GPa) = 90.12218 65.34387 52.53697
#
# Poissons Ratio (x) = 0.01023 0.29131
# Poissons Ratio (y) = 0.01411 0.46032
# Poissons Ratio (z) = 0.49971 0.57254
#
# Static dielectric constant tensor:
#      x y z
#    x 2.104110 0.000000 0.062790 
#    y 0.000000 2.159020 0.000000 
#    z 0.062790 0.000000 2.242660 
# 
# From -- ./inp_files/43186.got.cif
#   From: 2010.05.17/outbox.cif.g08.bks.cpg/sg14_22_cif.got.tgz:43186.got - 2010.06.03 17:49:19.
