data_PCOD9244633
_publ_section_title
;
Structure prediction by ZEFSAII (Michael W. Deem and Ramdas Pophale) SiO2 
 PCOD9244633
Probable space group: P 21/C
;
_chemical_formula_sum "Si O2"
_cell_formula_units_Z 28
_cell_length_a 8.970741
_cell_length_b 5.404945
_cell_length_c 27.394392
_cell_angle_alpha 90.000000
_cell_angle_beta 121.096212
_cell_angle_gamma 90.000000
_cell_volume 1137.385879
_symmetry_space_group_name_H-M "P 21/C"
_symmetry_group_IT_number 14
_symmetry_cell_setting 'monoclinic'
loop_
_space_group_symop_operation_xyz
x,y,z
-x,1/2+y,1/2-z
-x,-y,-z
x,1/2-y,1/2+z
loop_
_atom_site_type_symbol
_atom_site_label
_atom_site_fract_x
_atom_site_fract_y
_atom_site_fract_z
Si Si1 0.510042 0.835065 0.321543
Si Si2 0.072754 0.867314 0.372951
Si Si3 0.293042 0.162783 0.480398
Si Si4 0.842896 0.983759 0.886318
Si Si5 0.271784 0.842970 0.032014
Si Si6 0.419760 0.678977 0.409306
Si Si7 0.764748 0.358623 0.796733
O O1 0.647435 0.611888 0.342841
O O2 0.475453 0.854649 0.373482
O O3 0.332508 0.761286 0.264933
O O4 0.611798 0.041511 0.307325
O O5 0.201374 0.081535 0.415128
O O6 0.213624 0.674380 0.376408
O O7 0.965787 0.752431 0.400456
O O8 0.913980 0.939904 0.310529
O O9 0.253125 0.933531 0.509820
O O10 0.221910 0.428761 0.487254
O O11 0.498844 0.217811 0.525847
O O12 0.835378 0.114735 0.936820
O O13 0.874234 0.168664 0.847642
O O14 0.473471 0.923251 0.077860
#
# Coordination Sequence:
#
# PCOD9244633 Si02
#       7
#     4   4   4   4   4   4   4
#     4  10  20  42  66  87 120 168 228 261 333 383
#     4  11  25  39  59 100 134 165 217 266 338 386
#     4  10  22  42  68  95 133 181 215 266 323 396
#     4  10  22  39  63  92 125 161 220 277 321 388
#     4   9  22  40  68  94 124 179 221 261 323 383
#     4   9  22  43  63  94 131 176 217 266 323 403
#     4  11  22  40  66  92 121 172 215 283 322 393
#
# _framework density 24.617857000000001
#
# number of rings (size 3 to 8) (size 9 to 14) (size 15 to 20)
#    0.857    1.143    1.429    1.286    4.000    2.857 
#    2.571    0.000    0.000    0.000    0.000    0.000 
#    0.000    0.000    0.000    0.000    0.000    0.000 
#
# Total GULP energy -156183.929529 kJ/mol
# GULP energy per Si atom -5577.997483 kJ/mol
# Density = 2.456183 g / cm^3
# Si number density = 24.617857 Si / 1000 Ang^3
#
#
#
# Elastic Constant Matrix: (Units=GPa)
#
#
# Indices 1 2 3 4 5 6 
#
# 1 86.7890 3.5455 33.1762 0.0000 37.2003 0.0000
# 2 3.5455 85.9933 17.4095 0.0000 4.7700 0.0000
# 3 33.1762 17.4095 93.4028 0.0000 19.9213 0.0000
# 4 0.0000 0.0000 0.0000 36.7613 0.0000 6.1589
# 5 37.2003 4.7700 19.9213 0.0000 44.6500 0.0000
# 6 0.0000 0.0000 0.0000 6.1589 0.0000 24.9273
#
#
#
# Elastic Compliance Matrix: (Units=1/GPa)
#
#
# Indices 1 2 3 4 5 6 
#
# 1 0.019083 0.000790 -0.003886 0.000000 -0.014250 0.000000
# 2 0.000790 0.012122 -0.002347 0.000000 -0.000906 0.000000
# 3 -0.003886 -0.002347 0.013019 0.000000 -0.002320 0.000000
# 4 0.000000 0.000000 0.000000 0.028377 0.000000 -0.007011
# 5 -0.014250 -0.000906 -0.002320 0.000000 0.035401 0.000000
# 6 0.000000 0.000000 0.000000 -0.007011 0.000000 0.041849
#
#
# Mechanical properties :
#
#
# Convention : Reuss Voigt Hill
#
# Bulk Modulus (GPa) = 29.99533 41.60528 35.80031
# Shear Modulus (GPa) = 29.09526 35.40465 32.24995
#
# Velocity S-wave (km/s) = 3.44157 3.79643 3.62335
# Velocity P-wave (km/s) = 5.29182 6.01285 5.66382
#
# Compressibility (1/GPa) = 0.03333852
#
# Stress axis : x y z
#
# Youngs Moduli (GPa) = 52.40141 82.49720 76.81092
#
# Poissons Ratio (x) = -0.06521 0.29852
# Poissons Ratio (y) = -0.04142 0.18026
# Poissons Ratio (z) = 0.20365 0.19360
#
# Static dielectric constant tensor:
#      x y z
#    x 1.974260 0.000000 0.021420 
#    y 0.000000 2.047780 0.000000 
#    z 0.021420 0.000000 1.970990 
# 
# From -- ./inp_files/79286.got.cif
#   From: 2010.05.17/outbox.cif.g08.bks.cpg/sg14_40_cif.got.tgz:79286.got - 2010.06.03 17:49:19.
