data_PCOD9244910
_publ_section_title
;
Structure prediction by ZEFSAII (Michael W. Deem and Ramdas Pophale) SiO2 
 PCOD9244910
Probable space group: P 21/C
;
_chemical_formula_sum "Si O2"
_cell_formula_units_Z 32
_cell_length_a 8.966974
_cell_length_b 11.506238
_cell_length_c 16.738959
_cell_angle_alpha 90.000000
_cell_angle_beta 126.474421
_cell_angle_gamma 90.000000
_cell_volume 1388.768421
_symmetry_space_group_name_H-M "P 21/C"
_symmetry_group_IT_number 14
_symmetry_cell_setting 'monoclinic'
loop_
_space_group_symop_operation_xyz
x,y,z
-x,1/2+y,1/2-z
-x,-y,-z
x,1/2-y,1/2+z
loop_
_atom_site_type_symbol
_atom_site_label
_atom_site_fract_x
_atom_site_fract_y
_atom_site_fract_z
Si Si1 0.653316 0.799081 0.485526
Si Si2 0.884785 0.853241 0.422490
Si Si3 0.452738 0.907082 0.848790
Si Si4 0.826875 0.900409 0.226989
Si Si5 0.607419 0.840916 0.644802
Si Si6 0.192265 0.081458 0.138421
Si Si7 0.750763 0.184939 0.372081
Si Si8 0.006543 0.871083 0.128320
O O1 0.708241 0.872868 0.424510
O O2 0.490743 0.708325 0.412626
O O3 0.620510 0.870935 0.555528
O O4 0.832081 0.714061 0.557051
O O5 0.883333 0.915302 0.336943
O O6 0.870694 0.714103 0.397891
O O7 0.068701 0.873738 0.532088
O O8 0.653264 0.948505 0.879456
O O9 0.345067 0.874638 0.733720
O O10 0.321045 0.001952 0.847387
O O11 0.719335 0.779309 0.188624
O O12 0.996651 0.891915 0.219959
O O13 0.701894 0.921969 0.741836
O O14 0.401208 0.811441 0.607439
O O15 0.018146 0.996907 0.092042
O O16 0.820342 0.305631 0.355919
#
# Coordination Sequence:
#
# PCOD9244910 Si02
#       8
#     4   4   4   4   4   4   4   4
#     4   9  20  36  56  82 109 141 180 223 270 317
#     4   9  20  37  54  76 108 141 177 221 270 318
#     4  10  21  36  55  78 107 143 181 220 266 315
#     4  10  21  35  54  80 108 140 177 222 269 318
#     4   9  19  36  56  80 109 138 176 221 269 320
#     4   9  19  36  56  80 107 138 175 221 270 318
#     4  10  21  36  55  78 107 144 181 221 265 318
#     4  10  21  35  56  82 107 138 179 222 269 320
#
# _framework density 23.041996999999999
#
# number of rings (size 3 to 8) (size 9 to 14) (size 15 to 20)
#    0.000    2.500    0.000    1.500    0.000   14.000 
#    0.000    0.000    0.000    3.750    0.000    0.000 
#    0.000    0.000    0.000    0.000    0.000    0.000 
#
# Total GULP energy -178590.358845 kJ/mol
# GULP energy per Si atom -5580.948714 kJ/mol
# Density = 2.298955 g / cm^3
# Si number density = 23.041997 Si / 1000 Ang^3
#
#
#
# Elastic Constant Matrix: (Units=GPa)
#
#
# Indices 1 2 3 4 5 6 
#
# 1 91.5693 28.7192 37.3545 0.0000 -18.7901 0.0000
# 2 28.7192 23.7268 5.3839 0.0000 -1.5562 0.0000
# 3 37.3545 5.3839 86.9208 0.0000 -19.5515 0.0000
# 4 0.0000 0.0000 0.0000 14.0168 0.0000 0.0648
# 5 -18.7901 -1.5562 -19.5515 0.0000 41.1490 0.0000
# 6 0.0000 0.0000 0.0000 0.0648 0.0000 18.2655
#
#
#
# Elastic Compliance Matrix: (Units=1/GPa)
#
#
# Indices 1 2 3 4 5 6 
#
# 1 0.023261 -0.026163 -0.006952 0.000000 0.006329 0.000000
# 2 -0.026163 0.072179 0.005262 0.000000 -0.006717 0.000000
# 3 -0.006952 0.005262 0.015112 0.000000 0.004205 0.000000
# 4 0.000000 0.000000 0.000000 0.071344 0.000000 -0.000253
# 5 0.006329 -0.006717 0.004205 0.000000 0.028936 0.000000
# 6 0.000000 0.000000 0.000000 -0.000253 0.000000 0.054749
#
#
# Mechanical properties :
#
#
# Convention : Reuss Voigt Hill
#
# Bulk Modulus (GPa) = 18.23275 38.34803 28.29039
# Shear Modulus (GPa) = 14.72449 23.40355 19.06402
#
# Velocity S-wave (km/s) = 2.53064 3.19045 2.87951
# Velocity P-wave (km/s) = 4.05819 5.50007 4.83320
#
# Compressibility (1/GPa) = 0.05484636
#
# Stress axis : x y z
#
# Youngs Moduli (GPa) = 42.99035 13.85437 66.17074
#
# Poissons Ratio (x) = 0.36247 0.46004
# Poissons Ratio (y) = 1.12474 -0.34818
# Poissons Ratio (z) = 0.29889 -0.07290
#
# Static dielectric constant tensor:
#      x y z
#    x 1.865120 0.000000 -0.027640 
#    y 0.000000 1.914490 0.000000 
#    z -0.027640 0.000000 1.925700 
# 
# From -- ./inp_files/55609.got.cif
#   From: 2010.05.17/outbox.cif.g08.bks.cpg/sg14_28_cif.got.tgz:55609.got - 2010.06.03 17:49:19.
