data_PCOD9244317
_publ_section_title
;
Structure prediction by ZEFSAII (Michael W. Deem and Ramdas Pophale) SiO2 
 PCOD9244317
Probable space group: P 21/C
;
_chemical_formula_sum "Si O2"
_cell_formula_units_Z 24
_cell_length_a 8.959316
_cell_length_b 7.507202
_cell_length_c 12.710098
_cell_angle_alpha 90.000000
_cell_angle_beta 95.155146
_cell_angle_gamma 90.000000
_cell_volume 851.415577
_symmetry_space_group_name_H-M "P 21/C"
_symmetry_group_IT_number 14
_symmetry_cell_setting 'monoclinic'
loop_
_space_group_symop_operation_xyz
x,y,z
-x,1/2+y,1/2-z
-x,-y,-z
x,1/2-y,1/2+z
loop_
_atom_site_type_symbol
_atom_site_label
_atom_site_fract_x
_atom_site_fract_y
_atom_site_fract_z
Si Si1 0.022135 0.348876 0.372822
Si Si2 0.109728 0.377592 0.150010
Si Si3 0.360954 0.303410 0.788464
Si Si4 0.184170 0.980912 0.433351
Si Si5 0.250178 0.559764 0.529608
Si Si6 0.560380 0.415082 0.629575
O O1 0.064498 0.439995 0.265309
O O2 0.074464 0.145711 0.386159
O O3 0.127417 0.439399 0.466007
O O4 0.844579 0.356017 0.382614
O O5 0.225601 0.224170 0.195882
O O6 0.944559 0.329041 0.093340
O O7 0.196880 0.477262 0.059487
O O8 0.323783 0.460923 0.868226
O O9 0.517991 0.329855 0.737967
O O10 0.374229 0.111603 0.844683
O O11 0.397875 0.452449 0.570392
O O12 0.328870 0.686148 0.444671
#
# Coordination Sequence:
#
# PCOD9244317 Si02
#       6
#     4   4   4   4   4   4
#     4  10  20  40  66  94 121 171 226 273 320 388
#     4  10  21  39  64  96 129 170 214 281 333 383
#     4  11  24  43  66  99 135 185 216 275 331 410
#     4  10  21  40  63  94 134 165 222 280 328 382
#     4  10  21  39  66  95 124 175 222 275 314 403
#     4  11  23  43  66  95 138 174 221 267 342 395
#
# _framework density 28.18835
#
# number of rings (size 3 to 8) (size 9 to 14) (size 15 to 20)
#    0.000    1.667    3.333    2.000    2.333    5.333 
#    9.000    0.833    0.000    0.000    0.000    0.000 
#    0.000    0.000    0.000    0.000    0.000    0.000 
#
# Total GULP energy -133879.877428 kJ/mol
# GULP energy per Si atom -5578.328226 kJ/mol
# Density = 2.812419 g / cm^3
# Si number density = 28.188350 Si / 1000 Ang^3
#
#
#
# Elastic Constant Matrix: (Units=GPa)
#
#
# Indices 1 2 3 4 5 6 
#
# 1 143.5421 -16.9952 39.3533 0.0000 -27.8320 0.0000
# 2 -16.9952 27.9581 1.9914 0.0000 19.9135 0.0000
# 3 39.3533 1.9914 122.1017 0.0000 -10.1581 0.0000
# 4 0.0000 0.0000 0.0000 37.1601 0.0000 -6.0933
# 5 -27.8320 19.9135 -10.1581 0.0000 61.9597 0.0000
# 6 0.0000 0.0000 0.0000 -6.0933 0.0000 31.8447
#
#
#
# Elastic Compliance Matrix: (Units=1/GPa)
#
#
# Indices 1 2 3 4 5 6 
#
# 1 0.008569 0.003844 -0.002643 0.000000 0.002180 0.000000
# 2 0.003844 0.048610 -0.003232 0.000000 -0.014426 0.000000
# 3 -0.002643 -0.003232 0.009208 0.000000 0.001361 0.000000
# 4 0.000000 0.000000 0.000000 0.027782 0.000000 0.005316
# 5 0.002180 -0.014426 0.001361 0.000000 0.021979 0.000000
# 6 0.000000 0.000000 0.000000 0.005316 0.000000 0.032420
#
#
# Mechanical properties :
#
#
# Convention : Reuss Voigt Hill
#
# Bulk Modulus (GPa) = 16.04487 38.03346 27.03916
# Shear Modulus (GPa) = 28.83441 44.14305 36.48873
#
# Velocity S-wave (km/s) = 3.20178 3.96157 3.60177
# Velocity P-wave (km/s) = 4.40147 5.86918 5.18749
#
# Compressibility (1/GPa) = 0.06232523
#
# Stress axis : x y z
#
# Youngs Moduli (GPa) = 116.69765 20.57190 108.60454
#
# Poissons Ratio (x) = -0.07908 0.28706
# Poissons Ratio (y) = -0.44862 0.35101
# Poissons Ratio (z) = 0.30845 0.06649
#
# Static dielectric constant tensor:
#      x y z
#    x 2.247730 0.000000 -0.052580 
#    y 0.000000 2.579590 0.000000 
#    z -0.052580 0.000000 2.429510 
# 
# From -- ./inp_files/24148.got.cif
#   From: 2010.05.17/outbox.cif.g08.bks.cpg/sg14_13_cif.got.tgz:24148.got - 2010.06.03 17:49:19.
