data_PCOD9244546
_publ_section_title
;
Structure prediction by ZEFSAII (Michael W. Deem and Ramdas Pophale) SiO2 
 PCOD9244546
Probable space group: P 21/C
;
_chemical_formula_sum "Si O2"
_cell_formula_units_Z 20
_cell_length_a 18.187157
_cell_length_b 9.772138
_cell_length_c 9.318197
_cell_angle_alpha 90.000000
_cell_angle_beta 146.224722
_cell_angle_gamma 90.000000
_cell_volume 920.686727
_symmetry_space_group_name_H-M "P 21/C"
_symmetry_group_IT_number 14
_symmetry_cell_setting 'monoclinic'
loop_
_space_group_symop_operation_xyz
x,y,z
-x,1/2+y,1/2-z
-x,-y,-z
x,1/2-y,1/2+z
loop_
_atom_site_type_symbol
_atom_site_label
_atom_site_fract_x
_atom_site_fract_y
_atom_site_fract_z
Si Si1 0.601190 0.084929 0.823241
Si Si2 0.470584 0.782036 0.024801
Si Si3 0.374127 0.986463 0.634245
Si Si4 0.098181 0.603547 0.238762
Si Si5 0.902470 0.103629 0.922704
O O1 0.528175 0.146936 0.566834
O O2 0.509661 0.979005 0.760635
O O3 0.390007 0.142811 0.719886
O O4 0.750581 0.049378 0.030861
O O5 0.385929 0.887384 0.788954
O O6 0.397547 0.789480 0.058502
O O7 0.242968 0.961814 0.333782
O O8 0.068978 0.617841 0.361252
O O9 0.092112 0.750322 0.149350
O O10 0.000000 0.500000 0.000000
O O11 0.000000 0.000000 0.000000
#
# Coordination Sequence:
#
# PCOD9244546 Si02
#       5
#     4   4   4   4   4
#     4  10  20  41  69  98 138 179 240 285 368 407
#     4   9  19  38  66  96 134 180 225 293 348 428
#     4   9  22  40  67  99 139 187 227 306 356 424
#     4  12  27  47  78 104 142 202 245 299 362 442
#     4  12  27  50  71 103 153 190 246 303 369 432
#
# _framework density 21.722913999999999
#
# number of rings (size 3 to 8) (size 9 to 14) (size 15 to 20)
#    1.200    0.400    2.000    2.400    2.800    0.800 
#   10.800    0.000    0.000    0.000    0.000    0.000 
#    0.000    0.000    0.000    0.000    0.000    0.000 
#
# Total GULP energy -111599.195705 kJ/mol
# GULP energy per Si atom -5579.959785 kJ/mol
# Density = 2.167347 g / cm^3
# Si number density = 21.722914 Si / 1000 Ang^3
#
#
#
# Elastic Constant Matrix: (Units=GPa)
#
#
# Indices 1 2 3 4 5 6 
#
# 1 150.0151 46.4391 64.3200 0.0000 -27.6732 0.0000
# 2 46.4391 84.5209 67.6961 0.0000 5.0128 0.0000
# 3 64.3200 67.6961 120.4726 0.0000 -24.8765 0.0000
# 4 0.0000 0.0000 0.0000 40.2287 0.0000 -5.3688
# 5 -27.6732 5.0128 -24.8765 0.0000 51.1159 0.0000
# 6 0.0000 0.0000 0.0000 -5.3688 0.0000 38.6296
#
#
#
# Elastic Compliance Matrix: (Units=1/GPa)
#
#
# Indices 1 2 3 4 5 6 
#
# 1 0.009584 -0.004028 -0.001890 0.000000 0.004664 0.000000
# 2 -0.004028 0.027575 -0.015957 0.000000 -0.012651 0.000000
# 3 -0.001890 -0.015957 0.020442 0.000000 0.010490 0.000000
# 4 0.000000 0.000000 0.000000 0.025328 0.000000 0.003520
# 5 0.004664 -0.012651 0.010490 0.000000 0.028434 0.000000
# 6 0.000000 0.000000 0.000000 0.003520 0.000000 0.026376
#
#
# Mechanical properties :
#
#
# Convention : Reuss Voigt Hill
#
# Bulk Modulus (GPa) = 72.19688 79.10212 75.64950
# Shear Modulus (GPa) = 26.86632 37.76508 32.31570
#
# Velocity S-wave (km/s) = 3.52059 4.17404 3.86117
# Velocity P-wave (km/s) = 7.05929 7.72809 7.40125
#
# Compressibility (1/GPa) = 0.01385101
#
# Stress axis : x y z
#
# Youngs Moduli (GPa) = 104.34341 36.26417 48.91828
#
# Poissons Ratio (x) = 0.14609 0.09246
# Poissons Ratio (y) = 0.42034 0.78057
# Poissons Ratio (z) = 0.19721 0.57866
#
# Static dielectric constant tensor:
#      x y z
#    x 1.791770 0.000000 -0.023560 
#    y 0.000000 1.933450 0.000000 
#    z -0.023560 0.000000 1.781020 
# 
# From -- ./inp_files/17868.got.cif
#   From: 2010.05.17/outbox.cif.g08.bks.cpg/sg14_9_cif.got.tgz:17868.got - 2010.06.03 17:49:19.
