data_PCOD9244439
_publ_section_title
;
Structure prediction by ZEFSAII (Michael W. Deem and Ramdas Pophale) SiO2 
 PCOD9244439
Probable space group: P 21/C
;
_chemical_formula_sum "Si O2"
_cell_formula_units_Z 24
_cell_length_a 20.316607
_cell_length_b 11.772603
_cell_length_c 14.993208
_cell_angle_alpha 90.000000
_cell_angle_beta 19.911052
_cell_angle_gamma 90.000000
_cell_volume 1221.273840
_symmetry_space_group_name_H-M "P 21/C"
_symmetry_group_IT_number 14
_symmetry_cell_setting 'monoclinic'
loop_
_space_group_symop_operation_xyz
x,y,z
-x,1/2+y,1/2-z
-x,-y,-z
x,1/2-y,1/2+z
loop_
_atom_site_type_symbol
_atom_site_label
_atom_site_fract_x
_atom_site_fract_y
_atom_site_fract_z
Si Si1 0.563918 0.278975 0.346088
Si Si2 0.157658 0.428706 0.631955
Si Si3 0.749459 0.178282 0.941613
Si Si4 0.143508 0.162836 0.341965
Si Si5 0.240374 0.016365 0.378624
Si Si6 0.562144 0.753140 0.805810
O O1 0.343057 0.267222 0.592788
O O2 0.616282 0.411818 0.291556
O O3 0.561002 0.227548 0.448425
O O4 0.712846 0.227943 0.086263
O O5 0.262731 0.542077 0.533441
O O6 0.097158 0.360725 0.798510
O O7 0.293260 0.347933 0.402028
O O8 0.968208 0.473439 0.822396
O O9 0.957439 0.207263 0.633035
O O10 0.582125 0.224207 0.091222
O O11 0.197619 0.049090 0.329629
O O12 0.318221 0.131375 0.324326
#
# Coordination Sequence:
#
# PCOD9244439 Si02
#       6
#     4   4   4   4   4   4
#     4  11  22  39  66  92 127 163 207 255 312 366
#     4  11  22  39  67  93 127 163 207 253 314 369
#     4  11  23  40  64  92 126 165 206 258 308 366
#     4  10  20  41  62  94 118 162 211 259 295 371
#     4  10  22  37  65  91 122 159 218 252 301 363
#     4  11  23  40  64  92 128 163 207 258 310 365
#
# _framework density 19.651613000000001
#
# number of rings (size 3 to 8) (size 9 to 14) (size 15 to 20)
#    0.000    1.333    1.667    7.000    7.000    0.667 
#    0.000    0.000    0.000    3.000    0.000    0.000 
#    0.000    0.000    0.000    0.000    0.000    0.000 
#
# Total GULP energy -133952.729135 kJ/mol
# GULP energy per Si atom -5581.363714 kJ/mol
# Density = 1.960689 g / cm^3
# Si number density = 19.651613 Si / 1000 Ang^3
#
#
#
# Elastic Constant Matrix: (Units=GPa)
#
#
# Indices 1 2 3 4 5 6 
#
# 1 54.4894 0.1071 25.0447 0.0000 12.2169 0.0000
# 2 0.1071 17.2541 12.6239 0.0000 10.0639 0.0000
# 3 25.0447 12.6239 77.4560 0.0000 14.7174 0.0000
# 4 0.0000 0.0000 0.0000 40.8234 0.0000 -0.4041
# 5 12.2169 10.0639 14.7174 0.0000 39.7351 0.0000
# 6 0.0000 0.0000 0.0000 -0.4041 0.0000 14.7356
#
#
#
# Elastic Compliance Matrix: (Units=1/GPa)
#
#
# Indices 1 2 3 4 5 6 
#
# 1 0.023450 0.009518 -0.007859 0.000000 -0.006710 0.000000
# 2 0.009518 0.077360 -0.012270 0.000000 -0.017975 0.000000
# 3 -0.007859 -0.012270 0.017644 0.000000 -0.001011 0.000000
# 4 0.000000 0.000000 0.000000 0.024502 0.000000 0.000672
# 5 -0.006710 -0.017975 -0.001011 0.000000 0.032157 0.000000
# 6 0.000000 0.000000 0.000000 0.000672 0.000000 0.067881
#
#
# Mechanical properties :
#
#
# Convention : Reuss Voigt Hill
#
# Bulk Modulus (GPa) = 10.28478 24.97232 17.62855
# Shear Modulus (GPa) = 16.85622 26.48707 21.67164
#
# Velocity S-wave (km/s) = 2.93192 3.67527 3.32443
# Velocity P-wave (km/s) = 4.08735 5.54484 4.87092
#
# Compressibility (1/GPa) = 0.09723107
#
# Stress axis : x y z
#
# Youngs Moduli (GPa) = 42.64407 12.92660 56.67801
#
# Poissons Ratio (x) = -0.12303 0.44541
# Poissons Ratio (y) = -0.40588 0.69546
# Poissons Ratio (z) = 0.33512 0.15861
#
# Static dielectric constant tensor:
#      x y z
#    x 1.711940 0.000000 -0.007390 
#    y 0.000000 1.679300 0.000000 
#    z -0.007390 0.000000 1.748170 
# 
# From -- ./inp_files/50415.got.cif
#   From: 2010.05.17/outbox.cif.g08.bks.cpg/sg14_26_cif.got.tgz:50415.got - 2010.06.03 17:49:19.
