data_PCOD9244207
_publ_section_title
;
Structure prediction by ZEFSAII (Michael W. Deem and Ramdas Pophale) SiO2 
 PCOD9244207
Probable space group: P 21/C
;
_chemical_formula_sum "Si O2"
_cell_formula_units_Z 20
_cell_length_a 7.822021
_cell_length_b 9.885024
_cell_length_c 9.390572
_cell_angle_alpha 90.000000
_cell_angle_beta 80.666774
_cell_angle_gamma 90.000000
_cell_volume 716.475092
_symmetry_space_group_name_H-M "P 21/C"
_symmetry_group_IT_number 14
_symmetry_cell_setting 'monoclinic'
loop_
_space_group_symop_operation_xyz
x,y,z
-x,1/2+y,1/2-z
-x,-y,-z
x,1/2-y,1/2+z
loop_
_atom_site_type_symbol
_atom_site_label
_atom_site_fract_x
_atom_site_fract_y
_atom_site_fract_z
Si Si1 0.407180 0.789841 0.804246
Si Si2 0.995420 0.028570 0.761747
Si Si3 0.733167 0.519570 0.521867
Si Si4 0.764139 0.390786 0.956354
Si Si5 0.269682 0.187823 0.589346
O O1 0.352548 0.824927 0.652512
O O2 0.582667 0.708992 0.811657
O O3 0.260555 0.701516 0.904575
O O4 0.421098 0.929254 0.894248
O O5 0.083051 0.163644 0.687285
O O6 0.043285 0.918351 0.633118
O O7 0.124319 0.991011 0.874000
O O8 0.810410 0.032054 0.860182
O O9 0.725272 0.679664 0.505176
O O10 0.698946 0.544056 0.990894
#
# Coordination Sequence:
#
# PCOD9244207 Si02
#       5
#     4   4   4   4   4
#     4  11  22  40  65  95 130 165 212 261 323 370
#     4   8  21  39  60  87 127 162 209 258 308 371
#     4  10  20  40  63  86 129 169 205 258 324 369
#     4   9  23  40  62  94 130 166 209 263 308 385
#     4  10  22  38  62  93 124 164 210 263 307 381
#
# _framework density 27.914439000000002
#
# number of rings (size 3 to 8) (size 9 to 14) (size 15 to 20)
#    1.200    1.200    0.000    1.200    5.600    1.600 
#    3.600    0.000    0.000    6.000    0.000    0.000 
#    0.000    0.000    0.000    0.000    0.000    0.000 
#
# Total GULP energy -111942.315329 kJ/mol
# GULP energy per Si atom -5597.115766 kJ/mol
# Density = 2.785090 g / cm^3
# Si number density = 27.914439 Si / 1000 Ang^3
#
#
#
# Elastic Constant Matrix: (Units=GPa)
#
#
# Indices 1 2 3 4 5 6 
#
# 1 98.7587 32.2999 40.5228 0.0000 -5.6585 0.0000
# 2 32.2999 187.7002 56.0772 0.0000 0.6451 0.0000
# 3 40.5228 56.0772 139.7990 0.0000 0.4868 0.0000
# 4 0.0000 0.0000 0.0000 42.7383 0.0000 -5.1732
# 5 -5.6585 0.6451 0.4868 0.0000 40.5340 0.0000
# 6 0.0000 0.0000 0.0000 -5.1732 0.0000 29.9711
#
#
#
# Elastic Compliance Matrix: (Units=1/GPa)
#
#
# Indices 1 2 3 4 5 6 
#
# 1 0.011819 -0.001152 -0.002969 0.000000 0.001704 0.000000
# 2 -0.001152 0.006166 -0.002138 0.000000 -0.000233 0.000000
# 3 -0.002969 -0.002138 0.008873 0.000000 -0.000487 0.000000
# 4 0.000000 0.000000 0.000000 0.023898 0.000000 0.004125
# 5 0.001704 -0.000233 -0.000487 0.000000 0.024918 0.000000
# 6 0.000000 0.000000 0.000000 0.004125 0.000000 0.034078
#
#
# Mechanical properties :
#
#
# Convention : Reuss Voigt Hill
#
# Bulk Modulus (GPa) = 69.74926 76.00639 72.87783
# Shear Modulus (GPa) = 39.35452 42.47255 40.91353
#
# Velocity S-wave (km/s) = 3.75884 3.90491 3.83257
# Velocity P-wave (km/s) = 6.62416 6.90062 6.76380
#
# Compressibility (1/GPa) = 0.01433707
#
# Stress axis : x y z
#
# Youngs Moduli (GPa) = 84.61186 162.18986 112.69764
#
# Poissons Ratio (x) = 0.18692 0.33465
# Poissons Ratio (y) = 0.09751 0.24098
# Poissons Ratio (z) = 0.25125 0.34681
#
# Static dielectric constant tensor:
#      x y z
#    x 2.249510 0.000000 -0.022510 
#    y 0.000000 2.154750 0.000000 
#    z -0.022510 0.000000 2.156280 
# 
# From -- ./inp_files/22995.got.cif
#   From: 2010.05.17/outbox.cif.g08.bks.cpg/sg14_12_cif.got.tgz:22995.got - 2010.06.03 17:49:19.
