data_PCOD9244204
_publ_section_title
;
Structure prediction by ZEFSAII (Michael W. Deem and Ramdas Pophale) SiO2 
 PCOD9244204
Probable space group: P 21/C
;
_chemical_formula_sum "Si O2"
_cell_formula_units_Z 30
_cell_length_a 5.104128
_cell_length_b 16.229892
_cell_length_c 14.842760
_cell_angle_alpha 90.000000
_cell_angle_beta 113.283961
_cell_angle_gamma 90.000000
_cell_volume 1129.426561
_symmetry_space_group_name_H-M "P 21/C"
_symmetry_group_IT_number 14
_symmetry_cell_setting 'monoclinic'
loop_
_space_group_symop_operation_xyz
x,y,z
-x,1/2+y,1/2-z
-x,-y,-z
x,1/2-y,1/2+z
loop_
_atom_site_type_symbol
_atom_site_label
_atom_site_fract_x
_atom_site_fract_y
_atom_site_fract_z
Si Si1 0.638468 0.225599 0.121102
Si Si2 0.102436 0.923517 0.903676
Si Si3 0.446399 0.602574 0.953780
Si Si4 0.780324 0.788186 0.207881
Si Si5 0.084195 0.409475 0.423407
Si Si6 0.000000 0.500000 0.000000
Si Si7 0.572312 0.628149 0.235237
Si Si8 0.482178 0.945948 0.256923
O O1 0.496243 0.301742 0.054370
O O2 0.494463 0.182357 0.186160
O O3 0.679823 0.150731 0.058870
O O4 0.939279 0.258879 0.200524
O O5 0.893089 0.906316 0.791519
O O6 0.253507 0.010720 0.910605
O O7 0.923987 0.913663 0.971122
O O8 0.189252 0.580489 0.986386
O O9 0.367453 0.571576 0.841659
O O10 0.748964 0.558208 0.011687
O O11 0.587330 0.705313 0.168605
O O12 0.667198 0.866632 0.251524
O O13 0.860629 0.827394 0.123119
O O14 0.770324 0.440499 0.348846
O O15 0.397620 0.540568 0.212839
#
# Coordination Sequence:
#
# PCOD9244204 Si02
#       8
#     4   4   4   4   4   2   4   4
#     4  11  21  40  68  90 127 181 225 281 342 420
#     4   9  22  38  62  96 135 166 224 279 357 411
#     4  11  22  45  71  92 137 182 232 280 348 407
#     4  11  20  38  63  95 128 173 230 278 342 415
#     4  10  20  40  62  98 131 173 217 287 347 425
#     4  10  26  44  64  98 122 178 238 276 334 412
#     4  10  22  39  62 100 124 176 227 274 347 418
#     4  11  22  39  70  93 135 176 222 285 347 412
#
# _framework density 26.562149999999999
#
# number of rings (size 3 to 8) (size 9 to 14) (size 15 to 20)
#    0.000    1.600    2.667    1.600    1.867    1.067 
#    2.400    8.000    0.000    0.000    0.000    0.000 
#    0.000    0.000    0.000    0.000    0.000    0.000 
#
# Total GULP energy -167014.597011 kJ/mol
# GULP energy per Si atom -5567.153234 kJ/mol
# Density = 2.650169 g / cm^3
# Si number density = 26.562150 Si / 1000 Ang^3
#
#
#
# Elastic Constant Matrix: (Units=GPa)
#
#
# Indices 1 2 3 4 5 6 
#
# 1 98.7464 20.6516 14.0977 0.0000 -13.3555 0.0000
# 2 20.6516 210.0943 11.8115 0.0000 -19.1563 0.0000
# 3 14.0977 11.8115 65.5856 0.0000 -6.9811 0.0000
# 4 0.0000 0.0000 0.0000 35.6282 0.0000 -5.6914
# 5 -13.3555 -19.1563 -6.9811 0.0000 34.4915 0.0000
# 6 0.0000 0.0000 0.0000 -5.6914 0.0000 48.2474
#
#
#
# Elastic Compliance Matrix: (Units=1/GPa)
#
#
# Indices 1 2 3 4 5 6 
#
# 1 0.011007 -0.000656 -0.001873 0.000000 0.003519 0.000000
# 2 -0.000656 0.005078 -0.000511 0.000000 0.002463 0.000000
# 3 -0.001873 -0.000511 0.015979 0.000000 0.002225 0.000000
# 4 0.000000 0.000000 0.000000 0.028607 0.000000 0.003375
# 5 0.003519 0.002463 0.002225 0.000000 0.032173 0.000000
# 6 0.000000 0.000000 0.000000 0.003375 0.000000 0.021125
#
#
# Mechanical properties :
#
#
# Convention : Reuss Voigt Hill
#
# Bulk Modulus (GPa) = 38.48719 51.94979 45.21849
# Shear Modulus (GPa) = 38.84694 45.53113 42.18903
#
# Velocity S-wave (km/s) = 3.82840 4.14470 3.98969
# Velocity P-wave (km/s) = 5.83637 6.51959 6.18742
#
# Compressibility (1/GPa) = 0.02598267
#
# Stress axis : x y z
#
# Youngs Moduli (GPa) = 90.84727 196.94665 62.58280
#
# Poissons Ratio (x) = 0.12917 0.11724
# Poissons Ratio (y) = 0.05958 0.03200
# Poissons Ratio (z) = 0.17019 0.10070
#
# Static dielectric constant tensor:
#      x y z
#    x 2.161740 0.000000 0.053530 
#    y 0.000000 2.236960 0.000000 
#    z 0.053530 0.000000 2.142340 
# 
# From -- ./inp_files/53352.got.cif
#   From: 2010.05.17/outbox.cif.g08.bks.cpg/sg14_27_cif.got.tgz:53352.got - 2010.06.03 17:49:19.
