data_PCOD9244573
_publ_section_title
;
Structure prediction by ZEFSAII (Michael W. Deem and Ramdas Pophale) SiO2 
 PCOD9244573
Probable space group: P 21/C
;
_chemical_formula_sum "Si O2"
_cell_formula_units_Z 28
_cell_length_a 11.167757
_cell_length_b 9.544965
_cell_length_c 15.416089
_cell_angle_alpha 90.000000
_cell_angle_beta 121.454723
_cell_angle_gamma 90.000000
_cell_volume 1401.814069
_symmetry_space_group_name_H-M "P 21/C"
_symmetry_group_IT_number 14
_symmetry_cell_setting 'monoclinic'
loop_
_space_group_symop_operation_xyz
x,y,z
-x,1/2+y,1/2-z
-x,-y,-z
x,1/2-y,1/2+z
loop_
_atom_site_type_symbol
_atom_site_label
_atom_site_fract_x
_atom_site_fract_y
_atom_site_fract_z
Si Si1 0.977605 0.267146 0.751905
Si Si2 0.725657 0.935750 0.921427
Si Si3 0.392633 0.559461 0.282655
Si Si4 0.178126 0.036988 0.846628
Si Si5 0.208858 0.383382 0.090666
Si Si6 0.091616 0.888525 0.441622
Si Si7 0.196884 0.707672 0.644614
O O1 0.950867 0.430713 0.723943
O O2 0.892134 0.187756 0.643319
O O3 0.915355 0.229316 0.821942
O O4 0.129998 0.195443 0.807012
O O5 0.557248 0.941697 0.858996
O O6 0.774042 0.779996 0.916323
O O7 0.779773 0.048113 0.872324
O O8 0.783852 0.972977 0.038374
O O9 0.306575 0.513920 0.335750
O O10 0.341107 0.452595 0.188322
O O11 0.335023 0.711064 0.230572
O O12 0.073193 0.412755 0.100338
O O13 0.172899 0.466441 0.988539
O O14 0.145329 0.787846 0.539000
#
# Coordination Sequence:
#
# PCOD9244573 Si02
#       7
#     4   4   4   4   4   4   4
#     4  11  23  39  63  93 124 149 199 262 312 354
#     4  12  23  39  62  91 122 160 214 244 288 373
#     4  10  22  43  60  83 126 171 199 240 307 366
#     4  11  24  39  63  90 121 162 200 256 308 361
#     4  10  22  37  65  88 117 165 200 247 309 367
#     4  10  20  42  61  88 127 155 197 255 321 358
#     4  10  23  39  63  93 122 157 202 260 307 349
#
# _framework density 19.974115999999999
#
# number of rings (size 3 to 8) (size 9 to 14) (size 15 to 20)
#    0.000    1.429    2.857    2.143    6.000    1.143 
#    0.000    0.000    0.000    3.429    0.000    0.000 
#    0.000    0.000    0.000    0.000    0.000    0.000 
#
# Total GULP energy -156508.192447 kJ/mol
# GULP energy per Si atom -5589.578302 kJ/mol
# Density = 1.992865 g / cm^3
# Si number density = 19.974116 Si / 1000 Ang^3
#
#
#
# Elastic Constant Matrix: (Units=GPa)
#
#
# Indices 1 2 3 4 5 6 
#
# 1 33.4511 26.1870 24.9756 0.0000 7.7438 0.0000
# 2 26.1870 128.9077 32.2224 0.0000 -1.8112 0.0000
# 3 24.9756 32.2224 88.6774 0.0000 -6.8723 0.0000
# 4 0.0000 0.0000 0.0000 26.5366 0.0000 -5.4333
# 5 7.7438 -1.8112 -6.8723 0.0000 31.7384 0.0000
# 6 0.0000 0.0000 0.0000 -5.4333 0.0000 21.0622
#
#
#
# Elastic Compliance Matrix: (Units=1/GPa)
#
#
# Indices 1 2 3 4 5 6 
#
# 1 0.047670 -0.006874 -0.012062 0.000000 -0.014635 0.000000
# 2 -0.006874 0.009525 -0.001376 0.000000 0.001923 0.000000
# 3 -0.012062 -0.001376 0.015659 0.000000 0.006255 0.000000
# 4 0.000000 0.000000 0.000000 0.039785 0.000000 0.010263
# 5 -0.014635 0.001923 0.006255 0.000000 0.036543 0.000000
# 6 0.000000 0.000000 0.000000 0.010263 0.000000 0.050126
#
#
# Mechanical properties :
#
#
# Convention : Reuss Voigt Hill
#
# Bulk Modulus (GPa) = 31.02835 46.42291 38.72563
# Shear Modulus (GPa) = 19.94612 27.04418 23.49515
#
# Velocity S-wave (km/s) = 3.16349 3.68361 3.43341
# Velocity P-wave (km/s) = 5.37695 6.43304 5.92856
#
# Compressibility (1/GPa) = 0.03222859
#
# Stress axis : x y z
#
# Youngs Moduli (GPa) = 20.97757 104.98753 63.86184
#
# Poissons Ratio (x) = 0.72173 0.77032
# Poissons Ratio (y) = 0.14421 0.08787
# Poissons Ratio (z) = 0.25304 0.14445
#
# Static dielectric constant tensor:
#      x y z
#    x 1.679210 0.000000 -0.002170 
#    y 0.000000 1.729320 0.000000 
#    z -0.002170 0.000000 1.725230 
# 
# From -- ./inp_files/43301.got.cif
#   From: 2010.05.17/outbox.cif.g08.bks.cpg/sg14_22_cif.got.tgz:43301.got - 2010.06.03 17:49:19.
