data_PCOD9244308
_publ_section_title
;
Structure prediction by ZEFSAII (Michael W. Deem and Ramdas Pophale) SiO2 
 PCOD9244308
Probable space group: P 21/C
;
_chemical_formula_sum "Si O2"
_cell_formula_units_Z 30
_cell_length_a 21.984470
_cell_length_b 10.635191
_cell_length_c 17.412326
_cell_angle_alpha 90.000000
_cell_angle_beta 161.863733
_cell_angle_gamma 90.000000
_cell_volume 1267.262383
_symmetry_space_group_name_H-M "P 21/C"
_symmetry_group_IT_number 14
_symmetry_cell_setting 'monoclinic'
loop_
_space_group_symop_operation_xyz
x,y,z
-x,1/2+y,1/2-z
-x,-y,-z
x,1/2-y,1/2+z
loop_
_atom_site_type_symbol
_atom_site_label
_atom_site_fract_x
_atom_site_fract_y
_atom_site_fract_z
Si Si1 0.615144 0.094543 0.740057
Si Si2 0.731664 0.856458 0.794570
Si Si3 0.328187 0.190626 0.500706
Si Si4 0.906414 0.309976 0.477479
Si Si5 0.000000 0.000000 0.000000
Si Si6 0.319916 0.033605 0.919955
Si Si7 0.281894 0.118363 0.616328
Si Si8 0.935741 0.486737 0.029872
O O1 0.442030 0.146587 0.476834
O O2 0.520949 0.115493 0.709608
O O3 0.662401 0.953218 0.776503
O O4 0.807896 0.165369 0.941011
O O5 0.923748 0.909674 0.983407
O O6 0.748267 0.725768 0.857346
O O7 0.358064 0.330800 0.504428
O O8 0.271361 0.181628 0.520773
O O9 0.125757 0.129202 0.222327
O O10 0.926379 0.161702 0.496810
O O11 0.812884 0.395315 0.299609
O O12 0.153861 0.969774 0.773260
O O13 0.212500 0.047806 0.709145
O O14 0.510580 0.952144 0.134318
O O15 0.127081 0.013610 0.458718
#
# Coordination Sequence:
#
# PCOD9244308 Si02
#       8
#     4   4   4   4   2   4   4   4
#     4  10  20  40  66  90 126 166 215 267 322 379
#     4  10  22  39  64 101 121 164 225 264 321 394
#     4  11  24  41  63  93 139 171 211 269 332 392
#     4  10  21  41  67  97 127 170 215 277 326 393
#     4  10  20  40  70  92 130 160 214 290 324 376
#     4  10  23  43  68  95 128 171 223 272 325 392
#     4  12  25  41  64  97 132 174 212 270 328 403
#     4  10  22  42  70  96 125 171 227 271 326 389
#
# _framework density 23.673075999999998
#
# number of rings (size 3 to 8) (size 9 to 14) (size 15 to 20)
#    0.000    1.600    1.333    2.800    5.600    1.067 
#    7.200    0.000    0.000    0.000    0.000    0.000 
#    0.000    0.000    0.000    0.000    0.000    0.000 
#
# Total GULP energy -167084.604601 kJ/mol
# GULP energy per Si atom -5569.486820 kJ/mol
# Density = 2.361920 g / cm^3
# Si number density = 23.673076 Si / 1000 Ang^3
#
#
#
# Elastic Constant Matrix: (Units=GPa)
#
#
# Indices 1 2 3 4 5 6 
#
# 1 127.2997 69.9635 37.8091 0.0000 43.2946 0.0000
# 2 69.9635 105.9487 16.1581 0.0000 11.3233 0.0000
# 3 37.8091 16.1581 51.0201 0.0000 27.0026 0.0000
# 4 0.0000 0.0000 0.0000 18.5340 0.0000 21.5443
# 5 43.2946 11.3233 27.0026 0.0000 38.7742 0.0000
# 6 0.0000 0.0000 0.0000 21.5443 0.0000 31.6582
#
#
#
# Elastic Compliance Matrix: (Units=1/GPa)
#
#
# Indices 1 2 3 4 5 6 
#
# 1 0.021434 -0.011803 -0.002065 0.000000 -0.019048 0.000000
# 2 -0.011803 0.016448 -0.001418 0.000000 0.009363 0.000000
# 3 -0.002065 -0.001418 0.031896 0.000000 -0.019493 0.000000
# 4 0.000000 0.000000 0.000000 0.258237 0.000000 -0.175738
# 5 -0.019048 0.009363 -0.019493 0.000000 0.057900 0.000000
# 6 0.000000 0.000000 0.000000 -0.175738 0.000000 0.151182
#
#
# Mechanical properties :
#
#
# Convention : Reuss Voigt Hill
#
# Bulk Modulus (GPa) = 25.50556 59.12558 42.31557
# Shear Modulus (GPa) = 8.60974 28.48244 18.54609
#
# Velocity S-wave (km/s) = 1.90914 3.47242 2.80201
# Velocity P-wave (km/s) = 3.95692 6.41148 5.32749
#
# Compressibility (1/GPa) = 0.03920714
#
# Stress axis : x y z
#
# Youngs Moduli (GPa) = 46.65481 60.79605 31.35190
#
# Poissons Ratio (x) = 0.71760 0.06473
# Poissons Ratio (y) = 0.55068 0.04445
# Poissons Ratio (z) = 0.09632 0.08619
#
# Static dielectric constant tensor:
#      x y z
#    x 1.288990 0.000000 0.594190 
#    y 0.000000 0.357390 0.000000 
#    z 0.594190 0.000000 1.398600 
# 
# From -- ./inp_files/61332.got.cif
#   From: 2010.05.17/outbox.cif.g08.bks.cpg/sg14_31_cif.got.tgz:61332.got - 2010.06.03 17:49:19.
