data_PCOD9244329
_publ_section_title
;
Structure prediction by ZEFSAII (Michael W. Deem and Ramdas Pophale) SiO2 
 PCOD9244329
Probable space group: P 21/C
;
_chemical_formula_sum "Si O2"
_cell_formula_units_Z 22
_cell_length_a 7.256993
_cell_length_b 17.893977
_cell_length_c 8.758562
_cell_angle_alpha 90.000000
_cell_angle_beta 127.420556
_cell_angle_gamma 90.000000
_cell_volume 903.284264
_symmetry_space_group_name_H-M "P 21/C"
_symmetry_group_IT_number 14
_symmetry_cell_setting 'monoclinic'
loop_
_space_group_symop_operation_xyz
x,y,z
-x,1/2+y,1/2-z
-x,-y,-z
x,1/2-y,1/2+z
loop_
_atom_site_type_symbol
_atom_site_label
_atom_site_fract_x
_atom_site_fract_y
_atom_site_fract_z
Si Si1 0.355869 0.994654 0.650198
Si Si2 0.620612 0.113368 0.632051
Si Si3 0.000000 0.000000 0.000000
Si Si4 0.047265 0.913877 0.707376
Si Si5 0.788421 0.784238 0.682096
Si Si6 0.870726 0.848267 0.049327
O O1 0.358192 0.935370 0.511806
O O2 0.286417 0.946280 0.761588
O O3 0.579888 0.048683 0.740562
O O4 0.148201 0.053603 0.507463
O O5 0.421485 0.172204 0.503104
O O6 0.851700 0.154834 0.793763
O O7 0.982709 0.948441 0.837697
O O8 0.157723 0.063970 0.983016
O O9 0.012351 0.825384 0.716551
O O10 0.773779 0.696610 0.644062
O O11 0.787974 0.803736 0.859417
#
# Coordination Sequence:
#
# PCOD9244329 Si02
#       6
#     4   4   2   4   4   4
#     4   9  18  35  68  95 127 179 222 269 338 413
#     4  10  21  41  67  97 138 176 227 282 341 409
#     4  10  20  40  66  96 132 176 226 286 330 402
#     4   9  18  37  64  95 130 174 218 271 342 401
#     4  10  25  41  64  95 133 180 224 280 358 399
#     4  11  24  43  67  96 137 179 226 291 340 411
#
# _framework density 24.355568999999999
#
# number of rings (size 3 to 8) (size 9 to 14) (size 15 to 20)
#    0.000    2.182    1.818    0.000    5.091    2.909 
#    0.000    3.636    0.000    0.000    0.000    0.000 
#    0.000    0.000    0.000    0.000    0.000    0.000 
#
# Total GULP energy -122478.826262 kJ/mol
# GULP energy per Si atom -5567.219376 kJ/mol
# Density = 2.430013 g / cm^3
# Si number density = 24.355569 Si / 1000 Ang^3
#
#
#
# Elastic Constant Matrix: (Units=GPa)
#
#
# Indices 1 2 3 4 5 6 
#
# 1 39.9725 3.2315 -7.7594 0.0000 1.1846 0.0000
# 2 3.2315 103.4587 16.7443 0.0000 6.5884 0.0000
# 3 -7.7594 16.7443 59.8770 0.0000 8.4004 0.0000
# 4 0.0000 0.0000 0.0000 13.9878 0.0000 -17.2341
# 5 1.1846 6.5884 8.4004 0.0000 19.7861 0.0000
# 6 0.0000 0.0000 0.0000 -17.2341 0.0000 32.2449
#
#
#
# Elastic Compliance Matrix: (Units=1/GPa)
#
#
# Indices 1 2 3 4 5 6 
#
# 1 0.026011 -0.001299 0.004138 0.000000 -0.002882 0.000000
# 2 -0.001299 0.010289 -0.002739 0.000000 -0.002185 0.000000
# 3 0.004138 -0.002739 0.019044 0.000000 -0.007421 0.000000
# 4 0.000000 0.000000 0.000000 0.209353 0.000000 0.111894
# 5 -0.002882 -0.002185 -0.007421 0.000000 0.054591 0.000000
# 6 0.000000 0.000000 0.000000 0.111894 0.000000 0.090817
#
#
# Mechanical properties :
#
#
# Convention : Reuss Voigt Hill
#
# Bulk Modulus (GPa) = 18.00338 25.30455 21.65397
# Shear Modulus (GPa) = 11.67081 25.94321 18.80701
#
# Velocity S-wave (km/s) = 2.19140 3.26726 2.78184
# Velocity P-wave (km/s) = 3.71631 4.96442 4.38500
#
# Compressibility (1/GPa) = 0.05554512
#
# Stress axis : x y z
#
# Youngs Moduli (GPa) = 38.44540 97.19400 52.50931
#
# Poissons Ratio (x) = 0.12622 -0.21729
# Poissons Ratio (y) = 0.04993 0.14382
# Poissons Ratio (z) = -0.15909 0.26620
#
# Static dielectric constant tensor:
#      x y z
#    x 0.642470 0.000000 -0.773890 
#    y 0.000000 1.680300 0.000000 
#    z -0.773890 0.000000 1.458370 
# 
# From -- ./inp_files/9337.got.cif
#   From: 2010.05.17/outbox.cif.g08.bks.cpg/sg14_5_cif.got.tgz:9337.got - 2010.06.03 17:49:19.
