data_PCOD9244769
_publ_section_title
;
Structure prediction by ZEFSAII (Michael W. Deem and Ramdas Pophale) SiO2 
 PCOD9244769
Probable space group: P 21/C
;
_chemical_formula_sum "Si O2"
_cell_formula_units_Z 18
_cell_length_a 14.133599
_cell_length_b 7.467003
_cell_length_c 19.222576
_cell_angle_alpha 90.000000
_cell_angle_beta 161.151730
_cell_angle_gamma 90.000000
_cell_volume 655.387328
_symmetry_space_group_name_H-M "P 21/C"
_symmetry_group_IT_number 14
_symmetry_cell_setting 'monoclinic'
loop_
_space_group_symop_operation_xyz
x,y,z
-x,1/2+y,1/2-z
-x,-y,-z
x,1/2-y,1/2+z
loop_
_atom_site_type_symbol
_atom_site_label
_atom_site_fract_x
_atom_site_fract_y
_atom_site_fract_z
Si Si1 0.737598 0.860556 0.269865
Si Si2 0.839989 0.642939 0.993069
Si Si3 0.500000 0.000000 0.000000
Si Si4 0.680982 0.655340 0.040678
Si Si5 0.060526 0.480187 0.646127
O O1 0.699526 0.918481 0.321936
O O2 0.969842 0.701237 0.420393
O O3 0.852471 0.027303 0.299074
O O4 0.463942 0.822926 0.031294
O O5 0.732928 0.617727 0.995690
O O6 0.843620 0.856240 0.984662
O O7 0.656890 0.860139 0.048642
O O8 0.368292 0.564144 0.837505
O O9 0.915606 0.572886 0.257206
#
# Coordination Sequence:
#
# PCOD9244769 Si02
#       5
#     4   4   2   4   4
#     4  10  23  42  65  93 133 165 214 274 319 388
#     4  11  23  42  65  97 128 170 220 269 323 387
#     4  10  20  44  64  90 132 174 208 274 324 392
#     4  10  23  39  67  94 128 175 215 264 337 382
#     4  10  22  42  60  94 132 164 217 270 316 397
#
# _framework density 27.464676000000001
#
# number of rings (size 3 to 8) (size 9 to 14) (size 15 to 20)
#    0.000    1.778    2.222    0.667    6.222    1.778 
#    8.000    0.000    0.000    0.000    0.000    0.000 
#    0.000    0.000    0.000    0.000    0.000    0.000 
#
# Total GULP energy -100303.292604 kJ/mol
# GULP energy per Si atom -5572.405145 kJ/mol
# Density = 2.740216 g / cm^3
# Si number density = 27.464676 Si / 1000 Ang^3
#
#
#
# Elastic Constant Matrix: (Units=GPa)
#
#
# Indices 1 2 3 4 5 6 
#
# 1 311.8027 48.7692 56.7965 0.0000 -46.0779 0.0000
# 2 48.7692 144.1804 14.9315 0.0000 1.1873 0.0000
# 3 56.7965 14.9315 51.2794 0.0000 -28.3054 0.0000
# 4 0.0000 0.0000 0.0000 21.7292 0.0000 -2.8768
# 5 -46.0779 1.1873 -28.3054 0.0000 41.5867 0.0000
# 6 0.0000 0.0000 0.0000 -2.8768 0.0000 37.8564
#
#
#
# Elastic Compliance Matrix: (Units=1/GPa)
#
#
# Indices 1 2 3 4 5 6 
#
# 1 0.004344 -0.001197 -0.002863 0.000000 0.002899 0.000000
# 2 -0.001197 0.007661 -0.002816 0.000000 -0.003461 0.000000
# 3 -0.002863 -0.002816 0.034895 0.000000 0.020659 0.000000
# 4 0.000000 0.000000 0.000000 0.046489 0.000000 0.003533
# 5 0.002899 -0.003461 0.020659 0.000000 0.041418 0.000000
# 6 0.000000 0.000000 0.000000 0.003533 0.000000 0.026684
#
#
# Mechanical properties :
#
#
# Convention : Reuss Voigt Hill
#
# Bulk Modulus (GPa) = 30.16621 83.13964 56.65292
# Shear Modulus (GPa) = 26.83954 46.01881 36.42917
#
# Velocity S-wave (km/s) = 3.12947 4.09781 3.64593
# Velocity P-wave (km/s) = 4.90567 7.26130 6.19646
#
# Compressibility (1/GPa) = 0.03314968
#
# Stress axis : x y z
#
# Youngs Moduli (GPa) = 230.18851 130.53690 28.65700
#
# Poissons Ratio (x) = 0.15623 0.08205
# Poissons Ratio (y) = 0.27550 0.08068
# Poissons Ratio (z) = 0.65903 0.36753
#
# Static dielectric constant tensor:
#      x y z
#    x 2.101900 0.000000 -0.029920 
#    y 0.000000 2.283160 0.000000 
#    z -0.029920 0.000000 2.628290 
# 
# From -- ./inp_files/27900.got.cif
#   From: 2010.05.17/outbox.cif.g08.bks.cpg/sg14_14_cif.got.tgz:27900.got - 2010.06.03 17:49:19.
