data_PCOD9244029
_publ_section_title
;
Structure prediction by ZEFSAII (Michael W. Deem and Ramdas Pophale) SiO2 
 PCOD9244029
Probable space group: P 21/C
;
_chemical_formula_sum "Si O2"
_cell_formula_units_Z 24
_cell_length_a 9.084694
_cell_length_b 15.388085
_cell_length_c 9.089248
_cell_angle_alpha 90.000000
_cell_angle_beta 87.316587
_cell_angle_gamma 90.000000
_cell_volume 1269.247613
_symmetry_space_group_name_H-M "P 21/C"
_symmetry_group_IT_number 14
_symmetry_cell_setting 'monoclinic'
loop_
_space_group_symop_operation_xyz
x,y,z
-x,1/2+y,1/2-z
-x,-y,-z
x,1/2-y,1/2+z
loop_
_atom_site_type_symbol
_atom_site_label
_atom_site_fract_x
_atom_site_fract_y
_atom_site_fract_z
Si Si1 0.342513 0.996851 0.085633
Si Si2 0.299924 0.344523 0.166800
Si Si3 0.914364 0.417357 0.571312
Si Si4 0.194710 0.175939 0.004256
Si Si5 0.407236 0.930864 0.407773
Si Si6 0.138049 0.974285 0.595766
O O1 0.361653 0.970605 0.253331
O O2 0.267083 0.091808 0.080131
O O3 0.242995 0.927640 0.999981
O O4 0.500000 0.000000 0.000000
O O5 0.240259 0.265373 0.075014
O O6 0.256949 0.327916 0.337028
O O7 0.474736 0.355675 0.131497
O O8 0.220558 0.435088 0.129161
O O9 0.904225 0.430588 0.747040
O O10 0.000000 0.500000 0.500000
O O11 0.018398 0.337495 0.522671
O O12 0.256825 0.915070 0.503829
O O13 0.500000 0.000000 0.500000
O O14 0.000000 0.000000 0.500000
#
# Coordination Sequence:
#
# PCOD9244029 Si02
#       6
#     4   4   4   4   4   4
#     4  11  19  40  68  89 121 169 211 261 306 386
#     4  11  24  42  60  95 127 166 210 265 322 383
#     4  10  20  39  64  92 119 170 215 251 314 388
#     4  11  24  40  65  90 129 163 215 262 332 378
#     4  10  22  38  63  95 124 162 219 257 312 382
#     4  11  21  39  68  94 125 162 216 267 310 380
#
# _framework density 18.908839
#
# number of rings (size 3 to 8) (size 9 to 14) (size 15 to 20)
#    0.000    1.333    5.000    3.000    7.000    0.000 
#    0.000    1.667    0.000    0.000    0.000    0.000 
#    0.000    0.000    0.000    0.000    0.000    0.000 
#
# Total GULP energy -133927.977457 kJ/mol
# GULP energy per Si atom -5580.332394 kJ/mol
# Density = 1.886580 g / cm^3
# Si number density = 18.908839 Si / 1000 Ang^3
#
#
#
# Elastic Constant Matrix: (Units=GPa)
#
#
# Indices 1 2 3 4 5 6 
#
# 1 137.9448 21.7380 65.2185 0.0000 -17.7177 0.0000
# 2 21.7380 60.5775 24.0709 0.0000 -8.4040 0.0000
# 3 65.2185 24.0709 163.3214 0.0000 -13.4724 0.0000
# 4 0.0000 0.0000 0.0000 19.0329 0.0000 18.2955
# 5 -17.7177 -8.4040 -13.4724 0.0000 38.8218 0.0000
# 6 0.0000 0.0000 0.0000 18.2955 0.0000 24.8883
#
#
#
# Elastic Compliance Matrix: (Units=1/GPa)
#
#
# Indices 1 2 3 4 5 6 
#
# 1 0.009428 -0.001690 -0.003285 0.000000 0.002797 0.000000
# 2 -0.001690 0.018180 -0.001795 0.000000 0.002541 0.000000
# 3 -0.003285 -0.001795 0.007766 0.000000 0.000807 0.000000
# 4 0.000000 0.000000 0.000000 0.179091 0.000000 -0.131651
# 5 0.002797 0.002541 0.000807 0.000000 0.027865 0.000000
# 6 0.000000 0.000000 0.000000 -0.131651 0.000000 0.136957
#
#
# Mechanical properties :
#
#
# Convention : Reuss Voigt Hill
#
# Bulk Modulus (GPa) = 45.80009 64.87762 55.33885
# Shear Modulus (GPa) = 12.49673 33.26969 22.88321
#
# Velocity S-wave (km/s) = 2.57357 4.19916 3.48255
# Velocity P-wave (km/s) = 5.75371 7.60893 6.74541
#
# Compressibility (1/GPa) = 0.02183402
#
# Stress axis : x y z
#
# Youngs Moduli (GPa) = 106.06775 55.00553 128.76901
#
# Poissons Ratio (x) = 0.09295 0.42301
# Poissons Ratio (y) = 0.17923 0.23114
# Poissons Ratio (z) = 0.34844 0.09874
#
# Static dielectric constant tensor:
#      x y z
#    x 1.722990 0.000000 0.012070 
#    y 0.000000 1.631630 0.000000 
#    z 0.012070 0.000000 1.679710 
# 
# From -- ./inp_files/8528.got.cif
#   From: 2010.05.17/outbox.cif.g08.bks.cpg/sg14_5_cif.got.tgz:8528.got - 2010.06.03 17:49:19.
