data_PCOD9244033
_publ_section_title
;
Structure prediction by ZEFSAII (Michael W. Deem and Ramdas Pophale) SiO2 
 PCOD9244033
Probable space group: P 21/C
;
_chemical_formula_sum "Si O2"
_cell_formula_units_Z 32
_cell_length_a 13.623207
_cell_length_b 15.450456
_cell_length_c 20.943802
_cell_angle_alpha 90.000000
_cell_angle_beta 19.862899
_cell_angle_gamma 90.000000
_cell_volume 1497.828157
_symmetry_space_group_name_H-M "P 21/C"
_symmetry_group_IT_number 14
_symmetry_cell_setting 'monoclinic'
loop_
_space_group_symop_operation_xyz
x,y,z
-x,1/2+y,1/2-z
-x,-y,-z
x,1/2-y,1/2+z
loop_
_atom_site_type_symbol
_atom_site_label
_atom_site_fract_x
_atom_site_fract_y
_atom_site_fract_z
Si Si1 0.286762 0.159695 0.336759
Si Si2 0.089834 0.928984 0.207311
Si Si3 0.803341 0.049861 0.171175
Si Si4 0.197876 0.475919 0.999776
Si Si5 0.247683 0.929073 0.650748
Si Si6 0.230435 0.312911 0.202296
Si Si7 0.163317 0.712469 0.435175
Si Si8 0.711404 0.618834 0.305890
O O1 0.255721 0.073774 0.398437
O O2 0.526737 0.223137 0.220598
O O3 0.399701 0.138760 0.197683
O O4 0.983072 0.205413 0.508135
O O5 0.944896 0.908572 0.363676
O O6 0.953669 0.865049 0.237750
O O7 0.428392 0.921852 0.008875
O O8 0.993239 0.026872 0.246614
O O9 0.497883 0.001225 0.350493
O O10 0.874817 0.067456 0.201556
O O11 0.775870 0.143620 0.156699
O O12 0.000000 0.000000 0.000000
O O13 0.983052 0.556476 0.128514
O O14 0.435309 0.846579 0.510864
O O15 0.500000 0.000000 0.500000
O O16 0.216337 0.209185 0.204185
O O17 0.068024 0.324585 0.370537
#
# Coordination Sequence:
#
# PCOD9244033 Si02
#       8
#     4   4   4   4   4   4   4   4
#     4  10  23  44  64  94 138 171 227 281 337 408
#     4  11  22  43  62  96 135 168 222 278 335 408
#     4  11  22  37  66  97 130 172 224 270 335 404
#     4  11  24  42  64  96 138 171 218 282 339 409
#     4  10  20  39  64  92 129 170 220 278 325 395
#     4  10  21  41  66  94 129 175 228 277 330 404
#     4  10  22  41  66  94 130 175 225 284 336 407
#     4  11  24  42  69  96 130 179 221 275 348 406
#
# _framework density 21.364265
#
# number of rings (size 3 to 8) (size 9 to 14) (size 15 to 20)
#    0.000    1.500    3.750    2.250    1.750    4.000 
#    2.250    0.000    0.000    0.000    0.000    0.000 
#    0.000    0.000    0.000    0.000    0.000    0.000 
#
# Total GULP energy -178341.406959 kJ/mol
# GULP energy per Si atom -5573.168967 kJ/mol
# Density = 2.131564 g / cm^3
# Si number density = 21.364265 Si / 1000 Ang^3
#
#
#
# Elastic Constant Matrix: (Units=GPa)
#
#
# Indices 1 2 3 4 5 6 
#
# 1 55.4575 23.6534 -2.5906 0.0000 0.7096 0.0000
# 2 23.6534 77.3432 26.8983 0.0000 -10.0302 0.0000
# 3 -2.5906 26.8983 79.8067 0.0000 -22.2207 0.0000
# 4 0.0000 0.0000 0.0000 39.1930 0.0000 -1.0857
# 5 0.7096 -10.0302 -22.2207 0.0000 28.6199 0.0000
# 6 0.0000 0.0000 0.0000 -1.0857 0.0000 23.4179
#
#
#
# Elastic Compliance Matrix: (Units=1/GPa)
#
#
# Indices 1 2 3 4 5 6 
#
# 1 0.021493 -0.007753 0.003069 0.000000 -0.000867 0.000000
# 2 -0.007753 0.017505 -0.005601 0.000000 0.001979 0.000000
# 3 0.003069 -0.005601 0.017797 0.000000 0.011779 0.000000
# 4 0.000000 0.000000 0.000000 0.025548 0.000000 0.001184
# 5 -0.000867 0.001979 0.011779 0.000000 0.044801 0.000000
# 6 0.000000 0.000000 0.000000 0.001184 0.000000 0.042757
#
#
# Mechanical properties :
#
#
# Convention : Reuss Voigt Hill
#
# Bulk Modulus (GPa) = 27.60403 34.28107 30.94255
# Shear Modulus (GPa) = 24.68591 29.22261 26.95426
#
# Velocity S-wave (km/s) = 3.40292 3.70243 3.55583
# Velocity P-wave (km/s) = 5.32809 5.86158 5.60119
#
# Compressibility (1/GPa) = 0.03622659
#
# Stress axis : x y z
#
# Youngs Moduli (GPa) = 46.52667 57.12718 56.18865
#
# Poissons Ratio (x) = 0.44291 -0.17246
# Poissons Ratio (y) = 0.36072 0.31469
# Poissons Ratio (z) = -0.14281 0.31995
#
# Static dielectric constant tensor:
#      x y z
#    x 1.834500 0.000000 0.028690 
#    y 0.000000 1.817910 0.000000 
#    z 0.028690 0.000000 1.899250 
# 
# From -- ./inp_files/68714.got.cif
#   From: 2010.05.17/outbox.cif.g08.bks.cpg/sg14_35_cif.got.tgz:68714.got - 2010.06.03 17:49:19.
