data_PCOD9244331
_publ_section_title
;
Structure prediction by ZEFSAII (Michael W. Deem and Ramdas Pophale) SiO2 
 PCOD9244331
Probable space group: P 21/C
;
_chemical_formula_sum "Si O2"
_cell_formula_units_Z 32
_cell_length_a 9.474918
_cell_length_b 12.151422
_cell_length_c 22.002274
_cell_angle_alpha 90.000000
_cell_angle_beta 149.460916
_cell_angle_gamma 90.000000
_cell_volume 1287.186720
_symmetry_space_group_name_H-M "P 21/C"
_symmetry_group_IT_number 14
_symmetry_cell_setting 'monoclinic'
loop_
_space_group_symop_operation_xyz
x,y,z
-x,1/2+y,1/2-z
-x,-y,-z
x,1/2-y,1/2+z
loop_
_atom_site_type_symbol
_atom_site_label
_atom_site_fract_x
_atom_site_fract_y
_atom_site_fract_z
Si Si1 0.470001 0.155079 0.901413
Si Si2 0.043380 0.911555 0.680261
Si Si3 0.590999 0.930635 0.249789
Si Si4 0.507351 0.046236 0.658703
Si Si5 0.824426 0.105103 0.662434
Si Si6 0.126564 0.249859 0.975396
Si Si7 0.423998 0.655019 0.426048
Si Si8 0.143346 0.828610 0.508113
O O1 0.534291 0.093999 0.862174
O O2 0.135833 0.154246 0.778150
O O3 0.553744 0.109669 0.997927
O O4 0.636451 0.267488 0.952910
O O5 0.179762 0.896940 0.796180
O O6 0.974017 0.793977 0.627338
O O7 0.248375 0.956603 0.704544
O O8 0.821494 0.009745 0.609229
O O9 0.396030 0.940420 0.235908
O O10 0.846515 0.848519 0.364202
O O11 0.740939 0.045240 0.694266
O O12 0.330869 0.154003 0.576003
O O13 0.291952 0.944493 0.578185
O O14 0.635859 0.213728 0.586395
O O15 0.314686 0.148489 0.023679
O O16 0.908137 0.256174 0.949491
#
# Coordination Sequence:
#
# PCOD9244331 Si02
#       8
#     4   4   4   4   4   4   4   4
#     4  11  24  40  59  94 133 162 208 263 315 376
#     4  11  21  42  65  89 130 169 209 263 320 373
#     4  10  21  42  65  94 126 163 219 258 316 376
#     4  10  20  40  66  97 119 159 210 270 314 369
#     4  10  25  40  64  96 127 167 214 258 312 389
#     4  10  21  38  65  95 124 154 213 269 318 369
#     4  11  25  39  62  95 130 170 214 258 322 378
#     4  11  21  40  70  95 120 164 212 274 314 367
#
# _framework density 24.860419
#
# number of rings (size 3 to 8) (size 9 to 14) (size 15 to 20)
#    0.000    1.500    2.500    3.000    3.500    7.000 
#    0.000    0.000    0.000    4.500    0.000    0.000 
#    0.000    0.000    0.000    0.000    0.000    0.000 
#
# Total GULP energy -178577.440288 kJ/mol
# GULP energy per Si atom -5580.545009 kJ/mol
# Density = 2.480384 g / cm^3
# Si number density = 24.860419 Si / 1000 Ang^3
#
#
#
# Elastic Constant Matrix: (Units=GPa)
#
#
# Indices 1 2 3 4 5 6 
#
# 1 200.7278 28.8484 44.5783 0.0000 -29.2172 0.0000
# 2 28.8484 50.8490 12.7807 0.0000 -7.8651 0.0000
# 3 44.5783 12.7807 66.5379 0.0000 -31.6378 0.0000
# 4 0.0000 0.0000 0.0000 18.3223 0.0000 -10.7478
# 5 -29.2172 -7.8651 -31.6378 0.0000 48.3518 0.0000
# 6 0.0000 0.0000 0.0000 -10.7478 0.0000 17.2437
#
#
#
# Elastic Compliance Matrix: (Units=1/GPa)
#
#
# Indices 1 2 3 4 5 6 
#
# 1 0.006220 -0.002557 -0.003029 0.000000 0.001361 0.000000
# 2 -0.002557 0.021756 -0.002203 0.000000 0.000552 0.000000
# 3 -0.003029 -0.002203 0.023866 0.000000 0.013428 0.000000
# 4 0.000000 0.000000 0.000000 0.086033 0.000000 0.053623
# 5 0.001361 0.000552 0.013428 0.000000 0.030380 0.000000
# 6 0.000000 0.000000 0.000000 0.053623 0.000000 0.091415
#
#
# Mechanical properties :
#
#
# Convention : Reuss Voigt Hill
#
# Bulk Modulus (GPa) = 27.57599 54.50327 41.03963
# Shear Modulus (GPa) = 17.40118 32.24405 24.82261
#
# Velocity S-wave (km/s) = 2.64854 3.60530 3.16330
# Velocity P-wave (km/s) = 4.52431 6.26915 5.46679
#
# Compressibility (1/GPa) = 0.03626344
#
# Stress axis : x y z
#
# Youngs Moduli (GPa) = 160.76787 45.96442 41.90005
#
# Poissons Ratio (x) = 0.11753 0.12692
# Poissons Ratio (y) = 0.41110 0.09231
# Poissons Ratio (z) = 0.48700 0.10127
#
# Static dielectric constant tensor:
#      x y z
#    x 2.002120 0.000000 0.013710 
#    y 0.000000 2.001770 0.000000 
#    z 0.013710 0.000000 2.027500 
# 
# From -- ./inp_files/65845.got.cif
#   From: 2010.05.17/outbox.cif.g08.bks.cpg/sg14_33_cif.got.tgz:65845.got - 2010.06.03 17:49:19.
