data_PCOD9244679
_publ_section_title
;
Structure prediction by ZEFSAII (Michael W. Deem and Ramdas Pophale) SiO2 
 PCOD9244679
Probable space group: P 21/C
;
_chemical_formula_sum "Si O2"
_cell_formula_units_Z 30
_cell_length_a 19.841429
_cell_length_b 13.739584
_cell_length_c 8.722832
_cell_angle_alpha 90.000000
_cell_angle_beta 146.606551
_cell_angle_gamma 90.000000
_cell_volume 1308.792662
_symmetry_space_group_name_H-M "P 21/C"
_symmetry_group_IT_number 14
_symmetry_cell_setting 'monoclinic'
loop_
_space_group_symop_operation_xyz
x,y,z
-x,1/2+y,1/2-z
-x,-y,-z
x,1/2-y,1/2+z
loop_
_atom_site_type_symbol
_atom_site_label
_atom_site_fract_x
_atom_site_fract_y
_atom_site_fract_z
Si Si1 0.929949 0.311497 0.472966
Si Si2 0.106315 0.310679 0.082449
Si Si3 0.134102 0.486599 0.321043
Si Si4 0.747980 0.361208 0.637324
Si Si5 0.770268 0.036133 0.489276
Si Si6 0.233190 0.117110 0.278667
Si Si7 0.500000 0.000000 0.000000
Si Si8 0.497405 0.444934 0.158032
O O1 0.818493 0.238327 0.302958
O O2 0.869349 0.399710 0.267021
O O3 0.013999 0.344091 0.773971
O O4 0.018690 0.245625 0.536293
O O5 0.180158 0.395333 0.307072
O O6 0.197498 0.228137 0.197692
O O7 0.208233 0.584960 0.434418
O O8 0.139357 0.447307 0.502010
O O9 0.000000 0.500000 0.000000
O O10 0.601702 0.361586 0.354337
O O11 0.789147 0.436283 0.849093
O O12 0.771914 0.925616 0.558071
O O13 0.629399 0.062464 0.262013
O O14 0.365108 0.096711 0.454540
O O15 0.527001 0.989715 0.864180
O O16 0.500000 0.500000 0.000000
#
# Coordination Sequence:
#
# PCOD9244679 Si02
#       8
#     4   4   4   4   4   4   2   4
#     4  12  24  41  63  98 134 176 225 284 348 418
#     4  12  25  42  62  97 141 171 230 284 342 428
#     4  12  23  41  66  95 133 175 224 281 340 415
#     4  11  23  42  67 100 125 177 237 279 344 417
#     4  10  23  41  67  92 136 175 219 288 344 411
#     4  11  24  43  63  98 130 181 227 275 362 415
#     4   8  20  40  64  98 128 172 230 274 346 416
#     4  10  20  42  69  94 133 175 227 285 340 418
#
# _framework density 22.921889
#
# number of rings (size 3 to 8) (size 9 to 14) (size 15 to 20)
#    0.000    1.067    5.333    0.800    1.867    0.533 
#    0.000    8.000    0.000    0.000    0.000    0.000 
#    0.000    0.000    0.000    0.000    0.000    0.000 
#
# Total GULP energy -167033.868142 kJ/mol
# GULP energy per Si atom -5567.795605 kJ/mol
# Density = 2.286972 g / cm^3
# Si number density = 22.921889 Si / 1000 Ang^3
#
#
#
# Elastic Constant Matrix: (Units=GPa)
#
#
# Indices 1 2 3 4 5 6 
#
# 1 73.1538 9.8043 12.1523 0.0000 -9.3207 0.0000
# 2 9.8043 55.5519 10.6028 0.0000 2.1592 0.0000
# 3 12.1523 10.6028 75.9968 0.0000 -5.4959 0.0000
# 4 0.0000 0.0000 0.0000 29.8193 0.0000 0.2265
# 5 -9.3207 2.1592 -5.4959 0.0000 41.7333 0.0000
# 6 0.0000 0.0000 0.0000 0.2265 0.0000 34.5273
#
#
#
# Elastic Compliance Matrix: (Units=1/GPa)
#
#
# Indices 1 2 3 4 5 6 
#
# 1 0.014689 -0.002374 -0.001788 0.000000 0.003168 0.000000
# 2 -0.002374 0.018949 -0.002396 0.000000 -0.001826 0.000000
# 3 -0.001788 -0.002396 0.013891 0.000000 0.001554 0.000000
# 4 0.000000 0.000000 0.000000 0.033537 0.000000 -0.000220
# 5 0.003168 -0.001826 0.001554 0.000000 0.024968 0.000000
# 6 0.000000 0.000000 0.000000 -0.000220 0.000000 0.028964
#
#
# Mechanical properties :
#
#
# Convention : Reuss Voigt Hill
#
# Bulk Modulus (GPa) = 29.06053 29.98016 29.52034
# Shear Modulus (GPa) = 31.33119 32.69219 32.01169
#
# Velocity S-wave (km/s) = 3.70113 3.78066 3.74111
# Velocity P-wave (km/s) = 5.56507 5.67147 5.61852
#
# Compressibility (1/GPa) = 0.03441093
#
# Stress axis : x y z
#
# Youngs Moduli (GPa) = 68.07932 52.77460 71.98856
#
# Poissons Ratio (x) = 0.12530 0.12875
# Poissons Ratio (y) = 0.16163 0.17249
# Poissons Ratio (z) = 0.12176 0.12645
#
# Static dielectric constant tensor:
#      x y z
#    x 1.923330 0.000000 -0.010390 
#    y 0.000000 1.844850 0.000000 
#    z -0.010390 0.000000 1.899370 
# 
# From -- ./inp_files/19133.got.cif
#   From: 2010.05.17/outbox.cif.g08.bks.cpg/sg14_10_cif.got.tgz:19133.got - 2010.06.03 17:49:19.
