data_PCOD9244806
_publ_section_title
;
Structure prediction by ZEFSAII (Michael W. Deem and Ramdas Pophale) SiO2 
 PCOD9244806
Probable space group: P 21/C
;
_chemical_formula_sum "Si O2"
_cell_formula_units_Z 32
_cell_length_a 23.023227
_cell_length_b 11.293646
_cell_length_c 17.437817
_cell_angle_alpha 90.000000
_cell_angle_beta 15.460280
_cell_angle_gamma 90.000000
_cell_volume 1208.660169
_symmetry_space_group_name_H-M "P 21/C"
_symmetry_group_IT_number 14
_symmetry_cell_setting 'monoclinic'
loop_
_space_group_symop_operation_xyz
x,y,z
-x,1/2+y,1/2-z
-x,-y,-z
x,1/2-y,1/2+z
loop_
_atom_site_type_symbol
_atom_site_label
_atom_site_fract_x
_atom_site_fract_y
_atom_site_fract_z
Si Si1 0.831456 0.415435 0.819953
Si Si2 0.248004 0.529479 0.333385
Si Si3 0.488594 0.333416 0.565150
Si Si4 0.838485 0.485633 0.381687
Si Si5 0.092354 0.870317 0.360461
Si Si6 0.441033 0.193367 0.759851
Si Si7 0.115762 0.330382 0.281813
Si Si8 0.730367 0.420799 0.125509
O O1 0.804465 0.535496 0.803614
O O2 0.089966 0.420910 0.507797
O O3 0.700012 0.312967 0.945079
O O4 0.733366 0.416050 0.030603
O O5 0.202460 0.558118 0.480439
O O6 0.125002 0.638516 0.446702
O O7 0.500000 0.500000 0.000000
O O8 0.688764 0.368425 0.366363
O O9 0.571469 0.332512 0.372677
O O10 0.329441 0.444856 0.774829
O O11 0.397178 0.220221 0.726325
O O12 0.885237 0.387135 0.259840
O O13 0.632540 0.563659 0.620658
O O14 0.026434 0.586037 0.150685
O O15 0.924952 0.769602 0.603328
O O16 0.000000 0.000000 0.500000
O O17 0.297981 0.284255 0.990555
#
# Coordination Sequence:
#
# PCOD9244806 Si02
#       8
#     4   4   4   4   4   4   4   4
#     4   9  22  43  75 110 157 211 267 331 413 496
#     4   9  22  49  78 105 155 217 272 337 410 501
#     4  11  23  38  73 107 151 204 259 340 407 481
#     4  11  23  41  76 107 155 206 261 341 397 482
#     4  12  23  42  73 114 151 205 269 334 405 496
#     4  12  22  41  75 117 159 202 266 339 414 498
#     4  10  23  42  76 113 161 213 264 334 421 484
#     4  10  20  44  71 106 149 200 273 329 406 485
#
# _framework density 26.475598000000002
#
# number of rings (size 3 to 8) (size 9 to 14) (size 15 to 20)
#    0.750    0.750    3.750    0.750    1.750    0.000 
#    0.000    8.750    5.500    0.000    0.000    0.000 
#    0.000    0.000    0.000    0.000    0.000    0.000 
#
# Total GULP energy -178869.035911 kJ/mol
# GULP energy per Si atom -5589.657372 kJ/mol
# Density = 2.641534 g / cm^3
# Si number density = 26.475598 Si / 1000 Ang^3
#
#
#
# Elastic Constant Matrix: (Units=GPa)
#
#
# Indices 1 2 3 4 5 6 
#
# 1 103.0506 51.8232 61.0573 0.0000 27.0135 0.0000
# 2 51.8232 87.8332 49.2132 0.0000 6.4464 0.0000
# 3 61.0573 49.2132 151.8998 0.0000 25.4119 0.0000
# 4 0.0000 0.0000 0.0000 47.7544 0.0000 6.9065
# 5 27.0135 6.4464 25.4119 0.0000 58.1412 0.0000
# 6 0.0000 0.0000 0.0000 6.9065 0.0000 52.6673
#
#
#
# Elastic Compliance Matrix: (Units=1/GPa)
#
#
# Indices 1 2 3 4 5 6 
#
# 1 0.017101 -0.007761 -0.003425 0.000000 -0.005588 0.000000
# 2 -0.007761 0.017444 -0.003034 0.000000 0.002998 0.000000
# 3 -0.003425 -0.003034 0.009300 0.000000 -0.002137 0.000000
# 4 0.000000 0.000000 0.000000 0.021345 0.000000 -0.002799
# 5 -0.005588 0.002998 -0.002137 0.000000 0.020398 0.000000
# 6 0.000000 0.000000 0.000000 -0.002799 0.000000 0.019354
#
#
# Mechanical properties :
#
#
# Convention : Reuss Voigt Hill
#
# Bulk Modulus (GPa) = 64.90524 74.10791 69.50657
# Shear Modulus (GPa) = 36.09707 43.75857 39.92782
#
# Velocity S-wave (km/s) = 3.69644 4.06986 3.88764
# Velocity P-wave (km/s) = 6.54115 7.08074 6.81628
#
# Compressibility (1/GPa) = 0.01540708
#
# Stress axis : x y z
#
# Youngs Moduli (GPa) = 58.47717 57.32648 107.52471
#
# Poissons Ratio (x) = 0.44490 0.36822
# Poissons Ratio (y) = 0.45383 0.32618
# Poissons Ratio (z) = 0.20026 0.17390
#
# Static dielectric constant tensor:
#      x y z
#    x 2.039190 0.000000 -0.022890 
#    y 0.000000 2.127550 0.000000 
#    z -0.022890 0.000000 2.165360 
# 
# From -- ./inp_files/50659.got.cif
#   From: 2010.05.17/outbox.cif.g08.bks.cpg/sg14_26_cif.got.tgz:50659.got - 2010.06.03 17:49:19.
