data_PCOD9244124
_publ_section_title
;
Structure prediction by ZEFSAII (Michael W. Deem and Ramdas Pophale) SiO2 
 PCOD9244124
Probable space group: P 21/C
;
_chemical_formula_sum "Si O2"
_cell_formula_units_Z 24
_cell_length_a 16.876704
_cell_length_b 7.941718
_cell_length_c 16.142273
_cell_angle_alpha 90.000000
_cell_angle_beta 148.042626
_cell_angle_gamma 90.000000
_cell_volume 1145.141082
_symmetry_space_group_name_H-M "P 21/C"
_symmetry_group_IT_number 14
_symmetry_cell_setting 'monoclinic'
loop_
_space_group_symop_operation_xyz
x,y,z
-x,1/2+y,1/2-z
-x,-y,-z
x,1/2-y,1/2+z
loop_
_atom_site_type_symbol
_atom_site_label
_atom_site_fract_x
_atom_site_fract_y
_atom_site_fract_z
Si Si1 0.016133 0.552386 0.617221
Si Si2 0.801343 0.707981 0.314625
Si Si3 0.526231 0.969709 0.620051
Si Si4 0.319259 0.956968 0.850554
Si Si5 0.238836 0.805730 0.427172
Si Si6 0.243684 0.730428 0.623014
O O1 0.159559 0.462320 0.701898
O O2 0.078151 0.622032 0.757239
O O3 0.941124 0.707732 0.501356
O O4 0.893381 0.404558 0.502342
O O5 0.649501 0.678935 0.231613
O O6 0.771080 0.867029 0.230704
O O7 0.372721 0.931253 0.526184
O O8 0.500000 0.000000 0.500000
O O9 0.604734 0.126570 0.730844
O O10 0.281022 0.849305 0.900220
O O11 0.255566 0.857203 0.712204
O O12 0.500000 0.000000 0.000000
O O13 0.240466 0.793464 0.526869
#
# Coordination Sequence:
#
# PCOD9244124 Si02
#       6
#     4   4   4   4   4   4
#     4  10  23  43  64  98 134 187 214 265 341 399
#     4  10  20  39  71  93 134 176 220 270 331 390
#     4  11  19  43  68  93 131 179 218 268 333 398
#     4  12  24  42  66 105 130 167 227 283 320 384
#     4  12  25  42  71  98 133 176 223 273 334 393
#     4  11  27  43  66 101 134 175 225 267 337 399
#
# _framework density 20.958117000000001
#
# number of rings (size 3 to 8) (size 9 to 14) (size 15 to 20)
#    0.000    1.000    5.000    2.000    2.333    5.333 
#    0.000    3.333    0.000    0.000    0.000    0.000 
#    0.000    0.000    0.000    0.000    0.000    0.000 
#
# Total GULP energy -133628.378020 kJ/mol
# GULP energy per Si atom -5567.849084 kJ/mol
# Density = 2.091042 g / cm^3
# Si number density = 20.958117 Si / 1000 Ang^3
#
#
#
# Elastic Constant Matrix: (Units=GPa)
#
#
# Indices 1 2 3 4 5 6 
#
# 1 48.2332 1.1949 35.6566 0.0000 -7.4443 0.0000
# 2 1.1949 45.6926 35.9392 0.0000 1.8010 0.0000
# 3 35.6566 35.9392 153.6244 0.0000 -8.6116 0.0000
# 4 0.0000 0.0000 0.0000 41.6026 0.0000 1.4447
# 5 -7.4443 1.8010 -8.6116 0.0000 42.7620 0.0000
# 6 0.0000 0.0000 0.0000 1.4447 0.0000 23.8788
#
#
#
# Elastic Compliance Matrix: (Units=1/GPa)
#
#
# Indices 1 2 3 4 5 6 
#
# 1 0.026276 0.004734 -0.007041 0.000000 0.002957 0.000000
# 2 0.004734 0.027923 -0.007738 0.000000 -0.001910 0.000000
# 3 -0.007041 -0.007738 0.010016 0.000000 0.001117 0.000000
# 4 0.000000 0.000000 0.000000 0.024088 0.000000 -0.001457
# 5 0.002957 -0.001910 0.001117 0.000000 0.024206 0.000000
# 6 0.000000 0.000000 0.000000 -0.001457 0.000000 0.041966
#
#
# Mechanical properties :
#
#
# Convention : Reuss Voigt Hill
#
# Bulk Modulus (GPa) = 22.66209 43.68131 33.17170
# Shear Modulus (GPa) = 26.41669 33.29932 29.85801
#
# Velocity S-wave (km/s) = 3.55414 3.99036 3.77855
# Velocity P-wave (km/s) = 5.26109 6.48985 5.90750
#
# Compressibility (1/GPa) = 0.04412656
#
# Stress axis : x y z
#
# Youngs Moduli (GPa) = 38.05684 35.81230 99.83569
#
# Poissons Ratio (x) = -0.16953 0.70290
# Poissons Ratio (y) = -0.18016 0.77256
# Poissons Ratio (z) = 0.26794 0.27713
#
# Static dielectric constant tensor:
#      x y z
#    x 1.840360 0.000000 -0.059410 
#    y 0.000000 1.809720 0.000000 
#    z -0.059410 0.000000 1.822460 
# 
# From -- ./inp_files/48653.got.cif
#   From: 2010.05.17/outbox.cif.g08.bks.cpg/sg14_25_cif.got.tgz:48653.got - 2010.06.03 17:49:19.
