data_PCOD9244735
_publ_section_title
;
Structure prediction by ZEFSAII (Michael W. Deem and Ramdas Pophale) SiO2 
 PCOD9244735
Probable space group: P 21/C
;
_chemical_formula_sum "Si O2"
_cell_formula_units_Z 30
_cell_length_a 9.946513
_cell_length_b 13.326447
_cell_length_c 18.621509
_cell_angle_alpha 90.000000
_cell_angle_beta 145.141986
_cell_angle_gamma 90.000000
_cell_volume 1410.750840
_symmetry_space_group_name_H-M "P 21/C"
_symmetry_group_IT_number 14
_symmetry_cell_setting 'monoclinic'
loop_
_space_group_symop_operation_xyz
x,y,z
-x,1/2+y,1/2-z
-x,-y,-z
x,1/2-y,1/2+z
loop_
_atom_site_type_symbol
_atom_site_label
_atom_site_fract_x
_atom_site_fract_y
_atom_site_fract_z
Si Si1 0.805238 0.389662 0.343292
Si Si2 0.676912 0.530756 0.410173
Si Si3 0.500000 0.500000 0.500000
Si Si4 0.983891 0.506633 0.809832
Si Si5 0.760964 0.133904 0.055857
Si Si6 0.774827 0.153682 0.323317
Si Si7 0.240795 0.843284 0.516031
Si Si8 0.729811 0.946938 0.690873
O O1 0.663049 0.439388 0.347358
O O2 0.780880 0.273121 0.316918
O O3 0.744355 0.455885 0.247824
O O4 0.073239 0.415503 0.482621
O O5 0.662319 0.476881 0.482373
O O6 0.480777 0.609571 0.306299
O O7 0.765783 0.523757 0.660360
O O8 0.421132 0.626444 0.459339
O O9 0.937859 0.414091 0.843926
O O10 0.215803 0.480060 0.865764
O O11 0.040407 0.605422 0.880202
O O12 0.037091 0.119554 0.188655
O O13 0.735662 0.226084 0.992409
O O14 0.818023 0.137845 0.426885
O O15 0.491139 0.891292 0.605052
#
# Coordination Sequence:
#
# PCOD9244735 Si02
#       8
#     4   4   2   4   4   4   4   4
#     4  10  22  42  69  99 133 185 228 278 352 406
#     4  10  20  43  65  95 143 174 229 279 337 421
#     4  10  22  46  68  90 140 182 228 272 334 412
#     4  11  26  46  66 101 141 178 228 286 336 416
#     4  10  22  42  70  99 133 187 229 279 343 407
#     4  12  24  42  72 105 134 178 230 290 343 404
#     4  12  25  42  72 104 139 177 229 289 349 398
#     4  10  24  45  67  96 143 182 224 286 342 417
#
# _framework density 21.265272
#
# number of rings (size 3 to 8) (size 9 to 14) (size 15 to 20)
#    0.000    1.333    4.000    0.800    1.867    3.200 
#    7.200    0.000    0.000    0.000    0.000    0.000 
#    0.000    0.000    0.000    0.000    0.000    0.000 
#
# Total GULP energy -167097.964296 kJ/mol
# GULP energy per Si atom -5569.932143 kJ/mol
# Density = 2.121687 g / cm^3
# Si number density = 21.265272 Si / 1000 Ang^3
#
#
#
# Elastic Constant Matrix: (Units=GPa)
#
#
# Indices 1 2 3 4 5 6 
#
# 1 110.2368 48.9789 43.0389 0.0000 -23.5139 0.0000
# 2 48.9789 136.9733 56.1430 0.0000 -15.0960 0.0000
# 3 43.0389 56.1430 85.5937 0.0000 -12.5076 0.0000
# 4 0.0000 0.0000 0.0000 31.1404 0.0000 -0.8576
# 5 -23.5139 -15.0960 -12.5076 0.0000 26.3066 0.0000
# 6 0.0000 0.0000 0.0000 -0.8576 0.0000 7.1242
#
#
#
# Elastic Compliance Matrix: (Units=1/GPa)
#
#
# Indices 1 2 3 4 5 6 
#
# 1 0.013532 -0.002191 -0.004066 0.000000 0.008905 0.000000
# 2 -0.002191 0.010537 -0.005602 0.000000 0.001425 0.000000
# 3 -0.004066 -0.005602 0.017626 0.000000 0.001531 0.000000
# 4 0.000000 0.000000 0.000000 0.032219 0.000000 0.003879
# 5 0.008905 0.001425 0.001531 0.000000 0.047519 0.000000
# 6 0.000000 0.000000 0.000000 0.003879 0.000000 0.140833
#
#
# Mechanical properties :
#
#
# Convention : Reuss Voigt Hill
#
# Bulk Modulus (GPa) = 55.62447 69.90282 62.76365
# Shear Modulus (GPa) = 17.12474 25.22377 21.17426
#
# Velocity S-wave (km/s) = 2.84084 3.44779 3.15893
# Velocity P-wave (km/s) = 6.08069 6.98519 6.54857
#
# Compressibility (1/GPa) = 0.01797770
#
# Stress axis : x y z
#
# Youngs Moduli (GPa) = 73.90142 94.90192 56.73540
#
# Poissons Ratio (x) = 0.20790 0.23068
# Poissons Ratio (y) = 0.16189 0.31782
# Poissons Ratio (z) = 0.30047 0.53162
#
# Static dielectric constant tensor:
#      x y z
#    x 1.946300 0.000000 -0.043040 
#    y 0.000000 1.760070 0.000000 
#    z -0.043040 0.000000 1.779200 
# 
# From -- ./inp_files/67389.got.cif
#   From: 2010.05.17/outbox.cif.g08.bks.cpg/sg14_34_cif.got.tgz:67389.got - 2010.06.03 17:49:19.
