data_PCOD9244804
_publ_section_title
;
Structure prediction by ZEFSAII (Michael W. Deem and Ramdas Pophale) SiO2 
 PCOD9244804
Probable space group: P 21/C
;
_chemical_formula_sum "Si O2"
_cell_formula_units_Z 28
_cell_length_a 8.216364
_cell_length_b 14.020654
_cell_length_c 9.329210
_cell_angle_alpha 90.000000
_cell_angle_beta 93.226930
_cell_angle_gamma 90.000000
_cell_volume 1073.009719
_symmetry_space_group_name_H-M "P 21/C"
_symmetry_group_IT_number 14
_symmetry_cell_setting 'monoclinic'
loop_
_space_group_symop_operation_xyz
x,y,z
-x,1/2+y,1/2-z
-x,-y,-z
x,1/2-y,1/2+z
loop_
_atom_site_type_symbol
_atom_site_label
_atom_site_fract_x
_atom_site_fract_y
_atom_site_fract_z
Si Si1 0.432593 0.754466 0.780319
Si Si2 0.897875 0.241767 0.386112
Si Si3 0.533995 0.036383 0.762371
Si Si4 0.070506 0.612679 0.840481
Si Si5 0.255149 0.030348 0.553925
Si Si6 0.625827 0.614364 0.465299
Si Si7 0.246586 0.216165 0.387897
O O1 0.410488 0.640312 0.789731
O O2 0.276597 0.790972 0.684545
O O3 0.465410 0.819969 0.920473
O O4 0.610484 0.764031 0.715893
O O5 0.106752 0.063261 0.649444
O O6 0.063389 0.195355 0.328669
O O7 0.910051 0.205744 0.551582
O O8 0.909282 0.348953 0.320374
O O9 0.412303 0.991145 0.641786
O O10 0.655202 0.958689 0.836860
O O11 0.418719 0.058499 0.893537
O O12 0.185748 0.536421 0.926116
O O13 0.305281 0.129614 0.485966
O O14 0.763662 0.689769 0.512986
#
# Coordination Sequence:
#
# PCOD9244804 Si02
#       7
#     4   4   4   4   4   4   4
#     4  11  23  41  67  99 134 179 226 290 345 418
#     4  11  25  42  67 103 139 178 233 286 352 414
#     4  10  21  38  64  97 131 175 223 284 338 414
#     4  10  23  41  71 102 142 186 235 293 354 421
#     4  10  20  44  71 100 138 186 237 287 352 420
#     4  10  21  39  64  96 134 175 225 276 352 403
#     4  10  23  43  70  96 137 184 227 285 346 421
#
# _framework density 26.094822000000001
#
# number of rings (size 3 to 8) (size 9 to 14) (size 15 to 20)
#    0.000    1.714    1.429    2.571    6.000    1.143 
#    0.000    2.857    0.000    0.000    0.000    0.000 
#    0.000    0.000    0.000    0.000    0.000    0.000 
#
# Total GULP energy -156411.441068 kJ/mol
# GULP energy per Si atom -5586.122895 kJ/mol
# Density = 2.603543 g / cm^3
# Si number density = 26.094822 Si / 1000 Ang^3
#
#
#
# Elastic Constant Matrix: (Units=GPa)
#
#
# Indices 1 2 3 4 5 6 
#
# 1 126.8337 15.9392 37.7206 0.0000 22.4242 0.0000
# 2 15.9392 126.8012 32.9396 0.0000 -2.3000 0.0000
# 3 37.7206 32.9396 74.2930 0.0000 12.9570 0.0000
# 4 0.0000 0.0000 0.0000 51.4011 0.0000 0.5736
# 5 22.4242 -2.3000 12.9570 0.0000 31.3174 0.0000
# 6 0.0000 0.0000 0.0000 0.5736 0.0000 39.7371
#
#
#
# Elastic Compliance Matrix: (Units=1/GPa)
#
#
# Indices 1 2 3 4 5 6 
#
# 1 0.010109 -0.000331 -0.004008 0.000000 -0.005604 0.000000
# 2 -0.000331 0.009104 -0.004340 0.000000 0.002701 0.000000
# 3 -0.004008 -0.004340 0.018295 0.000000 -0.005018 0.000000
# 4 0.000000 0.000000 0.000000 0.019458 0.000000 -0.000281
# 5 -0.005604 0.002701 -0.005018 0.000000 0.038218 0.000000
# 6 0.000000 0.000000 0.000000 -0.000281 0.000000 0.025169
#
#
# Mechanical properties :
#
#
# Convention : Reuss Voigt Hill
#
# Bulk Modulus (GPa) = 49.62875 55.68073 52.65474
# Shear Modulus (GPa) = 34.61932 40.57967 37.59950
#
# Velocity S-wave (km/s) = 3.64631 3.94774 3.80001
# Velocity P-wave (km/s) = 6.06525 6.49335 6.28295
#
# Compressibility (1/GPa) = 0.02014961
#
# Stress axis : x y z
#
# Youngs Moduli (GPa) = 98.92307 109.83839 54.66112
#
# Poissons Ratio (x) = 0.03637 0.21910
# Poissons Ratio (y) = 0.03275 0.23721
# Poissons Ratio (z) = 0.39652 0.47665
#
# Static dielectric constant tensor:
#      x y z
#    x 2.093320 0.000000 -0.024100 
#    y 0.000000 2.087620 0.000000 
#    z -0.024100 0.000000 2.138950 
# 
# From -- ./inp_files/24887.got.cif
#   From: 2010.05.17/outbox.cif.g08.bks.cpg/sg14_13_cif.got.tgz:24887.got - 2010.06.03 17:49:19.
