data_PCOD9244351
_publ_section_title
;
Structure prediction by ZEFSAII (Michael W. Deem and Ramdas Pophale) SiO2 
 PCOD9244351
Probable space group: P 21/C
;
_chemical_formula_sum "Si O2"
_cell_formula_units_Z 30
_cell_length_a 5.041005
_cell_length_b 11.812325
_cell_length_c 18.812669
_cell_angle_alpha 90.000000
_cell_angle_beta 81.481576
_cell_angle_gamma 90.000000
_cell_volume 1107.861049
_symmetry_space_group_name_H-M "P 21/C"
_symmetry_group_IT_number 14
_symmetry_cell_setting 'monoclinic'
loop_
_space_group_symop_operation_xyz
x,y,z
-x,1/2+y,1/2-z
-x,-y,-z
x,1/2-y,1/2+z
loop_
_atom_site_type_symbol
_atom_site_label
_atom_site_fract_x
_atom_site_fract_y
_atom_site_fract_z
Si Si1 0.500000 0.000000 0.500000
Si Si2 0.321324 0.530009 0.253728
Si Si3 0.073298 0.779719 0.673497
Si Si4 0.861426 0.166765 0.568195
Si Si5 0.482202 0.153098 0.049047
Si Si6 0.232045 0.524544 0.651388
Si Si7 0.803212 0.694236 0.819082
Si Si8 0.295113 0.314789 0.945713
O O1 0.351959 0.925099 0.444562
O O2 0.445262 0.892737 0.560513
O O3 0.275981 0.641272 0.209208
O O4 0.585478 0.513354 0.289579
O O5 0.301781 0.426656 0.199913
O O6 0.069213 0.519019 0.319427
O O7 0.212067 0.660055 0.649177
O O8 0.854703 0.754201 0.743270
O O9 0.892749 0.817129 0.613894
O O10 0.781288 0.292086 0.541373
O O11 0.920841 0.174890 0.648590
O O12 0.135831 0.122150 0.518263
O O13 0.359917 0.229451 0.119214
O O14 0.374817 0.031169 0.076950
O O15 0.361323 0.195420 0.979256
#
# Coordination Sequence:
#
# PCOD9244351 Si02
#       8
#     2   4   4   4   4   4   4   4
#     4  10  20  40  68 100 136 186 236 298 360 426
#     4  11  25  43  71 105 141 180 241 308 363 432
#     4  11  24  46  68 106 143 183 246 309 366 430
#     4  10  21  40  65  97 138 188 237 287 372 434
#     4  10  22  43  69  95 137 195 236 291 363 451
#     4  11  26  45  72 104 141 194 240 299 365 445
#     4  10  22  41  68  95 136 184 232 296 366 434
#     4  10  23  43  65 101 142 184 238 303 362 442
#
# _framework density 27.079208000000001
#
# number of rings (size 3 to 8) (size 9 to 14) (size 15 to 20)
#    0.000    1.600    1.333    2.000    7.467    2.667 
#   16.800    0.667    0.000    0.000    0.000    0.000 
#    0.000    0.000    0.000    0.000    0.000    0.000 
#
# Total GULP energy -167523.894156 kJ/mol
# GULP energy per Si atom -5584.129805 kJ/mol
# Density = 2.701757 g / cm^3
# Si number density = 27.079208 Si / 1000 Ang^3
#
#
#
# Elastic Constant Matrix: (Units=GPa)
#
#
# Indices 1 2 3 4 5 6 
#
# 1 74.4876 -1.6531 39.4384 0.0000 17.6904 0.0000
# 2 -1.6531 102.8013 4.6517 0.0000 14.2459 0.0000
# 3 39.4384 4.6517 130.5521 0.0000 20.1936 0.0000
# 4 0.0000 0.0000 0.0000 3.0101 0.0000 -6.0400
# 5 17.6904 14.2459 20.1936 0.0000 60.6975 0.0000
# 6 0.0000 0.0000 0.0000 -6.0400 0.0000 24.0150
#
#
#
# Elastic Compliance Matrix: (Units=1/GPa)
#
#
# Indices 1 2 3 4 5 6 
#
# 1 0.016693 0.000970 -0.004522 0.000000 -0.003588 0.000000
# 2 0.000970 0.010111 -0.000256 0.000000 -0.002571 0.000000
# 3 -0.004522 -0.000256 0.009300 0.000000 -0.001716 0.000000
# 4 0.000000 0.000000 0.000000 0.670690 0.000000 0.168685
# 5 -0.003588 -0.002571 -0.001716 0.000000 0.018695 0.000000
# 6 0.000000 0.000000 0.000000 0.168685 0.000000 0.084067
#
#
# Mechanical properties :
#
#
# Convention : Reuss Voigt Hill
#
# Bulk Modulus (GPa) = 35.10107 43.63499 39.36803
# Shear Modulus (GPa) = 6.04837 35.23813 20.64325
#
# Velocity S-wave (km/s) = 1.49614 3.61126 2.76403
# Velocity P-wave (km/s) = 3.99688 5.79113 4.97555
#
# Compressibility (1/GPa) = 0.02848916
#
# Stress axis : x y z
#
# Youngs Moduli (GPa) = 59.90441 98.90281 107.52113
#
# Poissons Ratio (x) = -0.09597 0.48625
# Poissons Ratio (y) = -0.05813 0.02750
# Poissons Ratio (z) = 0.27091 0.02529
#
# Static dielectric constant tensor:
#      x y z
#    x 1.935210 0.000000 -0.074580 
#    y 0.000000 1.839490 0.000000 
#    z -0.074580 0.000000 2.085660 
# 
# From -- ./inp_files/63536.got.cif
#   From: 2010.05.17/outbox.cif.g08.bks.cpg/sg14_32_cif.got.tgz:63536.got - 2010.06.03 17:49:19.
