data_PCOD9244045
_publ_section_title
;
Structure prediction by ZEFSAII (Michael W. Deem and Ramdas Pophale) SiO2 
 PCOD9244045
Probable space group: P 21/C
;
_chemical_formula_sum "Si O2"
_cell_formula_units_Z 32
_cell_length_a 21.447873
_cell_length_b 9.421454
_cell_length_c 15.309296
_cell_angle_alpha 90.000000
_cell_angle_beta 156.490118
_cell_angle_gamma 90.000000
_cell_volume 1234.040153
_symmetry_space_group_name_H-M "P 21/C"
_symmetry_group_IT_number 14
_symmetry_cell_setting 'monoclinic'
loop_
_space_group_symop_operation_xyz
x,y,z
-x,1/2+y,1/2-z
-x,-y,-z
x,1/2-y,1/2+z
loop_
_atom_site_type_symbol
_atom_site_label
_atom_site_fract_x
_atom_site_fract_y
_atom_site_fract_z
Si Si1 0.158640 0.520372 0.145597
Si Si2 0.729886 0.674107 0.441281
Si Si3 0.928600 0.341745 0.152775
Si Si4 0.030951 0.449498 0.637109
Si Si5 0.596704 0.267277 0.019721
Si Si6 0.382323 0.042867 0.575174
Si Si7 0.273270 0.877468 0.155301
Si Si8 0.399269 0.348618 0.542009
O O1 0.271637 0.648324 0.325669
O O2 0.280428 0.387182 0.310689
O O3 0.113550 0.562762 0.987275
O O4 0.000000 0.500000 0.000000
O O5 0.791666 0.895840 0.635870
O O6 0.705578 0.535255 0.349250
O O7 0.709479 0.616911 0.512903
O O8 0.902246 0.728798 0.645487
O O9 0.955645 0.430413 0.273478
O O10 0.795841 0.228257 0.004197
O O11 0.000000 0.500000 0.500000
O O12 0.875126 0.368710 0.467175
O O13 0.592417 0.305841 0.116568
O O14 0.419800 0.227798 0.766668
O O15 0.627732 0.413536 0.007417
O O16 0.458140 0.185111 0.629115
O O17 0.460467 0.958609 0.756952
#
# Coordination Sequence:
#
# PCOD9244045 Si02
#       8
#     4   4   4   4   4   4   4   4
#     4  11  23  44  71 108 149 200 247 308 390 459
#     4  10  20  39  64  98 140 189 239 311 364 445
#     4  10  23  43  68 105 147 195 253 313 380 455
#     4  11  23  43  66 101 149 188 248 315 374 448
#     4  10  22  40  68 103 145 187 249 311 373 458
#     4  11  24  43  67 105 143 193 253 310 380 450
#     4  10  21  40  64 102 139 189 247 308 379 441
#     4  11  23  42  69 100 145 194 246 311 380 456
#
# _framework density 25.931083999999998
#
# number of rings (size 3 to 8) (size 9 to 14) (size 15 to 20)
#    0.000    1.500    2.500    2.625    1.750    3.000 
#    4.500    1.875    0.000    0.000    0.000    0.000 
#    0.000    0.000    0.000    0.000    0.000    0.000 
#
# Total GULP energy -178698.529092 kJ/mol
# GULP energy per Si atom -5584.329034 kJ/mol
# Density = 2.587206 g / cm^3
# Si number density = 25.931084 Si / 1000 Ang^3
#
#
#
# Elastic Constant Matrix: (Units=GPa)
#
#
# Indices 1 2 3 4 5 6 
#
# 1 73.7952 24.2723 30.9414 0.0000 10.1017 0.0000
# 2 24.2723 123.0377 46.7315 0.0000 9.7876 0.0000
# 3 30.9414 46.7315 153.8521 0.0000 9.2340 0.0000
# 4 0.0000 0.0000 0.0000 48.9020 0.0000 5.6056
# 5 10.1017 9.7876 9.2340 0.0000 31.0436 0.0000
# 6 0.0000 0.0000 0.0000 5.6056 0.0000 32.9119
#
#
#
# Elastic Compliance Matrix: (Units=1/GPa)
#
#
# Indices 1 2 3 4 5 6 
#
# 1 0.015681 -0.001899 -0.002349 0.000000 -0.003805 0.000000
# 2 -0.001899 0.009554 -0.002420 0.000000 -0.001675 0.000000
# 3 -0.002349 -0.002420 0.007754 0.000000 -0.000779 0.000000
# 4 0.000000 0.000000 0.000000 0.020856 0.000000 -0.003552
# 5 -0.003805 -0.001675 -0.000779 0.000000 0.034211 0.000000
# 6 0.000000 0.000000 0.000000 -0.003552 0.000000 0.030989
#
#
# Mechanical properties :
#
#
# Convention : Reuss Voigt Hill
#
# Bulk Modulus (GPa) = 50.87659 61.61946 56.24803
# Shear Modulus (GPa) = 35.98894 39.15416 37.57155
#
# Velocity S-wave (km/s) = 3.72945 3.89000 3.81057
# Velocity P-wave (km/s) = 6.18123 6.63253 6.41085
#
# Compressibility (1/GPa) = 0.01965540
#
# Stress axis : x y z
#
# Youngs Moduli (GPa) = 63.77074 104.66334 128.96903
#
# Poissons Ratio (x) = 0.19873 0.30289
# Poissons Ratio (y) = 0.12109 0.31207
# Poissons Ratio (z) = 0.14977 0.25326
#
# Static dielectric constant tensor:
#      x y z
#    x 2.313640 0.000000 -0.071400 
#    y 0.000000 2.087550 0.000000 
#    z -0.071400 0.000000 2.228540 
# 
# From -- ./inp_files/51374.got.cif
#   From: 2010.05.17/outbox.cif.g08.bks.cpg/sg14_26_cif.got.tgz:51374.got - 2010.06.03 17:49:19.
