data_PCOD9244814
_publ_section_title
;
Structure prediction by ZEFSAII (Michael W. Deem and Ramdas Pophale) SiO2 
 PCOD9244814
Probable space group: P 21/C
;
_chemical_formula_sum "Si O2"
_cell_formula_units_Z 30
_cell_length_a 10.966489
_cell_length_b 10.866713
_cell_length_c 19.684259
_cell_angle_alpha 90.000000
_cell_angle_beta 149.623769
_cell_angle_gamma 90.000000
_cell_volume 1186.197868
_symmetry_space_group_name_H-M "P 21/C"
_symmetry_group_IT_number 14
_symmetry_cell_setting 'monoclinic'
loop_
_space_group_symop_operation_xyz
x,y,z
-x,1/2+y,1/2-z
-x,-y,-z
x,1/2-y,1/2+z
loop_
_atom_site_type_symbol
_atom_site_label
_atom_site_fract_x
_atom_site_fract_y
_atom_site_fract_z
Si Si1 0.875690 0.983748 0.657200
Si Si2 0.138669 0.585548 0.422911
Si Si3 0.000000 0.500000 0.000000
Si Si4 0.392416 0.946795 0.847788
Si Si5 0.893006 0.740938 0.901921
Si Si6 0.580239 0.183935 0.588704
Si Si7 0.505936 0.067887 0.259143
Si Si8 0.147678 0.875832 0.141840
O O1 0.672488 0.889212 0.532824
O O2 0.981379 0.932619 0.779545
O O3 0.114492 0.982798 0.726208
O O4 0.743589 0.113766 0.610572
O O5 0.419341 0.556418 0.548106
O O6 0.061383 0.709492 0.423120
O O7 0.048593 0.476203 0.429811
O O8 0.167913 0.400315 0.120734
O O9 0.241989 0.556945 0.081068
O O10 0.454049 0.830713 0.926827
O O11 0.436951 0.902497 0.791869
O O12 0.653109 0.822915 0.785640
O O13 0.020406 0.772294 0.035976
O O14 0.725926 0.165114 0.728622
O O15 0.342934 0.947772 0.191379
#
# Coordination Sequence:
#
# PCOD9244814 Si02
#       8
#     4   4   2   4   4   4   4   4
#     4  10  25  46  66 109 145 192 252 314 372 432
#     4  10  21  45  74 106 142 198 242 311 369 432
#     4  12  30  40  72 118 148 206 244 292 392 452
#     4  12  23  42  80 105 134 201 258 296 372 458
#     4  11  23  49  71 109 160 190 243 307 375 456
#     4  10  25  44  73 102 150 193 242 315 377 445
#     4  11  25  43  72 114 147 187 246 309 368 447
#     4  10  20  44  78 103 150 189 237 305 382 439
#
# _framework density 25.290890999999998
#
# number of rings (size 3 to 8) (size 9 to 14) (size 15 to 20)
#    0.000    1.333    2.667    2.000    9.333    0.000 
#    2.400    0.000    0.000    0.000    0.000    0.000 
#    0.000    0.000    0.000    0.000    0.000    0.000 
#
# Total GULP energy -167572.293485 kJ/mol
# GULP energy per Si atom -5585.743116 kJ/mol
# Density = 2.523333 g / cm^3
# Si number density = 25.290891 Si / 1000 Ang^3
#
#
#
# Elastic Constant Matrix: (Units=GPa)
#
#
# Indices 1 2 3 4 5 6 
#
# 1 131.7718 45.4656 29.1474 0.0000 32.7870 0.0000
# 2 45.4656 77.9609 -8.1720 0.0000 12.9066 0.0000
# 3 29.1474 -8.1720 100.9165 0.0000 41.7035 0.0000
# 4 0.0000 0.0000 0.0000 29.6357 0.0000 -5.0285
# 5 32.7870 12.9066 41.7035 0.0000 51.5239 0.0000
# 6 0.0000 0.0000 0.0000 -5.0285 0.0000 11.6701
#
#
#
# Elastic Compliance Matrix: (Units=1/GPa)
#
#
# Indices 1 2 3 4 5 6 
#
# 1 0.011102 -0.006060 -0.002111 0.000000 -0.003837 0.000000
# 2 -0.006060 0.017683 0.005138 0.000000 -0.004731 0.000000
# 3 -0.002111 0.005138 0.016396 0.000000 -0.013214 0.000000
# 4 0.000000 0.000000 0.000000 0.036405 0.000000 0.015686
# 5 -0.003837 -0.004731 -0.013214 0.000000 0.033731 0.000000
# 6 0.000000 0.000000 0.000000 0.015686 0.000000 0.092448
#
#
# Mechanical properties :
#
#
# Convention : Reuss Voigt Hill
#
# Bulk Modulus (GPa) = 25.56744 49.28123 37.42433
# Shear Modulus (GPa) = 22.03898 34.84649 28.44273
#
# Velocity S-wave (km/s) = 2.95518 3.71594 3.35718
# Velocity P-wave (km/s) = 4.66642 6.15946 5.46418
#
# Compressibility (1/GPa) = 0.03911225
#
# Stress axis : x y z
#
# Youngs Moduli (GPa) = 90.07563 56.55106 60.99132
#
# Poissons Ratio (x) = 0.34272 0.12878
# Poissons Ratio (y) = 0.54590 -0.31335
# Poissons Ratio (z) = 0.19019 -0.29054
#
# Static dielectric constant tensor:
#      x y z
#    x 2.054760 0.000000 0.074660 
#    y 0.000000 2.111830 0.000000 
#    z 0.074660 0.000000 2.187240 
# 
# From -- ./inp_files/67378.got.cif
#   From: 2010.05.17/outbox.cif.g08.bks.cpg/sg14_34_cif.got.tgz:67378.got - 2010.06.03 17:49:19.
