data_PCOD9244509
_publ_section_title
;
Structure prediction by ZEFSAII (Michael W. Deem and Ramdas Pophale) SiO2 
 PCOD9244509
Probable space group: P 21/C
;
_chemical_formula_sum "Si O2"
_cell_formula_units_Z 32
_cell_length_a 12.429052
_cell_length_b 7.829386
_cell_length_c 19.400817
_cell_angle_alpha 90.000000
_cell_angle_beta 132.150124
_cell_angle_gamma 90.000000
_cell_volume 1399.690116
_symmetry_space_group_name_H-M "P 21/C"
_symmetry_group_IT_number 14
_symmetry_cell_setting 'monoclinic'
loop_
_space_group_symop_operation_xyz
x,y,z
-x,1/2+y,1/2-z
-x,-y,-z
x,1/2-y,1/2+z
loop_
_atom_site_type_symbol
_atom_site_label
_atom_site_fract_x
_atom_site_fract_y
_atom_site_fract_z
Si Si1 0.160577 0.110780 0.638489
Si Si2 0.937528 0.240469 0.934872
Si Si3 0.113421 0.302783 0.385275
Si Si4 0.983010 0.418233 0.194687
Si Si5 0.448828 0.223063 0.211313
Si Si6 0.664780 0.296192 0.041330
Si Si7 0.329454 0.869982 0.101437
Si Si8 0.428224 0.327506 0.052137
O O1 0.070124 0.180826 0.534800
O O2 0.318037 0.190015 0.697506
O O3 0.075491 0.158305 0.671391
O O4 0.151599 0.905416 0.630766
O O5 0.007823 0.141615 0.901556
O O6 0.833630 0.137247 0.940359
O O7 0.401930 0.040207 0.161947
O O8 0.279834 0.281444 0.479613
O O9 0.081744 0.412592 0.304594
O O10 0.062493 0.110429 0.344080
O O11 0.830113 0.320480 0.137646
O O12 0.582541 0.222235 0.320576
O O13 0.477689 0.325061 0.152672
O O14 0.661631 0.166604 0.975723
O O15 0.613672 0.480394 0.988825
O O16 0.553963 0.258776 0.055681
#
# Coordination Sequence:
#
# PCOD9244509 Si02
#       8
#     4   4   4   4   4   4   4   4
#     4  10  20  41  67  89 122 163 206 256 312 366
#     4  10  20  41  67  89 122 163 206 256 312 366
#     4  10  22  39  62  92 126 163 202 252 308 365
#     4  10  22  39  62  92 126 163 202 252 308 365
#     4  12  26  42  64  93 126 164 211 260 311 371
#     4  10  22  43  66  90 125 167 208 253 310 370
#     4  12  26  42  64  93 126 164 211 260 311 371
#     4  10  22  43  66  90 125 167 208 253 310 370
#
# _framework density 22.862202
#
# number of rings (size 3 to 8) (size 9 to 14) (size 15 to 20)
#    0.000    1.500    2.500    2.250    3.500    3.000 
#    0.000    0.000    0.000    0.000    0.000    0.000 
#    0.000    0.000    0.000    0.000    0.000    0.000 
#
# Total GULP energy -179068.820380 kJ/mol
# GULP energy per Si atom -5595.900637 kJ/mol
# Density = 2.281017 g / cm^3
# Si number density = 22.862202 Si / 1000 Ang^3
#
#
#
# Elastic Constant Matrix: (Units=GPa)
#
#
# Indices 1 2 3 4 5 6 
#
# 1 155.6474 12.9720 17.6367 0.0000 -3.7863 0.0000
# 2 12.9720 58.2156 0.4068 0.0000 0.6872 0.0000
# 3 17.6367 0.4068 57.7899 0.0000 -4.8939 0.0000
# 4 0.0000 0.0000 0.0000 37.5538 0.0000 -3.6505
# 5 -3.7863 0.6872 -4.8939 0.0000 31.4935 0.0000
# 6 0.0000 0.0000 0.0000 -3.6505 0.0000 3.8090
#
#
#
# Elastic Compliance Matrix: (Units=1/GPa)
#
#
# Indices 1 2 3 4 5 6 
#
# 1 0.006792 -0.001506 -0.002017 0.000000 0.000536 0.000000
# 2 -0.001506 0.017517 0.000292 0.000000 -0.000518 0.000000
# 3 -0.002017 0.000292 0.018135 0.000000 0.002569 0.000000
# 4 0.000000 0.000000 0.000000 0.029364 0.000000 0.028141
# 5 0.000536 -0.000518 0.002569 0.000000 0.032228 0.000000
# 6 0.000000 0.000000 0.000000 0.028141 0.000000 0.289503
#
#
# Mechanical properties :
#
#
# Convention : Reuss Voigt Hill
#
# Bulk Modulus (GPa) = 27.79027 37.07600 32.43313
# Shear Modulus (GPa) = 12.13611 30.61377 21.37494
#
# Velocity S-wave (km/s) = 2.30649 3.66328 3.06101
# Velocity P-wave (km/s) = 4.39035 5.84339 5.16819
#
# Compressibility (1/GPa) = 0.03598382
#
# Stress axis : x y z
#
# Youngs Moduli (GPa) = 147.23583 57.08712 55.14176
#
# Poissons Ratio (x) = 0.08595 0.11121
# Poissons Ratio (y) = 0.22168 -0.01612
# Poissons Ratio (z) = 0.29694 -0.01669
#
# Static dielectric constant tensor:
#      x y z
#    x 1.813960 0.000000 0.002020 
#    y 0.000000 1.906680 0.000000 
#    z 0.002020 0.000000 1.800720 
# 
# From -- ./inp_files/57572.got.cif
#   From: 2010.05.17/outbox.cif.g08.bks.cpg/sg14_29_cif.got.tgz:57572.got - 2010.06.03 17:49:19.
