data_PCOD9244966
_publ_section_title
;
Structure prediction by ZEFSAII (Michael W. Deem and Ramdas Pophale) SiO2 
 PCOD9244966
Probable space group: P 21/C
;
_chemical_formula_sum "Si O2"
_cell_formula_units_Z 16
_cell_length_a 10.233843
_cell_length_b 5.162367
_cell_length_c 16.229961
_cell_angle_alpha 90.000000
_cell_angle_beta 97.302455
_cell_angle_gamma 90.000000
_cell_volume 850.487970
_symmetry_space_group_name_H-M "P 21/C"
_symmetry_group_IT_number 14
_symmetry_cell_setting 'monoclinic'
loop_
_space_group_symop_operation_xyz
x,y,z
-x,1/2+y,1/2-z
-x,-y,-z
x,1/2-y,1/2+z
loop_
_atom_site_type_symbol
_atom_site_label
_atom_site_fract_x
_atom_site_fract_y
_atom_site_fract_z
Si Si1 0.103849 0.690768 0.965076
Si Si2 0.262398 0.525908 0.608314
Si Si3 0.033931 0.071868 0.204790
Si Si4 0.366774 0.486153 0.040267
O O1 0.049090 0.803111 0.876569
O O2 0.242063 0.535665 0.969564
O O3 0.000000 0.500000 0.000000
O O4 0.146164 0.916086 0.032229
O O5 0.344925 0.283554 0.584056
O O6 0.183249 0.472034 0.685281
O O7 0.349210 0.784553 0.606311
O O8 0.022729 0.292785 0.273608
O O9 0.500000 0.500000 0.000000
#
# Coordination Sequence:
#
# PCOD9244966 Si02
#       4
#     4   4   4   4
#     4  10  21  37  63  86 116 149 200 249 284 339
#     4  10  21  37  59  83 119 144 202 237 286 342
#     4  12  23  34  56  93 121 151 186 243 305 343
#     4  10  21  35  63  88 110 150 200 245 284 335
#
# _framework density 18.812729000000001
#
# number of rings (size 3 to 8) (size 9 to 14) (size 15 to 20)
#    1.500    0.000    2.500    4.500    3.500    0.000 
#    0.000    0.000    0.000    6.000    0.000    0.000 
#    0.000    0.000    0.000    0.000    0.000    0.000 
#
# Total GULP energy -89152.411441 kJ/mol
# GULP energy per Si atom -5572.025715 kJ/mol
# Density = 1.876991 g / cm^3
# Si number density = 18.812729 Si / 1000 Ang^3
#
#
#
# Elastic Constant Matrix: (Units=GPa)
#
#
# Indices 1 2 3 4 5 6 
#
# 1 139.2465 46.0738 23.7915 0.0000 -42.6661 0.0000
# 2 46.0738 145.0650 16.2541 0.0000 -29.7504 0.0000
# 3 23.7915 16.2541 32.7664 0.0000 -22.0288 0.0000
# 4 0.0000 0.0000 0.0000 40.0487 0.0000 -17.5421
# 5 -42.6661 -29.7504 -22.0288 0.0000 32.4239 0.0000
# 6 0.0000 0.0000 0.0000 -17.5421 0.0000 21.3188
#
#
#
# Elastic Compliance Matrix: (Units=1/GPa)
#
#
# Indices 1 2 3 4 5 6 
#
# 1 0.012300 -0.000607 0.003455 0.000000 0.017976 0.000000
# 2 -0.000607 0.008585 0.001732 0.000000 0.008255 0.000000
# 3 0.003455 0.001732 0.057573 0.000000 0.045251 0.000000
# 4 0.000000 0.000000 0.000000 0.039041 0.000000 0.032125
# 5 0.017976 0.008255 0.045251 0.000000 0.092813 0.000000
# 6 0.000000 0.000000 0.000000 0.032125 0.000000 0.073340
#
#
# Mechanical properties :
#
#
# Convention : Reuss Voigt Hill
#
# Bulk Modulus (GPa) = 11.41314 54.36851 32.89083
# Shear Modulus (GPa) = 16.46367 34.15551 25.30959
#
# Velocity S-wave (km/s) = 2.96148 4.26555 3.67187
# Velocity P-wave (km/s) = 4.21588 7.29538 5.95803
#
# Compressibility (1/GPa) = 0.08761832
#
# Stress axis : x y z
#
# Youngs Moduli (GPa) = 81.30132 116.47931 17.36918
#
# Poissons Ratio (x) = 0.07073 -0.06002
# Poissons Ratio (y) = 0.04937 -0.03008
# Poissons Ratio (z) = -0.28092 -0.20173
#
# Static dielectric constant tensor:
#      x y z
#    x 1.649730 0.000000 0.002130 
#    y 0.000000 1.681220 0.000000 
#    z 0.002130 0.000000 1.666690 
# 
# From -- ./inp_files/38351.got.cif
#   From: 2010.05.17/outbox.cif.g08.bks.cpg/sg14_20_cif.got.tgz:38351.got - 2010.06.03 17:49:19.
