data_PCOD9244271
_publ_section_title
;
Structure prediction by ZEFSAII (Michael W. Deem and Ramdas Pophale) SiO2 
 PCOD9244271
Probable space group: P 21/C
;
_chemical_formula_sum "Si O2"
_cell_formula_units_Z 28
_cell_length_a 13.399866
_cell_length_b 8.251394
_cell_length_c 10.155455
_cell_angle_alpha 90.000000
_cell_angle_beta 75.457804
_cell_angle_gamma 90.000000
_cell_volume 1086.890808
_symmetry_space_group_name_H-M "P 21/C"
_symmetry_group_IT_number 14
_symmetry_cell_setting 'monoclinic'
loop_
_space_group_symop_operation_xyz
x,y,z
-x,1/2+y,1/2-z
-x,-y,-z
x,1/2-y,1/2+z
loop_
_atom_site_type_symbol
_atom_site_label
_atom_site_fract_x
_atom_site_fract_y
_atom_site_fract_z
Si Si1 0.269584 0.178889 0.085531
Si Si2 0.019328 0.685855 0.647768
Si Si3 0.362051 0.799177 0.823905
Si Si4 0.712259 0.494951 0.024041
Si Si5 0.108123 0.495297 0.836078
Si Si6 0.434505 0.478691 0.695089
Si Si7 0.832487 0.489390 0.608974
O O1 0.276911 0.372794 0.092591
O O2 0.378838 0.105256 0.091390
O O3 0.227851 0.126531 0.956177
O O4 0.187080 0.094701 0.209205
O O5 0.982918 0.864653 0.621558
O O6 0.917268 0.573868 0.671084
O O7 0.065860 0.655567 0.777295
O O8 0.101000 0.614281 0.518132
O O9 0.330871 0.688371 0.961856
O O10 0.411801 0.669196 0.708441
O O11 0.448643 0.928332 0.827093
O O12 0.257027 0.875473 0.805602
O O13 0.822092 0.481000 0.059810
O O14 0.630104 0.576471 0.153377
#
# Coordination Sequence:
#
# PCOD9244271 Si02
#       7
#     4   4   4   4   4   4   4
#     4  10  20  40  65  86 125 163 209 251 317 361
#     4  10  22  38  61  93 124 169 209 250 310 359
#     4  10  23  40  62  91 127 159 209 255 311 372
#     4   9  21  40  60  92 123 161 206 256 306 371
#     4  10  21  38  62  92 125 166 206 255 306 369
#     4   9  23  41  63  92 121 165 203 257 314 372
#     4  10  22  39  62  90 127 166 206 257 304 369
#
# _framework density 25.761557
#
# number of rings (size 3 to 8) (size 9 to 14) (size 15 to 20)
#    0.857    1.429    1.429    0.000    4.000    2.286 
#    0.000    1.429    0.000    0.000    0.000    0.000 
#    0.000    0.000    0.000    0.000    0.000    0.000 
#
# Total GULP energy -156652.620365 kJ/mol
# GULP energy per Si atom -5594.736442 kJ/mol
# Density = 2.570292 g / cm^3
# Si number density = 25.761557 Si / 1000 Ang^3
#
#
#
# Elastic Constant Matrix: (Units=GPa)
#
#
# Indices 1 2 3 4 5 6 
#
# 1 174.7185 59.0036 38.2756 0.0000 -25.3288 0.0000
# 2 59.0036 109.6918 27.3174 0.0000 -19.3862 0.0000
# 3 38.2756 27.3174 34.9909 0.0000 -9.4432 0.0000
# 4 0.0000 0.0000 0.0000 43.9456 0.0000 -13.9184
# 5 -25.3288 -19.3862 -9.4432 0.0000 30.7276 0.0000
# 6 0.0000 0.0000 0.0000 -13.9184 0.0000 58.0989
#
#
#
# Elastic Compliance Matrix: (Units=1/GPa)
#
#
# Indices 1 2 3 4 5 6 
#
# 1 0.008427 -0.002301 -0.006476 0.000000 0.003505 0.000000
# 2 -0.002301 0.012641 -0.006228 0.000000 0.004165 0.000000
# 3 -0.006476 -0.006228 0.041463 0.000000 0.003475 0.000000
# 4 0.000000 0.000000 0.000000 0.024624 0.000000 0.005899
# 5 0.003505 0.004165 0.003475 0.000000 0.039128 0.000000
# 6 0.000000 0.000000 0.000000 0.005899 0.000000 0.018625
#
#
# Mechanical properties :
#
#
# Convention : Reuss Voigt Hill
#
# Bulk Modulus (GPa) = 30.74938 63.17716 46.96327
# Shear Modulus (GPa) = 26.91645 39.54139 33.22892
#
# Velocity S-wave (km/s) = 3.23589 3.92203 3.59536
# Velocity P-wave (km/s) = 5.09150 6.71467 5.95861
#
# Compressibility (1/GPa) = 0.03252098
#
# Stress axis : x y z
#
# Youngs Moduli (GPa) = 118.66119 79.10654 24.11780
#
# Poissons Ratio (x) = 0.18201 0.15619
# Poissons Ratio (y) = 0.27302 0.15021
# Poissons Ratio (z) = 0.76849 0.49269
#
# Static dielectric constant tensor:
#      x y z
#    x 1.925770 0.000000 -0.002910 
#    y 0.000000 2.052900 0.000000 
#    z -0.002910 0.000000 2.119920 
# 
# From -- ./inp_files/31484.got.cif
#   From: 2010.05.17/outbox.cif.g08.bks.cpg/sg14_16_cif.got.tgz:31484.got - 2010.06.03 17:49:19.
