data_PCOD9244597
_publ_section_title
;
Structure prediction by ZEFSAII (Michael W. Deem and Ramdas Pophale) SiO2 
 PCOD9244597
Probable space group: P 21/C
;
_chemical_formula_sum "Si O2"
_cell_formula_units_Z 28
_cell_length_a 11.944423
_cell_length_b 9.008560
_cell_length_c 16.399253
_cell_angle_alpha 90.000000
_cell_angle_beta 58.636242
_cell_angle_gamma 90.000000
_cell_volume 1506.751225
_symmetry_space_group_name_H-M "P 21/C"
_symmetry_group_IT_number 14
_symmetry_cell_setting 'monoclinic'
loop_
_space_group_symop_operation_xyz
x,y,z
-x,1/2+y,1/2-z
-x,-y,-z
x,1/2-y,1/2+z
loop_
_atom_site_type_symbol
_atom_site_label
_atom_site_fract_x
_atom_site_fract_y
_atom_site_fract_z
Si Si1 0.875738 0.010246 0.608117
Si Si2 0.762696 0.774447 0.547696
Si Si3 0.627237 0.302331 0.145708
Si Si4 0.014602 0.213624 0.674241
Si Si5 0.161410 0.495706 0.230573
Si Si6 0.636538 0.469163 0.990605
Si Si7 0.364300 0.467297 0.302301
O O1 0.764604 0.128319 0.624171
O O2 0.929901 0.073198 0.672282
O O3 0.810092 0.851445 0.614599
O O4 0.000000 0.000000 0.500000
O O5 0.879616 0.754812 0.438008
O O6 0.692564 0.624815 0.600038
O O7 0.669522 0.895497 0.539650
O O8 0.501377 0.394388 0.223785
O O9 0.614064 0.136391 0.181076
O O10 0.630375 0.322114 0.047244
O O11 0.082828 0.150523 0.730007
O O12 0.930769 0.362554 0.717000
O O13 0.250745 0.537098 0.118967
O O14 0.258297 0.465353 0.269237
O O15 0.500000 0.500000 0.000000
#
# Coordination Sequence:
#
# PCOD9244597 Si02
#       7
#     4   4   4   4   4   4   4
#     4   9  18  39  63  88 122 164 204 249 311 376
#     4   9  22  38  62  90 126 161 210 259 310 376
#     4  11  22  40  66  92 127 166 210 259 318 376
#     4  10  22  41  59  93 127 166 211 256 318 374
#     4  11  24  40  65  91 130 164 210 260 316 370
#     4  10  20  42  64  85 126 168 200 255 323 374
#     4  12  24  41  66  97 123 166 217 267 307 376
#
# _framework density 18.583027000000001
#
# number of rings (size 3 to 8) (size 9 to 14) (size 15 to 20)
#    0.000    1.714    2.857    2.571    2.000    1.714 
#    0.000    0.714    0.000    0.000    0.000    0.000 
#    0.000    0.000    0.000    0.000    0.000    0.000 
#
# Total GULP energy -156143.124373 kJ/mol
# GULP energy per Si atom -5576.540156 kJ/mol
# Density = 1.854073 g / cm^3
# Si number density = 18.583027 Si / 1000 Ang^3
#
#
#
# Elastic Constant Matrix: (Units=GPa)
#
#
# Indices 1 2 3 4 5 6 
#
# 1 110.9213 44.2919 45.7736 0.0000 -2.8964 0.0000
# 2 44.2919 114.0163 56.8065 0.0000 -13.1557 0.0000
# 3 45.7736 56.8065 74.1892 0.0000 -0.1491 0.0000
# 4 0.0000 0.0000 0.0000 35.3298 0.0000 -9.3856
# 5 -2.8964 -13.1557 -0.1491 0.0000 30.3094 0.0000
# 6 0.0000 0.0000 0.0000 -9.3856 0.0000 24.1486
#
#
#
# Elastic Compliance Matrix: (Units=1/GPa)
#
#
# Indices 1 2 3 4 5 6 
#
# 1 0.012281 -0.001521 -0.006412 0.000000 0.000482 0.000000
# 2 -0.001521 0.015595 -0.010989 0.000000 0.006569 0.000000
# 3 -0.006412 -0.010989 0.025839 0.000000 -0.005256 0.000000
# 4 0.000000 0.000000 0.000000 0.031564 0.000000 0.012268
# 5 0.000482 0.006569 -0.005256 0.000000 0.035865 0.000000
# 6 0.000000 0.000000 0.000000 0.012268 0.000000 0.046178
#
#
# Mechanical properties :
#
#
# Convention : Reuss Voigt Hill
#
# Bulk Modulus (GPa) = 63.00806 65.87453 64.44130
# Shear Modulus (GPa) = 23.75793 28.10788 25.93291
#
# Velocity S-wave (km/s) = 3.57946 3.89338 3.73971
# Velocity P-wave (km/s) = 7.14585 7.46572 7.30753
#
# Compressibility (1/GPa) = 0.01587098
#
# Stress axis : x y z
#
# Youngs Moduli (GPa) = 81.42519 64.12451 38.70089
#
# Poissons Ratio (x) = 0.09751 0.24815
# Poissons Ratio (y) = 0.12381 0.42530
# Poissons Ratio (z) = 0.52210 0.70469
#
# Static dielectric constant tensor:
#      x y z
#    x 1.694810 0.000000 0.010140 
#    y 0.000000 1.637450 0.000000 
#    z 0.010140 0.000000 1.636080 
# 
# From -- ./inp_files/43293.got.cif
#   From: 2010.05.17/outbox.cif.g08.bks.cpg/sg14_22_cif.got.tgz:43293.got - 2010.06.03 17:49:19.
