data_PCOD9244860
_publ_section_title
;
Structure prediction by ZEFSAII (Michael W. Deem and Ramdas Pophale) SiO2 
 PCOD9244860
Probable space group: P 21/C
;
_chemical_formula_sum "Si O2"
_cell_formula_units_Z 22
_cell_length_a 10.430493
_cell_length_b 10.467635
_cell_length_c 8.192147
_cell_angle_alpha 90.000000
_cell_angle_beta 124.943111
_cell_angle_gamma 90.000000
_cell_volume 733.191263
_symmetry_space_group_name_H-M "P 21/C"
_symmetry_group_IT_number 14
_symmetry_cell_setting 'monoclinic'
loop_
_space_group_symop_operation_xyz
x,y,z
-x,1/2+y,1/2-z
-x,-y,-z
x,1/2-y,1/2+z
loop_
_atom_site_type_symbol
_atom_site_label
_atom_site_fract_x
_atom_site_fract_y
_atom_site_fract_z
Si Si1 0.696206 0.354697 0.386589
Si Si2 0.440649 0.312304 0.958269
Si Si3 0.585817 0.483519 0.795947
Si Si4 0.000000 0.000000 0.000000
Si Si5 0.994366 0.280055 0.756635
Si Si6 0.831642 0.611241 0.805563
O O1 0.595331 0.218720 0.676820
O O2 0.565971 0.439826 0.385919
O O3 0.816447 0.449489 0.384424
O O4 0.811275 0.273025 0.584104
O O5 0.503262 0.371612 0.837113
O O6 0.314957 0.204485 0.832105
O O7 0.367669 0.418695 0.023497
O O8 0.743214 0.484933 0.802603
O O9 0.950958 0.878073 0.843469
O O10 0.066585 0.135829 0.786129
O O11 0.052432 0.341050 0.967235
#
# Coordination Sequence:
#
# PCOD9244860 Si02
#       6
#     4   4   4   2   4   4
#     4   8  16  32  55  81 107 148 198 236 270 353
#     4   9  18  35  58  84 114 156 204 229 287 362
#     4   9  18  35  58  84 114 156 204 229 287 362
#     4   8  16  36  58  84 108 158 200 244 274 372
#     4  10  21  32  60  86 120 146 205 238 307 328
#     4  12  20  36  58  94 118 156 196 258 284 358
#
# _framework density 30.005811000000001
#
# number of rings (size 3 to 8) (size 9 to 14) (size 15 to 20)
#    2.182    0.364    1.818    2.182    0.000    1.455 
#    0.000    0.909    0.000    1.091    0.000    0.000 
#    0.000    0.000    0.000    0.000    0.000    0.000 
#
# Total GULP energy -122573.920676 kJ/mol
# GULP energy per Si atom -5571.541849 kJ/mol
# Density = 2.993752 g / cm^3
# Si number density = 30.005811 Si / 1000 Ang^3
#
#
#
# Elastic Constant Matrix: (Units=GPa)
#
#
# Indices 1 2 3 4 5 6 
#
# 1 127.0404 20.2841 41.7335 0.0000 38.7338 0.0000
# 2 20.2841 76.8393 36.4883 0.0000 1.6838 0.0000
# 3 41.7335 36.4883 200.7619 0.0000 47.7394 0.0000
# 4 0.0000 0.0000 0.0000 52.0325 0.0000 1.5047
# 5 38.7338 1.6838 47.7394 0.0000 52.8529 0.0000
# 6 0.0000 0.0000 0.0000 1.5047 0.0000 65.3199
#
#
#
# Elastic Compliance Matrix: (Units=1/GPa)
#
#
# Indices 1 2 3 4 5 6 
#
# 1 0.010649 -0.002708 0.000145 0.000000 -0.007849 0.000000
# 2 -0.002708 0.015175 -0.003250 0.000000 0.004437 0.000000
# 3 0.000145 -0.003250 0.007058 0.000000 -0.006378 0.000000
# 4 0.000000 0.000000 0.000000 0.019232 0.000000 -0.000443
# 5 -0.007849 0.004437 -0.006378 0.000000 0.030292 0.000000
# 6 0.000000 0.000000 0.000000 -0.000443 0.000000 0.015319
#
#
# Mechanical properties :
#
#
# Convention : Reuss Voigt Hill
#
# Bulk Modulus (GPa) = 47.04509 66.85039 56.94774
# Shear Modulus (GPa) = 42.94113 54.45010 48.69561
#
# Velocity S-wave (km/s) = 3.78708 4.26449 4.03286
# Velocity P-wave (km/s) = 5.90215 6.82462 6.38008
#
# Compressibility (1/GPa) = 0.02125620
#
# Stress axis : x y z
#
# Youngs Moduli (GPa) = 93.90147 65.89689 141.67790
#
# Poissons Ratio (x) = 0.17845 -0.02053
# Poissons Ratio (y) = 0.25429 0.46048
# Poissons Ratio (z) = -0.01360 0.21418
#
# Static dielectric constant tensor:
#      x y z
#    x 2.403350 0.000000 0.012220 
#    y 0.000000 2.544350 0.000000 
#    z 0.012220 0.000000 1.840120 
# 
# From -- ./inp_files/12967.got.cif
#   From: 2010.05.17/outbox.cif.g08.bks.cpg/sg14_7_cif.got.tgz:12967.got - 2010.06.03 17:49:19.
