data_PCOD9244520
_publ_section_title
;
Structure prediction by ZEFSAII (Michael W. Deem and Ramdas Pophale) SiO2 
 PCOD9244520
Probable space group: P 21/C
;
_chemical_formula_sum "Si O2"
_cell_formula_units_Z 28
_cell_length_a 9.883348
_cell_length_b 25.174416
_cell_length_c 5.831519
_cell_angle_alpha 90.000000
_cell_angle_beta 55.266460
_cell_angle_gamma 90.000000
_cell_volume 1192.386235
_symmetry_space_group_name_H-M "P 21/C"
_symmetry_group_IT_number 14
_symmetry_cell_setting 'monoclinic'
loop_
_space_group_symop_operation_xyz
x,y,z
-x,1/2+y,1/2-z
-x,-y,-z
x,1/2-y,1/2+z
loop_
_atom_site_type_symbol
_atom_site_label
_atom_site_fract_x
_atom_site_fract_y
_atom_site_fract_z
Si Si1 0.315261 0.483563 0.730120
Si Si2 0.198779 0.587025 0.631075
Si Si3 0.100011 0.387740 0.826030
Si Si4 0.867477 0.258574 0.775153
Si Si5 0.643815 0.175827 0.762993
Si Si6 0.132526 0.540041 0.266588
Si Si7 0.721499 0.780180 0.928618
O O1 0.500000 0.500000 0.500000
O O2 0.197933 0.525597 0.710769
O O3 0.256753 0.424617 0.728865
O O4 0.266439 0.500202 0.031736
O O5 0.329983 0.617947 0.657363
O O6 0.232011 0.579649 0.334891
O O7 0.021598 0.614863 0.836674
O O8 0.980012 0.420743 0.776301
O O9 0.153752 0.330416 0.687788
O O10 0.722375 0.215117 0.878976
O O11 0.768862 0.312020 0.932945
O O12 0.948791 0.241468 0.942212
O O13 0.460886 0.193615 0.889100
O O14 0.000000 0.500000 0.500000
O O15 0.733650 0.752682 0.659730
#
# Coordination Sequence:
#
# PCOD9244520 Si02
#       7
#     4   4   4   4   4   4   4
#     4  11  23  43  70 109 143 182 246 306 372 451
#     4  11  23  43  70 106 138 192 236 297 380 448
#     4  11  25  45  71 100 149 192 243 308 375 453
#     4   8  16  33  57  84 123 171 216 282 346 401
#     4  10  20  41  67  96 134 180 241 297 368 427
#     4  11  21  45  74  99 150 197 235 298 375 459
#     4  12  26  49  71 103 145 195 249 317 375 437
#
# _framework density 23.482323000000001
#
# number of rings (size 3 to 8) (size 9 to 14) (size 15 to 20)
#    0.857    0.571    4.286    1.714    2.000    2.857 
#    5.143    0.000    0.000    0.000    0.000    0.000 
#    0.000    0.000    0.000    0.000    0.000    0.000 
#
# Total GULP energy -156024.544464 kJ/mol
# GULP energy per Si atom -5572.305159 kJ/mol
# Density = 2.342888 g / cm^3
# Si number density = 23.482323 Si / 1000 Ang^3
#
#
#
# Elastic Constant Matrix: (Units=GPa)
#
#
# Indices 1 2 3 4 5 6 
#
# 1 80.9605 22.8366 27.2560 0.0000 -7.6218 0.0000
# 2 22.8366 121.6969 32.7861 0.0000 -0.8395 0.0000
# 3 27.2560 32.7861 100.6905 0.0000 -6.8172 0.0000
# 4 0.0000 0.0000 0.0000 31.7603 0.0000 -1.1853
# 5 -7.6218 -0.8395 -6.8172 0.0000 41.5823 0.0000
# 6 0.0000 0.0000 0.0000 -1.1853 0.0000 49.1176
#
#
#
# Elastic Compliance Matrix: (Units=1/GPa)
#
#
# Indices 1 2 3 4 5 6 
#
# 1 0.014091 -0.001797 -0.003091 0.000000 0.002040 0.000000
# 2 -0.001797 0.009240 -0.002560 0.000000 -0.000563 0.000000
# 3 -0.003091 -0.002560 0.011690 0.000000 0.001298 0.000000
# 4 0.000000 0.000000 0.000000 0.031514 0.000000 0.000760
# 5 0.002040 -0.000563 0.001298 0.000000 0.024624 0.000000
# 6 0.000000 0.000000 0.000000 0.000760 0.000000 0.020378
#
#
# Mechanical properties :
#
#
# Convention : Reuss Voigt Hill
#
# Bulk Modulus (GPa) = 49.69236 52.12282 50.90759
# Shear Modulus (GPa) = 37.55364 39.18997 38.37180
#
# Velocity S-wave (km/s) = 4.00338 4.08967 4.04675
# Velocity P-wave (km/s) = 6.52510 6.67423 6.60008
#
# Compressibility (1/GPa) = 0.02012382
#
# Stress axis : x y z
#
# Youngs Moduli (GPa) = 70.96543 108.22145 85.54534
#
# Poissons Ratio (x) = 0.19452 0.26442
# Poissons Ratio (y) = 0.12756 0.21902
# Poissons Ratio (z) = 0.21936 0.27708
#
# Static dielectric constant tensor:
#      x y z
#    x 1.952390 0.000000 0.115170 
#    y 0.000000 1.859920 0.000000 
#    z 0.115170 0.000000 2.112680 
# 
# From -- ./inp_files/2192.got.cif
#   From: 2010.05.17/outbox.cif.g08.bks.cpg/sg14_2_cif.got.tgz:2192.got - 2010.06.03 17:49:19.
