data_PCOD9244297
_publ_section_title
;
Structure prediction by ZEFSAII (Michael W. Deem and Ramdas Pophale) SiO2 
 PCOD9244297
Probable space group: P 21/C
;
_chemical_formula_sum "Si O2"
_cell_formula_units_Z 30
_cell_length_a 20.355831
_cell_length_b 7.780819
_cell_length_c 12.976420
_cell_angle_alpha 90.000000
_cell_angle_beta 148.775393
_cell_angle_gamma 90.000000
_cell_volume 1065.440681
_symmetry_space_group_name_H-M "P 21/C"
_symmetry_group_IT_number 14
_symmetry_cell_setting 'monoclinic'
loop_
_space_group_symop_operation_xyz
x,y,z
-x,1/2+y,1/2-z
-x,-y,-z
x,1/2-y,1/2+z
loop_
_atom_site_type_symbol
_atom_site_label
_atom_site_fract_x
_atom_site_fract_y
_atom_site_fract_z
Si Si1 0.728113 0.910459 0.126052
Si Si2 0.048975 0.505176 0.831902
Si Si3 0.534474 0.245558 0.182777
Si Si4 0.500000 0.000000 0.000000
Si Si5 0.385044 0.560790 0.014999
Si Si6 0.162047 0.741182 0.635826
Si Si7 0.300442 0.318696 0.089629
Si Si8 0.041788 0.217106 0.968700
O O1 0.822681 0.773692 0.305603
O O2 0.781347 0.091785 0.229302
O O3 0.587155 0.892427 0.988488
O O4 0.718077 0.865246 0.991950
O O5 0.963290 0.567623 0.622986
O O6 0.990255 0.391935 0.844141
O O7 0.100872 0.681029 0.951872
O O8 0.168546 0.389371 0.956981
O O9 0.491989 0.438461 0.110748
O O10 0.575898 0.216954 0.356133
O O11 0.605766 0.146255 0.188666
O O12 0.418418 0.156072 0.824107
O O13 0.330322 0.434704 0.029909
O O14 0.275833 0.607454 0.790090
O O15 0.052092 0.677199 0.564614
#
# Coordination Sequence:
#
# PCOD9244297 Si02
#       8
#     4   4   4   2   4   4   4   4
#     4  10  22  40  65  92 134 182 230 276 352 416
#     4  11  24  41  65  96 135 184 227 297 353 416
#     4  10  21  39  67  99 129 183 217 289 341 408
#     4  10  20  40  66 102 142 164 230 286 342 420
#     4  10  21  42  68  95 135 176 230 274 355 417
#     4  11  23  44  64  97 141 182 231 296 353 423
#     4  10  22  40  66  95 130 181 225 285 347 411
#     4  11  25  41  65  96 136 183 231 292 348 429
#
# _framework density 28.157364000000001
#
# number of rings (size 3 to 8) (size 9 to 14) (size 15 to 20)
#    0.000    1.600    1.333    4.000    3.733    4.800 
#    2.400    0.000    0.000   12.800    0.000    0.000 
#    0.000    0.000    0.000    0.000    0.000    0.000 
#
# Total GULP energy -167750.696615 kJ/mol
# GULP energy per Si atom -5591.689887 kJ/mol
# Density = 2.809328 g / cm^3
# Si number density = 28.157364 Si / 1000 Ang^3
#
#
#
# Elastic Constant Matrix: (Units=GPa)
#
#
# Indices 1 2 3 4 5 6 
#
# 1 75.5852 16.6355 30.3743 0.0000 -10.8179 0.0000
# 2 16.6355 105.2667 51.0368 0.0000 -8.9736 0.0000
# 3 30.3743 51.0368 161.0753 0.0000 -29.7305 0.0000
# 4 0.0000 0.0000 0.0000 70.9401 0.0000 -13.3004
# 5 -10.8179 -8.9736 -29.7305 0.0000 45.2187 0.0000
# 6 0.0000 0.0000 0.0000 -13.3004 0.0000 45.4958
#
#
#
# Elastic Compliance Matrix: (Units=1/GPa)
#
#
# Indices 1 2 3 4 5 6 
#
# 1 0.014575 -0.001157 -0.002027 0.000000 0.001925 0.000000
# 2 -0.001157 0.011316 -0.003419 0.000000 -0.000279 0.000000
# 3 -0.002027 -0.003419 0.008489 0.000000 0.004418 0.000000
# 4 0.000000 0.000000 0.000000 0.014914 0.000000 0.004360
# 5 0.001925 -0.000279 0.004418 0.000000 0.025425 0.000000
# 6 0.000000 0.000000 0.000000 0.004360 0.000000 0.023255
#
#
# Mechanical properties :
#
#
# Convention : Reuss Voigt Hill
#
# Bulk Modulus (GPa) = 47.22385 59.78002 53.50194
# Shear Modulus (GPa) = 42.28822 48.58964 45.43893
#
# Velocity S-wave (km/s) = 3.87958 4.15860 4.02151
# Velocity P-wave (km/s) = 6.07256 6.65848 6.37226
#
# Compressibility (1/GPa) = 0.02117574
#
# Stress axis : x y z
#
# Youngs Moduli (GPa) = 68.61282 88.36804 117.79636
#
# Poissons Ratio (x) = 0.10221 0.23873
# Poissons Ratio (y) = 0.07936 0.40274
# Poissons Ratio (z) = 0.13905 0.30213
#
# Static dielectric constant tensor:
#      x y z
#    x 1.257620 0.000000 0.142930 
#    y 0.000000 2.116360 0.000000 
#    z 0.142930 0.000000 2.153460 
# 
# From -- ./inp_files/51290.got.cif
#   From: 2010.05.17/outbox.cif.g08.bks.cpg/sg14_26_cif.got.tgz:51290.got - 2010.06.03 17:49:19.
