data_PCOD9244403
_publ_section_title
;
Structure prediction by ZEFSAII (Michael W. Deem and Ramdas Pophale) SiO2 
 PCOD9244403
Probable space group: P 21/C
;
_chemical_formula_sum "Si O2"
_cell_formula_units_Z 20
_cell_length_a 16.426088
_cell_length_b 11.268314
_cell_length_c 8.484251
_cell_angle_alpha 90.000000
_cell_angle_beta 151.990424
_cell_angle_gamma 90.000000
_cell_volume 737.483604
_symmetry_space_group_name_H-M "P 21/C"
_symmetry_group_IT_number 14
_symmetry_cell_setting 'monoclinic'
loop_
_space_group_symop_operation_xyz
x,y,z
-x,1/2+y,1/2-z
-x,-y,-z
x,1/2-y,1/2+z
loop_
_atom_site_type_symbol
_atom_site_label
_atom_site_fract_x
_atom_site_fract_y
_atom_site_fract_z
Si Si1 0.105458 0.964217 0.527476
Si Si2 0.403573 0.105905 0.926123
Si Si3 0.882081 0.241717 0.247508
Si Si4 0.803041 0.431668 0.339489
Si Si5 0.282926 0.313154 0.890513
O O1 0.115640 0.825842 0.578273
O O2 0.286442 0.026987 0.840497
O O3 0.000000 0.000000 0.500000
O O4 0.998139 0.018055 0.199742
O O5 0.430079 0.222505 0.080331
O O6 0.306760 0.169871 0.616270
O O7 0.500000 0.000000 0.000000
O O8 0.792915 0.364289 0.153391
O O9 0.082783 0.263765 0.536271
O O10 0.780118 0.156541 0.950222
O O11 0.700877 0.556188 0.160959
#
# Coordination Sequence:
#
# PCOD9244403 Si02
#       5
#     4   4   4   4   4
#     4  10  20  40  72 109 144 185 242 308 375 438
#     4  12  28  51  75 103 154 210 252 301 377 454
#     4  11  21  38  70 113 150 177 237 312 389 439
#     4  11  22  36  71 118 144 186 238 315 385 438
#     4  12  24  48  75 110 153 198 250 318 375 450
#
# _framework density 27.119247000000001
#
# number of rings (size 3 to 8) (size 9 to 14) (size 15 to 20)
#    0.000    0.800    6.000    3.000    5.600    0.000 
#    3.600    1.000    0.000    0.000    0.000    0.000 
#    0.000    0.000    0.000    0.000    0.000    0.000 
#
# Total GULP energy -111529.963902 kJ/mol
# GULP energy per Si atom -5576.498195 kJ/mol
# Density = 2.705752 g / cm^3
# Si number density = 27.119247 Si / 1000 Ang^3
#
#
#
# Elastic Constant Matrix: (Units=GPa)
#
#
# Indices 1 2 3 4 5 6 
#
# 1 115.5105 79.6168 10.5242 0.0000 6.9431 0.0000
# 2 79.6168 176.7859 18.0938 0.0000 11.4628 0.0000
# 3 10.5242 18.0938 41.8094 0.0000 -16.6586 0.0000
# 4 0.0000 0.0000 0.0000 47.3414 0.0000 -19.7897
# 5 6.9431 11.4628 -16.6586 0.0000 31.5867 0.0000
# 6 0.0000 0.0000 0.0000 -19.7897 0.0000 75.8336
#
#
#
# Elastic Compliance Matrix: (Units=1/GPa)
#
#
# Indices 1 2 3 4 5 6 
#
# 1 0.012633 -0.005439 -0.001451 0.000000 -0.001568 0.000000
# 2 -0.005439 0.008794 -0.004092 0.000000 -0.004154 0.000000
# 3 -0.001451 -0.004092 0.033895 0.000000 0.019680 0.000000
# 4 0.000000 0.000000 0.000000 0.023710 0.000000 0.006187
# 5 -0.001568 -0.004154 0.019680 0.000000 0.043890 0.000000
# 6 0.000000 0.000000 0.000000 0.006187 0.000000 0.014801
#
#
# Mechanical properties :
#
#
# Convention : Reuss Voigt Hill
#
# Bulk Modulus (GPa) = 29.97707 61.17507 45.57607
# Shear Modulus (GPa) = 29.27295 46.01040 37.64167
#
# Velocity S-wave (km/s) = 3.28901 4.12344 3.72964
# Velocity P-wave (km/s) = 5.04988 6.72883 5.94888
#
# Compressibility (1/GPa) = 0.03335883
#
# Stress axis : x y z
#
# Youngs Moduli (GPa) = 79.16061 113.71156 29.50254
#
# Poissons Ratio (x) = 0.61848 0.04280
# Poissons Ratio (y) = 0.43055 0.12072
# Poissons Ratio (z) = 0.11485 0.46529
#
# Static dielectric constant tensor:
#      x y z
#    x 2.088250 0.000000 0.032260 
#    y 0.000000 2.331980 0.000000 
#    z 0.032260 0.000000 2.192000 
# 
# From -- ./inp_files/17873.got.cif
#   From: 2010.05.17/outbox.cif.g08.bks.cpg/sg14_9_cif.got.tgz:17873.got - 2010.06.03 17:49:19.
