data_PCOD9244692
_publ_section_title
;
Structure prediction by ZEFSAII (Michael W. Deem and Ramdas Pophale) SiO2 
 PCOD9244692
Probable space group: P 21/C
;
_chemical_formula_sum "Si O2"
_cell_formula_units_Z 22
_cell_length_a 12.225412
_cell_length_b 5.305197
_cell_length_c 14.106198
_cell_angle_alpha 90.000000
_cell_angle_beta 72.755965
_cell_angle_gamma 90.000000
_cell_volume 873.778738
_symmetry_space_group_name_H-M "P 21/C"
_symmetry_group_IT_number 14
_symmetry_cell_setting 'monoclinic'
loop_
_space_group_symop_operation_xyz
x,y,z
-x,1/2+y,1/2-z
-x,-y,-z
x,1/2-y,1/2+z
loop_
_atom_site_type_symbol
_atom_site_label
_atom_site_fract_x
_atom_site_fract_y
_atom_site_fract_z
Si Si1 0.405984 0.557102 0.161850
Si Si2 0.073275 0.801515 0.739493
Si Si3 0.760777 0.553224 0.940004
Si Si4 0.500000 0.500000 0.500000
Si Si5 0.989899 0.751938 0.943885
Si Si6 0.365356 0.753257 0.371569
O O1 0.342398 0.363090 0.104015
O O2 0.340603 0.640968 0.273900
O O3 0.519029 0.418958 0.169663
O O4 0.437773 0.782196 0.082844
O O5 0.175641 0.841771 0.641348
O O6 0.989727 0.573251 0.731756
O O7 0.092553 0.731775 0.842606
O O8 0.862816 0.747801 0.930989
O O9 0.720308 0.435807 0.049062
O O10 0.403297 0.545357 0.438737
O O11 0.000000 0.500000 0.000000
O O12 0.000000 0.000000 0.000000
#
# Coordination Sequence:
#
# PCOD9244692 Si02
#       6
#     4   4   4   2   4   4
#     4  11  23  46  69 109 151 204 259 317 392 459
#     4  10  22  47  69 100 145 186 240 319 383 447
#     4  10  24  44  71 106 147 199 260 312 403 470
#     4  10  20  42  70  92 152 194 248 326 366 460
#     4  11  24  47  72 108 147 190 254 325 387 459
#     4  11  23  46  70 110 153 202 260 316 390 464
#
# _framework density 25.177996
#
# number of rings (size 3 to 8) (size 9 to 14) (size 15 to 20)
#    0.000    1.455    1.818    4.364    2.545    0.000 
#   42.545    0.000    0.000    0.000    0.000    0.000 
#    0.000    0.000    0.000    0.000    0.000    0.000 
#
# Total GULP energy -122521.283843 kJ/mol
# GULP energy per Si atom -5569.149266 kJ/mol
# Density = 2.512069 g / cm^3
# Si number density = 25.177996 Si / 1000 Ang^3
#
#
#
# Elastic Constant Matrix: (Units=GPa)
#
#
# Indices 1 2 3 4 5 6 
#
# 1 81.2706 3.5052 35.6520 0.0000 -2.6412 0.0000
# 2 3.5052 75.6929 27.8890 0.0000 12.5237 0.0000
# 3 35.6520 27.8890 178.6737 0.0000 9.6636 0.0000
# 4 0.0000 0.0000 0.0000 38.7167 0.0000 10.3955
# 5 -2.6412 12.5237 9.6636 0.0000 47.3882 0.0000
# 6 0.0000 0.0000 0.0000 10.3955 0.0000 36.2267
#
#
#
# Elastic Compliance Matrix: (Units=1/GPa)
#
#
# Indices 1 2 3 4 5 6 
#
# 1 0.013569 0.000195 -0.002807 0.000000 0.001277 0.000000
# 2 0.000195 0.014548 -0.002126 0.000000 -0.003400 0.000000
# 3 -0.002807 -0.002126 0.006539 0.000000 -0.000928 0.000000
# 4 0.000000 0.000000 0.000000 0.027985 0.000000 -0.008030
# 5 0.001277 -0.003400 -0.000928 0.000000 0.022261 0.000000
# 6 0.000000 0.000000 0.000000 -0.008030 0.000000 0.029908
#
#
# Mechanical properties :
#
#
# Convention : Reuss Voigt Hill
#
# Bulk Modulus (GPa) = 39.71441 52.19217 45.95329
# Shear Modulus (GPa) = 37.68461 42.37241 40.02851
#
# Velocity S-wave (km/s) = 3.87295 4.10678 3.99158
# Velocity P-wave (km/s) = 5.98393 6.57737 6.28766
#
# Compressibility (1/GPa) = 0.02517978
#
# Stress axis : x y z
#
# Youngs Moduli (GPa) = 73.69710 68.73746 152.93130
#
# Poissons Ratio (x) = -0.01337 0.42927
# Poissons Ratio (y) = -0.01434 0.32509
# Poissons Ratio (z) = 0.20687 0.14612
#
# Static dielectric constant tensor:
#      x y z
#    x 1.743580 0.000000 0.378510 
#    y 0.000000 2.647800 0.000000 
#    z 0.378510 0.000000 1.683150 
# 
# From -- ./inp_files/42575.got.cif
#   From: 2010.05.17/outbox.cif.g08.bks.cpg/sg14_22_cif.got.tgz:42575.got - 2010.06.03 17:49:19.
