data_PCOD9244180
_publ_section_title
;
Structure prediction by ZEFSAII (Michael W. Deem and Ramdas Pophale) SiO2 
 PCOD9244180
Probable space group: P 21/C
;
_chemical_formula_sum "Si O2"
_cell_formula_units_Z 20
_cell_length_a 7.341800
_cell_length_b 13.316645
_cell_length_c 10.971905
_cell_angle_alpha 90.000000
_cell_angle_beta 131.588872
_cell_angle_gamma 90.000000
_cell_volume 802.303406
_symmetry_space_group_name_H-M "P 21/C"
_symmetry_group_IT_number 14
_symmetry_cell_setting 'monoclinic'
loop_
_space_group_symop_operation_xyz
x,y,z
-x,1/2+y,1/2-z
-x,-y,-z
x,1/2-y,1/2+z
loop_
_atom_site_type_symbol
_atom_site_label
_atom_site_fract_x
_atom_site_fract_y
_atom_site_fract_z
Si Si1 0.740697 0.941569 0.648821
Si Si2 0.426755 0.828998 0.143583
Si Si3 0.852405 0.528837 0.814492
Si Si4 0.665493 0.947352 0.896120
Si Si5 0.435794 0.248047 0.041811
O O1 0.713873 0.920283 0.778555
O O2 0.738661 0.840349 0.570143
O O3 0.500000 0.000000 0.500000
O O4 0.967631 0.010747 0.716391
O O5 0.412506 0.776007 0.268271
O O6 0.710757 0.866593 0.265499
O O7 0.273161 0.933380 0.068152
O O8 0.399033 0.767862 0.006320
O O9 0.623673 0.454227 0.702038
O O10 0.000000 0.500000 0.000000
O O11 0.725576 0.850696 0.002392
#
# Coordination Sequence:
#
# PCOD9244180 Si02
#       5
#     4   4   4   4   4
#     4  12  20  39  67  88 127 173 211 252 327 383
#     4  10  23  39  68  91 135 164 215 270 315 386
#     4  10  20  40  61  91 128 168 201 267 319 372
#     4  10  23  41  63  90 132 165 213 268 316 374
#     4  12  21  40  68  96 120 179 214 260 323 386
#
# _framework density 24.928225999999999
#
# number of rings (size 3 to 8) (size 9 to 14) (size 15 to 20)
#    1.200    0.000    8.000    0.600    0.000    0.000 
#    3.600    3.000    4.400    0.000    0.000    0.000 
#    0.000    0.000    0.000    0.000    0.000    0.000 
#
# Total GULP energy -111698.246639 kJ/mol
# GULP energy per Si atom -5584.912332 kJ/mol
# Density = 2.487149 g / cm^3
# Si number density = 24.928226 Si / 1000 Ang^3
#
#
#
# Elastic Constant Matrix: (Units=GPa)
#
#
# Indices 1 2 3 4 5 6 
#
# 1 77.0842 18.7252 23.0458 0.0000 -9.3994 0.0000
# 2 18.7252 133.6701 47.2998 0.0000 -1.6988 0.0000
# 3 23.0458 47.2998 145.1989 0.0000 -39.4558 0.0000
# 4 0.0000 0.0000 0.0000 55.6446 0.0000 -14.1889
# 5 -9.3994 -1.6988 -39.4558 0.0000 37.5815 0.0000
# 6 0.0000 0.0000 0.0000 -14.1889 0.0000 24.1388
#
#
#
# Elastic Compliance Matrix: (Units=1/GPa)
#
#
# Indices 1 2 3 4 5 6 
#
# 1 0.013951 -0.001537 -0.001097 0.000000 0.002268 0.000000
# 2 -0.001537 0.008970 -0.003739 0.000000 -0.003905 0.000000
# 3 -0.001097 -0.003739 0.011415 0.000000 0.011541 0.000000
# 4 0.000000 0.000000 0.000000 0.021140 0.000000 0.012426
# 5 0.002268 -0.003905 0.011541 0.000000 0.039116 0.000000
# 6 0.000000 0.000000 0.000000 0.012426 0.000000 0.048731
#
#
# Mechanical properties :
#
#
# Convention : Reuss Voigt Hill
#
# Bulk Modulus (GPa) = 46.31960 59.34389 52.83174
# Shear Modulus (GPa) = 30.62469 41.26515 35.94492
#
# Velocity S-wave (km/s) = 3.50882 4.07302 3.80140
# Velocity P-wave (km/s) = 5.91923 6.78063 6.36452
#
# Compressibility (1/GPa) = 0.02158913
#
# Stress axis : x y z
#
# Youngs Moduli (GPa) = 71.68044 111.48403 87.60038
#
# Poissons Ratio (x) = 0.17137 0.09612
# Poissons Ratio (y) = 0.11019 0.32754
# Poissons Ratio (z) = 0.07865 0.41684
#
# Static dielectric constant tensor:
#      x y z
#    x 1.987310 0.000000 0.004640 
#    y 0.000000 1.966200 0.000000 
#    z 0.004640 0.000000 1.964760 
# 
# From -- ./inp_files/8361.got.cif
#   From: 2010.05.17/outbox.cif.g08.bks.cpg/sg14_5_cif.got.tgz:8361.got - 2010.06.03 17:49:19.
