data_PCOD9244213
_publ_section_title
;
Structure prediction by ZEFSAII (Michael W. Deem and Ramdas Pophale) SiO2 
 PCOD9244213
Probable space group: P 21/C
;
_chemical_formula_sum "Si O2"
_cell_formula_units_Z 28
_cell_length_a 9.573884
_cell_length_b 10.305844
_cell_length_c 13.869417
_cell_angle_alpha 90.000000
_cell_angle_beta 68.667321
_cell_angle_gamma 90.000000
_cell_volume 1274.692061
_symmetry_space_group_name_H-M "P 21/C"
_symmetry_group_IT_number 14
_symmetry_cell_setting 'monoclinic'
loop_
_space_group_symop_operation_xyz
x,y,z
-x,1/2+y,1/2-z
-x,-y,-z
x,1/2-y,1/2+z
loop_
_atom_site_type_symbol
_atom_site_label
_atom_site_fract_x
_atom_site_fract_y
_atom_site_fract_z
Si Si1 0.756056 0.309194 0.924659
Si Si2 0.575990 0.796505 0.753837
Si Si3 0.307536 0.069190 0.451121
Si Si4 0.238165 0.809418 0.801132
Si Si5 0.011775 0.275533 0.008481
Si Si6 0.740838 0.921609 0.094356
Si Si7 0.452843 0.181247 0.017733
O O1 0.778678 0.337923 0.806998
O O2 0.687880 0.432450 0.998299
O O3 0.910732 0.276298 0.938377
O O4 0.631107 0.197813 0.964637
O O5 0.611563 0.915624 0.672393
O O6 0.404269 0.755096 0.778687
O O7 0.681134 0.679882 0.690395
O O8 0.595385 0.832811 0.859773
O O9 0.383972 0.181391 0.496559
O O10 0.134350 0.110950 0.481247
O O11 0.105980 0.719739 0.874613
O O12 0.232978 0.940895 0.864735
O O13 0.110312 0.144417 0.986085
O O14 0.617067 0.919543 0.040479
#
# Coordination Sequence:
#
# PCOD9244213 Si02
#       7
#     4   4   4   4   4   4   4
#     4  12  22  40  67  94 123 165 214 260 316 371
#     4  10  21  38  63  95 121 161 208 265 308 374
#     4  10  23  41  64  96 123 168 208 266 308 377
#     4  12  23  39  68  91 124 174 208 256 325 372
#     4  10  24  43  58  93 136 156 213 263 308 379
#     4  10  24  43  62  93 127 165 210 266 310 384
#     4  10  20  40  63  90 127 158 207 262 315 372
#
# _framework density 21.966090999999999
#
# number of rings (size 3 to 8) (size 9 to 14) (size 15 to 20)
#    0.000    1.714    4.286    2.143    2.000    6.286 
#    0.000    0.000    0.000    0.000    0.000    0.000 
#    0.000    0.000    0.000    0.000    0.000    0.000 
#
# Total GULP energy -156665.570368 kJ/mol
# GULP energy per Si atom -5595.198942 kJ/mol
# Density = 2.191610 g / cm^3
# Si number density = 21.966091 Si / 1000 Ang^3
#
#
#
# Elastic Constant Matrix: (Units=GPa)
#
#
# Indices 1 2 3 4 5 6 
#
# 1 122.0489 19.5890 41.1601 0.0000 3.2379 0.0000
# 2 19.5890 53.4868 15.7427 0.0000 5.5362 0.0000
# 3 41.1601 15.7427 160.4412 0.0000 24.3713 0.0000
# 4 0.0000 0.0000 0.0000 31.5069 0.0000 1.5945
# 5 3.2379 5.5362 24.3713 0.0000 51.7439 0.0000
# 6 0.0000 0.0000 0.0000 1.5945 0.0000 15.6550
#
#
#
# Elastic Compliance Matrix: (Units=1/GPa)
#
#
# Indices 1 2 3 4 5 6 
#
# 1 0.009389 -0.002858 -0.002246 0.000000 0.000776 0.000000
# 2 -0.002858 0.020199 -0.001021 0.000000 -0.001502 0.000000
# 3 -0.002246 -0.001021 0.007401 0.000000 -0.003236 0.000000
# 4 0.000000 0.000000 0.000000 0.031904 0.000000 -0.003250
# 5 0.000776 -0.001502 -0.003236 0.000000 0.020962 0.000000
# 6 0.000000 0.000000 0.000000 -0.003250 0.000000 0.064208
#
#
# Mechanical properties :
#
#
# Convention : Reuss Voigt Hill
#
# Bulk Modulus (GPa) = 40.42194 54.32897 47.37545
# Shear Modulus (GPa) = 28.64374 37.08017 32.86196
#
# Velocity S-wave (km/s) = 3.61501 4.11306 3.87205
# Velocity P-wave (km/s) = 5.98885 6.88064 6.45017
#
# Compressibility (1/GPa) = 0.02473904
#
# Stress axis : x y z
#
# Youngs Moduli (GPa) = 106.50712 49.50816 135.12128
#
# Poissons Ratio (x) = 0.14149 0.30351
# Poissons Ratio (y) = 0.30438 0.13791
# Poissons Ratio (z) = 0.23923 0.05053
#
# Static dielectric constant tensor:
#      x y z
#    x 1.803800 0.000000 -0.002470 
#    y 0.000000 1.835860 0.000000 
#    z -0.002470 0.000000 1.778520 
# 
# From -- ./inp_files/40014.got.cif
#   From: 2010.05.17/outbox.cif.g08.bks.cpg/sg14_21_cif.got.tgz:40014.got - 2010.06.03 17:49:19.
