data_PCOD9244248
_publ_section_title
;
Structure prediction by ZEFSAII (Michael W. Deem and Ramdas Pophale) SiO2 
 PCOD9244248
Probable space group: P 21/C
;
_chemical_formula_sum "Si O2"
_cell_formula_units_Z 28
_cell_length_a 11.965426
_cell_length_b 10.629974
_cell_length_c 14.101917
_cell_angle_alpha 90.000000
_cell_angle_beta 48.898169
_cell_angle_gamma 90.000000
_cell_volume 1351.593849
_symmetry_space_group_name_H-M "P 21/C"
_symmetry_group_IT_number 14
_symmetry_cell_setting 'monoclinic'
loop_
_space_group_symop_operation_xyz
x,y,z
-x,1/2+y,1/2-z
-x,-y,-z
x,1/2-y,1/2+z
loop_
_atom_site_type_symbol
_atom_site_label
_atom_site_fract_x
_atom_site_fract_y
_atom_site_fract_z
Si Si1 0.439146 0.859353 0.514274
Si Si2 0.747832 0.760541 0.288438
Si Si3 0.826603 0.972805 0.090330
Si Si4 0.211221 0.726958 0.300730
Si Si5 0.873638 0.731190 0.415909
Si Si6 0.594893 0.130090 0.681123
Si Si7 0.640072 0.645738 0.168563
O O1 0.588404 0.777001 0.427054
O O2 0.321163 0.809682 0.654564
O O3 0.369011 0.852352 0.449160
O O4 0.500000 0.000000 0.500000
O O5 0.781898 0.885011 0.205413
O O6 0.861815 0.733747 0.309084
O O7 0.726934 0.656087 0.219696
O O8 0.766051 0.112080 0.137710
O O9 0.807923 0.894472 0.003904
O O10 0.000000 0.000000 0.000000
O O11 0.269644 0.847172 0.324047
O O12 0.042710 0.740257 0.358445
O O13 0.765564 0.839843 0.517745
O O14 0.469116 0.233441 0.775020
O O15 0.551266 0.984066 0.713031
#
# Coordination Sequence:
#
# PCOD9244248 Si02
#       7
#     4   4   4   4   4   4   4
#     4  11  21  39  67  92 125 174 224 260 323 407
#     4  10  20  40  64  93 127 172 220 269 333 392
#     4   9  20  38  62  90 125 173 214 263 332 396
#     4  11  23  40  62  99 127 172 224 269 337 398
#     4  10  22  41  65  92 136 172 214 276 339 399
#     4  11  24  43  69  95 132 170 225 279 329 398
#     4  10  24  42  67  96 128 175 218 278 332 393
#
# _framework density 20.716284000000002
#
# number of rings (size 3 to 8) (size 9 to 14) (size 15 to 20)
#    0.000    1.714    1.429    2.571    4.000    4.000 
#    7.714    2.143    0.000    0.000    0.000    0.000 
#    0.000    0.000    0.000    0.000    0.000    0.000 
#
# Total GULP energy -156181.695266 kJ/mol
# GULP energy per Si atom -5577.917688 kJ/mol
# Density = 2.066913 g / cm^3
# Si number density = 20.716284 Si / 1000 Ang^3
#
#
#
# Elastic Constant Matrix: (Units=GPa)
#
#
# Indices 1 2 3 4 5 6 
#
# 1 113.9318 19.8677 18.8793 0.0000 12.5872 0.0000
# 2 19.8677 89.1662 12.6507 0.0000 -5.9443 0.0000
# 3 18.8793 12.6507 77.7687 0.0000 -7.2615 0.0000
# 4 0.0000 0.0000 0.0000 16.0526 0.0000 -1.7635
# 5 12.5872 -5.9443 -7.2615 0.0000 30.7378 0.0000
# 6 0.0000 0.0000 0.0000 -1.7635 0.0000 23.8515
#
#
#
# Elastic Compliance Matrix: (Units=1/GPa)
#
#
# Indices 1 2 3 4 5 6 
#
# 1 0.010174 -0.002247 -0.002591 0.000000 -0.005213 0.000000
# 2 -0.002247 0.012077 -0.001140 0.000000 0.002986 0.000000
# 3 -0.002591 -0.001140 0.014062 0.000000 0.004163 0.000000
# 4 0.000000 0.000000 0.000000 0.062805 0.000000 0.004644
# 5 -0.005213 0.002986 0.004163 0.000000 0.036229 0.000000
# 6 0.000000 0.000000 0.000000 0.004644 0.000000 0.042269
#
#
# Mechanical properties :
#
#
# Convention : Reuss Voigt Hill
#
# Bulk Modulus (GPa) = 41.05753 42.62912 41.84333
# Shear Modulus (GPa) = 25.29191 29.42631 27.35911
#
# Velocity S-wave (km/s) = 3.49789 3.77297 3.63803
# Velocity P-wave (km/s) = 6.01462 6.29306 6.15541
#
# Compressibility (1/GPa) = 0.02435607
#
# Stress axis : x y z
#
# Youngs Moduli (GPa) = 98.28671 82.80537 71.11441
#
# Poissons Ratio (x) = 0.18606 0.18427
# Poissons Ratio (y) = 0.22084 0.08108
# Poissons Ratio (z) = 0.25468 0.09441
#
# Static dielectric constant tensor:
#      x y z
#    x 1.767380 0.000000 -0.000760 
#    y 0.000000 1.797560 0.000000 
#    z -0.000760 0.000000 1.748610 
# 
# From -- ./inp_files/44330.got.cif
#   From: 2010.05.17/outbox.cif.g08.bks.cpg/sg14_23_cif.got.tgz:44330.got - 2010.06.03 17:49:19.
