data_PCOD9244587
_publ_section_title
;
Structure prediction by ZEFSAII (Michael W. Deem and Ramdas Pophale) SiO2 
 PCOD9244587
Probable space group: P 21/C
;
_chemical_formula_sum "Si O2"
_cell_formula_units_Z 20
_cell_length_a 6.135497
_cell_length_b 7.592839
_cell_length_c 19.010043
_cell_angle_alpha 90.000000
_cell_angle_beta 118.148125
_cell_angle_gamma 90.000000
_cell_volume 780.859891
_symmetry_space_group_name_H-M "P 21/C"
_symmetry_group_IT_number 14
_symmetry_cell_setting 'monoclinic'
loop_
_space_group_symop_operation_xyz
x,y,z
-x,1/2+y,1/2-z
-x,-y,-z
x,1/2-y,1/2+z
loop_
_atom_site_type_symbol
_atom_site_label
_atom_site_fract_x
_atom_site_fract_y
_atom_site_fract_z
Si Si1 0.079357 0.444667 0.120106
Si Si2 0.612122 0.995979 0.736372
Si Si3 0.923683 0.672505 0.725269
Si Si4 0.831707 0.800724 0.055290
Si Si5 0.753030 0.578993 0.405644
O O1 0.366571 0.495162 0.153736
O O2 0.055565 0.443525 0.200788
O O3 0.893064 0.592264 0.063445
O O4 0.071583 0.245461 0.090567
O O5 0.780222 0.836018 0.736472
O O6 0.571527 0.960884 0.813100
O O7 0.788444 0.166369 0.755337
O O8 0.789528 0.640879 0.629546
O O9 0.078936 0.904928 0.068877
O O10 0.648751 0.861349 0.965334
#
# Coordination Sequence:
#
# PCOD9244587 Si02
#       5
#     4   4   4   4   4
#     4  11  22  39  67  91 122 167 217 249 307 376
#     4  10  22  38  63  92 118 164 210 254 303 370
#     4  10  21  38  62  88 123 160 207 256 301 367
#     4  10  20  42  63  88 130 164 201 259 319 362
#     4   9  22  37  63  91 125 167 198 257 322 361
#
# _framework density 25.61279
#
# number of rings (size 3 to 8) (size 9 to 14) (size 15 to 20)
#    0.000    2.000    2.000    0.600   11.200    0.000 
#    0.000    2.000    4.400    0.000    0.000    0.000 
#    0.000    0.000    0.000    0.000    0.000    0.000 
#
# Total GULP energy -111502.994062 kJ/mol
# GULP energy per Si atom -5575.149703 kJ/mol
# Density = 2.555449 g / cm^3
# Si number density = 25.612790 Si / 1000 Ang^3
#
#
#
# Elastic Constant Matrix: (Units=GPa)
#
#
# Indices 1 2 3 4 5 6 
#
# 1 25.9231 6.6873 19.0509 0.0000 -1.4072 0.0000
# 2 6.6873 85.9471 21.9412 0.0000 -0.2668 0.0000
# 3 19.0509 21.9412 137.2725 0.0000 -32.6068 0.0000
# 4 0.0000 0.0000 0.0000 45.0700 0.0000 -0.2568
# 5 -1.4072 -0.2668 -32.6068 0.0000 33.7908 0.0000
# 6 0.0000 0.0000 0.0000 -0.2568 0.0000 32.3472
#
#
#
# Elastic Compliance Matrix: (Units=1/GPa)
#
#
# Indices 1 2 3 4 5 6 
#
# 1 0.043876 -0.001642 -0.007000 0.000000 -0.004941 0.000000
# 2 -0.001642 0.012331 -0.002253 0.000000 -0.002145 0.000000
# 3 -0.007000 -0.002253 0.011083 0.000000 0.010386 0.000000
# 4 0.000000 0.000000 0.000000 0.022189 0.000000 0.000176
# 5 -0.004941 -0.002145 0.010386 0.000000 0.039393 0.000000
# 6 0.000000 0.000000 0.000000 0.000176 0.000000 0.030916
#
#
# Mechanical properties :
#
#
# Convention : Reuss Voigt Hill
#
# Bulk Modulus (GPa) = 21.97784 38.27793 30.12789
# Shear Modulus (GPa) = 25.41373 35.67248 30.54311
#
# Velocity S-wave (km/s) = 3.15338 3.73602 3.45700
# Velocity P-wave (km/s) = 4.67524 5.79549 5.26525
#
# Compressibility (1/GPa) = 0.04550037
#
# Stress axis : x y z
#
# Youngs Moduli (GPa) = 22.79172 81.09504 90.22635
#
# Poissons Ratio (x) = 0.13317 0.63161
# Poissons Ratio (y) = 0.03743 0.20324
# Poissons Ratio (z) = 0.15955 0.18267
#
# Static dielectric constant tensor:
#      x y z
#    x 1.971160 0.000000 -0.037210 
#    y 0.000000 2.102970 0.000000 
#    z -0.037210 0.000000 2.127210 
# 
# From -- ./inp_files/52726.got.cif
#   From: 2010.05.17/outbox.cif.g08.bks.cpg/sg14_27_cif.got.tgz:52726.got - 2010.06.03 17:49:19.
