data_PCOD9244236
_publ_section_title
;
Structure prediction by ZEFSAII (Michael W. Deem and Ramdas Pophale) SiO2 
 PCOD9244236
Probable space group: P 21/C
;
_chemical_formula_sum "Si O2"
_cell_formula_units_Z 20
_cell_length_a 23.599614
_cell_length_b 8.064531
_cell_length_c 8.582574
_cell_angle_alpha 90.000000
_cell_angle_beta 32.022953
_cell_angle_gamma 90.000000
_cell_volume 866.142966
_symmetry_space_group_name_H-M "P 21/C"
_symmetry_group_IT_number 14
_symmetry_cell_setting 'monoclinic'
loop_
_space_group_symop_operation_xyz
x,y,z
-x,1/2+y,1/2-z
-x,-y,-z
x,1/2-y,1/2+z
loop_
_atom_site_type_symbol
_atom_site_label
_atom_site_fract_x
_atom_site_fract_y
_atom_site_fract_z
Si Si1 0.650564 0.879423 0.167326
Si Si2 0.211916 0.146187 0.860074
Si Si3 0.444441 0.675975 0.642148
Si Si4 0.877391 0.530726 0.746466
Si Si5 0.691352 0.174622 0.832198
O O1 0.723741 0.930874 0.143413
O O2 0.534164 0.810241 0.482289
O O3 0.702685 0.724001 0.957676
O O4 0.657750 0.021372 0.021439
O O5 0.136854 0.053091 0.908626
O O6 0.154200 0.301465 0.083635
O O7 0.500000 0.500000 0.500000
O O8 0.401208 0.714812 0.573494
O O9 0.331585 0.673854 0.998052
O O10 0.000000 0.500000 0.500000
O O11 0.800139 0.384788 0.996558
#
# Coordination Sequence:
#
# PCOD9244236 Si02
#       5
#     4   4   4   4   4
#     4  10  20  40  64  90 127 175 214 257 326 405
#     4   9  19  39  67  92 124 171 224 274 332 401
#     4  12  23  38  61  94 132 166 208 273 333 395
#     4  10  22  42  65  93 128 171 225 287 339 387
#     4  11  25  39  59  91 126 171 222 263 323 404
#
# _framework density 23.090876000000002
#
# number of rings (size 3 to 8) (size 9 to 14) (size 15 to 20)
#    0.000    1.600    0.000    6.600    0.000    4.800 
#    0.000    9.000    0.000    0.000    0.000    0.000 
#    0.000    0.000    0.000    0.000    0.000    0.000 
#
# Total GULP energy -111460.472732 kJ/mol
# GULP energy per Si atom -5573.023637 kJ/mol
# Density = 2.303832 g / cm^3
# Si number density = 23.090876 Si / 1000 Ang^3
#
#
#
# Elastic Constant Matrix: (Units=GPa)
#
#
# Indices 1 2 3 4 5 6 
#
# 1 145.5068 -6.7940 44.4340 0.0000 -5.2420 0.0000
# 2 -6.7940 39.1963 19.2617 0.0000 -11.5803 0.0000
# 3 44.4340 19.2617 112.1524 0.0000 -17.0558 0.0000
# 4 0.0000 0.0000 0.0000 33.8567 0.0000 6.2757
# 5 -5.2420 -11.5803 -17.0558 0.0000 39.7485 0.0000
# 6 0.0000 0.0000 0.0000 6.2757 0.0000 33.6976
#
#
#
# Elastic Compliance Matrix: (Units=1/GPa)
#
#
# Indices 1 2 3 4 5 6 
#
# 1 0.008197 0.003405 -0.003763 0.000000 0.000459 0.000000
# 2 0.003405 0.030936 -0.005588 0.000000 0.007064 0.000000
# 3 -0.003763 -0.005588 0.011815 0.000000 0.002945 0.000000
# 4 0.000000 0.000000 0.000000 0.030592 0.000000 -0.005697
# 5 0.000459 0.007064 0.002945 0.000000 0.028541 0.000000
# 6 0.000000 0.000000 0.000000 -0.005697 0.000000 0.030737
#
#
# Mechanical properties :
#
#
# Convention : Reuss Voigt Hill
#
# Bulk Modulus (GPa) = 25.60346 45.62876 35.61611
# Shear Modulus (GPa) = 30.17001 37.45748 33.81374
#
# Velocity S-wave (km/s) = 3.61858 4.03199 3.83087
# Velocity P-wave (km/s) = 5.34519 6.44045 5.91821
#
# Compressibility (1/GPa) = 0.03905723
#
# Stress axis : x y z
#
# Youngs Moduli (GPa) = 121.99431 32.32477 84.63910
#
# Poissons Ratio (x) = -0.11008 0.31848
# Poissons Ratio (y) = -0.41544 0.47296
# Poissons Ratio (z) = 0.45903 0.18063
#
# Static dielectric constant tensor:
#      x y z
#    x 2.006240 0.000000 0.065150 
#    y 0.000000 1.755470 0.000000 
#    z 0.065150 0.000000 1.846850 
# 
# From -- ./inp_files/11853.got.cif
#   From: 2010.05.17/outbox.cif.g08.bks.cpg/sg14_6_cif.got.tgz:11853.got - 2010.06.03 17:49:19.
