data_PCOD9244419
_publ_section_title
;
Structure prediction by ZEFSAII (Michael W. Deem and Ramdas Pophale) SiO2 
 PCOD9244419
Probable space group: P 21/C
;
_chemical_formula_sum "Si O2"
_cell_formula_units_Z 28
_cell_length_a 19.294356
_cell_length_b 10.309669
_cell_length_c 12.313052
_cell_angle_alpha 90.000000
_cell_angle_beta 30.744031
_cell_angle_gamma 90.000000
_cell_volume 1252.087228
_symmetry_space_group_name_H-M "P 21/C"
_symmetry_group_IT_number 14
_symmetry_cell_setting 'monoclinic'
loop_
_space_group_symop_operation_xyz
x,y,z
-x,1/2+y,1/2-z
-x,-y,-z
x,1/2-y,1/2+z
loop_
_atom_site_type_symbol
_atom_site_label
_atom_site_fract_x
_atom_site_fract_y
_atom_site_fract_z
Si Si1 0.744826 0.350185 0.968366
Si Si2 0.501926 0.410607 0.164876
Si Si3 0.667226 0.748479 0.458564
Si Si4 0.134515 0.082035 0.434290
Si Si5 0.106056 0.102420 0.721178
Si Si6 0.592762 0.347795 0.808012
Si Si7 0.904105 0.299265 0.089835
O O1 0.872850 0.446823 0.802194
O O2 0.775985 0.249980 0.829786
O O3 0.612014 0.432855 0.111714
O O4 0.698490 0.262997 0.132496
O O5 0.417185 0.289351 0.321241
O O6 0.395223 0.524065 0.282269
O O7 0.585166 0.386628 0.942902
O O8 0.787431 0.840465 0.335657
O O9 0.559446 0.804394 0.519574
O O10 0.735097 0.624526 0.310318
O O11 0.140396 0.132200 0.549541
O O12 0.009155 0.148630 0.540426
O O13 0.118904 0.926834 0.451343
O O14 0.968588 0.177414 0.938110
#
# Coordination Sequence:
#
# PCOD9244419 Si02
#       7
#     4   4   4   4   4   4   4
#     4  11  23  39  61  92 122 160 204 255 300 368
#     4  10  21  38  61  88 123 163 195 248 304 356
#     4  10  20  41  59  91 123 157 200 253 293 373
#     4  10  23  41  65  87 119 164 205 251 313 358
#     4  11  23  40  63  90 121 159 211 253 308 358
#     4  10  21  38  60  90 124 158 199 243 306 364
#     4  10  24  43  60  90 124 159 208 258 302 369
#
# _framework density 22.362658
#
# number of rings (size 3 to 8) (size 9 to 14) (size 15 to 20)
#    0.000    1.714    1.429    2.143    4.000    0.000 
#    0.000    3.571    0.000    0.000    0.000    0.000 
#    0.000    0.000    0.000    0.000    0.000    0.000 
#
# Total GULP energy -156245.496920 kJ/mol
# GULP energy per Si atom -5580.196319 kJ/mol
# Density = 2.231176 g / cm^3
# Si number density = 22.362658 Si / 1000 Ang^3
#
#
#
# Elastic Constant Matrix: (Units=GPa)
#
#
# Indices 1 2 3 4 5 6 
#
# 1 42.1003 20.8676 -3.0072 0.0000 2.7088 0.0000
# 2 20.8676 87.8993 23.5111 0.0000 12.6304 0.0000
# 3 -3.0072 23.5111 61.4619 0.0000 16.6589 0.0000
# 4 0.0000 0.0000 0.0000 40.4059 0.0000 0.3847
# 5 2.7088 12.6304 16.6589 0.0000 23.7868 0.0000
# 6 0.0000 0.0000 0.0000 0.3847 0.0000 26.1911
#
#
#
# Elastic Compliance Matrix: (Units=1/GPa)
#
#
# Indices 1 2 3 4 5 6 
#
# 1 0.028058 -0.007619 0.005007 0.000000 -0.002657 0.000000
# 2 -0.007619 0.015077 -0.005191 0.000000 -0.003503 0.000000
# 3 0.005007 -0.005191 0.022104 0.000000 -0.013295 0.000000
# 4 0.000000 0.000000 0.000000 0.024752 0.000000 -0.000364
# 5 -0.002657 -0.003503 -0.013295 0.000000 0.053513 0.000000
# 6 0.000000 0.000000 0.000000 -0.000364 0.000000 0.038186
#
#
# Mechanical properties :
#
#
# Convention : Reuss Voigt Hill
#
# Bulk Modulus (GPa) = 20.14718 30.46715 25.30717
# Shear Modulus (GPa) = 23.38194 28.08276 25.73235
#
# Velocity S-wave (km/s) = 3.23705 3.54755 3.39585
# Velocity P-wave (km/s) = 4.79585 5.51669 5.16885
#
# Compressibility (1/GPa) = 0.04963474
#
# Stress axis : x y z
#
# Youngs Moduli (GPa) = 35.64094 66.32593 45.23998
#
# Poissons Ratio (x) = 0.50531 -0.22653
# Poissons Ratio (y) = 0.27153 0.23483
# Poissons Ratio (z) = -0.17846 0.34428
#
# Static dielectric constant tensor:
#      x y z
#    x 1.857020 0.000000 -0.014120 
#    y 0.000000 1.874540 0.000000 
#    z -0.014120 0.000000 1.790870 
# 
# From -- ./inp_files/35130.got.cif
#   From: 2010.05.17/outbox.cif.g08.bks.cpg/sg14_18_cif.got.tgz:35130.got - 2010.06.03 17:49:19.
