data_PCOD9244549
_publ_section_title
;
Structure prediction by ZEFSAII (Michael W. Deem and Ramdas Pophale) SiO2 
 PCOD9244549
Probable space group: P 21/C
;
_chemical_formula_sum "Si O2"
_cell_formula_units_Z 32
_cell_length_a 10.475367
_cell_length_b 9.369206
_cell_length_c 29.162630
_cell_angle_alpha 90.000000
_cell_angle_beta 150.124909
_cell_angle_gamma 90.000000
_cell_volume 1425.688655
_symmetry_space_group_name_H-M "P 21/C"
_symmetry_group_IT_number 14
_symmetry_cell_setting 'monoclinic'
loop_
_space_group_symop_operation_xyz
x,y,z
-x,1/2+y,1/2-z
-x,-y,-z
x,1/2-y,1/2+z
loop_
_atom_site_type_symbol
_atom_site_label
_atom_site_fract_x
_atom_site_fract_y
_atom_site_fract_z
Si Si1 0.555274 0.738354 0.998600
Si Si2 0.668352 0.185708 0.322692
Si Si3 0.117322 0.106059 0.977645
Si Si4 0.630058 0.964671 0.601593
Si Si5 0.690364 0.975887 0.718924
Si Si6 0.974513 0.082555 0.573399
Si Si7 0.887676 0.368283 0.587670
Si Si8 0.351837 0.240415 0.633080
O O1 0.362727 0.626601 0.913717
O O2 0.387354 0.847379 0.975608
O O3 0.726965 0.813139 0.014333
O O4 0.697610 0.638930 0.080575
O O5 0.508629 0.126664 0.316228
O O6 0.482562 0.211217 0.221383
O O7 0.834410 0.324493 0.387596
O O8 0.867343 0.061177 0.369871
O O9 0.119933 0.941026 0.964430
O O10 0.263666 0.140313 0.070132
O O11 0.767872 0.932835 0.691871
O O12 0.328153 0.943848 0.520733
O O13 0.938683 0.970842 0.827871
O O14 0.555068 0.129882 0.674670
O O15 0.098282 0.147964 0.566025
O O16 0.005972 0.209903 0.619961
#
# Coordination Sequence:
#
# PCOD9244549 Si02
#       8
#     4   4   4   4   4   4   4   4
#     4  10  22  42  62  92 123 173 217 272 312 384
#     4  11  22  40  69  94 136 168 211 271 325 399
#     4  12  23  43  68  96 131 174 213 270 330 386
#     4  10  20  41  70  88 124 171 227 262 318 385
#     4  11  21  42  64  98 125 171 216 271 324 390
#     4  10  21  42  63  97 128 168 213 263 324 391
#     4  11  24  41  63  91 137 165 213 275 318 380
#     4  11  22  39  68 100 131 168 215 264 334 395
#
# _framework density 22.445292999999999
#
# number of rings (size 3 to 8) (size 9 to 14) (size 15 to 20)
#    0.000    1.250    5.000    1.125    0.000    2.500 
#    9.000    0.000    0.000    0.000    0.000    0.000 
#    0.000    0.000    0.000    0.000    0.000    0.000 
#
# Total GULP energy -178868.528511 kJ/mol
# GULP energy per Si atom -5589.641516 kJ/mol
# Density = 2.239421 g / cm^3
# Si number density = 22.445293 Si / 1000 Ang^3
#
#
#
# Elastic Constant Matrix: (Units=GPa)
#
#
# Indices 1 2 3 4 5 6 
#
# 1 51.7233 16.0887 -6.5600 0.0000 -19.5549 0.0000
# 2 16.0887 66.1768 13.0888 0.0000 1.1460 0.0000
# 3 -6.5600 13.0888 57.0924 0.0000 -18.1279 0.0000
# 4 0.0000 0.0000 0.0000 12.0771 0.0000 -6.5861
# 5 -19.5549 1.1460 -18.1279 0.0000 29.1123 0.0000
# 6 0.0000 0.0000 0.0000 -6.5861 0.0000 37.6452
#
#
#
# Elastic Compliance Matrix: (Units=1/GPa)
#
#
# Indices 1 2 3 4 5 6 
#
# 1 0.043953 -0.015961 0.022789 0.000000 0.044342 0.000000
# 2 -0.015961 0.021932 -0.013138 0.000000 -0.019765 0.000000
# 3 0.022789 -0.013138 0.035113 0.000000 0.037689 0.000000
# 4 0.000000 0.000000 0.000000 0.091535 0.000000 0.016014
# 5 0.044342 -0.019765 0.037689 0.000000 0.088381 0.000000
# 6 0.000000 0.000000 0.000000 0.016014 0.000000 0.029366
#
#
# Mechanical properties :
#
#
# Convention : Reuss Voigt Hill
#
# Bulk Modulus (GPa) = 11.31503 24.46975 17.89239
# Shear Modulus (GPa) = 14.19007 25.92523 20.05765
#
# Velocity S-wave (km/s) = 2.51710 3.40228 2.99260
# Velocity P-wave (km/s) = 3.67421 5.13416 4.46427
#
# Compressibility (1/GPa) = 0.08837805
#
# Stress axis : x y z
#
# Youngs Moduli (GPa) = 22.75156 45.59504 28.47965
#
# Poissons Ratio (x) = 0.72774 -0.64902
# Poissons Ratio (y) = 0.36314 0.37416
# Poissons Ratio (z) = -0.51848 0.59902
#
# Static dielectric constant tensor:
#      x y z
#    x 1.848660 0.000000 -0.013820 
#    y 0.000000 1.858820 0.000000 
#    z -0.013820 0.000000 1.834100 
# 
# From -- ./inp_files/80026.got.cif
#   From: 2010.05.17/outbox.cif.g08.bks.cpg/sg14_41_cif.got.tgz:80026.got - 2010.06.03 17:49:19.
