data_PCOD9244765
_publ_section_title
;
Structure prediction by ZEFSAII (Michael W. Deem and Ramdas Pophale) SiO2 
 PCOD9244765
Probable space group: P 21/C
;
_chemical_formula_sum "Si O2"
_cell_formula_units_Z 18
_cell_length_a 7.388759
_cell_length_b 7.557997
_cell_length_c 13.640487
_cell_angle_alpha 90.000000
_cell_angle_beta 113.428228
_cell_angle_gamma 90.000000
_cell_volume 698.943421
_symmetry_space_group_name_H-M "P 21/C"
_symmetry_group_IT_number 14
_symmetry_cell_setting 'monoclinic'
loop_
_space_group_symop_operation_xyz
x,y,z
-x,1/2+y,1/2-z
-x,-y,-z
x,1/2-y,1/2+z
loop_
_atom_site_type_symbol
_atom_site_label
_atom_site_fract_x
_atom_site_fract_y
_atom_site_fract_z
Si Si1 0.727571 0.354711 0.148699
Si Si2 0.058875 0.262871 0.080670
Si Si3 0.330774 0.201038 0.476962
Si Si4 0.736512 0.105523 0.869121
Si Si5 0.500000 0.500000 0.500000
O O1 0.558654 0.237476 0.055409
O O2 0.704568 0.310587 0.256093
O O3 0.943159 0.335584 0.149361
O O4 0.665363 0.553638 0.103948
O O5 0.219989 0.368866 0.049750
O O6 0.168102 0.084544 0.134262
O O7 0.888718 0.220268 0.965067
O O8 0.269198 0.400836 0.444278
O O9 0.546867 0.070781 0.893939
#
# Coordination Sequence:
#
# PCOD9244765 Si02
#       5
#     4   4   4   4   2
#     4  11  23  43  65 102 127 175 221 278 330 398
#     4  10  22  45  61  98 131 171 222 281 323 411
#     4  10  23  42  66  96 133 168 224 274 328 397
#     4  10  23  41  68  95 134 177 222 271 349 387
#     4  10  20  44  62  92 136 174 210 276 320 416
#
# _framework density 25.753157000000002
#
# number of rings (size 3 to 8) (size 9 to 14) (size 15 to 20)
#    0.000    1.778    2.222    0.667    3.111    3.556 
#    8.000    0.000    0.000    0.000    0.000    0.000 
#    0.000    0.000    0.000    0.000    0.000    0.000 
#
# Total GULP energy -100293.444793 kJ/mol
# GULP energy per Si atom -5571.858044 kJ/mol
# Density = 2.569454 g / cm^3
# Si number density = 25.753157 Si / 1000 Ang^3
#
#
#
# Elastic Constant Matrix: (Units=GPa)
#
#
# Indices 1 2 3 4 5 6 
#
# 1 125.0226 8.0462 36.6521 0.0000 -48.0217 0.0000
# 2 8.0462 91.5251 8.0193 0.0000 -7.2948 0.0000
# 3 36.6521 8.0193 138.9593 0.0000 -38.7516 0.0000
# 4 0.0000 0.0000 0.0000 24.5258 0.0000 -11.9796
# 5 -48.0217 -7.2948 -38.7516 0.0000 41.8050 0.0000
# 6 0.0000 0.0000 0.0000 -11.9796 0.0000 35.0963
#
#
#
# Elastic Compliance Matrix: (Units=1/GPa)
#
#
# Indices 1 2 3 4 5 6 
#
# 1 0.014439 0.000038 0.001101 0.000000 0.017613 0.000000
# 2 0.000038 0.011082 -0.000132 0.000000 0.001855 0.000000
# 3 0.001101 -0.000132 0.009791 0.000000 0.010318 0.000000
# 4 0.000000 0.000000 0.000000 0.048931 0.000000 0.016702
# 5 0.017613 0.001855 0.010318 0.000000 0.054041 0.000000
# 6 0.000000 0.000000 0.000000 0.016702 0.000000 0.034194
#
#
# Mechanical properties :
#
#
# Convention : Reuss Voigt Hill
#
# Bulk Modulus (GPa) = 26.79156 51.21581 39.00368
# Shear Modulus (GPa) = 27.33655 40.47139 33.90397
#
# Velocity S-wave (km/s) = 3.26158 3.96853 3.63229
# Velocity P-wave (km/s) = 4.96081 6.39760 5.72446
#
# Compressibility (1/GPa) = 0.03732519
#
# Stress axis : x y z
#
# Youngs Moduli (GPa) = 69.25909 90.23610 102.13675
#
# Poissons Ratio (x) = -0.00343 -0.11248
# Poissons Ratio (y) = -0.00263 0.01352
# Poissons Ratio (z) = -0.07627 0.01194
#
# Static dielectric constant tensor:
#      x y z
#    x 2.103810 0.000000 0.020790 
#    y 0.000000 2.412950 0.000000 
#    z 0.020790 0.000000 2.102120 
# 
# From -- ./inp_files/22753.got.cif
#   From: 2010.05.17/outbox.cif.g08.bks.cpg/sg14_12_cif.got.tgz:22753.got - 2010.06.03 17:49:19.
