data_PCOD9244671
_publ_section_title
;
Structure prediction by ZEFSAII (Michael W. Deem and Ramdas Pophale) SiO2 
 PCOD9244671
Probable space group: P 21/C
;
_chemical_formula_sum "Si O2"
_cell_formula_units_Z 28
_cell_length_a 9.215992
_cell_length_b 15.470180
_cell_length_c 11.983928
_cell_angle_alpha 90.000000
_cell_angle_beta 145.079699
_cell_angle_gamma 90.000000
_cell_volume 978.056433
_symmetry_space_group_name_H-M "P 21/C"
_symmetry_group_IT_number 14
_symmetry_cell_setting 'monoclinic'
loop_
_space_group_symop_operation_xyz
x,y,z
-x,1/2+y,1/2-z
-x,-y,-z
x,1/2-y,1/2+z
loop_
_atom_site_type_symbol
_atom_site_label
_atom_site_fract_x
_atom_site_fract_y
_atom_site_fract_z
Si Si1 0.670476 0.118010 0.178630
Si Si2 0.362551 0.055429 0.282146
Si Si3 0.388537 0.054966 0.724423
Si Si4 0.140039 0.343465 0.229287
Si Si5 0.024243 0.897083 0.143285
Si Si6 0.611192 0.215492 0.757147
Si Si7 0.141047 0.331116 0.825250
O O1 0.673440 0.182379 0.289743
O O2 0.914455 0.122249 0.249164
O O3 0.598528 0.021877 0.175833
O O4 0.437089 0.154040 0.955471
O O5 0.345405 0.119837 0.374721
O O6 0.595747 0.000131 0.380025
O O7 0.172033 0.982631 0.205421
O O8 0.225507 0.099549 0.090191
O O9 0.146091 0.106816 0.616637
O O10 0.596715 0.132219 0.833431
O O11 0.043155 0.245342 0.181020
O O12 0.012566 0.393592 0.249328
O O13 0.189950 0.816871 0.209315
O O14 0.319385 0.210979 0.531699
#
# Coordination Sequence:
#
# PCOD9244671 Si02
#       7
#     4   4   4   4   4   4   4
#     4  11  23  43  68  96 135 177 220 276 328 396
#     4  10  23  39  70  97 125 178 219 273 329 391
#     4  11  24  40  71  99 132 172 227 277 327 393
#     4  11  23  41  67 100 128 172 227 277 324 388
#     4  10  20  42  68  96 129 167 225 275 317 395
#     4  10  25  45  64 101 137 172 220 280 331 398
#     4  11  25  43  66  95 140 176 215 272 344 397
#
# _framework density 28.628204
#
# number of rings (size 3 to 8) (size 9 to 14) (size 15 to 20)
#    0.000    1.429    2.857    1.286    8.000    2.857 
#    0.000    1.429    0.000    0.000    0.000    0.000 
#    0.000    0.000    0.000    0.000    0.000    0.000 
#
# Total GULP energy -156401.237205 kJ/mol
# GULP energy per Si atom -5585.758472 kJ/mol
# Density = 2.856304 g / cm^3
# Si number density = 28.628204 Si / 1000 Ang^3
#
#
#
# Elastic Constant Matrix: (Units=GPa)
#
#
# Indices 1 2 3 4 5 6 
#
# 1 252.4075 89.9184 34.7013 0.0000 17.7592 0.0000
# 2 89.9184 173.6688 39.5441 0.0000 1.1468 0.0000
# 3 34.7013 39.5441 60.4876 0.0000 12.8076 0.0000
# 4 0.0000 0.0000 0.0000 29.2627 0.0000 15.2803
# 5 17.7592 1.1468 12.8076 0.0000 46.2869 0.0000
# 6 0.0000 0.0000 0.0000 15.2803 0.0000 67.9784
#
#
#
# Elastic Compliance Matrix: (Units=1/GPa)
#
#
# Indices 1 2 3 4 5 6 
#
# 1 0.005061 -0.002380 -0.001008 0.000000 -0.001604 0.000000
# 2 -0.002380 0.007940 -0.004224 0.000000 0.001886 0.000000
# 3 -0.001008 -0.004224 0.020998 0.000000 -0.005319 0.000000
# 4 0.000000 0.000000 0.000000 0.038718 0.000000 -0.008703
# 5 -0.001604 0.001886 -0.005319 0.000000 0.023645 0.000000
# 6 0.000000 0.000000 0.000000 -0.008703 0.000000 0.016667
#
#
# Mechanical properties :
#
#
# Convention : Reuss Voigt Hill
#
# Bulk Modulus (GPa) = 53.26378 90.54351 71.90365
# Shear Modulus (GPa) = 37.17124 50.19894 43.68509
#
# Velocity S-wave (km/s) = 3.60726 4.19200 3.91057
# Velocity P-wave (km/s) = 5.99963 7.42472 6.74989
#
# Compressibility (1/GPa) = 0.01877449
#
# Stress axis : x y z
#
# Youngs Moduli (GPa) = 197.57852 125.94398 47.62265
#
# Poissons Ratio (x) = 0.29981 0.04799
# Poissons Ratio (y) = 0.47033 0.20118
# Poissons Ratio (z) = 0.19911 0.53204
#
# Static dielectric constant tensor:
#      x y z
#    x 2.192920 0.000000 -0.038040 
#    y 0.000000 2.274050 0.000000 
#    z -0.038040 0.000000 2.299820 
# 
# From -- ./inp_files/41388.got.cif
#   From: 2010.05.17/outbox.cif.g08.bks.cpg/sg14_21_cif.got.tgz:41388.got - 2010.06.03 17:49:19.
