data_PCOD9244218
_publ_section_title
;
Structure prediction by ZEFSAII (Michael W. Deem and Ramdas Pophale) SiO2 
 PCOD9244218
Probable space group: P 21/C
;
_chemical_formula_sum "Si O2"
_cell_formula_units_Z 30
_cell_length_a 8.016277
_cell_length_b 8.700152
_cell_length_c 19.069304
_cell_angle_alpha 90.000000
_cell_angle_beta 90.994646
_cell_angle_gamma 90.000000
_cell_volume 1329.746802
_symmetry_space_group_name_H-M "P 21/C"
_symmetry_group_IT_number 14
_symmetry_cell_setting 'monoclinic'
loop_
_space_group_symop_operation_xyz
x,y,z
-x,1/2+y,1/2-z
-x,-y,-z
x,1/2-y,1/2+z
loop_
_atom_site_type_symbol
_atom_site_label
_atom_site_fract_x
_atom_site_fract_y
_atom_site_fract_z
Si Si1 0.960272 0.056551 0.661147
Si Si2 0.314141 0.306922 0.974324
Si Si3 0.426264 0.495337 0.107752
Si Si4 0.620477 0.233373 0.683510
Si Si5 0.723815 0.277394 0.339055
Si Si6 0.396633 0.444370 0.384420
Si Si7 0.000000 0.000000 0.500000
Si Si8 0.913115 0.797745 0.202643
O O1 0.786552 0.145107 0.663975
O O2 0.011090 0.066405 0.580764
O O3 0.079678 0.144927 0.717147
O O4 0.927630 0.885922 0.692411
O O5 0.415839 0.400910 0.914879
O O6 0.350423 0.128960 0.959546
O O7 0.389851 0.376821 0.045498
O O8 0.124326 0.360728 0.971924
O O9 0.473554 0.390592 0.173761
O O10 0.281454 0.622317 0.114610
O O11 0.650591 0.279418 0.763824
O O12 0.605401 0.376674 0.631876
O O13 0.583473 0.390168 0.367158
O O14 0.907001 0.347387 0.330108
O O15 0.249368 0.367619 0.335724
#
# Coordination Sequence:
#
# PCOD9244218 Si02
#       8
#     4   4   4   4   4   4   2   4
#     4  11  23  40  72 100 140 179 234 282 355 409
#     4  10  22  38  66  90 130 180 230 276 340 412
#     4  10  20  40  63  94 125 181 225 277 343 416
#     4  11  22  41  66  98 139 181 221 295 345 416
#     4  10  22  39  66  99 129 178 231 281 346 410
#     4  11  23  42  66 100 142 178 226 295 342 408
#     4  12  20  42  66 100 130 188 224 284 340 422
#     4  11  22  43  67 104 135 178 230 293 338 423
#
# _framework density 22.560684999999999
#
# number of rings (size 3 to 8) (size 9 to 14) (size 15 to 20)
#    0.000    1.333    2.667    4.000    0.000    2.667 
#    0.000    3.333    0.000    0.000    0.000    0.000 
#    0.000    0.000    0.000    0.000    0.000    0.000 
#
# Total GULP energy -167019.848519 kJ/mol
# GULP energy per Si atom -5567.328284 kJ/mol
# Density = 2.250934 g / cm^3
# Si number density = 22.560685 Si / 1000 Ang^3
#
#
#
# Elastic Constant Matrix: (Units=GPa)
#
#
# Indices 1 2 3 4 5 6 
#
# 1 87.7715 20.5690 -0.2101 0.0000 -18.3070 0.0000
# 2 20.5690 70.4203 6.7248 0.0000 -3.5298 0.0000
# 3 -0.2101 6.7248 73.7229 0.0000 -10.4492 0.0000
# 4 0.0000 0.0000 0.0000 33.0574 0.0000 10.6117
# 5 -18.3070 -3.5298 -10.4492 0.0000 22.6576 0.0000
# 6 0.0000 0.0000 0.0000 10.6117 0.0000 26.1229
#
#
#
# Elastic Compliance Matrix: (Units=1/GPa)
#
#
# Indices 1 2 3 4 5 6 
#
# 1 0.014916 -0.003940 0.002165 0.000000 0.012436 0.000000
# 2 -0.003940 0.015431 -0.001636 0.000000 -0.001534 0.000000
# 3 0.002165 -0.001636 0.014906 0.000000 0.008368 0.000000
# 4 0.000000 0.000000 0.000000 0.034787 0.000000 -0.014131
# 5 0.012436 -0.001534 0.008368 0.000000 0.057804 0.000000
# 6 0.000000 0.000000 0.000000 -0.014131 0.000000 0.044021
#
#
# Mechanical properties :
#
#
# Convention : Reuss Voigt Hill
#
# Bulk Modulus (GPa) = 26.02228 31.78692 28.90460
# Shear Modulus (GPa) = 24.81436 30.02298 27.41867
#
# Velocity S-wave (km/s) = 3.32006 3.65192 3.48994
# Velocity P-wave (km/s) = 5.12411 5.64820 5.39252
#
# Compressibility (1/GPa) = 0.03842862
#
# Stress axis : x y z
#
# Youngs Moduli (GPa) = 67.04400 64.80613 67.08792
#
# Poissons Ratio (x) = 0.25534 -0.14521
# Poissons Ratio (y) = 0.26416 0.10977
# Poissons Ratio (z) = -0.14512 0.10604
#
# Static dielectric constant tensor:
#      x y z
#    x 1.820210 0.000000 0.068090 
#    y 0.000000 1.819690 0.000000 
#    z 0.068090 0.000000 1.875080 
# 
# From -- ./inp_files/64797.got.cif
#   From: 2010.05.17/outbox.cif.g08.bks.cpg/sg14_33_cif.got.tgz:64797.got - 2010.06.03 17:49:19.
