data_PCOD9244183
_publ_section_title
;
Structure prediction by ZEFSAII (Michael W. Deem and Ramdas Pophale) SiO2 
 PCOD9244183
Probable space group: P 21/C
;
_chemical_formula_sum "Si O2"
_cell_formula_units_Z 24
_cell_length_a 14.698128
_cell_length_b 5.017923
_cell_length_c 12.557322
_cell_angle_alpha 90.000000
_cell_angle_beta 87.215103
_cell_angle_gamma 90.000000
_cell_volume 925.059856
_symmetry_space_group_name_H-M "P 21/C"
_symmetry_group_IT_number 14
_symmetry_cell_setting 'monoclinic'
loop_
_space_group_symop_operation_xyz
x,y,z
-x,1/2+y,1/2-z
-x,-y,-z
x,1/2-y,1/2+z
loop_
_atom_site_type_symbol
_atom_site_label
_atom_site_fract_x
_atom_site_fract_y
_atom_site_fract_z
Si Si1 0.113065 0.386956 0.293395
Si Si2 0.657146 0.760102 0.420038
Si Si3 0.084831 0.886306 0.143075
Si Si4 0.249686 0.776672 0.987152
Si Si5 0.711202 0.891024 0.678061
Si Si6 0.487056 0.989456 0.321667
O O1 0.108605 0.661015 0.229218
O O2 0.102263 0.164031 0.201547
O O3 0.205101 0.306665 0.349456
O O4 0.022986 0.363466 0.371339
O O5 0.676658 0.503988 0.491604
O O6 0.690266 0.655060 0.302493
O O7 0.555583 0.867073 0.403666
O O8 0.718844 0.009314 0.450754
O O9 0.151905 0.851830 0.040176
O O10 0.253048 0.671650 0.866642
O O11 0.608946 0.891444 0.634789
O O12 0.467453 0.737512 0.244145
#
# Coordination Sequence:
#
# PCOD9244183 Si02
#       6
#     4   4   4   4   4   4
#     4  10  21  38  67  87 131 167 210 262 323 378
#     4  11  24  44  61  93 135 168 209 277 310 381
#     4  10  20  40  61  96 124 170 207 262 325 380
#     4  12  24  39  69  95 128 171 218 257 330 380
#     4  11  24  42  68  96 124 177 215 264 324 382
#     4  10  23  41  66  92 130 174 216 262 324 376
#
# _framework density 25.944267
#
# number of rings (size 3 to 8) (size 9 to 14) (size 15 to 20)
#    0.000    1.333    3.333    2.000    0.000    7.333 
#    0.000    0.000    0.000    8.000    0.000    0.000 
#    0.000    0.000    0.000    0.000    0.000    0.000 
#
# Total GULP energy -134384.604137 kJ/mol
# GULP energy per Si atom -5599.358506 kJ/mol
# Density = 2.588522 g / cm^3
# Si number density = 25.944267 Si / 1000 Ang^3
#
#
#
# Elastic Constant Matrix: (Units=GPa)
#
#
# Indices 1 2 3 4 5 6 
#
# 1 175.5173 39.7698 70.9922 0.0000 5.8520 0.0000
# 2 39.7698 166.0696 60.6522 0.0000 16.4017 0.0000
# 3 70.9922 60.6522 74.0732 0.0000 -16.9293 0.0000
# 4 0.0000 0.0000 0.0000 45.9789 0.0000 4.8722
# 5 5.8520 16.4017 -16.9293 0.0000 49.7829 0.0000
# 6 0.0000 0.0000 0.0000 4.8722 0.0000 38.6943
#
#
#
# Elastic Compliance Matrix: (Units=1/GPa)
#
#
# Indices 1 2 3 4 5 6 
#
# 1 0.011678 0.003984 -0.016338 0.000000 -0.008241 0.000000
# 2 0.003984 0.011727 -0.015625 0.000000 -0.009645 0.000000
# 3 -0.016338 -0.015625 0.047240 0.000000 0.023133 0.000000
# 4 0.000000 0.000000 0.000000 0.022043 0.000000 -0.002776
# 5 -0.008241 -0.009645 0.023133 0.000000 0.032100 0.000000
# 6 0.000000 0.000000 0.000000 -0.002776 0.000000 0.026193
#
#
# Mechanical properties :
#
#
# Convention : Reuss Voigt Hill
#
# Bulk Modulus (GPa) = 68.08927 84.27650 76.18288
# Shear Modulus (GPa) = 23.60345 43.17429 33.38887
#
# Velocity S-wave (km/s) = 3.01952 4.08378 3.59129
# Velocity P-wave (km/s) = 6.20146 7.40207 6.82820
#
# Compressibility (1/GPa) = 0.01468660
#
# Stress axis : x y z
#
# Youngs Moduli (GPa) = 85.63317 85.27606 21.16868
#
# Poissons Ratio (x) = -0.33978 0.34585
# Poissons Ratio (y) = -0.34120 0.33076
# Poissons Ratio (z) = 1.39908 1.33244
#
# Static dielectric constant tensor:
#      x y z
#    x 2.075280 0.000000 0.043930 
#    y 0.000000 1.973930 0.000000 
#    z 0.043930 0.000000 2.124390 
# 
# From -- ./inp_files/45847.got.cif
#   From: 2010.05.17/outbox.cif.g08.bks.cpg/sg14_23_cif.got.tgz:45847.got - 2010.06.03 17:49:19.
