data_PCOD9244073
_publ_section_title
;
Structure prediction by ZEFSAII (Michael W. Deem and Ramdas Pophale) SiO2 
 PCOD9244073
Probable space group: P 21/C
;
_chemical_formula_sum "Si O2"
_cell_formula_units_Z 26
_cell_length_a 5.219972
_cell_length_b 15.466848
_cell_length_c 19.344147
_cell_angle_alpha 90.000000
_cell_angle_beta 132.818771
_cell_angle_gamma 90.000000
_cell_volume 1145.576176
_symmetry_space_group_name_H-M "P 21/C"
_symmetry_group_IT_number 14
_symmetry_cell_setting 'monoclinic'
loop_
_space_group_symop_operation_xyz
x,y,z
-x,1/2+y,1/2-z
-x,-y,-z
x,1/2-y,1/2+z
loop_
_atom_site_type_symbol
_atom_site_label
_atom_site_fract_x
_atom_site_fract_y
_atom_site_fract_z
Si Si1 0.516550 0.469890 0.704454
Si Si2 0.295580 0.205914 0.089097
Si Si3 0.280168 0.441859 0.812277
Si Si4 0.500000 0.500000 0.000000
Si Si5 0.807308 0.749873 0.658194
Si Si6 0.241666 0.846730 0.131667
Si Si7 0.273252 0.804391 0.437820
O O1 0.384881 0.381877 0.645315
O O2 0.507964 0.455124 0.785565
O O3 0.263614 0.550749 0.645013
O O4 0.904336 0.488856 0.746749
O O5 0.616104 0.254418 0.111266
O O6 0.097815 0.273153 0.102322
O O7 0.031337 0.178161 0.978765
O O8 0.163864 0.342106 0.799998
O O9 0.501835 0.466209 0.919921
O O10 0.668442 0.406204 0.056355
O O11 0.615030 0.685469 0.674177
O O12 0.544523 0.770535 0.546143
O O13 0.132153 0.705223 0.680238
#
# Coordination Sequence:
#
# PCOD9244073 Si02
#       7
#     4   4   4   2   4   4   4
#     4  12  24  41  60 100 130 160 214 263 322 376
#     4  10  21  40  62  95 129 168 203 251 327 381
#     4  11  25  43  63  90 129 168 208 277 321 368
#     4  10  24  48  68  90 128 168 236 264 320 384
#     4   9  19  39  61  85 118 167 203 252 321 370
#     4  10  20  39  66  89 123 168 207 246 313 393
#     4   9  20  38  67  89 117 165 216 258 306 383
#
# _framework density 22.696005
#
# number of rings (size 3 to 8) (size 9 to 14) (size 15 to 20)
#    0.000    1.846    0.000    3.231    0.000    6.154 
#   16.615    6.154    0.000    0.000    0.000    0.000 
#    0.000    0.000    0.000    0.000    0.000    0.000 
#
# Total GULP energy -144892.299103 kJ/mol
# GULP energy per Si atom -5572.780735 kJ/mol
# Density = 2.264435 g / cm^3
# Si number density = 22.696005 Si / 1000 Ang^3
#
#
#
# Elastic Constant Matrix: (Units=GPa)
#
#
# Indices 1 2 3 4 5 6 
#
# 1 99.7076 22.0657 8.7805 0.0000 -22.6930 0.0000
# 2 22.0657 84.5221 8.3308 0.0000 -14.4125 0.0000
# 3 8.7805 8.3308 46.7552 0.0000 -11.5426 0.0000
# 4 0.0000 0.0000 0.0000 31.0118 0.0000 3.0953
# 5 -22.6930 -14.4125 -11.5426 0.0000 26.3326 0.0000
# 6 0.0000 0.0000 0.0000 3.0953 0.0000 12.8553
#
#
#
# Elastic Compliance Matrix: (Units=1/GPa)
#
#
# Indices 1 2 3 4 5 6 
#
# 1 0.012676 -0.001607 0.000432 0.000000 0.010234 0.000000
# 2 -0.001607 0.013269 -0.000686 0.000000 0.005577 0.000000
# 3 0.000432 -0.000686 0.024029 0.000000 0.010530 0.000000
# 4 0.000000 0.000000 0.000000 0.033040 0.000000 -0.007955
# 5 0.010234 0.005577 0.010530 0.000000 0.054464 0.000000
# 6 0.000000 0.000000 0.000000 -0.007955 0.000000 0.079704
#
#
# Mechanical properties :
#
#
# Convention : Reuss Voigt Hill
#
# Bulk Modulus (GPa) = 21.61994 34.37099 27.99547
# Shear Modulus (GPa) = 21.15776 26.82714 23.99245
#
# Velocity S-wave (km/s) = 3.05655 3.44178 3.25487
# Velocity P-wave (km/s) = 4.69076 5.56520 5.14658
#
# Compressibility (1/GPa) = 0.04625359
#
# Stress axis : x y z
#
# Youngs Moduli (GPa) = 78.88882 75.36174 41.61725
#
# Poissons Ratio (x) = 0.12109 -0.01799
# Poissons Ratio (y) = 0.12676 0.02854
# Poissons Ratio (z) = -0.03410 0.05167
#
# Static dielectric constant tensor:
#      x y z
#    x 1.803330 0.000000 0.032610 
#    y 0.000000 1.793040 0.000000 
#    z 0.032610 0.000000 1.888000 
# 
# From -- ./inp_files/63808.got.cif
#   From: 2010.05.17/outbox.cif.g08.bks.cpg/sg14_32_cif.got.tgz:63808.got - 2010.06.03 17:49:19.
