data_PCOD9244264
_publ_section_title
;
Structure prediction by ZEFSAII (Michael W. Deem and Ramdas Pophale) SiO2 
 PCOD9244264
Probable space group: P 21/C
;
_chemical_formula_sum "Si O2"
_cell_formula_units_Z 32
_cell_length_a 12.403092
_cell_length_b 5.218272
_cell_length_c 22.737524
_cell_angle_alpha 90.000000
_cell_angle_beta 112.506429
_cell_angle_gamma 90.000000
_cell_volume 1359.549442
_symmetry_space_group_name_H-M "P 21/C"
_symmetry_group_IT_number 14
_symmetry_cell_setting 'monoclinic'
loop_
_space_group_symop_operation_xyz
x,y,z
-x,1/2+y,1/2-z
-x,-y,-z
x,1/2-y,1/2+z
loop_
_atom_site_type_symbol
_atom_site_label
_atom_site_fract_x
_atom_site_fract_y
_atom_site_fract_z
Si Si1 0.395918 0.894856 0.651947
Si Si2 0.719472 0.544651 0.071132
Si Si3 0.206223 0.920101 0.056323
Si Si4 0.870076 0.050667 0.081651
Si Si5 0.868870 0.620627 0.334065
Si Si6 0.399310 0.106346 0.865386
Si Si7 0.257330 0.620949 0.235972
Si Si8 0.577382 0.733493 0.441458
O O1 0.269349 0.828619 0.596380
O O2 0.495637 0.693897 0.655443
O O3 0.367206 0.899814 0.714127
O O4 0.437256 0.143339 0.626075
O O5 0.782561 0.273215 0.084654
O O6 0.655033 0.643539 0.115887
O O7 0.816797 0.767461 0.079809
O O8 0.622251 0.565438 0.998944
O O9 0.167645 0.079271 0.105129
O O10 0.312706 0.048859 0.043605
O O11 0.113451 0.890704 0.985056
O O12 0.993345 0.076072 0.139546
O O13 0.799473 0.399551 0.284006
O O14 0.831001 0.898437 0.303591
O O15 0.303222 0.952604 0.809367
O O16 0.461548 0.930317 0.927686
#
# Coordination Sequence:
#
# PCOD9244264 Si02
#       8
#     4   4   4   4   4   4   4   4
#     4  10  21  38  64  95 134 169 210 271 336 405
#     4  11  25  44  65 101 135 174 228 276 326 413
#     4   9  19  38  61 103 133 166 209 278 344 407
#     4  11  23  42  69  96 133 175 225 281 338 390
#     4  11  23  43  68  96 132 174 225 283 339 389
#     4  11  27  40  67  94 135 187 219 270 338 400
#     4  11  26  43  65  99 134 172 230 279 327 409
#     4  10  20  40  64  98 136 169 214 272 340 401
#
# _framework density 23.537208
#
# number of rings (size 3 to 8) (size 9 to 14) (size 15 to 20)
#    0.000    1.500    2.500    1.500    5.250    0.500 
#    0.000    6.250    0.000    0.000    0.000    0.000 
#    0.000    0.000    0.000    0.000    0.000    0.000 
#
# Total GULP energy -178944.503709 kJ/mol
# GULP energy per Si atom -5592.015741 kJ/mol
# Density = 2.348364 g / cm^3
# Si number density = 23.537208 Si / 1000 Ang^3
#
#
#
# Elastic Constant Matrix: (Units=GPa)
#
#
# Indices 1 2 3 4 5 6 
#
# 1 78.3867 13.2803 20.4973 0.0000 10.1033 0.0000
# 2 13.2803 75.1709 7.7229 0.0000 -4.3778 0.0000
# 3 20.4973 7.7229 79.9350 0.0000 2.3587 0.0000
# 4 0.0000 0.0000 0.0000 19.2505 0.0000 -9.2441
# 5 10.1033 -4.3778 2.3587 0.0000 20.4943 0.0000
# 6 0.0000 0.0000 0.0000 -9.2441 0.0000 24.6452
#
#
#
# Elastic Compliance Matrix: (Units=1/GPa)
#
#
# Indices 1 2 3 4 5 6 
#
# 1 0.015094 -0.002765 -0.003378 0.000000 -0.007643 0.000000
# 2 -0.002765 0.014133 -0.000788 0.000000 0.004473 0.000000
# 3 -0.003378 -0.000788 0.013454 0.000000 -0.000052 0.000000
# 4 0.000000 0.000000 0.000000 0.063358 0.000000 0.023765
# 5 -0.007643 0.004473 -0.000052 0.000000 0.053523 0.000000
# 6 0.000000 0.000000 0.000000 0.023765 0.000000 0.049490
#
#
# Mechanical properties :
#
#
# Convention : Reuss Voigt Hill
#
# Bulk Modulus (GPa) = 34.69942 35.16595 34.93268
# Shear Modulus (GPa) = 21.50345 25.67748 23.59046
#
# Velocity S-wave (km/s) = 3.02585 3.30651 3.16929
# Velocity P-wave (km/s) = 5.19443 5.43602 5.31660
#
# Compressibility (1/GPa) = 0.02881893
#
# Stress axis : x y z
#
# Youngs Moduli (GPa) = 66.25132 70.75664 74.32719
#
# Poissons Ratio (x) = 0.19562 0.25107
# Poissons Ratio (y) = 0.18317 0.05861
# Poissons Ratio (z) = 0.22379 0.05579
#
# Static dielectric constant tensor:
#      x y z
#    x 1.896790 0.000000 -0.018710 
#    y 0.000000 1.898020 0.000000 
#    z -0.018710 0.000000 1.928930 
# 
# From -- ./inp_files/72785.got.cif
#   From: 2010.05.17/outbox.cif.g08.bks.cpg/sg14_37_cif.got.tgz:72785.got - 2010.06.03 17:49:19.
