data_PCOD9244017
_publ_section_title
;
Structure prediction by ZEFSAII (Michael W. Deem and Ramdas Pophale) SiO2 
 PCOD9244017
Probable space group: P 21/C
;
_chemical_formula_sum "Si O2"
_cell_formula_units_Z 24
_cell_length_a 8.369722
_cell_length_b 8.781640
_cell_length_c 14.452331
_cell_angle_alpha 90.000000
_cell_angle_beta 57.169461
_cell_angle_gamma 90.000000
_cell_volume 892.580565
_symmetry_space_group_name_H-M "P 21/C"
_symmetry_group_IT_number 14
_symmetry_cell_setting 'monoclinic'
loop_
_space_group_symop_operation_xyz
x,y,z
-x,1/2+y,1/2-z
-x,-y,-z
x,1/2-y,1/2+z
loop_
_atom_site_type_symbol
_atom_site_label
_atom_site_fract_x
_atom_site_fract_y
_atom_site_fract_z
Si Si1 0.551337 0.792963 0.350799
Si Si2 0.311520 0.903530 0.785934
Si Si3 0.693733 0.775796 0.992978
Si Si4 0.914617 0.437428 0.413931
Si Si5 0.850254 0.666173 0.129945
Si Si6 0.085790 0.636974 0.797339
O O1 0.408636 0.685248 0.339679
O O2 0.539567 0.776942 0.465543
O O3 0.751144 0.720126 0.255458
O O4 0.570345 0.963385 0.302569
O O5 0.111655 0.978455 0.882393
O O6 0.245488 0.766471 0.740486
O O7 0.730390 0.956831 0.987830
O O8 0.888843 0.708659 0.890436
O O9 0.705917 0.713243 0.093440
O O10 0.955124 0.264447 0.435626
O O11 0.929229 0.436285 0.297887
O O12 0.873966 0.487998 0.136331
#
# Coordination Sequence:
#
# PCOD9244017 Si02
#       6
#     4   4   4   4   4   4
#     4  11  22  41  60  88 127 163 204 250 312 370
#     4  10  22  38  65  86 123 168 203 250 311 364
#     4  11  22  37  63  92 124 161 209 253 302 367
#     4  10  20  39  64  90 123 164 206 252 305 365
#     4  11  21  37  64  92 125 160 205 255 308 359
#     4  11  19  40  63  91 119 164 208 252 306 358
#
# _framework density 26.888328999999999
#
# number of rings (size 3 to 8) (size 9 to 14) (size 15 to 20)
#    0.000    1.333    5.000    3.000    0.000    0.000 
#    0.000    6.667    7.333    0.000    0.000    0.000 
#    0.000    0.000    0.000    0.000    0.000    0.000 
#
# Total GULP energy -134309.188272 kJ/mol
# GULP energy per Si atom -5596.216178 kJ/mol
# Density = 2.682713 g / cm^3
# Si number density = 26.888329 Si / 1000 Ang^3
#
#
#
# Elastic Constant Matrix: (Units=GPa)
#
#
# Indices 1 2 3 4 5 6 
#
# 1 88.0574 57.8163 23.0574 0.0000 27.4411 0.0000
# 2 57.8163 184.6553 35.7052 0.0000 11.1069 0.0000
# 3 23.0574 35.7052 101.5929 0.0000 21.9150 0.0000
# 4 0.0000 0.0000 0.0000 35.9872 0.0000 -3.9640
# 5 27.4411 11.1069 21.9150 0.0000 36.3225 0.0000
# 6 0.0000 0.0000 0.0000 -3.9640 0.0000 47.8078
#
#
#
# Elastic Compliance Matrix: (Units=1/GPa)
#
#
# Indices 1 2 3 4 5 6 
#
# 1 0.018579 -0.005116 0.000312 0.000000 -0.012660 0.000000
# 2 -0.005116 0.007232 -0.001997 0.000000 0.002859 0.000000
# 3 0.000312 -0.001997 0.011948 0.000000 -0.006834 0.000000
# 4 0.000000 0.000000 0.000000 0.028044 0.000000 0.002325
# 5 -0.012660 0.002859 -0.006834 0.000000 0.040345 0.000000
# 6 0.000000 0.000000 0.000000 0.002325 0.000000 0.021110
#
#
# Mechanical properties :
#
#
# Convention : Reuss Voigt Hill
#
# Bulk Modulus (GPa) = 41.39533 67.49593 54.44563
# Shear Modulus (GPa) = 33.57708 41.20528 37.39118
#
# Velocity S-wave (km/s) = 3.53761 3.91891 3.73313
# Velocity P-wave (km/s) = 5.66701 6.75529 6.23494
#
# Compressibility (1/GPa) = 0.02415732
#
# Stress axis : x y z
#
# Youngs Moduli (GPa) = 53.82520 138.28322 83.69275
#
# Poissons Ratio (x) = 0.70745 -0.02614
# Poissons Ratio (y) = 0.27537 0.16714
# Poissons Ratio (z) = -0.01681 0.27616
#
# Static dielectric constant tensor:
#      x y z
#    x 2.163610 0.000000 -0.028790 
#    y 0.000000 2.128120 0.000000 
#    z -0.028790 0.000000 2.106610 
# 
# From -- ./inp_files/38905.got.cif
#   From: 2010.05.17/outbox.cif.g08.bks.cpg/sg14_20_cif.got.tgz:38905.got - 2010.06.03 17:49:19.
