data_PCOD9244106
_publ_section_title
;
Structure prediction by ZEFSAII (Michael W. Deem and Ramdas Pophale) SiO2 
 PCOD9244106
Probable space group: P 21/C
;
_chemical_formula_sum "Si O2"
_cell_formula_units_Z 28
_cell_length_a 12.898293
_cell_length_b 9.868377
_cell_length_c 14.202619
_cell_angle_alpha 90.000000
_cell_angle_beta 139.732608
_cell_angle_gamma 90.000000
_cell_volume 1168.471009
_symmetry_space_group_name_H-M "P 21/C"
_symmetry_group_IT_number 14
_symmetry_cell_setting 'monoclinic'
loop_
_space_group_symop_operation_xyz
x,y,z
-x,1/2+y,1/2-z
-x,-y,-z
x,1/2-y,1/2+z
loop_
_atom_site_type_symbol
_atom_site_label
_atom_site_fract_x
_atom_site_fract_y
_atom_site_fract_z
Si Si1 0.672249 0.057594 0.149452
Si Si2 0.145744 0.812957 0.273116
Si Si3 0.345498 0.064742 0.443215
Si Si4 0.857410 0.786085 0.311832
Si Si5 0.825689 0.346649 0.437034
Si Si6 0.177949 0.152471 0.017011
Si Si7 0.484346 0.730181 0.299380
O O1 0.755939 0.174313 0.144934
O O2 0.625250 0.130944 0.214039
O O3 0.794204 0.933512 0.242654
O O4 0.500000 0.000000 0.000000
O O5 0.168477 0.841172 0.174417
O O6 0.225924 0.940358 0.380251
O O7 0.953094 0.802358 0.151609
O O8 0.252857 0.172653 0.313930
O O9 0.420325 0.152260 0.578688
O O10 0.500000 0.000000 0.500000
O O11 0.838402 0.758925 0.409990
O O12 0.043797 0.752776 0.427390
O O13 0.870447 0.499595 0.492512
O O14 0.649982 0.307389 0.352556
O O15 0.367733 0.144642 0.134473
#
# Coordination Sequence:
#
# PCOD9244106 Si02
#       7
#     4   4   4   4   4   4   4
#     4  11  22  40  63  92 125 162 212 265 308 367
#     4  10  20  39  68  87 120 168 217 247 303 394
#     4  12  18  40  68  89 115 173 217 245 296 392
#     4  11  21  39  71  87 120 173 214 250 309 384
#     4  10  20  41  64  91 120 168 214 250 309 390
#     4  11  22  40  62  96 126 160 208 269 320 369
#     4  11  25  37  62  96 131 155 207 275 321 363
#
# _framework density 23.962938999999999
#
# number of rings (size 3 to 8) (size 9 to 14) (size 15 to 20)
#    0.000    1.143    7.143    0.857    2.000    5.143 
#    2.571    0.000    3.143    0.000    0.000    0.000 
#    0.000    0.000    0.000    0.000    0.000    0.000 
#
# Total GULP energy -156495.936582 kJ/mol
# GULP energy per Si atom -5589.140592 kJ/mol
# Density = 2.390840 g / cm^3
# Si number density = 23.962939 Si / 1000 Ang^3
#
#
#
# Elastic Constant Matrix: (Units=GPa)
#
#
# Indices 1 2 3 4 5 6 
#
# 1 25.8573 3.8709 14.1172 0.0000 18.2062 0.0000
# 2 3.8709 147.4186 42.4731 0.0000 -0.2819 0.0000
# 3 14.1172 42.4731 140.0925 0.0000 22.9542 0.0000
# 4 0.0000 0.0000 0.0000 54.6718 0.0000 18.3305
# 5 18.2062 -0.2819 22.9542 0.0000 39.2455 0.0000
# 6 0.0000 0.0000 0.0000 18.3305 0.0000 11.6759
#
#
#
# Elastic Compliance Matrix: (Units=1/GPa)
#
#
# Indices 1 2 3 4 5 6 
#
# 1 0.057951 -0.001234 -0.001171 0.000000 -0.026207 0.000000
# 2 -0.001234 0.007541 -0.002505 0.000000 0.002092 0.000000
# 3 -0.001171 -0.002505 0.008770 0.000000 -0.004604 0.000000
# 4 0.000000 0.000000 0.000000 0.038619 0.000000 -0.060629
# 5 -0.026207 0.002092 -0.004604 0.000000 0.040346 0.000000
# 6 0.000000 0.000000 0.000000 -0.060629 0.000000 0.180830
#
#
# Mechanical properties :
#
#
# Convention : Reuss Voigt Hill
#
# Bulk Modulus (GPa) = 15.51805 48.25453 31.88629
# Shear Modulus (GPa) = 13.68520 37.97914 25.83217
#
# Velocity S-wave (km/s) = 2.39236 3.98541 3.28686
# Velocity P-wave (km/s) = 3.75780 6.43109 5.26688
#
# Compressibility (1/GPa) = 0.06444107
#
# Stress axis : x y z
#
# Youngs Moduli (GPa) = 17.25606 132.60018 114.02584
#
# Poissons Ratio (x) = 0.16366 0.13358
# Poissons Ratio (y) = 0.02130 0.28561
# Poissons Ratio (z) = 0.02021 0.33213
#
# Static dielectric constant tensor:
#      x y z
#    x 2.156990 0.000000 0.075900 
#    y 0.000000 3.669140 0.000000 
#    z 0.075900 0.000000 2.017040 
# 
# From -- ./inp_files/69088.got.cif
#   From: 2010.05.17/outbox.cif.g08.bks.cpg/sg14_35_cif.got.tgz:69088.got - 2010.06.03 17:49:19.
