data_PCOD9244415
_publ_section_title
;
Structure prediction by ZEFSAII (Michael W. Deem and Ramdas Pophale) SiO2 
 PCOD9244415
Probable space group: P 21/C
;
_chemical_formula_sum "Si O2"
_cell_formula_units_Z 16
_cell_length_a 17.928683
_cell_length_b 6.968770
_cell_length_c 13.981411
_cell_angle_alpha 90.000000
_cell_angle_beta 20.712779
_cell_angle_gamma 90.000000
_cell_volume 617.831843
_symmetry_space_group_name_H-M "P 21/C"
_symmetry_group_IT_number 14
_symmetry_cell_setting 'monoclinic'
loop_
_space_group_symop_operation_xyz
x,y,z
-x,1/2+y,1/2-z
-x,-y,-z
x,1/2-y,1/2+z
loop_
_atom_site_type_symbol
_atom_site_label
_atom_site_fract_x
_atom_site_fract_y
_atom_site_fract_z
Si Si1 0.724585 0.341526 0.803971
Si Si2 0.361036 0.294583 0.865328
Si Si3 0.396331 0.690409 0.747197
Si Si4 0.156888 0.218475 0.288667
O O1 0.711233 0.306086 0.707077
O O2 0.789058 0.557671 0.752322
O O3 0.916156 0.202012 0.610230
O O4 0.493954 0.305209 0.123527
O O5 0.285444 0.499288 0.917939
O O6 0.541360 0.310277 0.732763
O O7 0.179440 0.196770 0.146198
O O8 0.629852 0.619393 0.429206
#
# Coordination Sequence:
#
# PCOD9244415 Si02
#       4
#     4   4   4   4
#     4  11  20  40  62  83 120 157 193 247 297 344
#     4  10  20  41  57  90 124 147 207 241 282 368
#     4  10  21  39  58  87 119 160 191 245 296 341
#     4   9  21  39  58  88 115 153 200 236 296 358
#
# _framework density 25.897013000000001
#
# number of rings (size 3 to 8) (size 9 to 14) (size 15 to 20)
#    1.500    0.500    2.500    1.500    0.000    1.000 
#    9.000    0.000    0.000    0.000    0.000    0.000 
#    0.000    0.000    0.000    0.000    0.000    0.000 
#
# Total GULP energy -89147.489160 kJ/mol
# GULP energy per Si atom -5571.718073 kJ/mol
# Density = 2.583807 g / cm^3
# Si number density = 25.897013 Si / 1000 Ang^3
#
#
#
# Elastic Constant Matrix: (Units=GPa)
#
#
# Indices 1 2 3 4 5 6 
#
# 1 63.5759 -7.8126 12.7780 0.0000 24.1872 0.0000
# 2 -7.8126 31.4107 10.0926 0.0000 3.2646 0.0000
# 3 12.7780 10.0926 106.8533 0.0000 -2.0566 0.0000
# 4 0.0000 0.0000 0.0000 21.8018 0.0000 11.5567
# 5 24.1872 3.2646 -2.0566 0.0000 28.7243 0.0000
# 6 0.0000 0.0000 0.0000 11.5567 0.0000 17.7212
#
#
#
# Elastic Compliance Matrix: (Units=1/GPa)
#
#
# Indices 1 2 3 4 5 6 
#
# 1 0.027420 0.010922 -0.004785 0.000000 -0.024673 0.000000
# 2 0.010922 0.037639 -0.005128 0.000000 -0.013842 0.000000
# 3 -0.004785 -0.005128 0.010518 0.000000 0.005365 0.000000
# 4 0.000000 0.000000 0.000000 0.070101 0.000000 -0.045716
# 5 -0.024673 -0.013842 0.005365 0.000000 0.057547 0.000000
# 6 0.000000 0.000000 0.000000 -0.045716 0.000000 0.086243
#
#
# Mechanical properties :
#
#
# Convention : Reuss Voigt Hill
#
# Bulk Modulus (GPa) = 12.88745 25.77287 19.33016
# Shear Modulus (GPa) = 15.95838 26.10158 21.02998
#
# Velocity S-wave (km/s) = 2.48508 3.17819 2.85276
# Velocity P-wave (km/s) = 3.63612 4.84164 4.28152
#
# Compressibility (1/GPa) = 0.07759489
#
# Stress axis : x y z
#
# Youngs Moduli (GPa) = 36.46991 26.56820 95.07071
#
# Poissons Ratio (x) = -0.29017 0.45496
# Poissons Ratio (y) = -0.39832 0.48749
# Poissons Ratio (z) = 0.17453 0.13623
#
# Static dielectric constant tensor:
#      x y z
#    x 2.014550 0.000000 0.008570 
#    y 0.000000 2.160510 0.000000 
#    z 0.008570 0.000000 2.133770 
# 
# From -- ./inp_files/22925.got.cif
#   From: 2010.05.17/outbox.cif.g08.bks.cpg/sg14_12_cif.got.tgz:22925.got - 2010.06.03 17:49:19.
