data_PCOD9244615
_publ_section_title
;
Structure prediction by ZEFSAII (Michael W. Deem and Ramdas Pophale) SiO2 
 PCOD9244615
Probable space group: P 21/C
;
_chemical_formula_sum "Si O2"
_cell_formula_units_Z 32
_cell_length_a 22.831793
_cell_length_b 6.893097
_cell_length_c 14.642569
_cell_angle_alpha 90.000000
_cell_angle_beta 150.744022
_cell_angle_gamma 90.000000
_cell_volume 1126.224399
_symmetry_space_group_name_H-M "P 21/C"
_symmetry_group_IT_number 14
_symmetry_cell_setting 'monoclinic'
loop_
_space_group_symop_operation_xyz
x,y,z
-x,1/2+y,1/2-z
-x,-y,-z
x,1/2-y,1/2+z
loop_
_atom_site_type_symbol
_atom_site_label
_atom_site_fract_x
_atom_site_fract_y
_atom_site_fract_z
Si Si1 0.017717 0.343421 0.180208
Si Si2 0.187747 0.224629 0.275482
Si Si3 0.512689 0.652394 0.630767
Si Si4 0.759223 0.222657 0.291255
Si Si5 0.463647 0.783742 0.274980
Si Si6 0.649462 0.862930 0.658697
Si Si7 0.785924 0.296976 0.118592
Si Si8 0.972082 0.607676 0.608488
O O1 0.078487 0.358793 0.360834
O O2 0.120296 0.383976 0.244526
O O3 0.873964 0.401069 0.987128
O O4 0.999175 0.116443 0.137245
O O5 0.291369 0.269027 0.342364
O O6 0.232584 0.034500 0.393860
O O7 0.087525 0.166504 0.065878
O O8 0.379830 0.658729 0.404097
O O9 0.536604 0.425961 0.678729
O O10 0.510710 0.728316 0.734146
O O11 0.609086 0.749110 0.693454
O O12 0.734115 0.448522 0.288584
O O13 0.799164 0.239117 0.240921
O O14 0.531632 0.923731 0.438549
O O15 0.323474 0.820048 0.071977
O O16 0.904206 0.274048 0.221348
#
# Coordination Sequence:
#
# PCOD9244615 Si02
#       8
#     4   4   4   4   4   4   4   4
#     4  11  22  42  66  99 127 172 230 269 340 398
#     4  10  20  43  69  92 130 178 213 273 332 393
#     4  11  24  42  66  99 134 179 220 276 340 404
#     4  10  20  42  65  91 135 175 213 280 337 395
#     4  11  24  43  65 101 133 177 227 274 337 402
#     4  11  23  41  69  96 132 176 225 276 334 404
#     4   9  18  38  66  85 124 172 210 262 327 391
#     4  11  21  39  67  94 124 174 221 268 329 403
#
# _framework density 28.413520999999999
#
# number of rings (size 3 to 8) (size 9 to 14) (size 15 to 20)
#    0.000    1.500    3.750    3.750    1.750    3.000 
#    4.500    0.625    0.000    0.000    0.000    0.000 
#    0.000    0.000    0.000    0.000    0.000    0.000 
#
# Total GULP energy -178874.421920 kJ/mol
# GULP energy per Si atom -5589.825685 kJ/mol
# Density = 2.834885 g / cm^3
# Si number density = 28.413521 Si / 1000 Ang^3
#
#
#
# Elastic Constant Matrix: (Units=GPa)
#
#
# Indices 1 2 3 4 5 6 
#
# 1 172.9569 38.3546 33.9764 0.0000 -13.6826 0.0000
# 2 38.3546 70.8886 9.6911 0.0000 -13.2565 0.0000
# 3 33.9764 9.6911 128.5326 0.0000 -14.3296 0.0000
# 4 0.0000 0.0000 0.0000 45.8250 0.0000 -10.0979
# 5 -13.6826 -13.2565 -14.3296 0.0000 36.2482 0.0000
# 6 0.0000 0.0000 0.0000 -10.0979 0.0000 28.9068
#
#
#
# Elastic Compliance Matrix: (Units=1/GPa)
#
#
# Indices 1 2 3 4 5 6 
#
# 1 0.006882 -0.003376 -0.001478 0.000000 0.000779 0.000000
# 2 -0.003376 0.016835 0.000175 0.000000 0.004952 0.000000
# 3 -0.001478 0.000175 0.008476 0.000000 0.002857 0.000000
# 4 0.000000 0.000000 0.000000 0.023642 0.000000 0.008259
# 5 0.000779 0.004952 0.002857 0.000000 0.030822 0.000000
# 6 0.000000 0.000000 0.000000 0.008259 0.000000 0.037479
#
#
# Mechanical properties :
#
#
# Convention : Reuss Voigt Hill
#
# Bulk Modulus (GPa) = 43.79012 59.60250 51.69631
# Shear Modulus (GPa) = 35.43423 41.55306 38.49365
#
# Velocity S-wave (km/s) = 3.53525 3.82833 3.68471
# Velocity P-wave (km/s) = 5.66649 6.36898 6.02798
#
# Compressibility (1/GPa) = 0.02283620
#
# Stress axis : x y z
#
# Youngs Moduli (GPa) = 145.29805 59.39889 117.97870
#
# Poissons Ratio (x) = 0.20053 0.17436
# Poissons Ratio (y) = 0.49053 -0.02066
# Poissons Ratio (z) = 0.21474 -0.01040
#
# Static dielectric constant tensor:
#      x y z
#    x 2.241560 0.000000 0.189590 
#    y 0.000000 2.290470 0.000000 
#    z 0.189590 0.000000 2.380010 
# 
# From -- ./inp_files/51266.got.cif
#   From: 2010.05.17/outbox.cif.g08.bks.cpg/sg14_26_cif.got.tgz:51266.got - 2010.06.03 17:49:19.
