data_PCOD9244796
_publ_section_title
;
Structure prediction by ZEFSAII (Michael W. Deem and Ramdas Pophale) SiO2 
 PCOD9244796
Probable space group: P 21/C
;
_chemical_formula_sum "Si O2"
_cell_formula_units_Z 24
_cell_length_a 11.477879
_cell_length_b 9.694514
_cell_length_c 14.612727
_cell_angle_alpha 90.000000
_cell_angle_beta 38.193052
_cell_angle_gamma 90.000000
_cell_volume 1005.373418
_symmetry_space_group_name_H-M "P 21/C"
_symmetry_group_IT_number 14
_symmetry_cell_setting 'monoclinic'
loop_
_space_group_symop_operation_xyz
x,y,z
-x,1/2+y,1/2-z
-x,-y,-z
x,1/2-y,1/2+z
loop_
_atom_site_type_symbol
_atom_site_label
_atom_site_fract_x
_atom_site_fract_y
_atom_site_fract_z
Si Si1 0.925750 0.190603 0.686914
Si Si2 0.703427 0.686472 0.564935
Si Si3 0.116297 0.530572 0.175154
Si Si4 0.634819 0.199550 0.584515
Si Si5 0.930524 0.077635 0.951443
Si Si6 0.479151 0.839137 0.035136
O O1 0.113105 0.227594 0.515007
O O2 0.927446 0.316387 0.759789
O O3 0.712037 0.187833 0.787305
O O4 0.960022 0.042783 0.710549
O O5 0.531456 0.696435 0.740198
O O6 0.768473 0.528068 0.518364
O O7 0.640354 0.722135 0.500705
O O8 0.106205 0.437566 0.272998
O O9 0.294608 0.552559 0.999436
O O10 0.819420 0.278150 0.513205
O O11 0.553963 0.271060 0.542743
O O12 0.000000 0.000000 0.000000
O O13 0.500000 0.000000 0.000000
#
# Coordination Sequence:
#
# PCOD9244796 Si02
#       6
#     4   4   4   4   4   4
#     4  10  22  42  69 100 139 180 233 291 350 419
#     4  11  26  43  68 106 139 181 239 290 358 421
#     4  10  20  44  69  98 132 186 234 279 353 420
#     4  11  25  43  68 103 140 183 238 293 354 423
#     4  11  24  46  68  99 144 183 236 294 350 419
#     4  11  21  47  73  95 144 188 234 298 346 425
#
# _framework density 23.871727
#
# number of rings (size 3 to 8) (size 9 to 14) (size 15 to 20)
#    0.000    1.333    5.000    1.000    9.333    1.333 
#    3.000    5.833    0.000    0.000    0.000    0.000 
#    0.000    0.000    0.000    0.000    0.000    0.000 
#
# Total GULP energy -133747.541506 kJ/mol
# GULP energy per Si atom -5572.814229 kJ/mol
# Density = 2.381739 g / cm^3
# Si number density = 23.871727 Si / 1000 Ang^3
#
#
#
# Elastic Constant Matrix: (Units=GPa)
#
#
# Indices 1 2 3 4 5 6 
#
# 1 81.0503 -3.7098 24.6569 0.0000 4.7751 0.0000
# 2 -3.7098 65.3121 21.3187 0.0000 -5.4915 0.0000
# 3 24.6569 21.3187 170.6935 0.0000 0.6886 0.0000
# 4 0.0000 0.0000 0.0000 30.7517 0.0000 -9.3883
# 5 4.7751 -5.4915 0.6886 0.0000 31.1736 0.0000
# 6 0.0000 0.0000 0.0000 -9.3883 0.0000 20.9729
#
#
#
# Elastic Compliance Matrix: (Units=1/GPa)
#
#
# Indices 1 2 3 4 5 6 
#
# 1 0.013121 0.001267 -0.002047 0.000000 -0.001741 0.000000
# 2 0.001267 0.016343 -0.002235 0.000000 0.002734 0.000000
# 3 -0.002047 -0.002235 0.006434 0.000000 -0.000222 0.000000
# 4 0.000000 0.000000 0.000000 0.037666 0.000000 0.016861
# 5 -0.001741 0.002734 -0.000222 0.000000 0.032832 0.000000
# 6 0.000000 0.000000 0.000000 0.016861 0.000000 0.055228
#
#
# Mechanical properties :
#
#
# Convention : Reuss Voigt Hill
#
# Bulk Modulus (GPa) = 33.48033 44.62082 39.05058
# Shear Modulus (GPa) = 28.15163 34.89897 31.52530
#
# Velocity S-wave (km/s) = 3.43780 3.82768 3.63797
# Velocity P-wave (km/s) = 5.46018 6.18606 5.83442
#
# Compressibility (1/GPa) = 0.02986829
#
# Stress axis : x y z
#
# Youngs Moduli (GPa) = 76.21244 61.19000 155.42089
#
# Poissons Ratio (x) = -0.07752 0.31808
# Poissons Ratio (y) = -0.09655 0.34739
# Poissons Ratio (z) = 0.15598 0.13677
#
# Static dielectric constant tensor:
#      x y z
#    x 1.911750 0.000000 0.017840 
#    y 0.000000 1.947980 0.000000 
#    z 0.017840 0.000000 2.035700 
# 
# From -- ./inp_files/44254.got.cif
#   From: 2010.05.17/outbox.cif.g08.bks.cpg/sg14_23_cif.got.tgz:44254.got - 2010.06.03 17:49:19.
