data_PCOD9244074
_publ_section_title
;
Structure prediction by ZEFSAII (Michael W. Deem and Ramdas Pophale) SiO2 
 PCOD9244074
Probable space group: P 21/C
;
_chemical_formula_sum "Si O2"
_cell_formula_units_Z 32
_cell_length_a 5.448511
_cell_length_b 17.391262
_cell_length_c 14.760451
_cell_angle_alpha 90.000000
_cell_angle_beta 101.608031
_cell_angle_gamma 90.000000
_cell_volume 1370.041936
_symmetry_space_group_name_H-M "P 21/C"
_symmetry_group_IT_number 14
_symmetry_cell_setting 'monoclinic'
loop_
_space_group_symop_operation_xyz
x,y,z
-x,1/2+y,1/2-z
-x,-y,-z
x,1/2-y,1/2+z
loop_
_atom_site_type_symbol
_atom_site_label
_atom_site_fract_x
_atom_site_fract_y
_atom_site_fract_z
Si Si1 0.304965 0.929865 0.234874
Si Si2 0.256883 0.100494 0.868202
Si Si3 0.776699 0.156918 0.160942
Si Si4 0.552487 0.910430 0.736880
Si Si5 0.984798 0.700866 0.993712
Si Si6 0.156819 0.278181 0.821313
Si Si7 0.120352 0.380252 0.558131
Si Si8 0.560936 0.313346 0.102416
O O1 0.492121 0.929258 0.162014
O O2 0.367921 0.856194 0.300291
O O3 0.010715 0.928579 0.190630
O O4 0.381111 0.006611 0.294828
O O5 0.255418 0.192717 0.846763
O O6 0.228627 0.087568 0.973648
O O7 0.718979 0.102711 0.241632
O O8 0.572631 0.220747 0.118742
O O9 0.993832 0.212848 0.218170
O O10 0.847717 0.102502 0.082321
O O11 0.626487 0.840674 0.677793
O O12 0.710739 0.902139 0.843099
O O13 0.942674 0.790890 0.967628
O O14 0.719497 0.663591 0.946108
O O15 0.225726 0.671688 0.957165
O O16 0.003921 0.699264 0.102965
#
# Coordination Sequence:
#
# PCOD9244074 Si02
#       8
#     4   4   4   4   4   4   4   4
#     4  12  27  41  64  94 136 175 208 259 325 388
#     4  11  25  43  66  97 127 168 220 263 316 385
#     4  10  20  39  66  89 128 163 216 263 314 376
#     4  11  24  41  64  94 134 173 209 261 324 385
#     4  10  22  39  69  96 120 161 221 275 310 365
#     4  10  23  41  69  97 122 167 222 270 313 377
#     4   9  22  38  63  95 124 166 214 266 315 375
#     4  11  21  42  63  91 125 167 211 264 318 376
#
# _framework density 23.356949
#
# number of rings (size 3 to 8) (size 9 to 14) (size 15 to 20)
#    0.000    1.500    2.500    1.500    8.750    3.000 
#    0.000    1.250    0.000    0.000    0.000    0.000 
#    0.000    0.000    0.000    0.000    0.000    0.000 
#
# Total GULP energy -178529.778875 kJ/mol
# GULP energy per Si atom -5579.055590 kJ/mol
# Density = 2.330379 g / cm^3
# Si number density = 23.356949 Si / 1000 Ang^3
#
#
#
# Elastic Constant Matrix: (Units=GPa)
#
#
# Indices 1 2 3 4 5 6 
#
# 1 93.5449 22.8711 21.9339 0.0000 -31.1501 0.0000
# 2 22.8711 62.6368 6.0048 0.0000 -14.4131 0.0000
# 3 21.9339 6.0048 83.1913 0.0000 -25.8529 0.0000
# 4 0.0000 0.0000 0.0000 -1.2053 0.0000 -3.7843
# 5 -31.1501 -14.4131 -25.8529 0.0000 42.1042 0.0000
# 6 0.0000 0.0000 0.0000 -3.7843 0.0000 20.7911
#
#
#
# Elastic Compliance Matrix: (Units=1/GPa)
#
#
# Indices 1 2 3 4 5 6 
#
# 1 0.014762 -0.003160 -0.000749 0.000000 0.009379 0.000000
# 2 -0.003160 0.018043 0.000894 0.000000 0.004388 0.000000
# 3 -0.000749 0.000894 0.014924 0.000000 0.008916 0.000000
# 4 0.000000 0.000000 0.000000 -0.527947 0.000000 -0.096094
# 5 0.009379 0.004388 0.008916 0.000000 0.037666 0.000000
# 6 0.000000 0.000000 0.000000 -0.096094 0.000000 0.030607
#
#
# Mechanical properties :
#
#
# Convention : Reuss Voigt Hill
#
# Bulk Modulus (GPa) = 23.98134 37.88807 30.93470
# Shear Modulus (GPa) = -12.75457 24.90889 6.07716
#
# Velocity S-wave (km/s) = -2.33935 3.26919 1.61478
# Velocity P-wave (km/s) = 1.72999 5.52328 4.09265
#
# Compressibility (1/GPa) = 0.04169909
#
# Stress axis : x y z
#
# Youngs Moduli (GPa) = 67.74319 55.42382 67.00570
#
# Poissons Ratio (x) = 0.17514 0.05019
# Poissons Ratio (y) = 0.21407 -0.05993
# Poissons Ratio (z) = 0.05075 -0.04957
#
# Static dielectric constant tensor:
#      x y z
#    x 2.115430 0.000000 -0.056470 
#    y 0.000000 1.884580 0.000000 
#    z -0.056470 0.000000 1.901590 
# 
# From -- ./inp_files/37699.got.cif
#   From: 2010.05.17/outbox.cif.g08.bks.cpg/sg14_19_cif.got.tgz:37699.got - 2010.06.03 17:49:19.
