data_PCOD9244664
_publ_section_title
;
Structure prediction by ZEFSAII (Michael W. Deem and Ramdas Pophale) SiO2 
 PCOD9244664
Probable space group: P 21/C
;
_chemical_formula_sum "Si O2"
_cell_formula_units_Z 32
_cell_length_a 9.730504
_cell_length_b 22.802787
_cell_length_c 8.538779
_cell_angle_alpha 90.000000
_cell_angle_beta 47.101252
_cell_angle_gamma 90.000000
_cell_volume 1387.908772
_symmetry_space_group_name_H-M "P 21/C"
_symmetry_group_IT_number 14
_symmetry_cell_setting 'monoclinic'
loop_
_space_group_symop_operation_xyz
x,y,z
-x,1/2+y,1/2-z
-x,-y,-z
x,1/2-y,1/2+z
loop_
_atom_site_type_symbol
_atom_site_label
_atom_site_fract_x
_atom_site_fract_y
_atom_site_fract_z
Si Si1 0.560218 0.910871 0.601726
Si Si2 0.801267 0.390410 0.003427
Si Si3 0.530529 0.229380 0.891892
Si Si4 0.967063 0.887712 0.367742
Si Si5 0.474106 0.025724 0.846713
Si Si6 0.956550 0.513292 0.353790
Si Si7 0.469700 0.333046 0.145437
Si Si8 0.731233 0.322699 0.532843
O O1 0.533860 0.977851 0.669558
O O2 0.589720 0.892520 0.397455
O O3 0.743690 0.886591 0.546488
O O4 0.376776 0.877053 0.803818
O O5 0.697725 0.339788 0.985919
O O6 0.902335 0.437422 0.816493
O O7 0.941848 0.375617 0.034221
O O8 0.618469 0.421296 0.221155
O O9 0.418417 0.280675 0.066943
O O10 0.414085 0.190376 0.859403
O O11 0.687300 0.266619 0.674170
O O12 0.626258 0.190788 0.950740
O O13 0.019460 0.953783 0.267814
O O14 0.060382 0.842939 0.171876
O O15 0.254188 0.036563 0.000792
O O16 0.500000 0.000000 0.000000
O O17 0.000000 0.500000 0.500000
#
# Coordination Sequence:
#
# PCOD9244664 Si02
#       8
#     4   4   4   4   4   4   4   4
#     4  11  23  39  65  95 133 172 219 263 324 391
#     4  12  24  42  66  96 137 174 222 261 329 393
#     4   9  20  42  71  90 120 167 218 271 336 388
#     4  12  23  42  63  97 134 175 216 269 321 397
#     4  12  23  41  65  95 137 188 216 258 326 397
#     4  12  26  39  61  97 138 177 219 269 318 393
#     4  10  22  41  69  94 122 171 210 278 327 390
#     4  10  20  42  68  90 127 167 216 269 338 381
#
# _framework density 23.056270000000001
#
# number of rings (size 3 to 8) (size 9 to 14) (size 15 to 20)
#    0.000    1.000    5.000    1.875    3.500    1.000 
#    0.000    5.000    0.000    0.000    0.000    0.000 
#    0.000    0.000    0.000    0.000    0.000    0.000 
#
# Total GULP energy -178858.700420 kJ/mol
# GULP energy per Si atom -5589.334388 kJ/mol
# Density = 2.300379 g / cm^3
# Si number density = 23.056270 Si / 1000 Ang^3
#
#
#
# Elastic Constant Matrix: (Units=GPa)
#
#
# Indices 1 2 3 4 5 6 
#
# 1 101.9835 -0.6917 21.4158 0.0000 12.1459 0.0000
# 2 -0.6917 51.3752 1.5134 0.0000 13.9704 0.0000
# 3 21.4158 1.5134 63.9018 0.0000 4.9993 0.0000
# 4 0.0000 0.0000 0.0000 27.8794 0.0000 8.3584
# 5 12.1459 13.9704 4.9993 0.0000 45.9802 0.0000
# 6 0.0000 0.0000 0.0000 8.3584 0.0000 32.7508
#
#
#
# Elastic Compliance Matrix: (Units=1/GPa)
#
#
# Indices 1 2 3 4 5 6 
#
# 1 0.010870 0.001010 -0.003448 0.000000 -0.002804 0.000000
# 2 0.001010 0.021312 -0.000319 0.000000 -0.006707 0.000000
# 3 -0.003448 -0.000319 0.016877 0.000000 -0.000827 0.000000
# 4 0.000000 0.000000 0.000000 0.038841 0.000000 -0.009913
# 5 -0.002804 -0.006707 -0.000827 0.000000 0.024617 0.000000
# 6 0.000000 0.000000 0.000000 -0.009913 0.000000 0.033063
#
#
# Mechanical properties :
#
#
# Convention : Reuss Voigt Hill
#
# Bulk Modulus (GPa) = 22.96381 29.08172 26.02276
# Shear Modulus (GPa) = 30.19197 34.32361 32.25779
#
# Velocity S-wave (km/s) = 3.62261 3.86254 3.74450
# Velocity P-wave (km/s) = 5.24207 5.70377 5.47779
#
# Compressibility (1/GPa) = 0.04354679
#
# Stress axis : x y z
#
# Youngs Moduli (GPa) = 91.99438 46.92284 59.25326
#
# Poissons Ratio (x) = -0.04741 0.20428
# Poissons Ratio (y) = -0.09294 0.01887
# Poissons Ratio (z) = 0.31716 0.01495
#
# Static dielectric constant tensor:
#      x y z
#    x 1.880130 0.000000 0.055370 
#    y 0.000000 1.934850 0.000000 
#    z 0.055370 0.000000 1.869610 
# 
# From -- ./inp_files/11062.got.cif
#   From: 2010.05.17/outbox.cif.g08.bks.cpg/sg14_6_cif.got.tgz:11062.got - 2010.06.03 17:49:19.
