data_PCOD9244427
_publ_section_title
;
Structure prediction by ZEFSAII (Michael W. Deem and Ramdas Pophale) SiO2 
 PCOD9244427
Probable space group: P 21/C
;
_chemical_formula_sum "Si O2"
_cell_formula_units_Z 32
_cell_length_a 9.081279
_cell_length_b 9.391450
_cell_length_c 29.975145
_cell_angle_alpha 90.000000
_cell_angle_beta 29.731417
_cell_angle_gamma 90.000000
_cell_volume 1267.843432
_symmetry_space_group_name_H-M "P 21/C"
_symmetry_group_IT_number 14
_symmetry_cell_setting 'monoclinic'
loop_
_space_group_symop_operation_xyz
x,y,z
-x,1/2+y,1/2-z
-x,-y,-z
x,1/2-y,1/2+z
loop_
_atom_site_type_symbol
_atom_site_label
_atom_site_fract_x
_atom_site_fract_y
_atom_site_fract_z
Si Si1 0.372701 0.852570 0.451520
Si Si2 0.061294 0.535410 0.224104
Si Si3 0.511514 0.216100 0.162525
Si Si4 0.617509 0.066731 0.220913
Si Si5 0.083870 0.545039 0.907382
Si Si6 0.844250 0.225139 0.732877
Si Si7 0.614136 0.721738 0.975992
Si Si8 0.051540 0.632888 0.658232
O O1 0.626328 0.964892 0.371720
O O2 0.447266 0.712049 0.401886
O O3 0.381736 0.852526 0.503361
O O4 0.045271 0.914011 0.530990
O O5 0.149373 0.690702 0.221623
O O6 0.952183 0.468928 0.298957
O O7 0.847458 0.442965 0.245847
O O8 0.666794 0.116082 0.157514
O O9 0.678752 0.364996 0.127354
O O10 0.168572 0.236459 0.268614
O O11 0.622473 0.198023 0.255909
O O12 0.289620 0.004128 0.312617
O O13 0.865965 0.951293 0.169185
O O14 0.813174 0.641135 0.960112
O O15 0.145067 0.257849 0.625454
O O16 0.388384 0.831052 0.057738
#
# Coordination Sequence:
#
# PCOD9244427 Si02
#       8
#     4   4   4   4   4   4   4   4
#     4  10  22  39  59  96 130 163 228 282 321 392
#     4   9  21  39  64  91 136 176 216 286 336 398
#     4  10  20  41  61  90 131 174 209 276 345 397
#     4  10  21  41  64  92 134 179 223 271 351 413
#     4  11  22  39  67  93 126 177 225 280 330 402
#     4  10  21  42  62  98 136 172 230 275 346 407
#     4  11  22  41  63  97 127 171 235 276 329 406
#     4   9  21  39  63  89 129 178 219 277 335 403
#
# _framework density 25.239711
#
# number of rings (size 3 to 8) (size 9 to 14) (size 15 to 20)
#    0.000    2.000    1.250    2.250    1.750    2.000 
#   11.250    0.625    0.000    0.000    0.000    0.000 
#    0.000    0.000    0.000    0.000    0.000    0.000 
#
# Total GULP energy -178149.333396 kJ/mol
# GULP energy per Si atom -5567.166669 kJ/mol
# Density = 2.518226 g / cm^3
# Si number density = 25.239711 Si / 1000 Ang^3
#
#
#
# Elastic Constant Matrix: (Units=GPa)
#
#
# Indices 1 2 3 4 5 6 
#
# 1 108.5139 6.0676 -5.7177 0.0000 -5.1516 0.0000
# 2 6.0676 47.3085 -18.0016 0.0000 -0.2158 0.0000
# 3 -5.7177 -18.0016 57.0234 0.0000 -5.0767 0.0000
# 4 0.0000 0.0000 0.0000 34.2062 0.0000 -7.0432
# 5 -5.1516 -0.2158 -5.0767 0.0000 25.1352 0.0000
# 6 0.0000 0.0000 0.0000 -7.0432 0.0000 28.0799
#
#
#
# Elastic Compliance Matrix: (Units=1/GPa)
#
#
# Indices 1 2 3 4 5 6 
#
# 1 0.009409 -0.000872 0.000854 0.000000 0.002093 0.000000
# 2 -0.000872 0.024182 0.007687 0.000000 0.001582 0.000000
# 3 0.000854 0.007687 0.020438 0.000000 0.004369 0.000000
# 4 0.000000 0.000000 0.000000 0.030827 0.000000 0.007732
# 5 0.002093 0.001582 0.004369 0.000000 0.041110 0.000000
# 6 0.000000 0.000000 0.000000 0.007732 0.000000 0.037552
#
#
# Mechanical properties :
#
#
# Convention : Reuss Voigt Hill
#
# Bulk Modulus (GPa) = 14.41578 19.72693 17.07135
# Shear Modulus (GPa) = 29.18847 32.85077 31.01962
#
# Velocity S-wave (km/s) = 3.40435 3.61162 3.50951
# Velocity P-wave (km/s) = 4.60182 5.02240 4.81670
#
# Compressibility (1/GPa) = 0.06936844
#
# Stress axis : x y z
#
# Youngs Moduli (GPa) = 106.28601 41.35298 48.92811
#
# Poissons Ratio (x) = 0.03606 -0.04181
# Poissons Ratio (y) = 0.09268 -0.37613
# Poissons Ratio (z) = -0.09082 -0.31790
#
# Static dielectric constant tensor:
#      x y z
#    x 2.197280 0.000000 -0.022740 
#    y 0.000000 2.229430 0.000000 
#    z -0.022740 0.000000 1.951580 
# 
# From -- ./inp_files/79602.got.cif
#   From: 2010.05.17/outbox.cif.g08.bks.cpg/sg14_40_cif.got.tgz:79602.got - 2010.06.03 17:49:19.
