data_PCOD9244475
_publ_section_title
;
Structure prediction by ZEFSAII (Michael W. Deem and Ramdas Pophale) SiO2 
 PCOD9244475
Probable space group: P 21/C
;
_chemical_formula_sum "Si O2"
_cell_formula_units_Z 20
_cell_length_a 20.522996
_cell_length_b 7.264878
_cell_length_c 12.512269
_cell_angle_alpha 90.000000
_cell_angle_beta 25.840814
_cell_angle_gamma 90.000000
_cell_volume 813.138360
_symmetry_space_group_name_H-M "P 21/C"
_symmetry_group_IT_number 14
_symmetry_cell_setting 'monoclinic'
loop_
_space_group_symop_operation_xyz
x,y,z
-x,1/2+y,1/2-z
-x,-y,-z
x,1/2-y,1/2+z
loop_
_atom_site_type_symbol
_atom_site_label
_atom_site_fract_x
_atom_site_fract_y
_atom_site_fract_z
Si Si1 0.674695 0.052266 0.734636
Si Si2 0.848346 0.402398 0.410104
Si Si3 0.685546 0.434439 0.454112
Si Si4 0.925614 0.609704 0.509902
Si Si5 0.667818 0.997038 0.514117
O O1 0.718406 0.264550 0.646186
O O2 0.724380 0.956779 0.551366
O O3 0.738019 0.013423 0.758031
O O4 0.500000 0.000000 0.000000
O O5 0.773467 0.516972 0.424846
O O6 0.916339 0.503135 0.411100
O O7 0.975518 0.284653 0.163448
O O8 0.509820 0.474113 0.726299
O O9 0.699941 0.211536 0.440784
O O10 0.000000 0.500000 0.500000
O O11 0.754665 0.626367 0.801509
#
# Coordination Sequence:
#
# PCOD9244475 Si02
#       5
#     4   4   4   4   4
#     4   9  17  36  65  90 122 167 205 261 324 380
#     4  11  23  43  67  92 134 176 220 273 325 387
#     4  10  20  41  64  97 128 165 215 271 323 394
#     4  12  23  47  67  93 138 179 216 275 331 391
#     4  10  21  39  68  92 131 169 213 269 329 385
#
# _framework density 24.596062
#
# number of rings (size 3 to 8) (size 9 to 14) (size 15 to 20)
#    0.000    1.600    6.000    0.000    0.000    0.800 
#   14.400    2.000    0.000    0.000    0.000    0.000 
#    0.000    0.000    0.000    0.000    0.000    0.000 
#
# Total GULP energy -111804.916914 kJ/mol
# GULP energy per Si atom -5590.245846 kJ/mol
# Density = 2.454008 g / cm^3
# Si number density = 24.596062 Si / 1000 Ang^3
#
#
#
# Elastic Constant Matrix: (Units=GPa)
#
#
# Indices 1 2 3 4 5 6 
#
# 1 247.0564 40.5937 56.0799 0.0000 17.6847 0.0000
# 2 40.5937 66.8426 17.0147 0.0000 2.0326 0.0000
# 3 56.0799 17.0147 111.3328 0.0000 15.2695 0.0000
# 4 0.0000 0.0000 0.0000 24.1246 0.0000 -3.9945
# 5 17.6847 2.0326 15.2695 0.0000 41.4067 0.0000
# 6 0.0000 0.0000 0.0000 -3.9945 0.0000 30.6934
#
#
#
# Elastic Compliance Matrix: (Units=1/GPa)
#
#
# Indices 1 2 3 4 5 6 
#
# 1 0.004994 -0.002496 -0.001958 0.000000 -0.001289 0.000000
# 2 -0.002496 0.016814 -0.001417 0.000000 0.000763 0.000000
# 3 -0.001958 -0.001417 0.010596 0.000000 -0.003002 0.000000
# 4 0.000000 0.000000 0.000000 0.042364 0.000000 0.005513
# 5 -0.001289 0.000763 -0.003002 0.000000 0.025771 0.000000
# 6 0.000000 0.000000 0.000000 0.005513 0.000000 0.033298
#
#
# Mechanical properties :
#
#
# Convention : Reuss Voigt Hill
#
# Bulk Modulus (GPa) = 48.39401 72.51206 60.45304
# Shear Modulus (GPa) = 32.79427 40.01452 36.40440
#
# Velocity S-wave (km/s) = 3.65542 4.03782 3.85137
# Velocity P-wave (km/s) = 6.12653 7.16127 6.66401
#
# Compressibility (1/GPa) = 0.02066372
#
# Stress axis : x y z
#
# Youngs Moduli (GPa) = 200.22818 59.47557 94.37125
#
# Poissons Ratio (x) = 0.14843 0.18474
# Poissons Ratio (y) = 0.49968 0.13374
# Poissons Ratio (z) = 0.39196 0.08429
#
# Static dielectric constant tensor:
#      x y z
#    x 1.982980 0.000000 -0.031130 
#    y 0.000000 1.997900 0.000000 
#    z -0.031130 0.000000 1.949440 
# 
# From -- ./inp_files/27863.got.cif
#   From: 2010.05.17/outbox.cif.g08.bks.cpg/sg14_14_cif.got.tgz:27863.got - 2010.06.03 17:49:19.
