data_PCOD9244006
_publ_section_title
;
Structure prediction by ZEFSAII (Michael W. Deem and Ramdas Pophale) SiO2 
 PCOD9244006
Probable space group: P 21/C
;
_chemical_formula_sum "Si O2"
_cell_formula_units_Z 30
_cell_length_a 8.873459
_cell_length_b 21.953265
_cell_length_c 8.689309
_cell_angle_alpha 90.000000
_cell_angle_beta 91.379294
_cell_angle_gamma 90.000000
_cell_volume 1692.199081
_symmetry_space_group_name_H-M "P 21/C"
_symmetry_group_IT_number 14
_symmetry_cell_setting 'monoclinic'
loop_
_space_group_symop_operation_xyz
x,y,z
-x,1/2+y,1/2-z
-x,-y,-z
x,1/2-y,1/2+z
loop_
_atom_site_type_symbol
_atom_site_label
_atom_site_fract_x
_atom_site_fract_y
_atom_site_fract_z
Si Si1 0.530318 0.128716 0.833379
Si Si2 0.686032 0.281892 0.567340
Si Si3 0.204129 0.325314 0.845396
Si Si4 0.338586 0.573911 0.977018
Si Si5 0.636517 0.775114 0.346281
Si Si6 0.500000 0.500000 0.500000
Si Si7 0.848054 0.176937 0.381181
Si Si8 0.364569 0.451105 0.816848
O O1 0.604556 0.109053 0.673562
O O2 0.394387 0.173926 0.784476
O O3 0.646064 0.167108 0.940256
O O4 0.482609 0.068877 0.923566
O O5 0.527132 0.252540 0.615853
O O6 0.787755 0.229619 0.493546
O O7 0.766723 0.310785 0.716512
O O8 0.260421 0.278440 0.717208
O O9 0.256164 0.393396 0.806023
O O10 0.026332 0.321112 0.865796
O O11 0.290323 0.305746 0.003274
O O12 0.299931 0.505678 0.921382
O O13 0.207756 0.612570 0.052575
O O14 0.479018 0.569428 0.097841
O O15 0.407349 0.477845 0.652742
#
# Coordination Sequence:
#
# PCOD9244006 Si02
#       8
#     4   4   4   4   4   2   4   4
#     4  11  20  36  65  89 114 152 211 259 292 352
#     4  12  21  39  64  86 120 164 213 244 301 371
#     4  12  25  38  59  94 131 155 196 259 324 360
#     4  10  20  39  64  88 116 162 216 250 296 363
#     4  12  21  38  62  89 116 162 207 255 297 365
#     4  10  22  36  62  94 116 150 206 266 302 346
#     4  12  23  38  58  91 128 164 197 255 323 374
#     4  10  21  39  64  90 119 160 212 261 294 366
#
# _framework density 17.728411000000001
#
# number of rings (size 3 to 8) (size 9 to 14) (size 15 to 20)
#    0.000    0.800    5.333    3.200    0.000    0.533 
#    0.000    0.000    0.000    4.000    0.000    0.000 
#    0.000    0.000    0.000    0.000    0.000    0.000 
#
# Total GULP energy -167107.788088 kJ/mol
# GULP energy per Si atom -5570.259603 kJ/mol
# Density = 1.768806 g / cm^3
# Si number density = 17.728411 Si / 1000 Ang^3
#
#
#
# Elastic Constant Matrix: (Units=GPa)
#
#
# Indices 1 2 3 4 5 6 
#
# 1 98.7151 36.0383 25.4304 0.0000 -12.4839 0.0000
# 2 36.0383 90.3748 12.6369 0.0000 -13.0876 0.0000
# 3 25.4304 12.6369 49.2083 0.0000 -3.7574 0.0000
# 4 0.0000 0.0000 0.0000 37.4159 0.0000 -10.4436
# 5 -12.4839 -13.0876 -3.7574 0.0000 23.5928 0.0000
# 6 0.0000 0.0000 0.0000 -10.4436 0.0000 21.8681
#
#
#
# Elastic Compliance Matrix: (Units=1/GPa)
#
#
# Indices 1 2 3 4 5 6 
#
# 1 0.013575 -0.004035 -0.005671 0.000000 0.004042 0.000000
# 2 -0.004035 0.013572 -0.001000 0.000000 0.005234 0.000000
# 3 -0.005671 -0.001000 0.023524 0.000000 0.000191 0.000000
# 4 0.000000 0.000000 0.000000 0.030837 0.000000 0.014727
# 5 0.004042 0.005234 0.000191 0.000000 0.047458 0.000000
# 6 0.000000 0.000000 0.000000 0.014727 0.000000 0.052762
#
#
# Mechanical properties :
#
#
# Convention : Reuss Voigt Hill
#
# Bulk Modulus (GPa) = 34.17791 42.94548 38.56169
# Shear Modulus (GPa) = 23.48586 27.52153 25.50370
#
# Velocity S-wave (km/s) = 3.64367 3.94432 3.79697
# Velocity P-wave (km/s) = 6.08459 6.70971 6.40478
#
# Compressibility (1/GPa) = 0.02925867
#
# Stress axis : x y z
#
# Youngs Moduli (GPa) = 73.66327 73.68123 42.51007
#
# Poissons Ratio (x) = 0.29731 0.24106
# Poissons Ratio (y) = 0.29724 0.04252
# Poissons Ratio (z) = 0.41773 0.07371
#
# Static dielectric constant tensor:
#      x y z
#    x 1.559790 0.000000 0.004210 
#    y 0.000000 1.622690 0.000000 
#    z 0.004210 0.000000 1.606220 
# 
# From -- ./inp_files/9956.got.cif
#   From: 2010.05.17/outbox.cif.g08.bks.cpg/sg14_5_cif.got.tgz:9956.got - 2010.06.03 17:49:19.
