data_PCOD9244577
_publ_section_title
;
Structure prediction by ZEFSAII (Michael W. Deem and Ramdas Pophale) SiO2 
 PCOD9244577
Probable space group: P 21/C
;
_chemical_formula_sum "Si O2"
_cell_formula_units_Z 32
_cell_length_a 23.522655
_cell_length_b 9.003885
_cell_length_c 13.530026
_cell_angle_alpha 90.000000
_cell_angle_beta 148.337450
_cell_angle_gamma 90.000000
_cell_volume 1504.195365
_symmetry_space_group_name_H-M "P 21/C"
_symmetry_group_IT_number 14
_symmetry_cell_setting 'monoclinic'
loop_
_space_group_symop_operation_xyz
x,y,z
-x,1/2+y,1/2-z
-x,-y,-z
x,1/2-y,1/2+z
loop_
_atom_site_type_symbol
_atom_site_label
_atom_site_fract_x
_atom_site_fract_y
_atom_site_fract_z
Si Si1 0.604291 0.076316 0.912674
Si Si2 0.949322 0.062195 0.065073
Si Si3 0.375712 0.031600 0.653566
Si Si4 0.704545 0.345190 0.152927
Si Si5 0.656693 0.267548 0.296450
Si Si6 0.877370 0.085716 0.172325
Si Si7 0.958985 0.739876 0.468029
Si Si8 0.747889 0.818812 0.072100
O O1 0.497472 0.087907 0.819547
O O2 0.589650 0.144820 0.781243
O O3 0.697237 0.178282 0.099304
O O4 0.645577 0.909286 0.962477
O O5 0.825996 0.098897 0.850186
O O6 0.021690 0.180709 0.114334
O O7 0.951017 0.070310 0.184671
O O8 0.979412 0.900230 0.069401
O O9 0.294143 0.169335 0.541089
O O10 0.348217 0.947376 0.509307
O O11 0.366888 0.906565 0.724837
O O12 0.645019 0.336218 0.170543
O O13 0.783410 0.293833 0.511763
O O14 0.954479 0.136931 0.374481
O O15 0.811167 0.935631 0.096175
O O16 0.833946 0.784584 0.285685
#
# Coordination Sequence:
#
# PCOD9244577 Si02
#       8
#     4   4   4   4   4   4   4   4
#     4  10  22  40  62  89 125 158 206 266 317 359
#     4  10  22  40  63  90 121 170 206 244 312 376
#     4  11  21  40  65  89 121 164 209 257 313 371
#     4  10  20  42  62  84 121 166 208 247 316 369
#     4   9  21  40  62  84 120 167 203 252 307 371
#     4  10  23  40  62  92 129 161 206 255 309 370
#     4  11  22  39  63  89 128 164 204 253 306 379
#     4  11  22  39  62  96 125 160 208 261 307 370
#
# _framework density 21.273831000000001
#
# number of rings (size 3 to 8) (size 9 to 14) (size 15 to 20)
#    0.000    1.750    1.250    4.125    3.500    1.000 
#    4.500    1.250    0.000    0.000    0.000    0.000 
#    0.000    0.000    0.000    0.000    0.000    0.000 
#
# Total GULP energy -178733.568834 kJ/mol
# GULP energy per Si atom -5585.424026 kJ/mol
# Density = 2.122541 g / cm^3
# Si number density = 21.273831 Si / 1000 Ang^3
#
#
#
# Elastic Constant Matrix: (Units=GPa)
#
#
# Indices 1 2 3 4 5 6 
#
# 1 79.0995 29.6698 -0.9467 0.0000 2.9300 0.0000
# 2 29.6698 88.9611 18.9641 0.0000 8.2956 0.0000
# 3 -0.9467 18.9641 34.4610 0.0000 9.9839 0.0000
# 4 0.0000 0.0000 0.0000 22.5692 0.0000 8.0858
# 5 2.9300 8.2956 9.9839 0.0000 22.1063 0.0000
# 6 0.0000 0.0000 0.0000 8.0858 0.0000 12.3085
#
#
#
# Elastic Compliance Matrix: (Units=1/GPa)
#
#
# Indices 1 2 3 4 5 6 
#
# 1 0.014874 -0.005660 0.004003 0.000000 -0.001655 0.000000
# 2 -0.005660 0.014955 -0.008027 0.000000 -0.001237 0.000000
# 3 0.004003 -0.008027 0.037768 0.000000 -0.014576 0.000000
# 4 0.000000 0.000000 0.000000 0.057946 0.000000 -0.038066
# 5 -0.001655 -0.001237 -0.014576 0.000000 0.052502 0.000000
# 6 0.000000 0.000000 0.000000 -0.038066 0.000000 0.106252
#
#
# Mechanical properties :
#
#
# Convention : Reuss Voigt Hill
#
# Bulk Modulus (GPa) = 20.73401 33.09953 26.91677
# Shear Modulus (GPa) = 15.63759 21.71910 18.67835
#
# Velocity S-wave (km/s) = 2.71414 3.19867 2.96631
# Velocity P-wave (km/s) = 4.42600 5.40690 4.94085
#
# Compressibility (1/GPa) = 0.04822993
#
# Stress axis : x y z
#
# Youngs Moduli (GPa) = 67.22919 66.86758 26.47718
#
# Poissons Ratio (x) = 0.37846 -0.10598
# Poissons Ratio (y) = 0.38050 0.21253
# Poissons Ratio (z) = -0.26911 0.53675
#
# Static dielectric constant tensor:
#      x y z
#    x 1.785120 0.000000 -0.006010 
#    y 0.000000 1.781130 0.000000 
#    z -0.006010 0.000000 1.742610 
# 
# From -- ./inp_files/51864.got.cif
#   From: 2010.05.17/outbox.cif.g08.bks.cpg/sg14_26_cif.got.tgz:51864.got - 2010.06.03 17:49:19.
