data_PCOD9244642
_publ_section_title
;
Structure prediction by ZEFSAII (Michael W. Deem and Ramdas Pophale) SiO2 
 PCOD9244642
Probable space group: P 21/C
;
_chemical_formula_sum "Si O2"
_cell_formula_units_Z 28
_cell_length_a 9.015347
_cell_length_b 8.262859
_cell_length_c 19.903975
_cell_angle_alpha 90.000000
_cell_angle_beta 122.671633
_cell_angle_gamma 90.000000
_cell_volume 1248.102507
_symmetry_space_group_name_H-M "P 21/C"
_symmetry_group_IT_number 14
_symmetry_cell_setting 'monoclinic'
loop_
_space_group_symop_operation_xyz
x,y,z
-x,1/2+y,1/2-z
-x,-y,-z
x,1/2-y,1/2+z
loop_
_atom_site_type_symbol
_atom_site_label
_atom_site_fract_x
_atom_site_fract_y
_atom_site_fract_z
Si Si1 0.143503 0.678290 0.596402
Si Si2 0.795934 0.349437 0.674711
Si Si3 0.155534 0.190704 0.739476
Si Si4 0.387777 0.453821 0.732859
Si Si5 0.420063 0.230936 0.098537
Si Si6 0.219211 0.463065 0.122490
Si Si7 0.217147 0.519876 0.477319
O O1 0.272239 0.611260 0.686174
O O2 0.121772 0.868753 0.593362
O O3 0.223088 0.637558 0.542813
O O4 0.964153 0.580161 0.560577
O O5 0.786403 0.521986 0.711719
O O6 0.627343 0.236469 0.647621
O O7 0.785495 0.394075 0.593940
O O8 0.982008 0.261652 0.732421
O O9 0.300362 0.333408 0.766216
O O10 0.117883 0.145756 0.652096
O O11 0.388755 0.360080 0.661846
O O12 0.585778 0.499264 0.799630
O O13 0.277253 0.373701 0.068579
O O14 0.371585 0.109836 0.026880
#
# Coordination Sequence:
#
# PCOD9244642 Si02
#       7
#     4   4   4   4   4   4   4
#     4  10  21  41  70  93 127 176 221 267 317 391
#     4  12  25  45  63  99 137 167 213 275 340 394
#     4  11  26  39  68  98 128 171 211 275 340 383
#     4  10  20  42  66  95 124 165 222 270 320 377
#     4  10  23  41  64  95 126 173 219 261 320 393
#     4  11  23  41  70  98 127 167 227 276 309 389
#     4  10  23  43  65  90 135 178 215 262 332 387
#
# _framework density 22.434054
#
# number of rings (size 3 to 8) (size 9 to 14) (size 15 to 20)
#    0.000    1.429    2.857    2.143    8.000    0.571 
#    0.000    0.714    0.000    0.000    0.000    0.000 
#    0.000    0.000    0.000    0.000    0.000    0.000 
#
# Total GULP energy -156482.886938 kJ/mol
# GULP energy per Si atom -5588.674533 kJ/mol
# Density = 2.238299 g / cm^3
# Si number density = 22.434054 Si / 1000 Ang^3
#
#
#
# Elastic Constant Matrix: (Units=GPa)
#
#
# Indices 1 2 3 4 5 6 
#
# 1 83.4622 13.4889 7.9195 0.0000 -5.6077 0.0000
# 2 13.4889 68.2918 6.9589 0.0000 -11.5092 0.0000
# 3 7.9195 6.9589 53.5224 0.0000 1.2102 0.0000
# 4 0.0000 0.0000 0.0000 19.9957 0.0000 -2.3903
# 5 -5.6077 -11.5092 1.2102 0.0000 27.1734 0.0000
# 6 0.0000 0.0000 0.0000 -2.3903 0.0000 33.3006
#
#
#
# Elastic Compliance Matrix: (Units=1/GPa)
#
#
# Indices 1 2 3 4 5 6 
#
# 1 0.012585 -0.002012 -0.001642 0.000000 0.001818 0.000000
# 2 -0.002012 0.016354 -0.001978 0.000000 0.006600 0.000000
# 3 -0.001642 -0.001978 0.019230 0.000000 -0.002033 0.000000
# 4 0.000000 0.000000 0.000000 0.050444 0.000000 0.003621
# 5 0.001818 0.006600 -0.002033 0.000000 0.040062 0.000000
# 6 0.000000 0.000000 0.000000 0.003621 0.000000 0.030289
#
#
# Mechanical properties :
#
#
# Convention : Reuss Voigt Hill
#
# Bulk Modulus (GPa) = 27.09614 29.11232 28.10423
# Shear Modulus (GPa) = 25.97023 27.88787 26.92905
#
# Velocity S-wave (km/s) = 3.40608 3.52959 3.46839
# Velocity P-wave (km/s) = 5.25099 5.44203 5.34736
#
# Compressibility (1/GPa) = 0.03690563
#
# Stress axis : x y z
#
# Youngs Moduli (GPa) = 79.46241 61.14617 52.00261
#
# Poissons Ratio (x) = 0.12303 0.08537
# Poissons Ratio (y) = 0.15988 0.10285
# Poissons Ratio (z) = 0.13044 0.12094
#
# Static dielectric constant tensor:
#      x y z
#    x 1.821460 0.000000 0.002000 
#    y 0.000000 1.878070 0.000000 
#    z 0.002000 0.000000 1.838130 
# 
# From -- ./inp_files/64620.got.cif
#   From: 2010.05.17/outbox.cif.g08.bks.cpg/sg14_33_cif.got.tgz:64620.got - 2010.06.03 17:49:19.
