data_PCOD9244605
_publ_section_title
;
Structure prediction by ZEFSAII (Michael W. Deem and Ramdas Pophale) SiO2 
 PCOD9244605
Probable space group: P 21/C
;
_chemical_formula_sum "Si O2"
_cell_formula_units_Z 26
_cell_length_a 14.139457
_cell_length_b 11.771714
_cell_length_c 19.416069
_cell_angle_alpha 90.000000
_cell_angle_beta 18.486853
_cell_angle_gamma 90.000000
_cell_volume 1024.736586
_symmetry_space_group_name_H-M "P 21/C"
_symmetry_group_IT_number 14
_symmetry_cell_setting 'monoclinic'
loop_
_space_group_symop_operation_xyz
x,y,z
-x,1/2+y,1/2-z
-x,-y,-z
x,1/2-y,1/2+z
loop_
_atom_site_type_symbol
_atom_site_label
_atom_site_fract_x
_atom_site_fract_y
_atom_site_fract_z
Si Si1 0.236938 0.897152 0.005719
Si Si2 0.028507 0.378870 0.445514
Si Si3 0.479159 0.938380 0.086741
Si Si4 0.177055 0.441360 0.992223
Si Si5 0.500000 0.000000 0.500000
Si Si6 0.449780 0.191794 0.416454
Si Si7 0.686216 0.350577 0.000828
O O1 0.529640 0.916823 0.755770
O O2 0.187443 0.774238 0.072500
O O3 0.300222 0.990329 0.018171
O O4 0.959816 0.911034 0.144317
O O5 0.749927 0.303982 0.661252
O O6 0.000000 0.500000 0.500000
O O7 0.334290 0.326079 0.257219
O O8 0.581017 0.809722 0.023589
O O9 0.122646 0.940623 0.345300
O O10 0.500000 0.000000 0.000000
O O11 0.191300 0.344099 0.041351
O O12 0.211084 0.559299 0.011567
O O13 0.499613 0.091283 0.435830
O O14 0.681334 0.094771 0.428453
#
# Coordination Sequence:
#
# PCOD9244605 Si02
#       7
#     4   4   4   4   2   4   4
#     4  11  25  39  73 101 134 187 229 292 347 413
#     4  11  21  43  71 104 129 178 240 286 344 413
#     4  12  27  47  64 106 144 182 231 288 357 417
#     4  10  24  45  68 100 136 183 232 295 343 409
#     4  10  20  42  64  92 134 178 224 282 340 424
#     4  10  23  44  70  96 137 181 234 288 348 414
#     4  11  23  42  68 101 138 181 235 282 357 413
#
# _framework density 25.372375000000002
#
# number of rings (size 3 to 8) (size 9 to 14) (size 15 to 20)
#    0.000    1.231    4.615    2.308    6.462    3.692 
#    8.308    0.000    0.000    0.000    0.000    0.000 
#    0.000    0.000    0.000    0.000    0.000    0.000 
#
# Total GULP energy -145158.176652 kJ/mol
# GULP energy per Si atom -5583.006794 kJ/mol
# Density = 2.531463 g / cm^3
# Si number density = 25.372375 Si / 1000 Ang^3
#
#
#
# Elastic Constant Matrix: (Units=GPa)
#
#
# Indices 1 2 3 4 5 6 
#
# 1 114.4670 64.9190 20.1108 0.0000 -16.1616 0.0000
# 2 64.9190 154.5411 -4.0632 0.0000 -13.2057 0.0000
# 3 20.1108 -4.0632 86.5593 0.0000 -15.4286 0.0000
# 4 0.0000 0.0000 0.0000 16.7760 0.0000 3.1173
# 5 -16.1616 -13.2057 -15.4286 0.0000 51.2081 0.0000
# 6 0.0000 0.0000 0.0000 3.1173 0.0000 41.6953
#
#
#
# Elastic Compliance Matrix: (Units=1/GPa)
#
#
# Indices 1 2 3 4 5 6 
#
# 1 0.012383 -0.005127 -0.002807 0.000000 0.001740 0.000000
# 2 -0.005127 0.008774 0.001815 0.000000 0.001192 0.000000
# 3 -0.002807 0.001815 0.012909 0.000000 0.003472 0.000000
# 4 0.000000 0.000000 0.000000 0.060449 0.000000 -0.004519
# 5 0.001740 0.001192 0.003472 0.000000 0.021431 0.000000
# 6 0.000000 0.000000 0.000000 -0.004519 0.000000 0.024321
#
#
# Mechanical properties :
#
#
# Convention : Reuss Voigt Hill
#
# Bulk Modulus (GPa) = 45.81271 57.50003 51.65637
# Shear Modulus (GPa) = 31.29303 40.24261 35.76782
#
# Velocity S-wave (km/s) = 3.51572 3.98688 3.75869
# Velocity P-wave (km/s) = 5.88011 6.62611 6.26422
#
# Compressibility (1/GPa) = 0.02182800
#
# Stress axis : x y z
#
# Youngs Moduli (GPa) = 80.75798 113.97358 77.46515
#
# Poissons Ratio (x) = 0.58432 0.21748
# Poissons Ratio (y) = 0.41403 -0.14063
# Poissons Ratio (z) = 0.22672 -0.20691
#
# Static dielectric constant tensor:
#      x y z
#    x 1.938000 0.000000 0.090280 
#    y 0.000000 1.826120 0.000000 
#    z 0.090280 0.000000 1.972680 
# 
# From -- ./inp_files/24186.got.cif
#   From: 2010.05.17/outbox.cif.g08.bks.cpg/sg14_13_cif.got.tgz:24186.got - 2010.06.03 17:49:19.
