data_PCOD9244122
_publ_section_title
;
Structure prediction by ZEFSAII (Michael W. Deem and Ramdas Pophale) SiO2 
 PCOD9244122
Probable space group: P 21/C
;
_chemical_formula_sum "Si O2"
_cell_formula_units_Z 28
_cell_length_a 5.685939
_cell_length_b 17.526097
_cell_length_c 14.325584
_cell_angle_alpha 90.000000
_cell_angle_beta 106.358783
_cell_angle_gamma 90.000000
_cell_volume 1369.784797
_symmetry_space_group_name_H-M "P 21/C"
_symmetry_group_IT_number 14
_symmetry_cell_setting 'monoclinic'
loop_
_space_group_symop_operation_xyz
x,y,z
-x,1/2+y,1/2-z
-x,-y,-z
x,1/2-y,1/2+z
loop_
_atom_site_type_symbol
_atom_site_label
_atom_site_fract_x
_atom_site_fract_y
_atom_site_fract_z
Si Si1 0.023703 0.801561 0.368583
Si Si2 0.905424 0.917647 0.523207
Si Si3 0.419171 0.598849 0.877101
Si Si4 0.052983 0.465924 0.780046
Si Si5 0.460901 0.909452 0.993572
Si Si6 0.113647 0.370112 0.608327
Si Si7 0.304024 0.098712 0.787059
O O1 0.979969 0.853038 0.456662
O O2 0.920183 0.718370 0.370456
O O3 0.901312 0.839965 0.263817
O O4 0.309030 0.817256 0.382411
O O5 0.612696 0.917636 0.479495
O O6 0.997607 0.909044 0.639315
O O7 0.000000 0.000000 0.500000
O O8 0.224404 0.530600 0.846012
O O9 0.538663 0.597452 0.788966
O O10 0.166178 0.421934 0.705390
O O11 0.821320 0.515260 0.719486
O O12 0.661667 0.880321 0.939508
O O13 0.168734 0.893042 0.951657
O O14 0.549721 0.880497 0.104692
O O15 0.500000 0.000000 0.000000
#
# Coordination Sequence:
#
# PCOD9244122 Si02
#       7
#     4   4   4   4   4   4   4
#     4  10  25  43  64 100 143 176 224 290 357 407
#     4  11  20  39  66 102 131 175 228 287 350 419
#     4  10  20  39  70  98 132 173 228 283 349 415
#     4  11  22  39  68  98 128 176 230 283 342 415
#     4  12  26  48  75 101 136 189 241 285 338 415
#     4  12  29  46  69 103 145 180 238 292 341 413
#     4  10  22  41  71  96 132 176 226 282 345 411
#
# _framework density 20.441167
#
# number of rings (size 3 to 8) (size 9 to 14) (size 15 to 20)
#    0.000    1.143    5.714    1.714    8.000    1.143 
#    0.000    0.000    0.000    0.000    0.000    0.000 
#    0.000    0.000    0.000    0.000    0.000    0.000 
#
# Total GULP energy -156053.263979 kJ/mol
# GULP energy per Si atom -5573.330856 kJ/mol
# Density = 2.039464 g / cm^3
# Si number density = 20.441167 Si / 1000 Ang^3
#
#
#
# Elastic Constant Matrix: (Units=GPa)
#
#
# Indices 1 2 3 4 5 6 
#
# 1 54.4483 1.4814 -1.3550 0.0000 3.2353 0.0000
# 2 1.4814 77.3274 -6.3757 0.0000 1.0165 0.0000
# 3 -1.3550 -6.3757 88.1340 0.0000 2.1662 0.0000
# 4 0.0000 0.0000 0.0000 17.5213 0.0000 -6.8732
# 5 3.2353 1.0165 2.1662 0.0000 30.1096 0.0000
# 6 0.0000 0.0000 0.0000 -6.8732 0.0000 27.4324
#
#
#
# Elastic Compliance Matrix: (Units=1/GPa)
#
#
# Indices 1 2 3 4 5 6 
#
# 1 0.018501 -0.000302 0.000312 0.000000 -0.002000 0.000000
# 2 -0.000302 0.013022 0.000949 0.000000 -0.000475 0.000000
# 3 0.000312 0.000949 0.011442 0.000000 -0.000889 0.000000
# 4 0.000000 0.000000 0.000000 0.063294 0.000000 0.015858
# 5 -0.002000 -0.000475 -0.000889 0.000000 0.033507 0.000000
# 6 0.000000 0.000000 0.000000 0.015858 0.000000 0.040427
#
#
# Mechanical properties :
#
#
# Convention : Reuss Voigt Hill
#
# Bulk Modulus (GPa) = 22.28086 23.04569 22.66327
# Shear Modulus (GPa) = 25.87504 30.08994 27.98249
#
# Velocity S-wave (km/s) = 3.56171 3.84086 3.70392
# Velocity P-wave (km/s) = 5.27618 5.56491 5.42247
#
# Compressibility (1/GPa) = 0.04488157
#
# Stress axis : x y z
#
# Youngs Moduli (GPa) = 54.05153 76.79125 87.39999
#
# Poissons Ratio (x) = 0.02322 -0.02724
# Poissons Ratio (y) = 0.01635 -0.08295
# Poissons Ratio (z) = -0.01685 -0.07288
#
# Static dielectric constant tensor:
#      x y z
#    x 1.856700 0.000000 0.019300 
#    y 0.000000 1.999970 0.000000 
#    z 0.019300 0.000000 1.727650 
# 
# From -- ./inp_files/37617.got.cif
#   From: 2010.05.17/outbox.cif.g08.bks.cpg/sg14_19_cif.got.tgz:37617.got - 2010.06.03 17:49:19.
