data_PCOD9244222
_publ_section_title
;
Structure prediction by ZEFSAII (Michael W. Deem and Ramdas Pophale) SiO2 
 PCOD9244222
Probable space group: P 21/C
;
_chemical_formula_sum "Si O2"
_cell_formula_units_Z 30
_cell_length_a 19.362364
_cell_length_b 5.087677
_cell_length_c 13.614920
_cell_angle_alpha 90.000000
_cell_angle_beta 57.658288
_cell_angle_gamma 90.000000
_cell_volume 1133.141717
_symmetry_space_group_name_H-M "P 21/C"
_symmetry_group_IT_number 14
_symmetry_cell_setting 'monoclinic'
loop_
_space_group_symop_operation_xyz
x,y,z
-x,1/2+y,1/2-z
-x,-y,-z
x,1/2-y,1/2+z
loop_
_atom_site_type_symbol
_atom_site_label
_atom_site_fract_x
_atom_site_fract_y
_atom_site_fract_z
Si Si1 0.479495 0.310645 0.631984
Si Si2 0.904121 0.213228 0.404073
Si Si3 0.287020 0.840581 0.776903
Si Si4 0.000000 0.000000 0.000000
Si Si5 0.930546 0.048674 0.696163
Si Si6 0.389417 0.381803 0.030901
Si Si7 0.376291 0.419710 0.370439
Si Si8 0.821606 0.852087 0.620956
O O1 0.433138 0.341122 0.564202
O O2 0.538379 0.504574 0.643887
O O3 0.403170 0.263442 0.761290
O O4 0.538023 0.056077 0.571658
O O5 0.873330 0.346745 0.327247
O O6 0.850306 0.989464 0.498090
O O7 0.931204 0.422895 0.465048
O O8 0.990244 0.074391 0.313404
O O9 0.342077 0.930318 0.642928
O O10 0.335059 0.838675 0.845050
O O11 0.225344 0.080935 0.844601
O O12 0.239579 0.574941 0.790409
O O13 0.958744 0.220906 0.103838
O O14 0.896664 0.834449 0.642434
O O15 0.334536 0.243721 0.989396
#
# Coordination Sequence:
#
# PCOD9244222 Si02
#       8
#     4   4   4   2   4   4   4   4
#     4  10  21  39  67 104 127 170 231 300 351 394
#     4  11  24  42  77 105 134 181 235 302 355 421
#     4  11  29  46  67  98 145 196 229 275 346 427
#     4  10  20  40  64 104 140 162 216 296 350 404
#     4  11  24  42  77 104 137 179 238 299 361 416
#     4  10  23  41  66  99 134 178 230 292 347 411
#     4  11  22  40  71  97 137 176 235 290 350 411
#     4  11  28  47  68 101 148 188 231 285 343 426
#
# _framework density 26.475062999999999
#
# number of rings (size 3 to 8) (size 9 to 14) (size 15 to 20)
#    0.000    1.333    2.667    2.000   11.200    2.133 
#    0.000    0.000    0.000    0.000    0.000    0.000 
#    0.000    0.000    0.000    0.000    0.000    0.000 
#
# Total GULP energy -167493.684163 kJ/mol
# GULP energy per Si atom -5583.122805 kJ/mol
# Density = 2.641480 g / cm^3
# Si number density = 26.475063 Si / 1000 Ang^3
#
#
#
# Elastic Constant Matrix: (Units=GPa)
#
#
# Indices 1 2 3 4 5 6 
#
# 1 52.1271 1.6305 32.9353 0.0000 9.2302 0.0000
# 2 1.6305 64.8556 10.1200 0.0000 -6.6356 0.0000
# 3 32.9353 10.1200 106.4382 0.0000 28.5551 0.0000
# 4 0.0000 0.0000 0.0000 26.5928 0.0000 -12.2011
# 5 9.2302 -6.6356 28.5551 0.0000 46.5156 0.0000
# 6 0.0000 0.0000 0.0000 -12.2011 0.0000 42.5909
#
#
#
# Elastic Compliance Matrix: (Units=1/GPa)
#
#
# Indices 1 2 3 4 5 6 
#
# 1 0.023866 0.000544 -0.007407 0.000000 -0.000111 0.000000
# 2 0.000544 0.016235 -0.002759 0.000000 0.003901 0.000000
# 3 -0.007407 -0.002759 0.013960 0.000000 -0.007493 0.000000
# 4 0.000000 0.000000 0.000000 0.043295 0.000000 0.012403
# 5 -0.000111 0.003901 -0.007493 0.000000 0.026677 0.000000
# 6 0.000000 0.000000 0.000000 0.012403 0.000000 0.027032
#
#
# Mechanical properties :
#
#
# Convention : Reuss Voigt Hill
#
# Bulk Modulus (GPa) = 28.72045 34.75473 31.73759
# Shear Modulus (GPa) = 27.48562 35.05554 31.27058
#
# Velocity S-wave (km/s) = 3.22556 3.64276 3.44049
# Velocity P-wave (km/s) = 4.97433 5.55417 5.27223
#
# Compressibility (1/GPa) = 0.03481839
#
# Stress axis : x y z
#
# Youngs Moduli (GPa) = 41.89981 61.59598 71.63490
#
# Poissons Ratio (x) = -0.03353 0.53060
# Poissons Ratio (y) = -0.02281 0.19762
# Poissons Ratio (z) = 0.31035 0.16993
#
# Static dielectric constant tensor:
#      x y z
#    x 2.167370 0.000000 0.124210 
#    y 0.000000 2.419040 0.000000 
#    z 0.124210 0.000000 2.286210 
# 
# From -- ./inp_files/49678.got.cif
#   From: 2010.05.17/outbox.cif.g08.bks.cpg/sg14_25_cif.got.tgz:49678.got - 2010.06.03 17:49:19.
