data_PCOD9244972
_publ_section_title
;
Structure prediction by ZEFSAII (Michael W. Deem and Ramdas Pophale) SiO2 
 PCOD9244972
Probable space group: P 21/C
;
_chemical_formula_sum "Si O2"
_cell_formula_units_Z 28
_cell_length_a 5.585907
_cell_length_b 11.534489
_cell_length_c 16.969097
_cell_angle_alpha 90.000000
_cell_angle_beta 110.611763
_cell_angle_gamma 90.000000
_cell_volume 1023.341861
_symmetry_space_group_name_H-M "P 21/C"
_symmetry_group_IT_number 14
_symmetry_cell_setting 'monoclinic'
loop_
_space_group_symop_operation_xyz
x,y,z
-x,1/2+y,1/2-z
-x,-y,-z
x,1/2-y,1/2+z
loop_
_atom_site_type_symbol
_atom_site_label
_atom_site_fract_x
_atom_site_fract_y
_atom_site_fract_z
Si Si1 0.350052 0.727717 0.526969
Si Si2 0.345425 0.946481 0.240070
Si Si3 0.916257 0.798824 0.603301
Si Si4 0.837831 0.065484 0.600216
Si Si5 0.313035 0.868202 0.774422
Si Si6 0.723090 0.718049 0.831138
Si Si7 0.077505 0.562599 0.386509
O O1 0.654686 0.725494 0.579264
O O2 0.325280 0.841369 0.466631
O O3 0.252514 0.605473 0.477441
O O4 0.127517 0.757757 0.564713
O O5 0.506775 0.065958 0.266757
O O6 0.149943 0.970347 0.145924
O O7 0.220044 0.928047 0.312018
O O8 0.536631 0.840096 0.245324
O O9 0.078744 0.808694 0.703257
O O10 0.831329 0.931660 0.576718
O O11 0.127951 0.109447 0.618123
O O12 0.502612 0.789750 0.849092
O O13 0.231825 0.965825 0.826000
O O14 0.938962 0.814599 0.846507
#
# Coordination Sequence:
#
# PCOD9244972 Si02
#       7
#     4   4   4   4   4   4   4
#     4  11  27  39  65  96 142 174 212 264 345 403
#     4  11  20  39  66  95 125 171 224 274 318 385
#     4  12  24  42  62  98 137 179 208 271 337 408
#     4  11  22  38  62  98 133 172 211 268 340 398
#     4  11  23  39  67  89 132 175 224 267 324 392
#     4  10  21  35  64  92 126 161 230 261 324 367
#     4  10  23  40  62  92 128 177 220 271 317 399
#
# _framework density 27.361336999999999
#
# number of rings (size 3 to 8) (size 9 to 14) (size 15 to 20)
#    0.000    1.143    2.857    3.429   12.000    0.000 
#    0.000    0.000    0.000    1.714    0.000    0.000 
#    0.000    0.000    0.000    0.000    0.000    0.000 
#
# Total GULP energy -156204.930359 kJ/mol
# GULP energy per Si atom -5578.747513 kJ/mol
# Density = 2.729906 g / cm^3
# Si number density = 27.361337 Si / 1000 Ang^3
#
#
#
# Elastic Constant Matrix: (Units=GPa)
#
#
# Indices 1 2 3 4 5 6 
#
# 1 130.5998 28.9413 75.0725 0.0000 21.8285 0.0000
# 2 28.9413 76.8119 25.5104 0.0000 5.5866 0.0000
# 3 75.0725 25.5104 106.9806 0.0000 5.6836 0.0000
# 4 0.0000 0.0000 0.0000 58.7864 0.0000 13.0489
# 5 21.8285 5.5866 5.6836 0.0000 54.3386 0.0000
# 6 0.0000 0.0000 0.0000 13.0489 0.0000 39.8839
#
#
#
# Elastic Compliance Matrix: (Units=1/GPa)
#
#
# Indices 1 2 3 4 5 6 
#
# 1 0.014143 -0.001937 -0.009223 0.000000 -0.004517 0.000000
# 2 -0.001937 0.014470 -0.002065 0.000000 -0.000494 0.000000
# 3 -0.009223 -0.002065 0.016194 0.000000 0.002223 0.000000
# 4 0.000000 0.000000 0.000000 0.018343 0.000000 -0.006001
# 5 -0.004517 -0.000494 0.002223 0.000000 0.020036 0.000000
# 6 0.000000 0.000000 0.000000 -0.006001 0.000000 0.027036
#
#
# Mechanical properties :
#
#
# Convention : Reuss Voigt Hill
#
# Bulk Modulus (GPa) = 54.47424 63.71565 59.09495
# Shear Modulus (GPa) = 35.01639 42.92633 38.97136
#
# Velocity S-wave (km/s) = 3.58128 3.96519 3.77811
# Velocity P-wave (km/s) = 6.08713 6.65590 6.37786
#
# Compressibility (1/GPa) = 0.01835730
#
# Stress axis : x y z
#
# Youngs Moduli (GPa) = 70.70787 69.10650 61.75281
#
# Poissons Ratio (x) = 0.13387 0.56952
# Poissons Ratio (y) = 0.13698 0.12752
# Poissons Ratio (z) = 0.65211 0.14270
#
# Static dielectric constant tensor:
#      x y z
#    x 2.150750 0.000000 0.024340 
#    y 0.000000 2.176770 0.000000 
#    z 0.024340 0.000000 2.150100 
# 
# From -- ./inp_files/53363.got.cif
#   From: 2010.05.17/outbox.cif.g08.bks.cpg/sg14_27_cif.got.tgz:53363.got - 2010.06.03 17:49:19.
