data_PCOD9244389
_publ_section_title
;
Structure prediction by ZEFSAII (Michael W. Deem and Ramdas Pophale) SiO2 
 PCOD9244389
Probable space group: P 21/C
;
_chemical_formula_sum "Si O2"
_cell_formula_units_Z 16
_cell_length_a 10.914692
_cell_length_b 13.305849
_cell_length_c 11.599219
_cell_angle_alpha 90.000000
_cell_angle_beta 24.400856
_cell_angle_gamma 90.000000
_cell_volume 695.916252
_symmetry_space_group_name_H-M "P 21/C"
_symmetry_group_IT_number 14
_symmetry_cell_setting 'monoclinic'
loop_
_space_group_symop_operation_xyz
x,y,z
-x,1/2+y,1/2-z
-x,-y,-z
x,1/2-y,1/2+z
loop_
_atom_site_type_symbol
_atom_site_label
_atom_site_fract_x
_atom_site_fract_y
_atom_site_fract_z
Si Si1 0.193542 0.204081 0.289686
Si Si2 0.271463 0.911555 0.156228
Si Si3 0.586523 0.587535 0.837981
Si Si4 0.049017 0.079037 0.200299
O O1 0.219751 0.323359 0.272469
O O2 0.199132 0.162062 0.154542
O O3 0.913229 0.150346 0.590331
O O4 0.490662 0.164958 0.100092
O O5 0.039787 0.974394 0.278814
O O6 0.500000 0.000000 0.000000
O O7 0.767235 0.554504 0.571024
O O8 0.500000 0.500000 0.000000
O O9 0.267849 0.621152 0.063223
#
# Coordination Sequence:
#
# PCOD9244389 Si02
#       4
#     4   4   4   4
#     4  11  23  42  68 101 132 180 239 278 335 425
#     4  10  20  40  70 100 129 169 234 290 330 401
#     4  12  27  43  63  99 140 176 222 279 345 416
#     4  11  23  43  68  94 134 179 220 287 349 390
#
# _framework density 22.991271999999999
#
# number of rings (size 3 to 8) (size 9 to 14) (size 15 to 20)
#    0.000    1.000    0.000    9.750    0.000    6.000 
#    0.000    0.000    0.000    0.000    0.000    0.000 
#    0.000    0.000    0.000    0.000    0.000    0.000 
#
# Total GULP energy -89312.607932 kJ/mol
# GULP energy per Si atom -5582.037996 kJ/mol
# Density = 2.293894 g / cm^3
# Si number density = 22.991272 Si / 1000 Ang^3
#
#
#
# Elastic Constant Matrix: (Units=GPa)
#
#
# Indices 1 2 3 4 5 6 
#
# 1 104.1623 68.5321 46.8846 0.0000 13.2255 0.0000
# 2 68.5321 153.0372 59.8350 0.0000 20.7586 0.0000
# 3 46.8846 59.8350 160.8193 0.0000 16.7013 0.0000
# 4 0.0000 0.0000 0.0000 97.5200 0.0000 72.3229
# 5 13.2255 20.7586 16.7013 0.0000 43.1506 0.0000
# 6 0.0000 0.0000 0.0000 72.3229 0.0000 125.4785
#
#
#
# Elastic Compliance Matrix: (Units=1/GPa)
#
#
# Indices 1 2 3 4 5 6 
#
# 1 0.014213 -0.005446 -0.002018 0.000000 -0.000955 0.000000
# 2 -0.005446 0.010044 -0.001897 0.000000 -0.002429 0.000000
# 3 -0.002018 -0.001897 0.007661 0.000000 -0.001434 0.000000
# 4 0.000000 0.000000 0.000000 0.017910 0.000000 -0.010323
# 5 -0.000955 -0.002429 -0.001434 0.000000 0.025191 0.000000
# 6 0.000000 0.000000 0.000000 -0.010323 0.000000 0.013919
#
#
# Mechanical properties :
#
#
# Convention : Reuss Voigt Hill
#
# Bulk Modulus (GPa) = 75.78107 85.39135 80.58621
# Shear Modulus (GPa) = 44.61843 69.41428 57.01636
#
# Velocity S-wave (km/s) = 4.41008 5.50065 4.98528
# Velocity P-wave (km/s) = 7.67881 8.80706 8.26221
#
# Compressibility (1/GPa) = 0.01319591
#
# Stress axis : x y z
#
# Youngs Moduli (GPa) = 70.35616 99.55715 130.52581
#
# Poissons Ratio (x) = 0.54222 0.26342
# Poissons Ratio (y) = 0.38318 0.24763
# Poissons Ratio (z) = 0.14199 0.18888
#
# Static dielectric constant tensor:
#      x y z
#    x 1.934560 0.000000 -0.053680 
#    y 0.000000 2.008100 0.000000 
#    z -0.053680 0.000000 1.844460 
# 
# From -- ./inp_files/29955.got.cif
#   From: 2010.05.17/outbox.cif.g08.bks.cpg/sg14_15_cif.got.tgz:29955.got - 2010.06.03 17:49:19.
