data_PCOD9244101
_publ_section_title
;
Structure prediction by ZEFSAII (Michael W. Deem and Ramdas Pophale) SiO2 
 PCOD9244101
Probable space group: P 21/C
;
_chemical_formula_sum "Si O2"
_cell_formula_units_Z 32
_cell_length_a 19.105489
_cell_length_b 8.009906
_cell_length_c 13.693417
_cell_angle_alpha 90.000000
_cell_angle_beta 144.347436
_cell_angle_gamma 90.000000
_cell_volume 1221.428720
_symmetry_space_group_name_H-M "P 21/C"
_symmetry_group_IT_number 14
_symmetry_cell_setting 'monoclinic'
loop_
_space_group_symop_operation_xyz
x,y,z
-x,1/2+y,1/2-z
-x,-y,-z
x,1/2-y,1/2+z
loop_
_atom_site_type_symbol
_atom_site_label
_atom_site_fract_x
_atom_site_fract_y
_atom_site_fract_z
Si Si1 0.209954 0.238622 0.382341
Si Si2 0.594470 0.946339 0.278390
Si Si3 0.141329 0.463736 0.139280
Si Si4 0.792316 0.240278 0.656492
Si Si5 0.874856 0.039351 0.916680
Si Si6 0.937063 0.730497 0.114461
Si Si7 0.300572 0.739625 0.662197
Si Si8 0.400779 0.424412 0.711763
O O1 0.183683 0.295096 0.243459
O O2 0.083824 0.216595 0.294621
O O3 0.275871 0.392612 0.512286
O O4 0.298402 0.098811 0.524068
O O5 0.633527 0.084508 0.243296
O O6 0.491184 0.020954 0.229322
O O7 0.564771 0.758492 0.206584
O O8 0.216879 0.606358 0.277939
O O9 0.134129 0.422261 0.017005
O O10 0.000000 0.500000 0.000000
O O11 0.792446 0.079620 0.728301
O O12 0.711567 0.247225 0.469749
O O13 0.926217 0.260716 0.762900
O O14 0.825465 0.194100 0.928637
O O15 0.875691 0.891647 0.996076
O O16 0.000000 0.000000 0.000000
O O17 0.381983 0.573639 0.766998
#
# Coordination Sequence:
#
# PCOD9244101 Si02
#       8
#     4   4   4   4   4   4   4   4
#     4  10  21  41  62  93 134 177 228 286 360 420
#     4  10  22  37  70 103 125 183 240 297 366 431
#     4  10  21  38  60  91 132 178 219 277 343 419
#     4  10  22  36  58  93 128 177 225 267 344 418
#     4  10  22  38  58  92 132 174 225 276 336 425
#     4  10  21  38  58  89 134 173 220 280 335 414
#     4  12  21  43  67  91 141 182 222 299 359 409
#     4  10  20  39  67  98 132 176 242 291 364 427
#
# _framework density 26.198826
#
# number of rings (size 3 to 8) (size 9 to 14) (size 15 to 20)
#    0.750    1.000    3.750    0.000    3.500    3.000 
#    4.500    0.000    0.000    9.000    0.000    0.000 
#    0.000    0.000    0.000    0.000    0.000    0.000 
#
# Total GULP energy -178313.691934 kJ/mol
# GULP energy per Si atom -5572.302873 kJ/mol
# Density = 2.613920 g / cm^3
# Si number density = 26.198826 Si / 1000 Ang^3
#
#
#
# Elastic Constant Matrix: (Units=GPa)
#
#
# Indices 1 2 3 4 5 6 
#
# 1 118.8058 28.0495 32.3980 0.0000 17.6752 0.0000
# 2 28.0495 151.9005 3.3908 0.0000 13.6365 0.0000
# 3 32.3980 3.3908 21.6880 0.0000 -7.1064 0.0000
# 4 0.0000 0.0000 0.0000 21.0984 0.0000 3.3271
# 5 17.6752 13.6365 -7.1064 0.0000 29.6786 0.0000
# 6 0.0000 0.0000 0.0000 3.3271 0.0000 36.5391
#
#
#
# Elastic Compliance Matrix: (Units=1/GPa)
#
#
# Indices 1 2 3 4 5 6 
#
# 1 0.024553 -0.001323 -0.044559 0.000000 -0.024684 0.000000
# 2 -0.001323 0.007044 0.000079 0.000000 -0.002429 0.000000
# 3 -0.044559 0.000079 0.131674 0.000000 0.058030 0.000000
# 4 0.000000 0.000000 0.000000 0.048087 0.000000 -0.004379
# 5 -0.024684 -0.002429 0.058030 0.000000 0.063406 0.000000
# 6 0.000000 0.000000 0.000000 -0.004379 0.000000 0.027767
#
#
# Mechanical properties :
#
#
# Convention : Reuss Voigt Hill
#
# Bulk Modulus (GPa) = 13.95386 46.67454 30.31420
# Shear Modulus (GPa) = 11.96102 32.70029 22.33066
#
# Velocity S-wave (km/s) = 2.13902 3.53676 2.92268
# Velocity P-wave (km/s) = 3.38204 5.87643 4.79430
#
# Compressibility (1/GPa) = 0.07166476
#
# Stress axis : x y z
#
# Youngs Moduli (GPa) = 40.72828 141.96625 7.59454
#
# Poissons Ratio (x) = 0.18786 0.33841
# Poissons Ratio (y) = 0.05389 -0.00060
# Poissons Ratio (z) = 1.81481 -0.01128
#
# Static dielectric constant tensor:
#      x y z
#    x 2.076700 0.000000 0.023460 
#    y 0.000000 2.319370 0.000000 
#    z 0.023460 0.000000 2.013040 
# 
# From -- ./inp_files/49939.got.cif
#   From: 2010.05.17/outbox.cif.g08.bks.cpg/sg14_25_cif.got.tgz:49939.got - 2010.06.03 17:49:19.
