data_PCOD9244123
_publ_section_title
;
Structure prediction by ZEFSAII (Michael W. Deem and Ramdas Pophale) SiO2 
 PCOD9244123
Probable space group: P 21/C
;
_chemical_formula_sum "Si O2"
_cell_formula_units_Z 22
_cell_length_a 10.841352
_cell_length_b 5.151082
_cell_length_c 13.809491
_cell_angle_alpha 90.000000
_cell_angle_beta 91.741665
_cell_angle_gamma 90.000000
_cell_volume 770.830517
_symmetry_space_group_name_H-M "P 21/C"
_symmetry_group_IT_number 14
_symmetry_cell_setting 'monoclinic'
loop_
_space_group_symop_operation_xyz
x,y,z
-x,1/2+y,1/2-z
-x,-y,-z
x,1/2-y,1/2+z
loop_
_atom_site_type_symbol
_atom_site_label
_atom_site_fract_x
_atom_site_fract_y
_atom_site_fract_z
Si Si1 0.630013 0.266002 0.877837
Si Si2 0.306765 0.378442 0.772230
Si Si3 0.323273 0.045614 0.944038
Si Si4 0.500000 0.000000 0.500000
Si Si5 0.880085 0.252648 0.629729
Si Si6 0.878530 0.971735 0.331303
O O1 0.519320 0.468477 0.879217
O O2 0.769401 0.356430 0.873400
O O3 0.612705 0.041567 0.801050
O O4 0.606536 0.186967 0.993612
O O5 0.340617 0.112223 0.830600
O O6 0.235381 0.567516 0.845694
O O7 0.194928 0.286161 0.698999
O O8 0.373913 0.300064 0.996121
O O9 0.180031 0.963785 0.943537
O O10 0.916345 0.394632 0.730854
O O11 0.000248 0.091913 0.605513
#
# Coordination Sequence:
#
# PCOD9244123 Si02
#       6
#     4   4   4   2   4   4
#     4  11  25  45  73 103 147 198 255 321 397 462
#     4  10  22  44  70 105 143 199 249 301 391 463
#     4  11  25  45  73 105 148 196 252 321 378 461
#     4  12  26  52  68  96 150 192 254 346 374 452
#     4  10  20  39  71 107 149 197 249 311 382 470
#     4  10  20  39  71 109 149 200 247 313 387 471
#
# _framework density 28.540642999999999
#
# number of rings (size 3 to 8) (size 9 to 14) (size 15 to 20)
#    0.000    1.455    1.818    2.727    0.000    0.727 
#   13.091    4.545    0.000    0.000    0.000    0.000 
#    0.000    0.000    0.000    0.000    0.000    0.000 
#
# Total GULP energy -122592.984179 kJ/mol
# GULP energy per Si atom -5572.408372 kJ/mol
# Density = 2.847568 g / cm^3
# Si number density = 28.540643 Si / 1000 Ang^3
#
#
#
# Elastic Constant Matrix: (Units=GPa)
#
#
# Indices 1 2 3 4 5 6 
#
# 1 84.0244 22.7802 44.7741 0.0000 18.8217 0.0000
# 2 22.7802 128.4916 42.9974 0.0000 7.9669 0.0000
# 3 44.7741 42.9974 127.7149 0.0000 2.6510 0.0000
# 4 0.0000 0.0000 0.0000 65.7021 0.0000 14.4074
# 5 18.8217 7.9669 2.6510 0.0000 29.1045 0.0000
# 6 0.0000 0.0000 0.0000 14.4074 0.0000 58.1188
#
#
#
# Elastic Compliance Matrix: (Units=1/GPa)
#
#
# Indices 1 2 3 4 5 6 
#
# 1 0.017480 -0.000521 -0.005732 0.000000 -0.010640 0.000000
# 2 -0.000521 0.008921 -0.002782 0.000000 -0.001851 0.000000
# 3 -0.005732 -0.002782 0.010704 0.000000 0.003493 0.000000
# 4 0.000000 0.000000 0.000000 0.016095 0.000000 -0.003990
# 5 -0.010640 -0.001851 0.003493 0.000000 0.041428 0.000000
# 6 0.000000 0.000000 0.000000 -0.003990 0.000000 0.018195
#
#
# Mechanical properties :
#
#
# Convention : Reuss Voigt Hill
#
# Bulk Modulus (GPa) = 52.53758 62.37047 57.45402
# Shear Modulus (GPa) = 36.43298 45.89703 41.16500
#
# Velocity S-wave (km/s) = 3.57673 4.01450 3.80192
# Velocity P-wave (km/s) = 5.95863 6.58703 6.28069
#
# Compressibility (1/GPa) = 0.01903400
#
# Stress axis : x y z
#
# Youngs Moduli (GPa) = 57.20738 112.09733 93.42701
#
# Poissons Ratio (x) = 0.05844 0.53551
# Poissons Ratio (y) = 0.02982 0.25993
# Poissons Ratio (z) = 0.32790 0.31187
#
# Static dielectric constant tensor:
#      x y z
#    x 2.392440 0.000000 -0.032030 
#    y 0.000000 2.756530 0.000000 
#    z -0.032030 0.000000 2.250680 
# 
# From -- ./inp_files/42630.got.cif
#   From: 2010.05.17/outbox.cif.g08.bks.cpg/sg14_22_cif.got.tgz:42630.got - 2010.06.03 17:49:19.
