data_PCOD9244152
_publ_section_title
;
Structure prediction by ZEFSAII (Michael W. Deem and Ramdas Pophale) SiO2 
 PCOD9244152
Probable space group: P 21/C
;
_chemical_formula_sum "Si O2"
_cell_formula_units_Z 24
_cell_length_a 10.861067
_cell_length_b 9.666622
_cell_length_c 13.793740
_cell_angle_alpha 90.000000
_cell_angle_beta 136.503672
_cell_angle_gamma 90.000000
_cell_volume 996.809427
_symmetry_space_group_name_H-M "P 21/C"
_symmetry_group_IT_number 14
_symmetry_cell_setting 'monoclinic'
loop_
_space_group_symop_operation_xyz
x,y,z
-x,1/2+y,1/2-z
-x,-y,-z
x,1/2-y,1/2+z
loop_
_atom_site_type_symbol
_atom_site_label
_atom_site_fract_x
_atom_site_fract_y
_atom_site_fract_z
Si Si1 0.423775 0.600888 0.338413
Si Si2 0.224493 0.455578 0.574686
Si Si3 0.160707 0.566844 0.031311
Si Si4 0.490791 0.987380 0.611921
Si Si5 0.590509 0.784042 0.109603
Si Si6 0.960141 0.682571 0.361942
O O1 0.621252 0.597255 0.406600
O O2 0.276658 0.643806 0.178996
O O3 0.377457 0.441003 0.338467
O O4 0.447558 0.698689 0.442855
O O5 0.337769 0.534202 0.726103
O O6 0.089985 0.550086 0.434825
O O7 0.117339 0.337714 0.572187
O O8 0.303786 0.471601 0.055292
O O9 0.074626 0.680535 0.913072
O O10 0.000000 0.500000 0.000000
O O11 0.501068 0.820032 0.633852
O O12 0.500000 0.000000 0.500000
O O13 0.780202 0.708414 0.197292
#
# Coordination Sequence:
#
# PCOD9244152 Si02
#       6
#     4   4   4   4   4   4
#     4  10  21  40  64  89 125 173 205 261 331 378
#     4   9  21  40  65  86 127 171 211 261 328 383
#     4  11  22  40  66  93 125 166 220 264 313 387
#     4  10  23  41  62  95 127 170 214 265 324 383
#     4  10  21  40  60  89 130 160 214 261 319 385
#     4  10  20  40  59  93 121 159 214 266 307 376
#
# _framework density 24.076819
#
# number of rings (size 3 to 8) (size 9 to 14) (size 15 to 20)
#    0.000    2.000    1.667    1.000    2.333    1.333 
#    9.000    6.667    0.000    0.000    0.000    0.000 
#    0.000    0.000    0.000    0.000    0.000    0.000 
#
# Total GULP energy -133759.819245 kJ/mol
# GULP energy per Si atom -5573.325802 kJ/mol
# Density = 2.402202 g / cm^3
# Si number density = 24.076819 Si / 1000 Ang^3
#
#
#
# Elastic Constant Matrix: (Units=GPa)
#
#
# Indices 1 2 3 4 5 6 
#
# 1 75.6363 10.1221 25.0714 0.0000 26.5437 0.0000
# 2 10.1221 70.6472 27.5098 0.0000 3.5663 0.0000
# 3 25.0714 27.5098 97.9940 0.0000 12.2500 0.0000
# 4 0.0000 0.0000 0.0000 33.3209 0.0000 2.5314
# 5 26.5437 3.5663 12.2500 0.0000 40.5559 0.0000
# 6 0.0000 0.0000 0.0000 2.5314 0.0000 16.1848
#
#
#
# Elastic Compliance Matrix: (Units=1/GPa)
#
#
# Indices 1 2 3 4 5 6 
#
# 1 0.018170 -0.000868 -0.003043 0.000000 -0.010897 0.000000
# 2 -0.000868 0.015934 -0.004309 0.000000 0.000469 0.000000
# 3 -0.003043 -0.004309 0.012363 0.000000 -0.001364 0.000000
# 4 0.000000 0.000000 0.000000 0.030372 0.000000 -0.004750
# 5 -0.010897 0.000469 -0.001364 0.000000 0.032160 0.000000
# 6 0.000000 0.000000 0.000000 -0.004750 0.000000 0.062529
#
#
# Mechanical properties :
#
#
# Convention : Reuss Voigt Hill
#
# Bulk Modulus (GPa) = 33.30454 41.07599 37.19027
# Shear Modulus (GPa) = 25.25522 30.11726 27.68624
#
# Velocity S-wave (km/s) = 3.24225 3.54062 3.39472
# Velocity P-wave (km/s) = 5.28005 5.81481 5.55387
#
# Compressibility (1/GPa) = 0.03002593
#
# Stress axis : x y z
#
# Youngs Moduli (GPa) = 55.03542 62.76006 80.88329
#
# Poissons Ratio (x) = 0.05450 0.24611
# Poissons Ratio (y) = 0.04779 0.34857
# Poissons Ratio (z) = 0.16746 0.27046
#
# Static dielectric constant tensor:
#      x y z
#    x 1.985070 0.000000 0.052510 
#    y 0.000000 1.965860 0.000000 
#    z 0.052510 0.000000 2.005270 
# 
# From -- ./inp_files/44478.got.cif
#   From: 2010.05.17/outbox.cif.g08.bks.cpg/sg14_23_cif.got.tgz:44478.got - 2010.06.03 17:49:19.
