data_PCOD9244946
_publ_section_title
;
Structure prediction by ZEFSAII (Michael W. Deem and Ramdas Pophale) SiO2 
 PCOD9244946
Probable space group: P 21/C
;
_chemical_formula_sum "Si O2"
_cell_formula_units_Z 32
_cell_length_a 13.792346
_cell_length_b 16.142612
_cell_length_c 10.856528
_cell_angle_alpha 90.000000
_cell_angle_beta 146.786110
_cell_angle_gamma 90.000000
_cell_volume 1324.030620
_symmetry_space_group_name_H-M "P 21/C"
_symmetry_group_IT_number 14
_symmetry_cell_setting 'monoclinic'
loop_
_space_group_symop_operation_xyz
x,y,z
-x,1/2+y,1/2-z
-x,-y,-z
x,1/2-y,1/2+z
loop_
_atom_site_type_symbol
_atom_site_label
_atom_site_fract_x
_atom_site_fract_y
_atom_site_fract_z
Si Si1 0.330877 0.700185 0.366330
Si Si2 0.049677 0.376678 0.741288
Si Si3 0.398556 0.391907 0.985033
Si Si4 0.752643 0.029466 0.837922
Si Si5 0.686509 0.747643 0.303293
Si Si6 0.144438 0.111890 0.865283
Si Si7 0.038087 0.120697 0.487866
Si Si8 0.810174 0.283776 0.047177
O O1 0.528629 0.685206 0.625299
O O2 0.270567 0.770454 0.402923
O O3 0.325592 0.712820 0.212524
O O4 0.169783 0.635557 0.211160
O O5 0.252516 0.362550 0.926072
O O6 0.938561 0.424283 0.520016
O O7 0.934147 0.294607 0.641697
O O8 0.053023 0.425491 0.874347
O O9 0.324020 0.481479 0.860707
O O10 0.382682 0.324262 0.861436
O O11 0.603145 0.407733 0.229540
O O12 0.783033 0.960080 0.972840
O O13 0.737127 0.693600 0.477300
O O14 0.860908 0.791429 0.432217
O O15 0.133060 0.088746 0.710123
O O16 0.945290 0.139483 0.690700
#
# Coordination Sequence:
#
# PCOD9244946 Si02
#       8
#     4   4   4   4   4   4   4   4
#     4  10  21  35  58  92 118 157 202 251 308 367
#     4  11  21  39  64  85 123 163 203 249 313 364
#     4  10  22  40  61  92 121 161 210 250 309 365
#     4  10  23  40  60  90 121 165 202 258 300 373
#     4  11  21  36  65  86 123 162 198 265 306 358
#     4  10  21  42  59  86 128 156 206 256 313 365
#     4  10  23  39  58  94 122 162 203 255 312 369
#     4  10  21  39  60  92 122 158 207 258 307 373
#
# _framework density 24.168626
#
# number of rings (size 3 to 8) (size 9 to 14) (size 15 to 20)
#    0.000    1.750    2.500    2.625    3.500    2.500 
#    6.750    0.625    0.000    0.000    0.000    0.000 
#    0.000    0.000    0.000    0.000    0.000    0.000 
#
# Total GULP energy -178552.906874 kJ/mol
# GULP energy per Si atom -5579.778340 kJ/mol
# Density = 2.411362 g / cm^3
# Si number density = 24.168626 Si / 1000 Ang^3
#
#
#
# Elastic Constant Matrix: (Units=GPa)
#
#
# Indices 1 2 3 4 5 6 
#
# 1 48.0638 -11.6680 16.2344 0.0000 -1.3139 0.0000
# 2 -11.6680 51.6841 13.8176 0.0000 10.4046 0.0000
# 3 16.2344 13.8176 152.7883 0.0000 6.4890 0.0000
# 4 0.0000 0.0000 0.0000 47.5134 0.0000 -4.8715
# 5 -1.3139 10.4046 6.4890 0.0000 38.7014 0.0000
# 6 0.0000 0.0000 0.0000 -4.8715 0.0000 16.8345
#
#
#
# Elastic Compliance Matrix: (Units=1/GPa)
#
#
# Indices 1 2 3 4 5 6 
#
# 1 0.023305 0.006139 -0.003016 0.000000 -0.000353 0.000000
# 2 0.006139 0.022483 -0.002455 0.000000 -0.005424 0.000000
# 3 -0.003016 -0.002455 0.007115 0.000000 -0.000635 0.000000
# 4 0.000000 0.000000 0.000000 0.021690 0.000000 0.006277
# 5 -0.000353 -0.005424 -0.000635 0.000000 0.027392 0.000000
# 6 0.000000 0.000000 0.000000 0.006277 0.000000 0.061218
#
#
# Mechanical properties :
#
#
# Convention : Reuss Voigt Hill
#
# Bulk Modulus (GPa) = 18.43766 32.14490 25.29128
# Shear Modulus (GPa) = 27.78604 36.22002 32.00303
#
# Velocity S-wave (km/s) = 3.39436 3.87542 3.64284
# Velocity P-wave (km/s) = 4.79662 5.77532 5.30857
#
# Compressibility (1/GPa) = 0.05423681
#
# Stress axis : x y z
#
# Youngs Moduli (GPa) = 42.90897 44.47895 140.55749
#
# Poissons Ratio (x) = -0.27305 0.42398
# Poissons Ratio (y) = -0.26341 0.34509
# Poissons Ratio (z) = 0.12943 0.10920
#
# Static dielectric constant tensor:
#      x y z
#    x 1.996240 0.000000 -0.016190 
#    y 0.000000 2.006500 0.000000 
#    z -0.016190 0.000000 1.952900 
# 
# From -- ./inp_files/32998.got.cif
#   From: 2010.05.17/outbox.cif.g08.bks.cpg/sg14_17_cif.got.tgz:32998.got - 2010.06.03 17:49:19.
