data_PCOD9244768
_publ_section_title
;
Structure prediction by ZEFSAII (Michael W. Deem and Ramdas Pophale) SiO2 
 PCOD9244768
Probable space group: P 21/C
;
_chemical_formula_sum "Si O2"
_cell_formula_units_Z 30
_cell_length_a 15.823696
_cell_length_b 4.841628
_cell_length_c 17.860526
_cell_angle_alpha 90.000000
_cell_angle_beta 57.401907
_cell_angle_gamma 90.000000
_cell_volume 1152.784711
_symmetry_space_group_name_H-M "P 21/C"
_symmetry_group_IT_number 14
_symmetry_cell_setting 'monoclinic'
loop_
_space_group_symop_operation_xyz
x,y,z
-x,1/2+y,1/2-z
-x,-y,-z
x,1/2-y,1/2+z
loop_
_atom_site_type_symbol
_atom_site_label
_atom_site_fract_x
_atom_site_fract_y
_atom_site_fract_z
Si Si1 0.193430 0.461300 0.650412
Si Si2 0.062894 0.448304 0.576554
Si Si3 0.671007 0.176657 0.308057
Si Si4 0.506530 0.497995 0.298351
Si Si5 0.500000 0.500000 0.000000
Si Si6 0.836317 0.055212 0.543254
Si Si7 0.658013 0.662174 0.036716
Si Si8 0.843794 0.828449 0.178589
O O1 0.100753 0.534135 0.641022
O O2 0.255038 0.694831 0.664826
O O3 0.269100 0.312834 0.557019
O O4 0.158428 0.270383 0.734671
O O5 0.089249 0.134225 0.543297
O O6 0.947236 0.509499 0.620579
O O7 0.129751 0.634876 0.488461
O O8 0.606712 0.411204 0.295700
O O9 0.588518 0.002236 0.392386
O O10 0.741918 0.005351 0.218671
O O11 0.499006 0.809181 0.273937
O O12 0.413178 0.390796 0.391667
O O13 0.585527 0.469848 0.023387
O O14 0.726404 0.996433 0.563077
O O15 0.843200 0.929376 0.622408
#
# Coordination Sequence:
#
# PCOD9244768 Si02
#       8
#     4   4   4   4   2   4   4   4
#     4  11  27  45  74 110 148 200 247 311 376 449
#     4  11  28  48  76 106 155 199 249 306 378 448
#     4  11  26  42  74 104 149 189 247 306 368 442
#     4  11  27  46  73 107 145 192 247 308 373 441
#     4  10  20  44  64 100 142 190 238 298 372 436
#     4  11  26  49  74 109 149 200 250 312 374 444
#     4  10  23  44  72 105 147 195 249 307 375 448
#     4  12  27  46  77 110 151 193 257 307 377 445
#
# _framework density 26.023938999999999
#
# number of rings (size 3 to 8) (size 9 to 14) (size 15 to 20)
#    0.000    1.067    1.333    2.400   11.200    6.400 
#    0.000    0.000    0.000    0.000    0.000    0.000 
#    0.000    0.000    0.000    0.000    0.000    0.000 
#
# Total GULP energy -167866.095787 kJ/mol
# GULP energy per Si atom -5595.536526 kJ/mol
# Density = 2.596471 g / cm^3
# Si number density = 26.023939 Si / 1000 Ang^3
#
#
#
# Elastic Constant Matrix: (Units=GPa)
#
#
# Indices 1 2 3 4 5 6 
#
# 1 170.1071 23.3838 37.7367 0.0000 10.1251 0.0000
# 2 23.3838 55.9678 0.4965 0.0000 0.9334 0.0000
# 3 37.7367 0.4965 97.3592 0.0000 13.3755 0.0000
# 4 0.0000 0.0000 0.0000 30.4115 0.0000 9.1494
# 5 10.1251 0.9334 13.3755 0.0000 47.3592 0.0000
# 6 0.0000 0.0000 0.0000 9.1494 0.0000 25.0048
#
#
#
# Elastic Compliance Matrix: (Units=1/GPa)
#
#
# Indices 1 2 3 4 5 6 
#
# 1 0.006877 -0.002839 -0.002556 0.000000 -0.000692 0.000000
# 2 -0.002839 0.019046 0.001011 0.000000 -0.000054 0.000000
# 3 -0.002556 0.001011 0.011636 0.000000 -0.002760 0.000000
# 4 0.000000 0.000000 0.000000 0.036950 0.000000 -0.013520
# 5 -0.000692 -0.000054 -0.002760 0.000000 0.022044 0.000000
# 6 0.000000 0.000000 0.000000 -0.013520 0.000000 0.044939
#
#
# Mechanical properties :
#
#
# Convention : Reuss Voigt Hill
#
# Bulk Modulus (GPa) = 34.73442 49.62978 42.18210
# Shear Modulus (GPa) = 31.27793 38.00958 34.64376
#
# Velocity S-wave (km/s) = 3.47059 3.82588 3.65256
# Velocity P-wave (km/s) = 5.42550 6.21520 5.83373
#
# Compressibility (1/GPa) = 0.02878989
#
# Stress axis : x y z
#
# Youngs Moduli (GPa) = 145.40870 52.50572 85.94059
#
# Poissons Ratio (x) = 0.14907 0.21966
# Poissons Ratio (y) = 0.41283 -0.08686
# Poissons Ratio (z) = 0.37166 -0.05307
#
# Static dielectric constant tensor:
#      x y z
#    x 1.973360 0.000000 0.011060 
#    y 0.000000 2.047570 0.000000 
#    z 0.011060 0.000000 2.022710 
# 
# From -- ./inp_files/58554.got.cif
#   From: 2010.05.17/outbox.cif.g08.bks.cpg/sg14_30_cif.got.tgz:58554.got - 2010.06.03 17:49:19.
