data_PCOD9244066
_publ_section_title
;
Structure prediction by ZEFSAII (Michael W. Deem and Ramdas Pophale) SiO2 
 PCOD9244066
Probable space group: P 21/C
;
_chemical_formula_sum "Si O2"
_cell_formula_units_Z 32
_cell_length_a 11.839900
_cell_length_b 16.957895
_cell_length_c 14.558607
_cell_angle_alpha 90.000000
_cell_angle_beta 27.904640
_cell_angle_gamma 90.000000
_cell_volume 1368.002640
_symmetry_space_group_name_H-M "P 21/C"
_symmetry_group_IT_number 14
_symmetry_cell_setting 'monoclinic'
loop_
_space_group_symop_operation_xyz
x,y,z
-x,1/2+y,1/2-z
-x,-y,-z
x,1/2-y,1/2+z
loop_
_atom_site_type_symbol
_atom_site_label
_atom_site_fract_x
_atom_site_fract_y
_atom_site_fract_z
Si Si1 0.864320 0.625372 0.805199
Si Si2 0.635768 0.138943 0.422735
Si Si3 0.360582 0.372741 0.445941
Si Si4 0.119624 0.405584 0.008165
Si Si5 0.682516 0.993483 0.785062
Si Si6 0.955606 0.294459 0.845954
Si Si7 0.996245 0.980341 0.896254
Si Si8 0.212795 0.770145 0.330471
O O1 0.761981 0.598918 0.977659
O O2 0.988839 0.708582 0.734442
O O3 0.043799 0.559084 0.635518
O O4 0.648662 0.637949 0.888242
O O5 0.726042 0.170128 0.456660
O O6 0.752173 0.194670 0.259318
O O7 0.750382 0.053828 0.321958
O O8 0.572242 0.436980 0.302226
O O9 0.191737 0.410170 0.490085
O O10 0.516191 0.293643 0.331806
O O11 0.174702 0.354484 0.663527
O O12 0.946912 0.482776 0.130569
O O13 0.933409 0.334381 0.124660
O O14 0.296027 0.417394 0.794880
O O15 0.500000 0.000000 0.000000
O O16 0.926780 0.274209 0.973146
O O17 0.000000 0.000000 0.000000
#
# Coordination Sequence:
#
# PCOD9244066 Si02
#       8
#     4   4   4   4   4   4   4   4
#     4  12  24  46  69 101 147 184 234 299 357 421
#     4  11  25  46  68 105 139 186 244 287 351 433
#     4  10  23  42  65  99 135 176 236 281 346 423
#     4  10  23  40  68 101 139 172 231 291 343 420
#     4  10  20  39  65  99 131 172 220 276 350 407
#     4  11  24  45  72  96 141 187 235 293 347 420
#     4  11  26  43  68 103 143 185 239 289 360 432
#     4  11  22  45  72  99 138 186 239 291 354 411
#
# _framework density 23.391767999999999
#
# number of rings (size 3 to 8) (size 9 to 14) (size 15 to 20)
#    0.000    1.250    2.500    2.625    3.500    5.000 
#    4.500    0.000    0.000    0.000    0.000    0.000 
#    0.000    0.000    0.000    0.000    0.000    0.000 
#
# Total GULP energy -178599.035178 kJ/mol
# GULP energy per Si atom -5581.219849 kJ/mol
# Density = 2.333853 g / cm^3
# Si number density = 23.391768 Si / 1000 Ang^3
#
#
#
# Elastic Constant Matrix: (Units=GPa)
#
#
# Indices 1 2 3 4 5 6 
#
# 1 64.7696 12.6140 9.7204 0.0000 3.0980 0.0000
# 2 12.6140 65.9866 2.0279 0.0000 -1.8947 0.0000
# 3 9.7204 2.0279 49.6874 0.0000 -0.0543 0.0000
# 4 0.0000 0.0000 0.0000 25.4134 0.0000 4.6886
# 5 3.0980 -1.8947 -0.0543 0.0000 35.5587 0.0000
# 6 0.0000 0.0000 0.0000 4.6886 0.0000 21.9912
#
#
#
# Elastic Compliance Matrix: (Units=1/GPa)
#
#
# Indices 1 2 3 4 5 6 
#
# 1 0.016593 -0.003122 -0.003120 0.000000 -0.001617 0.000000
# 2 -0.003122 0.015784 -0.000032 0.000000 0.001113 0.000000
# 3 -0.003120 -0.000032 0.020738 0.000000 0.000302 0.000000
# 4 0.000000 0.000000 0.000000 0.040961 0.000000 -0.008733
# 5 -0.001617 0.001113 0.000302 0.000000 0.028323 0.000000
# 6 0.000000 0.000000 0.000000 -0.008733 0.000000 0.047335
#
#
# Mechanical properties :
#
#
# Convention : Reuss Voigt Hill
#
# Bulk Modulus (GPa) = 24.65161 25.46315 25.05738
# Shear Modulus (GPa) = 25.53552 26.99806 26.26679
#
# Velocity S-wave (km/s) = 3.30759 3.40099 3.35462
# Velocity P-wave (km/s) = 5.01481 5.13142 5.07345
#
# Compressibility (1/GPa) = 0.04056530
#
# Stress axis : x y z
#
# Youngs Moduli (GPa) = 60.26606 63.35354 48.22077
#
# Poissons Ratio (x) = 0.19782 0.15047
# Poissons Ratio (y) = 0.18818 0.00155
# Poissons Ratio (z) = 0.18806 0.00204
#
# Static dielectric constant tensor:
#      x y z
#    x 1.911520 0.000000 0.020280 
#    y 0.000000 1.946340 0.000000 
#    z 0.020280 0.000000 1.917030 
# 
# From -- ./inp_files/45425.got.cif
#   From: 2010.05.17/outbox.cif.g08.bks.cpg/sg14_23_cif.got.tgz:45425.got - 2010.06.03 17:49:19.
