data_PCOD9244323
_publ_section_title
;
Structure prediction by ZEFSAII (Michael W. Deem and Ramdas Pophale) SiO2 
 PCOD9244323
Probable space group: P 21/C
;
_chemical_formula_sum "Si O2"
_cell_formula_units_Z 16
_cell_length_a 7.129094
_cell_length_b 9.244679
_cell_length_c 11.446945
_cell_angle_alpha 90.000000
_cell_angle_beta 130.509798
_cell_angle_gamma 90.000000
_cell_volume 573.585081
_symmetry_space_group_name_H-M "P 21/C"
_symmetry_group_IT_number 14
_symmetry_cell_setting 'monoclinic'
loop_
_space_group_symop_operation_xyz
x,y,z
-x,1/2+y,1/2-z
-x,-y,-z
x,1/2-y,1/2+z
loop_
_atom_site_type_symbol
_atom_site_label
_atom_site_fract_x
_atom_site_fract_y
_atom_site_fract_z
Si Si1 0.361577 0.077150 0.050424
Si Si2 0.234381 0.518909 0.952076
Si Si3 0.934478 0.745196 0.236599
Si Si4 0.458445 0.339012 0.236191
O O1 0.517985 0.208817 0.172226
O O2 0.334621 0.947868 0.132482
O O3 0.127235 0.159720 0.903214
O O4 0.500000 0.000000 0.000000
O O5 0.049735 0.416571 0.803521
O O6 0.146479 0.681692 0.898850
O O7 0.500000 0.500000 0.000000
O O8 0.271388 0.448969 0.093625
O O9 0.693516 0.762681 0.221689
#
# Coordination Sequence:
#
# PCOD9244323 Si02
#       4
#     4   4   4   4
#     4   9  20  38  63  97 132 172 224 277 334 403
#     4  11  24  42  65  97 134 173 224 282 338 403
#     4  10  23  42  63  94 133 175 223 277 338 404
#     4  10  20  40  66  94 131 176 221 276 339 402
#
# _framework density 27.894725999999999
#
# number of rings (size 3 to 8) (size 9 to 14) (size 15 to 20)
#    0.000    2.000    0.000    2.250    0.000   12.000 
#    0.000   16.250    0.000    0.000    0.000    0.000 
#    0.000    0.000    0.000    0.000    0.000    0.000 
#
# Total GULP energy -89633.202135 kJ/mol
# GULP energy per Si atom -5602.075133 kJ/mol
# Density = 2.783124 g / cm^3
# Si number density = 27.894726 Si / 1000 Ang^3
#
#
#
# Elastic Constant Matrix: (Units=GPa)
#
#
# Indices 1 2 3 4 5 6 
#
# 1 59.1279 7.4377 10.2397 0.0000 -5.6046 0.0000
# 2 7.4377 164.8518 77.7425 0.0000 -9.0769 0.0000
# 3 10.2397 77.7425 89.2583 0.0000 -16.8450 0.0000
# 4 0.0000 0.0000 0.0000 104.4194 0.0000 -4.6751
# 5 -5.6046 -9.0769 -16.8450 0.0000 35.1655 0.0000
# 6 0.0000 0.0000 0.0000 -4.6751 0.0000 32.7468
#
#
#
# Elastic Compliance Matrix: (Units=1/GPa)
#
#
# Indices 1 2 3 4 5 6 
#
# 1 0.017384 0.000152 -0.001755 0.000000 0.001969 0.000000
# 2 0.000152 0.010401 -0.009416 0.000000 -0.001802 0.000000
# 3 -0.001755 -0.009416 0.020992 0.000000 0.007346 0.000000
# 4 0.000000 0.000000 0.000000 0.009638 0.000000 0.001376
# 5 0.001969 -0.001802 0.007346 0.000000 0.031804 0.000000
# 6 0.000000 0.000000 0.000000 0.001376 0.000000 0.030734
#
#
# Mechanical properties :
#
#
# Convention : Reuss Voigt Hill
#
# Bulk Modulus (GPa) = 37.39942 56.00865 46.70403
# Shear Modulus (GPa) = 32.91536 48.98755 40.95145
#
# Velocity S-wave (km/s) = 3.43882 4.19520 3.83570
# Velocity P-wave (km/s) = 5.40405 6.60215 6.03292
#
# Compressibility (1/GPa) = 0.02673838
#
# Stress axis : x y z
#
# Youngs Moduli (GPa) = 57.52429 96.14853 47.63644
#
# Poissons Ratio (x) = -0.01458 0.08359
# Poissons Ratio (y) = -0.00872 0.44855
# Poissons Ratio (z) = 0.10094 0.90535
#
# Static dielectric constant tensor:
#      x y z
#    x 2.181360 0.000000 -0.017440 
#    y 0.000000 2.114080 0.000000 
#    z -0.017440 0.000000 2.193170 
# 
# From -- ./inp_files/22855.got.cif
#   From: 2010.05.17/outbox.cif.g08.bks.cpg/sg14_12_cif.got.tgz:22855.got - 2010.06.03 17:49:19.
