data_PCOD9244714
_publ_section_title
;
Structure prediction by ZEFSAII (Michael W. Deem and Ramdas Pophale) SiO2 
 PCOD9244714
Probable space group: P 21/C
;
_chemical_formula_sum "Si O2"
_cell_formula_units_Z 16
_cell_length_a 8.903311
_cell_length_b 4.909775
_cell_length_c 12.814108
_cell_angle_alpha 90.000000
_cell_angle_beta 81.044092
_cell_angle_gamma 90.000000
_cell_volume 553.317293
_symmetry_space_group_name_H-M "P 21/C"
_symmetry_group_IT_number 14
_symmetry_cell_setting 'monoclinic'
loop_
_space_group_symop_operation_xyz
x,y,z
-x,1/2+y,1/2-z
-x,-y,-z
x,1/2-y,1/2+z
loop_
_atom_site_type_symbol
_atom_site_label
_atom_site_fract_x
_atom_site_fract_y
_atom_site_fract_z
Si Si1 0.000000 0.000000 0.000000
Si Si2 0.447243 0.324514 0.133878
Si Si3 0.000000 0.500000 0.000000
Si Si4 0.739377 0.343183 0.395138
Si Si5 0.258720 0.050225 0.323496
O O1 0.872346 0.224645 0.962817
O O2 0.023965 0.243272 0.083493
O O3 0.377810 0.601319 0.101912
O O4 0.375712 0.263340 0.256715
O O5 0.626896 0.349033 0.127533
O O6 0.366204 0.101163 0.070995
O O7 0.865870 0.684680 0.087982
O O8 0.802955 0.398315 0.272356
#
# Coordination Sequence:
#
# PCOD9244714 Si02
#       5
#     2   4   2   4   4
#     4  12  28  48  62 116 154 196 244 314 376 450
#     4  10  20  42  81 103 137 199 246 304 368 451
#     4  12  30  42  72 112 158 190 244 318 382 450
#     4  10  22  43  77 101 144 197 249 300 367 452
#     4  10  23  45  77 109 145 190 251 310 382 442
#
# _framework density 28.916502999999999
#
# number of rings (size 3 to 8) (size 9 to 14) (size 15 to 20)
#    1.500    0.000    2.500    1.500    3.500    2.000 
#    0.000    7.500    0.000    0.000    0.000    0.000 
#    0.000    0.000    0.000    0.000    0.000    0.000 
#
# Total GULP energy -89080.035467 kJ/mol
# GULP energy per Si atom -5567.502217 kJ/mol
# Density = 2.885069 g / cm^3
# Si number density = 28.916503 Si / 1000 Ang^3
#
#
#
# Elastic Constant Matrix: (Units=GPa)
#
#
# Indices 1 2 3 4 5 6 
#
# 1 241.4441 16.5921 99.5437 0.0000 12.3576 0.0000
# 2 16.5921 169.8678 -27.3733 0.0000 24.9655 0.0000
# 3 99.5437 -27.3733 155.8922 0.0000 -26.1084 0.0000
# 4 0.0000 0.0000 0.0000 24.7481 0.0000 11.4818
# 5 12.3576 24.9655 -26.1084 0.0000 67.9514 0.0000
# 6 0.0000 0.0000 0.0000 11.4818 0.0000 43.7825
#
#
#
# Elastic Compliance Matrix: (Units=1/GPa)
#
#
# Indices 1 2 3 4 5 6 
#
# 1 0.006221 -0.000972 -0.004566 0.000000 -0.002529 0.000000
# 2 -0.000972 0.006460 0.001482 0.000000 -0.001627 0.000000
# 3 -0.004566 0.001482 0.010301 0.000000 0.004244 0.000000
# 4 0.000000 0.000000 0.000000 0.046004 0.000000 -0.012064
# 5 -0.002529 -0.001627 0.004244 0.000000 0.017405 0.000000
# 6 0.000000 0.000000 0.000000 -0.012064 0.000000 0.026004
#
#
# Mechanical properties :
#
#
# Convention : Reuss Voigt Hill
#
# Bulk Modulus (GPa) = 67.24733 82.74767 74.99750
# Shear Modulus (GPa) = 39.85239 59.19251 49.52245
#
# Velocity S-wave (km/s) = 3.71642 4.52930 4.14285
# Velocity P-wave (km/s) = 6.45925 7.48538 6.99117
#
# Compressibility (1/GPa) = 0.01487048
#
# Stress axis : x y z
#
# Youngs Moduli (GPa) = 160.75842 154.80226 97.07408
#
# Poissons Ratio (x) = 0.15043 0.44326
# Poissons Ratio (y) = 0.15622 -0.14389
# Poissons Ratio (z) = 0.73405 -0.22947
#
# Static dielectric constant tensor:
#      x y z
#    x 2.243030 0.000000 0.001500 
#    y 0.000000 2.220290 0.000000 
#    z 0.001500 0.000000 2.129220 
# 
# From -- ./inp_files/38437.got.cif
#   From: 2010.05.17/outbox.cif.g08.bks.cpg/sg14_20_cif.got.tgz:38437.got - 2010.06.03 17:49:19.
