data_PCOD9244263
_publ_section_title
;
Structure prediction by ZEFSAII (Michael W. Deem and Ramdas Pophale) SiO2 
 PCOD9244263
Probable space group: P 21/C
;
_chemical_formula_sum "Si O2"
_cell_formula_units_Z 28
_cell_length_a 9.243426
_cell_length_b 9.753123
_cell_length_c 21.963766
_cell_angle_alpha 90.000000
_cell_angle_beta 139.338949
_cell_angle_gamma 90.000000
_cell_volume 1290.188435
_symmetry_space_group_name_H-M "P 21/C"
_symmetry_group_IT_number 14
_symmetry_cell_setting 'monoclinic'
loop_
_space_group_symop_operation_xyz
x,y,z
-x,1/2+y,1/2-z
-x,-y,-z
x,1/2-y,1/2+z
loop_
_atom_site_type_symbol
_atom_site_label
_atom_site_fract_x
_atom_site_fract_y
_atom_site_fract_z
Si Si1 0.652658 0.350885 0.793451
Si Si2 0.910242 0.875626 0.401469
Si Si3 0.666346 0.013962 0.486938
Si Si4 0.181021 0.358021 0.710710
Si Si5 0.231526 0.153955 0.368115
Si Si6 0.036922 0.360152 0.396777
Si Si7 0.608746 0.738610 0.403962
O O1 0.747406 0.502285 0.831095
O O2 0.437198 0.340169 0.768925
O O3 0.849581 0.240734 0.865743
O O4 0.576378 0.324245 0.698866
O O5 0.943964 0.773551 0.355706
O O6 0.794507 0.787557 0.415932
O O7 0.145654 0.933521 0.497793
O O8 0.498475 0.135242 0.448373
O O9 0.801152 0.960086 0.589226
O O10 0.547119 0.879031 0.420676
O O11 0.157600 0.368607 0.775755
O O12 0.078017 0.495076 0.649465
O O13 0.122486 0.289031 0.361620
O O14 0.259818 0.360950 0.508750
#
# Coordination Sequence:
#
# PCOD9244263 Si02
#       7
#     4   4   4   4   4   4   4
#     4  11  22  42  68  98 126 173 222 270 331 389
#     4  11  22  39  66  98 127 171 221 266 330 391
#     4  10  20  40  64  97 118 180 221 260 324 391
#     4  11  25  41  63  98 134 171 214 275 328 393
#     4  10  22  39  66  87 130 170 220 264 317 393
#     4  11  24  44  66  97 133 177 215 274 338 373
#     4  10  22  40  70  96 134 167 220 280 320 391
#
# _framework density 21.702256999999999
#
# number of rings (size 3 to 8) (size 9 to 14) (size 15 to 20)
#    0.000    1.429    2.857    3.857    4.000    2.286 
#    2.571    0.714    0.000    0.000    0.000    0.000 
#    0.000    0.000    0.000    0.000    0.000    0.000 
#
# Total GULP energy -156271.823049 kJ/mol
# GULP energy per Si atom -5581.136537 kJ/mol
# Density = 2.165286 g / cm^3
# Si number density = 21.702257 Si / 1000 Ang^3
#
#
#
# Elastic Constant Matrix: (Units=GPa)
#
#
# Indices 1 2 3 4 5 6 
#
# 1 63.4259 8.1426 5.2238 0.0000 -2.7170 0.0000
# 2 8.1426 82.9987 29.6665 0.0000 -9.2923 0.0000
# 3 5.2238 29.6665 86.5116 0.0000 -13.7687 0.0000
# 4 0.0000 0.0000 0.0000 20.7329 0.0000 3.5217
# 5 -2.7170 -9.2923 -13.7687 0.0000 31.0800 0.0000
# 6 0.0000 0.0000 0.0000 3.5217 0.0000 20.3799
#
#
#
# Elastic Compliance Matrix: (Units=1/GPa)
#
#
# Indices 1 2 3 4 5 6 
#
# 1 0.016005 -0.001344 -0.000373 0.000000 0.000832 0.000000
# 2 -0.001344 0.013982 -0.004375 0.000000 0.002125 0.000000
# 3 -0.000373 -0.004375 0.013845 0.000000 0.004793 0.000000
# 4 0.000000 0.000000 0.000000 0.049691 0.000000 -0.008587
# 5 0.000832 0.002125 0.004793 0.000000 0.035006 0.000000
# 6 0.000000 0.000000 0.000000 -0.008587 0.000000 0.050552
#
#
# Mechanical properties :
#
#
# Convention : Reuss Voigt Hill
#
# Bulk Modulus (GPa) = 31.59805 35.44466 33.52135
# Shear Modulus (GPa) = 24.77520 27.09879 25.93699
#
# Velocity S-wave (km/s) = 3.38242 3.53748 3.46081
# Velocity P-wave (km/s) = 5.46312 5.74915 5.60796
#
# Compressibility (1/GPa) = 0.03164753
#
# Stress axis : x y z
#
# Youngs Moduli (GPa) = 62.47924 71.52065 72.22890
#
# Poissons Ratio (x) = 0.09610 0.02696
# Poissons Ratio (y) = 0.08395 0.31603
# Poissons Ratio (z) = 0.02332 0.31293
#
# Static dielectric constant tensor:
#      x y z
#    x 1.852230 0.000000 -0.044320 
#    y 0.000000 1.779400 0.000000 
#    z -0.044320 0.000000 1.888200 
# 
# From -- ./inp_files/65019.got.cif
#   From: 2010.05.17/outbox.cif.g08.bks.cpg/sg14_33_cif.got.tgz:65019.got - 2010.06.03 17:49:19.
