data_PCOD9244359
_publ_section_title
;
Structure prediction by ZEFSAII (Michael W. Deem and Ramdas Pophale) SiO2 
 PCOD9244359
Probable space group: P 21/C
;
_chemical_formula_sum "Si O2"
_cell_formula_units_Z 26
_cell_length_a 11.717705
_cell_length_b 15.011017
_cell_length_c 8.782455
_cell_angle_alpha 90.000000
_cell_angle_beta 46.271491
_cell_angle_gamma 90.000000
_cell_volume 1116.299075
_symmetry_space_group_name_H-M "P 21/C"
_symmetry_group_IT_number 14
_symmetry_cell_setting 'monoclinic'
loop_
_space_group_symop_operation_xyz
x,y,z
-x,1/2+y,1/2-z
-x,-y,-z
x,1/2-y,1/2+z
loop_
_atom_site_type_symbol
_atom_site_label
_atom_site_fract_x
_atom_site_fract_y
_atom_site_fract_z
Si Si1 0.355309 0.316182 0.260176
Si Si2 0.849437 0.744256 0.306064
Si Si3 0.042257 0.067735 0.684952
Si Si4 0.871741 0.391679 0.023142
Si Si5 0.500000 0.500000 0.000000
Si Si6 0.680709 0.277968 0.395026
Si Si7 0.229591 0.622272 0.379125
O O1 0.204951 0.279192 0.307185
O O2 0.294886 0.310545 0.488045
O O3 0.405091 0.412342 0.156893
O O4 0.503630 0.252625 0.088950
O O5 0.871050 0.838303 0.373844
O O6 0.001970 0.680580 0.155123
O O7 0.944895 0.075960 0.617395
O O8 0.144279 0.977639 0.571393
O O9 0.922432 0.064233 0.937590
O O10 0.709352 0.345741 0.227309
O O11 0.382204 0.565436 0.203613
O O12 0.782719 0.191868 0.248675
O O13 0.741453 0.320808 0.494363
#
# Coordination Sequence:
#
# PCOD9244359 Si02
#       7
#     4   4   4   4   2   4   4
#     4  11  24  41  65  91 136 173 220 278 335 394
#     4  12  22  43  65 101 131 176 219 279 337 398
#     4  10  21  40  67  99 127 174 224 275 337 398
#     4  10  21  41  69  92 133 170 225 277 329 405
#     4  10  22  42  60  92 128 178 214 266 334 392
#     4  10  21  41  67  91 125 179 217 267 339 394
#     4  10  20  40  68  93 127 169 221 273 330 402
#
# _framework density 23.291246999999998
#
# number of rings (size 3 to 8) (size 9 to 14) (size 15 to 20)
#    0.000    1.538    3.077    2.769    0.000    0.000 
#    8.308    2.308    0.000    0.000    0.000    0.000 
#    0.000    0.000    0.000    0.000    0.000    0.000 
#
# Total GULP energy -144767.071278 kJ/mol
# GULP energy per Si atom -5567.964280 kJ/mol
# Density = 2.323824 g / cm^3
# Si number density = 23.291247 Si / 1000 Ang^3
#
#
#
# Elastic Constant Matrix: (Units=GPa)
#
#
# Indices 1 2 3 4 5 6 
#
# 1 20.5392 7.9328 11.3823 0.0000 7.8776 0.0000
# 2 7.9328 117.4238 78.0769 0.0000 4.8624 0.0000
# 3 11.3823 78.0769 135.3911 0.0000 -10.8106 0.0000
# 4 0.0000 0.0000 0.0000 39.0263 0.0000 -0.6226
# 5 7.8776 4.8624 -10.8106 0.0000 18.2855 0.0000
# 6 0.0000 0.0000 0.0000 -0.6226 0.0000 19.3397
#
#
#
# Elastic Compliance Matrix: (Units=1/GPa)
#
#
# Indices 1 2 3 4 5 6 
#
# 1 0.067215 0.004349 -0.011087 0.000000 -0.036668 0.000000
# 2 0.004349 0.015588 -0.010323 0.000000 -0.012122 0.000000
# 3 -0.011087 -0.010323 0.015608 0.000000 0.016749 0.000000
# 4 0.000000 0.000000 0.000000 0.025637 0.000000 0.000825
# 5 -0.036668 -0.012122 0.016749 0.000000 0.083611 0.000000
# 6 0.000000 0.000000 0.000000 0.000825 0.000000 0.051734
#
#
# Mechanical properties :
#
#
# Convention : Reuss Voigt Hill
#
# Bulk Modulus (GPa) = 15.55420 52.01534 33.78477
# Shear Modulus (GPa) = 15.87581 27.06112 21.46846
#
# Velocity S-wave (km/s) = 2.61362 3.41230 3.03931
# Velocity P-wave (km/s) = 3.97500 6.15679 5.18202
#
# Compressibility (1/GPa) = 0.06429131
#
# Stress axis : x y z
#
# Youngs Moduli (GPa) = 14.87754 64.15137 64.06802
#
# Poissons Ratio (x) = -0.27902 0.71031
# Poissons Ratio (y) = -0.06471 0.66137
# Poissons Ratio (z) = 0.16494 0.66223
#
# Static dielectric constant tensor:
#      x y z
#    x 2.027100 0.000000 0.135170 
#    y 0.000000 1.896880 0.000000 
#    z 0.135170 0.000000 1.960880 
# 
# From -- ./inp_files/16152.got.cif
#   From: 2010.05.17/outbox.cif.g08.bks.cpg/sg14_9_cif.got.tgz:16152.got - 2010.06.03 17:49:19.
