data_PCOD9244151
_publ_section_title
;
Structure prediction by ZEFSAII (Michael W. Deem and Ramdas Pophale) SiO2 
 PCOD9244151
Probable space group: P 21/C
;
_chemical_formula_sum "Si O2"
_cell_formula_units_Z 28
_cell_length_a 9.944295
_cell_length_b 5.364506
_cell_length_c 32.649626
_cell_angle_alpha 90.000000
_cell_angle_beta 130.139733
_cell_angle_gamma 90.000000
_cell_volume 1331.511646
_symmetry_space_group_name_H-M "P 21/C"
_symmetry_group_IT_number 14
_symmetry_cell_setting 'monoclinic'
loop_
_space_group_symop_operation_xyz
x,y,z
-x,1/2+y,1/2-z
-x,-y,-z
x,1/2-y,1/2+z
loop_
_atom_site_type_symbol
_atom_site_label
_atom_site_fract_x
_atom_site_fract_y
_atom_site_fract_z
Si Si1 0.042497 0.706417 0.473887
Si Si2 0.561816 0.761241 0.126998
Si Si3 0.486841 0.007282 0.800952
Si Si4 0.965652 0.633983 0.718320
Si Si5 0.619897 0.481351 0.484035
Si Si6 0.292069 0.511761 0.731793
Si Si7 0.707761 0.886896 0.432447
O O1 0.179888 0.606132 0.467434
O O2 0.000000 0.500000 0.500000
O O3 0.845675 0.791725 0.425012
O O4 0.163707 0.909242 0.520694
O O5 0.487950 0.956855 0.145766
O O6 0.769625 0.782786 0.168376
O O7 0.466584 0.506151 0.120562
O O8 0.489561 0.802305 0.067527
O O9 0.365088 0.247641 0.763863
O O10 0.659764 0.021644 0.806658
O O11 0.394410 0.748452 0.771229
O O12 0.956920 0.381009 0.743991
O O13 0.091771 0.555007 0.705780
O O14 0.500000 0.500000 0.500000
O O15 0.651045 0.713084 0.459315
#
# Coordination Sequence:
#
# PCOD9244151 Si02
#       7
#     4   4   4   4   4   4   4
#     4   8  16  36  60  85 111 158 203 251 321 378
#     4  11  23  36  61  94 118 172 215 261 325 399
#     4  10  21  37  65  85 124 161 214 266 311 383
#     4  12  23  39  64  92 133 174 212 266 327 393
#     4  10  22  39  61  91 129 167 212 275 333 388
#     4  10  20  40  59  91 120 167 208 260 322 371
#     4   9  19  36  62  85 119 156 211 256 320 384
#
# _framework density 21.028729999999999
#
# number of rings (size 3 to 8) (size 9 to 14) (size 15 to 20)
#    0.000    2.000    2.857    0.000    4.000    2.286 
#    0.000   10.000    0.000    0.000    0.000    0.000 
#    0.000    0.000    0.000    0.000    0.000    0.000 
#
# Total GULP energy -155929.081694 kJ/mol
# GULP energy per Si atom -5568.895775 kJ/mol
# Density = 2.098087 g / cm^3
# Si number density = 21.028730 Si / 1000 Ang^3
#
#
#
# Elastic Constant Matrix: (Units=GPa)
#
#
# Indices 1 2 3 4 5 6 
#
# 1 219.8413 24.2066 56.4379 0.0000 14.6312 0.0000
# 2 24.2066 91.5440 10.7948 0.0000 12.7163 0.0000
# 3 56.4379 10.7948 53.0576 0.0000 -1.0920 0.0000
# 4 0.0000 0.0000 0.0000 21.8705 0.0000 3.4292
# 5 14.6312 12.7163 -1.0920 0.0000 35.3355 0.0000
# 6 0.0000 0.0000 0.0000 3.4292 0.0000 23.9879
#
#
#
# Elastic Compliance Matrix: (Units=1/GPa)
#
#
# Indices 1 2 3 4 5 6 
#
# 1 0.006571 -0.000539 -0.006937 0.000000 -0.002741 0.000000
# 2 -0.000539 0.011864 -0.001925 0.000000 -0.004106 0.000000
# 3 -0.006937 -0.001925 0.026708 0.000000 0.004390 0.000000
# 4 0.000000 0.000000 0.000000 0.046772 0.000000 -0.006686
# 5 -0.002741 -0.004106 0.004390 0.000000 0.031049 0.000000
# 6 0.000000 0.000000 0.000000 -0.006686 0.000000 0.042644
#
#
# Mechanical properties :
#
#
# Convention : Reuss Voigt Hill
#
# Bulk Modulus (GPa) = 37.96253 60.81349 49.38801
# Shear Modulus (GPa) = 25.88136 34.43901 30.16018
#
# Velocity S-wave (km/s) = 3.51203 4.05126 3.79124
# Velocity P-wave (km/s) = 5.87688 7.13201 6.53465
#
# Compressibility (1/GPa) = 0.02634177
#
# Stress axis : x y z
#
# Youngs Moduli (GPa) = 152.17586 84.29207 37.44169
#
# Poissons Ratio (x) = 0.04542 0.25973
# Poissons Ratio (y) = 0.08200 0.07208
# Poissons Ratio (z) = 1.05561 0.16226
#
# Static dielectric constant tensor:
#      x y z
#    x 1.802990 0.000000 0.001440 
#    y 0.000000 1.912450 0.000000 
#    z 0.001440 0.000000 1.774170 
# 
# From -- ./inp_files/76015.got.cif
#   From: 2010.05.17/outbox.cif.g08.bks.cpg/sg14_39_cif.got.tgz:76015.got - 2010.06.03 17:49:19.
