data_PCOD9244945
_publ_section_title
;
Structure prediction by ZEFSAII (Michael W. Deem and Ramdas Pophale) SiO2 
 PCOD9244945
Probable space group: P 21/C
;
_chemical_formula_sum "Si O2"
_cell_formula_units_Z 28
_cell_length_a 12.096064
_cell_length_b 23.164098
_cell_length_c 5.224939
_cell_angle_alpha 90.000000
_cell_angle_beta 117.472405
_cell_angle_gamma 90.000000
_cell_volume 1298.908142
_symmetry_space_group_name_H-M "P 21/C"
_symmetry_group_IT_number 14
_symmetry_cell_setting 'monoclinic'
loop_
_space_group_symop_operation_xyz
x,y,z
-x,1/2+y,1/2-z
-x,-y,-z
x,1/2-y,1/2+z
loop_
_atom_site_type_symbol
_atom_site_label
_atom_site_fract_x
_atom_site_fract_y
_atom_site_fract_z
Si Si1 0.859068 0.535451 0.608322
Si Si2 0.521317 0.284130 0.871095
Si Si3 0.290847 0.973635 0.691229
Si Si4 0.799124 0.209213 0.800795
Si Si5 0.510075 0.938727 0.246977
Si Si6 0.888753 0.084934 0.823612
Si Si7 0.616319 0.888138 0.837297
O O1 0.821572 0.517273 0.857057
O O2 0.870983 0.472254 0.485047
O O3 0.743231 0.577594 0.418030
O O4 0.982726 0.571233 0.685586
O O5 0.521455 0.268102 0.572178
O O6 0.395205 0.321495 0.750904
O O7 0.654281 0.310311 0.103965
O O8 0.225774 0.920166 0.495144
O O9 0.395311 0.007453 0.646673
O O10 0.371486 0.956351 0.023699
O O11 0.819041 0.249637 0.570033
O O12 0.879328 0.150232 0.916213
O O13 0.517477 0.911675 0.528814
O O14 0.566728 0.901082 0.070965
#
# Coordination Sequence:
#
# PCOD9244945 Si02
#       7
#     4   4   4   4   4   4   4
#     4  10  24  38  62  93 130 168 212 245 327 376
#     4  10  21  38  62  88 119 160 209 264 319 364
#     4  10  21  35  58  91 126 163 196 256 309 383
#     4  10  24  43  64  91 120 161 215 260 306 364
#     4  10  22  33  60  89 129 157 203 244 326 373
#     4  11  22  42  63  90 128 175 204 268 299 376
#     4  11  21  41  58  93 127 164 204 261 308 396
#
# _framework density 21.556567000000001
#
# number of rings (size 3 to 8) (size 9 to 14) (size 15 to 20)
#    0.000    1.714    1.429    2.143    6.000    2.857 
#    0.000    1.429    0.000    0.000    0.000    0.000 
#    0.000    0.000    0.000    0.000    0.000    0.000 
#
# Total GULP energy -155942.104524 kJ/mol
# GULP energy per Si atom -5569.360876 kJ/mol
# Density = 2.150750 g / cm^3
# Si number density = 21.556567 Si / 1000 Ang^3
#
#
#
# Elastic Constant Matrix: (Units=GPa)
#
#
# Indices 1 2 3 4 5 6 
#
# 1 58.1748 35.5814 21.6983 0.0000 8.6659 0.0000
# 2 35.5814 80.0202 8.5383 0.0000 19.4258 0.0000
# 3 21.6983 8.5383 45.6036 0.0000 -2.5723 0.0000
# 4 0.0000 0.0000 0.0000 10.5263 0.0000 9.2768
# 5 8.6659 19.4258 -2.5723 0.0000 20.0946 0.0000
# 6 0.0000 0.0000 0.0000 9.2768 0.0000 34.8030
#
#
#
# Elastic Compliance Matrix: (Units=1/GPa)
#
#
# Indices 1 2 3 4 5 6 
#
# 1 0.028618 -0.010581 -0.011840 0.000000 -0.003629 0.000000
# 2 -0.010581 0.020990 0.000219 0.000000 -0.015700 0.000000
# 3 -0.011840 0.000219 0.027999 0.000000 0.008478 0.000000
# 4 0.000000 0.000000 0.000000 0.124168 0.000000 -0.033097
# 5 -0.003629 -0.015700 0.008478 0.000000 0.067592 0.000000
# 6 0.000000 0.000000 0.000000 -0.033097 0.000000 0.037555
#
#
# Mechanical properties :
#
#
# Convention : Reuss Voigt Hill
#
# Bulk Modulus (GPa) = 30.11823 35.04830 32.58326
# Shear Modulus (GPa) = 13.79717 20.95017 17.37367
#
# Velocity S-wave (km/s) = 2.53266 3.12086 2.84202
# Velocity P-wave (km/s) = 4.74916 5.41114 5.09092
#
# Compressibility (1/GPa) = 0.03320248
#
# Stress axis : x y z
#
# Youngs Moduli (GPa) = 34.94331 47.64249 35.71571
#
# Poissons Ratio (x) = 0.50410 0.42288
# Poissons Ratio (y) = 0.36973 -0.00782
# Poissons Ratio (z) = 0.41373 -0.01043
#
# Static dielectric constant tensor:
#      x y z
#    x 1.815750 0.000000 -0.054200 
#    y 0.000000 1.938360 0.000000 
#    z -0.054200 0.000000 1.826790 
# 
# From -- ./inp_files/2989.got.cif
#   From: 2010.05.17/outbox.cif.g08.bks.cpg/sg14_2_cif.got.tgz:2989.got - 2010.06.03 17:49:19.
