data_PCOD9244923
_publ_section_title
;
Structure prediction by ZEFSAII (Michael W. Deem and Ramdas Pophale) SiO2 
 PCOD9244923
Probable space group: P 21/C
;
_chemical_formula_sum "Si O2"
_cell_formula_units_Z 28
_cell_length_a 26.295634
_cell_length_b 8.952277
_cell_length_c 9.958469
_cell_angle_alpha 90.000000
_cell_angle_beta 151.143303
_cell_angle_gamma 90.000000
_cell_volume 1131.398444
_symmetry_space_group_name_H-M "P 21/C"
_symmetry_group_IT_number 14
_symmetry_cell_setting 'monoclinic'
loop_
_space_group_symop_operation_xyz
x,y,z
-x,1/2+y,1/2-z
-x,-y,-z
x,1/2-y,1/2+z
loop_
_atom_site_type_symbol
_atom_site_label
_atom_site_fract_x
_atom_site_fract_y
_atom_site_fract_z
Si Si1 0.039557 0.680694 0.334999
Si Si2 0.708993 0.609540 0.372665
Si Si3 0.700217 0.943938 0.402485
Si Si4 0.549445 0.563719 0.773898
Si Si5 0.428679 0.420840 0.718963
Si Si6 0.129995 0.118638 0.968083
Si Si7 0.892636 0.399854 0.237819
O O1 0.047220 0.513811 0.297888
O O2 0.085731 0.790746 0.332718
O O3 0.109819 0.692932 0.630002
O O4 0.924796 0.728333 0.118569
O O5 0.671725 0.781404 0.281227
O O6 0.684544 0.563917 0.468324
O O7 0.824363 0.611095 0.575695
O O8 0.636416 0.529523 0.093145
O O9 0.601275 0.010148 0.258949
O O10 0.779770 0.020405 0.481956
O O11 0.780271 0.908156 0.713309
O O12 0.447429 0.503675 0.620047
O O13 0.545118 0.743446 0.737975
O O14 0.500000 0.500000 0.000000
O O15 0.000000 0.500000 0.500000
#
# Coordination Sequence:
#
# PCOD9244923 Si02
#       7
#     4   4   4   4   4   4   4
#     4  11  22  38  59  84 120 158 201 248 300 341
#     4   9  18  35  60  82 111 154 195 230 289 361
#     4   9  18  36  58  77 115 154 191 239 289 352
#     4   9  18  35  61  86 111 149 192 229 295 352
#     4   9  18  36  59  85 114 145 184 241 285 350
#     4  10  21  35  56  83 114 155 199 243 295 343
#     4  11  21  40  57  86 121 155 198 251 294 343
#
# _framework density 24.748134
#
# number of rings (size 3 to 8) (size 9 to 14) (size 15 to 20)
#    0.000    2.286    2.857    0.857    0.000    0.571 
#    2.571    7.857    6.286    0.000    0.000    0.000 
#    0.000    0.000    0.000    0.000    0.000    0.000 
#
# Total GULP energy -156231.202645 kJ/mol
# GULP energy per Si atom -5579.685809 kJ/mol
# Density = 2.469181 g / cm^3
# Si number density = 24.748134 Si / 1000 Ang^3
#
#
#
# Elastic Constant Matrix: (Units=GPa)
#
#
# Indices 1 2 3 4 5 6 
#
# 1 293.2046 50.5128 31.5128 0.0000 46.6094 0.0000
# 2 50.5128 57.7412 5.3606 0.0000 -0.2966 0.0000
# 3 31.5128 5.3606 54.8852 0.0000 30.2949 0.0000
# 4 0.0000 0.0000 0.0000 19.0457 0.0000 3.4804
# 5 46.6094 -0.2966 30.2949 0.0000 57.3217 0.0000
# 6 0.0000 0.0000 0.0000 3.4804 0.0000 52.4515
#
#
#
# Elastic Compliance Matrix: (Units=1/GPa)
#
#
# Indices 1 2 3 4 5 6 
#
# 1 0.004749 -0.004150 -0.000251 0.000000 -0.003750 0.000000
# 2 -0.004150 0.021184 -0.002272 0.000000 0.004685 0.000000
# 3 -0.000251 -0.002272 0.026091 0.000000 -0.013597 0.000000
# 4 0.000000 0.000000 0.000000 0.053150 0.000000 -0.003527
# 5 -0.003750 0.004685 -0.013597 0.000000 0.027705 0.000000
# 6 0.000000 0.000000 0.000000 -0.003527 0.000000 0.019299
#
#
# Mechanical properties :
#
#
# Convention : Reuss Voigt Hill
#
# Bulk Modulus (GPa) = 25.85547 64.51149 45.18348
# Shear Modulus (GPa) = 28.02419 46.99343 37.50881
#
# Velocity S-wave (km/s) = 3.36873 4.36233 3.89732
# Velocity P-wave (km/s) = 5.05977 7.17614 6.20879
#
# Compressibility (1/GPa) = 0.03867654
#
# Stress axis : x y z
#
# Youngs Moduli (GPa) = 210.58473 47.20485 38.32736
#
# Poissons Ratio (x) = 0.19591 0.00963
# Poissons Ratio (y) = 0.87396 0.08709
# Poissons Ratio (z) = 0.05292 0.10726
#
# Static dielectric constant tensor:
#      x y z
#    x 2.022870 0.000000 0.020960 
#    y 0.000000 1.977090 0.000000 
#    z 0.020960 0.000000 2.113440 
# 
# From -- ./inp_files/36152.got.cif
#   From: 2010.05.17/outbox.cif.g08.bks.cpg/sg14_19_cif.got.tgz:36152.got - 2010.06.03 17:49:19.
