data_PCOD9244678
_publ_section_title
;
Structure prediction by ZEFSAII (Michael W. Deem and Ramdas Pophale) SiO2 
 PCOD9244678
Probable space group: P 21/C
;
_chemical_formula_sum "Si O2"
_cell_formula_units_Z 32
_cell_length_a 14.637494
_cell_length_b 10.714903
_cell_length_c 16.423272
_cell_angle_alpha 90.000000
_cell_angle_beta 36.842916
_cell_angle_gamma 90.000000
_cell_volume 1544.518400
_symmetry_space_group_name_H-M "P 21/C"
_symmetry_group_IT_number 14
_symmetry_cell_setting 'monoclinic'
loop_
_space_group_symop_operation_xyz
x,y,z
-x,1/2+y,1/2-z
-x,-y,-z
x,1/2-y,1/2+z
loop_
_atom_site_type_symbol
_atom_site_label
_atom_site_fract_x
_atom_site_fract_y
_atom_site_fract_z
Si Si1 0.181059 0.902581 0.409780
Si Si2 0.620008 0.611201 0.422248
Si Si3 0.618798 0.777843 0.261058
Si Si4 0.885118 0.606407 0.837814
Si Si5 0.088843 0.178971 0.493780
Si Si6 0.490953 0.733931 0.675672
Si Si7 0.466817 0.022919 0.429753
Si Si8 0.042939 0.376747 0.781194
O O1 0.352802 0.859475 0.289128
O O2 0.082847 0.824543 0.414979
O O3 0.093108 0.881001 0.556841
O O4 0.164055 0.049941 0.406678
O O5 0.500000 0.500000 0.500000
O O6 0.593838 0.699307 0.362004
O O7 0.593082 0.674220 0.530535
O O8 0.796721 0.572675 0.298846
O O9 0.802038 0.786601 0.118526
O O10 0.567376 0.731128 0.207755
O O11 0.521786 0.901959 0.342909
O O12 0.927065 0.730029 0.756915
O O13 0.988292 0.481177 0.754414
O O14 0.907111 0.660829 0.913059
O O15 0.710441 0.561222 0.953091
O O16 0.436972 0.862240 0.673977
O O17 0.500000 0.000000 0.500000
#
# Coordination Sequence:
#
# PCOD9244678 Si02
#       8
#     4   4   4   4   4   4   4   4
#     4  10  23  41  68  97 132 175 229 295 346 410
#     4  12  26  43  74 108 137 183 252 297 343 437
#     4  12  23  44  73  96 142 190 231 289 363 424
#     4  11  24  44  70 103 141 186 237 299 362 433
#     4  10  20  42  69  93 130 178 231 290 349 406
#     4  12  26  45  66 106 141 178 242 287 357 426
#     4  12  25  46  68  99 151 189 223 296 371 427
#     4  11  23  46  69 101 144 182 237 298 363 427
#
# _framework density 20.718432
#
# number of rings (size 3 to 8) (size 9 to 14) (size 15 to 20)
#    0.000    0.750    5.000    2.250    5.250    3.000 
#    2.250    0.625    0.000    0.000    0.000    0.000 
#    0.000    0.000    0.000    0.000    0.000    0.000 
#
# Total GULP energy -178490.689600 kJ/mol
# GULP energy per Si atom -5577.834050 kJ/mol
# Density = 2.067128 g / cm^3
# Si number density = 20.718432 Si / 1000 Ang^3
#
#
#
# Elastic Constant Matrix: (Units=GPa)
#
#
# Indices 1 2 3 4 5 6 
#
# 1 82.0421 -5.6297 12.9085 0.0000 7.7084 0.0000
# 2 -5.6297 65.4329 10.7651 0.0000 -1.5686 0.0000
# 3 12.9085 10.7651 71.1530 0.0000 8.3589 0.0000
# 4 0.0000 0.0000 0.0000 42.1175 0.0000 -0.4563
# 5 7.7084 -1.5686 8.3589 0.0000 32.8046 0.0000
# 6 0.0000 0.0000 0.0000 -0.4563 0.0000 28.1013
#
#
#
# Elastic Compliance Matrix: (Units=1/GPa)
#
#
# Indices 1 2 3 4 5 6 
#
# 1 0.012867 0.001424 -0.002270 0.000000 -0.002377 0.000000
# 2 0.001424 0.015893 -0.002796 0.000000 0.001138 0.000000
# 3 -0.002270 -0.002796 0.015300 0.000000 -0.003499 0.000000
# 4 0.000000 0.000000 0.000000 0.023747 0.000000 0.000386
# 5 -0.002377 0.001138 -0.003499 0.000000 0.031988 0.000000
# 6 0.000000 0.000000 0.000000 0.000386 0.000000 0.035592
#
#
# Mechanical properties :
#
#
# Convention : Reuss Voigt Hill
#
# Bulk Modulus (GPa) = 27.19356 28.30176 27.74766
# Shear Modulus (GPa) = 32.27231 33.97696 33.12463
#
# Velocity S-wave (km/s) = 3.95100 4.05401 4.00284
# Velocity P-wave (km/s) = 5.82818 5.96684 5.89792
#
# Compressibility (1/GPa) = 0.03677341
#
# Stress axis : x y z
#
# Youngs Moduli (GPa) = 77.71744 62.92204 65.35840
#
# Poissons Ratio (x) = -0.08958 0.14840
# Poissons Ratio (y) = -0.11064 0.18277
# Poissons Ratio (z) = 0.17646 0.17596
#
# Static dielectric constant tensor:
#      x y z
#    x 1.821520 0.000000 0.022500 
#    y 0.000000 1.811820 0.000000 
#    z 0.022500 0.000000 1.730230 
# 
# From -- ./inp_files/59449.got.cif
#   From: 2010.05.17/outbox.cif.g08.bks.cpg/sg14_30_cif.got.tgz:59449.got - 2010.06.03 17:49:19.
