data_PCOD9244012
_publ_section_title
;
Structure prediction by ZEFSAII (Michael W. Deem and Ramdas Pophale) SiO2 
 PCOD9244012
Probable space group: P 21/C
;
_chemical_formula_sum "Si O2"
_cell_formula_units_Z 32
_cell_length_a 5.268318
_cell_length_b 12.159838
_cell_length_c 23.505400
_cell_angle_alpha 90.000000
_cell_angle_beta 121.976790
_cell_angle_gamma 90.000000
_cell_volume 1277.314326
_symmetry_space_group_name_H-M "P 21/C"
_symmetry_group_IT_number 14
_symmetry_cell_setting 'monoclinic'
loop_
_space_group_symop_operation_xyz
x,y,z
-x,1/2+y,1/2-z
-x,-y,-z
x,1/2-y,1/2+z
loop_
_atom_site_type_symbol
_atom_site_label
_atom_site_fract_x
_atom_site_fract_y
_atom_site_fract_z
Si Si1 0.769235 0.709714 0.739399
Si Si2 0.282917 0.689672 0.030608
Si Si3 0.685633 0.491067 0.765690
Si Si4 0.788273 0.657479 0.535576
Si Si5 0.893426 0.778217 0.390004
Si Si6 0.611733 0.930879 0.660611
Si Si7 0.773317 0.063414 0.093663
Si Si8 0.670575 0.192217 0.188242
O O1 0.623638 0.592515 0.716606
O O2 0.856291 0.705104 0.817887
O O3 0.606450 0.809335 0.689624
O O4 0.100693 0.727116 0.753927
O O5 0.569428 0.759961 0.043652
O O6 0.410292 0.588628 0.081881
O O7 0.053639 0.770298 0.038753
O O8 0.103418 0.648669 0.953382
O O9 0.547760 0.506220 0.811477
O O10 0.531146 0.384665 0.719485
O O11 0.044095 0.465849 0.809875
O O12 0.571490 0.590169 0.465334
O O13 0.873804 0.557871 0.588489
O O14 0.558918 0.765996 0.373424
O O15 0.036389 0.656880 0.415448
O O16 0.811726 0.101134 0.163459
#
# Coordination Sequence:
#
# PCOD9244012 Si02
#       8
#     4   4   4   4   4   4   4   4
#     4  10  24  43  66  93 125 172 215 259 321 373
#     4  11  23  40  62  90 133 168 205 265 323 370
#     4  11  25  43  68  91 128 169 215 268 312 372
#     4  10  21  34  56  91 128 170 197 251 322 385
#     4  10  20  39  64  89 126 171 208 261 316 381
#     4  11  25  45  63  99 128 163 216 267 314 379
#     4   9  20  32  54  91 128 159 214 249 308 390
#     4  10  20  40  63  92 124 164 217 262 308 384
#
# _framework density 25.052562999999999
#
# number of rings (size 3 to 8) (size 9 to 14) (size 15 to 20)
#    0.000    1.750    2.500    0.750    5.250    1.500 
#    0.000    1.250    0.000    0.000    0.000    0.000 
#    0.000    0.000    0.000    0.000    0.000    0.000 
#
# Total GULP energy -178497.450402 kJ/mol
# GULP energy per Si atom -5578.045325 kJ/mol
# Density = 2.499554 g / cm^3
# Si number density = 25.052563 Si / 1000 Ang^3
#
#
#
# Elastic Constant Matrix: (Units=GPa)
#
#
# Indices 1 2 3 4 5 6 
#
# 1 96.1998 9.6331 7.5273 0.0000 -1.4339 0.0000
# 2 9.6331 48.9921 -4.7132 0.0000 3.1858 0.0000
# 3 7.5273 -4.7132 52.0018 0.0000 8.8115 0.0000
# 4 0.0000 0.0000 0.0000 29.3782 0.0000 -4.5501
# 5 -1.4339 3.1858 8.8115 0.0000 28.7960 0.0000
# 6 0.0000 0.0000 0.0000 -4.5501 0.0000 21.1627
#
#
#
# Elastic Compliance Matrix: (Units=1/GPa)
#
#
# Indices 1 2 3 4 5 6 
#
# 1 0.010817 -0.002414 -0.002026 0.000000 0.001426 0.000000
# 2 -0.002414 0.021379 0.002856 0.000000 -0.003360 0.000000
# 3 -0.002026 0.002856 0.020939 0.000000 -0.006824 0.000000
# 4 0.000000 0.000000 0.000000 0.035211 0.000000 0.007571
# 5 0.001426 -0.003360 -0.006824 0.000000 0.037258 0.000000
# 6 0.000000 0.000000 0.000000 0.007571 0.000000 0.048881
#
#
# Mechanical properties :
#
#
# Convention : Reuss Voigt Hill
#
# Bulk Modulus (GPa) = 20.01341 24.67644 22.34493
# Shear Modulus (GPa) = 25.73230 28.18381 26.95806
#
# Velocity S-wave (km/s) = 3.20837 3.35772 3.28389
# Velocity P-wave (km/s) = 4.66162 4.99035 4.82879
#
# Compressibility (1/GPa) = 0.04996649
#
# Stress axis : x y z
#
# Youngs Moduli (GPa) = 92.45052 46.77388 47.75868
#
# Poissons Ratio (x) = 0.11293 0.09676
# Poissons Ratio (y) = 0.22322 -0.13642
# Poissons Ratio (z) = 0.18732 -0.13361
#
# Static dielectric constant tensor:
#      x y z
#    x 2.050320 0.000000 -0.027040 
#    y 0.000000 1.982470 0.000000 
#    z -0.027040 0.000000 2.081980 
# 
# From -- ./inp_files/75810.got.cif
#   From: 2010.05.17/outbox.cif.g08.bks.cpg/sg14_38_cif.got.tgz:75810.got - 2010.06.03 17:49:19.
