data_PCOD9244599
_publ_section_title
;
Structure prediction by ZEFSAII (Michael W. Deem and Ramdas Pophale) SiO2 
 PCOD9244599
Probable space group: P 21/C
;
_chemical_formula_sum "Si O2"
_cell_formula_units_Z 24
_cell_length_a 5.074715
_cell_length_b 13.370135
_cell_length_c 16.811066
_cell_angle_alpha 90.000000
_cell_angle_beta 57.523344
_cell_angle_gamma 90.000000
_cell_volume 962.242578
_symmetry_space_group_name_H-M "P 21/C"
_symmetry_group_IT_number 14
_symmetry_cell_setting 'monoclinic'
loop_
_space_group_symop_operation_xyz
x,y,z
-x,1/2+y,1/2-z
-x,-y,-z
x,1/2-y,1/2+z
loop_
_atom_site_type_symbol
_atom_site_label
_atom_site_fract_x
_atom_site_fract_y
_atom_site_fract_z
Si Si1 0.418483 0.662838 0.021182
Si Si2 0.055231 0.724110 0.365840
Si Si3 0.826524 0.077488 0.728332
Si Si4 0.537535 0.010597 0.618692
Si Si5 0.202947 0.643034 0.517583
Si Si6 0.179033 0.471980 0.617447
O O1 0.499587 0.595508 0.082880
O O2 0.303549 0.586292 0.971228
O O3 0.188247 0.755896 0.071269
O O4 0.735340 0.715502 0.937617
O O5 0.244465 0.809297 0.288053
O O6 0.165046 0.681801 0.433810
O O7 0.028209 0.621804 0.320107
O O8 0.721025 0.011494 0.670745
O O9 0.193886 0.058250 0.685217
O O10 0.687484 0.037253 0.832438
O O11 0.012166 0.550618 0.585356
O O12 0.544076 0.591715 0.467691
#
# Coordination Sequence:
#
# PCOD9244599 Si02
#       6
#     4   4   4   4   4   4
#     4   9  20  37  63  95 122 170 213 257 318 387
#     4  10  21  40  65  90 126 172 211 268 320 380
#     4  11  24  42  63  96 132 167 211 273 327 373
#     4  10  22  39  65  94 133 164 209 266 324 377
#     4  10  20  42  64  88 126 171 222 255 319 388
#     4  10  24  40  62  93 124 173 216 266 317 392
#
# _framework density 24.941738000000001
#
# number of rings (size 3 to 8) (size 9 to 14) (size 15 to 20)
#    0.000    2.000    1.667    0.500    4.667    3.333 
#    0.000    0.000    0.000    0.000    0.000    0.000 
#    0.000    0.000    0.000    0.000    0.000    0.000 
#
# Total GULP energy -133981.628203 kJ/mol
# GULP energy per Si atom -5582.567842 kJ/mol
# Density = 2.488497 g / cm^3
# Si number density = 24.941738 Si / 1000 Ang^3
#
#
#
# Elastic Constant Matrix: (Units=GPa)
#
#
# Indices 1 2 3 4 5 6 
#
# 1 51.5193 14.9089 17.4883 0.0000 14.1499 0.0000
# 2 14.9089 209.3701 63.3466 0.0000 26.7226 0.0000
# 3 17.4883 63.3466 86.7425 0.0000 32.0950 0.0000
# 4 0.0000 0.0000 0.0000 30.1287 0.0000 16.9504
# 5 14.1499 26.7226 32.0950 0.0000 38.8390 0.0000
# 6 0.0000 0.0000 0.0000 16.9504 0.0000 20.9843
#
#
#
# Elastic Compliance Matrix: (Units=1/GPa)
#
#
# Indices 1 2 3 4 5 6 
#
# 1 0.021835 -0.000161 -0.001991 0.000000 -0.006199 0.000000
# 2 -0.000161 0.006147 -0.004197 0.000000 -0.000703 0.000000
# 3 -0.001991 -0.004197 0.019673 0.000000 -0.012644 0.000000
# 4 0.000000 0.000000 0.000000 0.060840 0.000000 -0.049144
# 5 -0.006199 -0.000703 -0.012644 0.000000 0.038938 0.000000
# 6 0.000000 0.000000 0.000000 -0.049144 0.000000 0.087352
#
#
# Mechanical properties :
#
#
# Convention : Reuss Voigt Hill
#
# Bulk Modulus (GPa) = 28.60599 59.90219 44.25409
# Shear Modulus (GPa) = 19.29499 34.78293 27.03896
#
# Velocity S-wave (km/s) = 2.78439 3.73844 3.29612
# Velocity P-wave (km/s) = 4.67238 6.53480 5.68044
#
# Compressibility (1/GPa) = 0.03495771
#
# Stress axis : x y z
#
# Youngs Moduli (GPa) = 45.79756 162.67750 50.83159
#
# Poissons Ratio (x) = 0.02625 0.10120
# Poissons Ratio (y) = 0.00739 0.21332
# Poissons Ratio (z) = 0.09117 0.68269
#
# Static dielectric constant tensor:
#      x y z
#    x 2.044530 0.000000 -0.104950 
#    y 0.000000 2.033800 0.000000 
#    z -0.104950 0.000000 2.151540 
# 
# From -- ./inp_files/52937.got.cif
#   From: 2010.05.17/outbox.cif.g08.bks.cpg/sg14_27_cif.got.tgz:52937.got - 2010.06.03 17:49:19.
