data_PCOD9244778
_publ_section_title
;
Structure prediction by ZEFSAII (Michael W. Deem and Ramdas Pophale) SiO2 
 PCOD9244778
Probable space group: P 21/C
;
_chemical_formula_sum "Si O2"
_cell_formula_units_Z 20
_cell_length_a 10.816019
_cell_length_b 12.235334
_cell_length_c 13.446136
_cell_angle_alpha 90.000000
_cell_angle_beta 149.560875
_cell_angle_gamma 90.000000
_cell_volume 901.499206
_symmetry_space_group_name_H-M "P 21/C"
_symmetry_group_IT_number 14
_symmetry_cell_setting 'monoclinic'
loop_
_space_group_symop_operation_xyz
x,y,z
-x,1/2+y,1/2-z
-x,-y,-z
x,1/2-y,1/2+z
loop_
_atom_site_type_symbol
_atom_site_label
_atom_site_fract_x
_atom_site_fract_y
_atom_site_fract_z
Si Si1 0.083472 0.619477 0.596590
Si Si2 0.417540 0.041818 0.550740
Si Si3 0.593905 0.479321 0.747407
Si Si4 0.053860 0.342655 0.071793
Si Si5 0.927333 0.947573 0.199312
O O1 0.376526 0.632421 0.785383
O O2 0.948741 0.714604 0.444988
O O3 0.000000 0.500000 0.500000
O O4 0.018105 0.622611 0.667785
O O5 0.458402 0.959616 0.672159
O O6 0.500000 0.000000 0.500000
O O7 0.123644 0.047176 0.342790
O O8 0.347109 0.481158 0.515204
O O9 0.727549 0.596256 0.832777
O O10 0.799029 0.393911 0.854543
O O11 0.068790 0.380663 0.196192
#
# Coordination Sequence:
#
# PCOD9244778 Si02
#       5
#     4   4   4   4   4
#     4  11  22  45  66  98 137 172 221 282 331 402
#     4   9  20  39  69  95 132 174 221 274 336 394
#     4  10  20  44  66  96 137 172 228 277 328 400
#     4  10  24  42  65  99 132 176 223 278 337 399
#     4  10  21  44  69  97 132 182 224 275 340 398
#
# _framework density 22.185265999999999
#
# number of rings (size 3 to 8) (size 9 to 14) (size 15 to 20)
#    0.000    2.000    2.000    0.600    0.000    1.600 
#   25.200    0.000    0.000    0.000    0.000    0.000 
#    0.000    0.000    0.000    0.000    0.000    0.000 
#
# Total GULP energy -111557.655451 kJ/mol
# GULP energy per Si atom -5577.882773 kJ/mol
# Density = 2.213477 g / cm^3
# Si number density = 22.185266 Si / 1000 Ang^3
#
#
#
# Elastic Constant Matrix: (Units=GPa)
#
#
# Indices 1 2 3 4 5 6 
#
# 1 115.1029 31.2787 49.9652 0.0000 -1.3669 0.0000
# 2 31.2787 110.8824 51.0191 0.0000 6.4020 0.0000
# 3 49.9652 51.0191 182.9831 0.0000 28.3179 0.0000
# 4 0.0000 0.0000 0.0000 18.3336 0.0000 -2.6225
# 5 -1.3669 6.4020 28.3179 0.0000 41.6569 0.0000
# 6 0.0000 0.0000 0.0000 -2.6225 0.0000 7.4918
#
#
#
# Elastic Compliance Matrix: (Units=1/GPa)
#
#
# Indices 1 2 3 4 5 6 
#
# 1 0.010389 -0.001827 -0.002709 0.000000 0.002463 0.000000
# 2 -0.001827 0.010673 -0.002474 0.000000 -0.000018 0.000000
# 3 -0.002709 -0.002474 0.007655 0.000000 -0.004912 0.000000
# 4 0.000000 0.000000 0.000000 0.057420 0.000000 0.020100
# 5 0.002463 -0.000018 -0.004912 0.000000 0.027429 0.000000
# 6 0.000000 0.000000 0.000000 0.020100 0.000000 0.140515
#
#
# Mechanical properties :
#
#
# Convention : Reuss Voigt Hill
#
# Bulk Modulus (GPa) = 68.03632 74.83272 71.43452
# Shear Modulus (GPa) = 18.31502 31.94348 25.12925
#
# Velocity S-wave (km/s) = 2.87635 3.79865 3.36921
# Velocity P-wave (km/s) = 6.46260 7.28311 6.88509
#
# Compressibility (1/GPa) = 0.01469803
#
# Stress axis : x y z
#
# Youngs Moduli (GPa) = 96.25231 93.69118 130.63795
#
# Poissons Ratio (x) = 0.17113 0.35387
# Poissons Ratio (y) = 0.17581 0.32324
# Poissons Ratio (z) = 0.26073 0.23183
#
# Static dielectric constant tensor:
#      x y z
#    x 1.877410 0.000000 0.024600 
#    y 0.000000 1.811190 0.000000 
#    z 0.024600 0.000000 1.886610 
# 
# From -- ./inp_files/44695.got.cif
#   From: 2010.05.17/outbox.cif.g08.bks.cpg/sg14_23_cif.got.tgz:44695.got - 2010.06.03 17:49:19.
