data_PCOD9244430
_publ_section_title
;
Structure prediction by ZEFSAII (Michael W. Deem and Ramdas Pophale) SiO2 
 PCOD9244430
Probable space group: P 21/C
;
_chemical_formula_sum "Si O2"
_cell_formula_units_Z 32
_cell_length_a 5.061999
_cell_length_b 23.165093
_cell_length_c 12.193471
_cell_angle_alpha 90.000000
_cell_angle_beta 69.273305
_cell_angle_gamma 90.000000
_cell_volume 1337.287384
_symmetry_space_group_name_H-M "P 21/C"
_symmetry_group_IT_number 14
_symmetry_cell_setting 'monoclinic'
loop_
_space_group_symop_operation_xyz
x,y,z
-x,1/2+y,1/2-z
-x,-y,-z
x,1/2-y,1/2+z
loop_
_atom_site_type_symbol
_atom_site_label
_atom_site_fract_x
_atom_site_fract_y
_atom_site_fract_z
Si Si1 0.805385 0.429622 0.493412
Si Si2 0.859048 0.065304 0.215186
Si Si3 0.406613 0.101245 0.660255
Si Si4 0.049815 0.214509 0.337373
Si Si5 0.670921 0.661818 0.398888
Si Si6 0.511517 0.644035 0.095784
Si Si7 0.233801 0.167406 0.876393
Si Si8 0.818565 0.037840 0.749607
O O1 0.825880 0.466903 0.602034
O O2 0.596091 0.379631 0.567850
O O3 0.701699 0.454335 0.392157
O O4 0.086422 0.393940 0.423196
O O5 0.580600 0.091236 0.311270
O O6 0.065878 0.118379 0.156875
O O7 0.029122 0.023909 0.271731
O O8 0.491025 0.121131 0.527586
O O9 0.437188 0.152239 0.746048
O O10 0.592031 0.050329 0.688478
O O11 0.078889 0.082506 0.698561
O O12 0.269540 0.208071 0.203445
O O13 0.200111 0.174379 0.407622
O O14 0.031302 0.281254 0.370352
O O15 0.743084 0.189856 0.356255
O O16 0.653265 0.687070 0.522924
#
# Coordination Sequence:
#
# PCOD9244430 Si02
#       8
#     4   4   4   4   4   4   4   4
#     4  10  20  41  61  94 128 160 209 269 315 371
#     4  10  23  40  65  93 128 164 214 264 312 380
#     4  11  25  43  61  94 132 164 211 262 311 378
#     4  11  25  41  67  92 120 171 211 253 323 368
#     4  10  21  42  64  92 129 159 209 267 308 370
#     4  11  25  45  62  93 130 167 214 264 307 379
#     4  10  24  40  62  93 127 162 210 261 312 380
#     4  11  24  40  67  95 123 173 209 256 329 371
#
# _framework density 23.929039
#
# number of rings (size 3 to 8) (size 9 to 14) (size 15 to 20)
#    0.000    1.500    2.500    1.125    5.250    1.500 
#    0.000    0.000    0.000    0.000    0.000    0.000 
#    0.000    0.000    0.000    0.000    0.000    0.000 
#
# Total GULP energy -178782.417932 kJ/mol
# GULP energy per Si atom -5586.950560 kJ/mol
# Density = 2.387458 g / cm^3
# Si number density = 23.929039 Si / 1000 Ang^3
#
#
#
# Elastic Constant Matrix: (Units=GPa)
#
#
# Indices 1 2 3 4 5 6 
#
# 1 68.0672 -4.0513 -10.0822 0.0000 2.9615 0.0000
# 2 -4.0513 61.1184 7.3388 0.0000 3.0523 0.0000
# 3 -10.0822 7.3388 110.5940 0.0000 8.1551 0.0000
# 4 0.0000 0.0000 0.0000 9.9628 0.0000 3.0721
# 5 2.9615 3.0523 8.1551 0.0000 27.5588 0.0000
# 6 0.0000 0.0000 0.0000 3.0721 0.0000 32.2363
#
#
#
# Elastic Compliance Matrix: (Units=1/GPa)
#
#
# Indices 1 2 3 4 5 6 
#
# 1 0.015058 0.000929 0.001470 0.000000 -0.002156 0.000000
# 2 0.000929 0.016614 -0.000894 0.000000 -0.001675 0.000000
# 3 0.001470 -0.000894 0.009446 0.000000 -0.002854 0.000000
# 4 0.000000 0.000000 0.000000 0.103413 0.000000 -0.009855
# 5 -0.002156 -0.001675 -0.002854 0.000000 0.037548 0.000000
# 6 0.000000 0.000000 0.000000 -0.009855 0.000000 0.031960
#
#
# Mechanical properties :
#
#
# Convention : Reuss Voigt Hill
#
# Bulk Modulus (GPa) = 22.66091 25.13222 23.89656
# Shear Modulus (GPa) = 22.14951 30.38985 26.26968
#
# Velocity S-wave (km/s) = 3.04572 3.56757 3.31693
# Velocity P-wave (km/s) = 4.67538 5.24363 4.96764
#
# Compressibility (1/GPa) = 0.04412886
#
# Stress axis : x y z
#
# Youngs Moduli (GPa) = 66.40885 60.18896 105.86593
#
# Poissons Ratio (x) = -0.05593 -0.15563
# Poissons Ratio (y) = -0.06172 0.09467
# Poissons Ratio (z) = -0.09763 0.05382
#
# Static dielectric constant tensor:
#      x y z
#    x 1.941280 0.000000 0.050700 
#    y 0.000000 1.962140 0.000000 
#    z 0.050700 0.000000 1.966560 
# 
# From -- ./inp_files/22082.got.cif
#   From: 2010.05.17/outbox.cif.g08.bks.cpg/sg14_12_cif.got.tgz:22082.got - 2010.06.03 17:49:19.
