data_PCOD9244225
_publ_section_title
;
Structure prediction by ZEFSAII (Michael W. Deem and Ramdas Pophale) SiO2 
 PCOD9244225
Probable space group: P 21/C
;
_chemical_formula_sum "Si O2"
_cell_formula_units_Z 20
_cell_length_a 14.183610
_cell_length_b 11.305972
_cell_length_c 8.408007
_cell_angle_alpha 90.000000
_cell_angle_beta 33.830353
_cell_angle_gamma 90.000000
_cell_volume 750.648928
_symmetry_space_group_name_H-M "P 21/C"
_symmetry_group_IT_number 14
_symmetry_cell_setting 'monoclinic'
loop_
_space_group_symop_operation_xyz
x,y,z
-x,1/2+y,1/2-z
-x,-y,-z
x,1/2-y,1/2+z
loop_
_atom_site_type_symbol
_atom_site_label
_atom_site_fract_x
_atom_site_fract_y
_atom_site_fract_z
Si Si1 0.104984 0.361697 0.057621
Si Si2 0.313804 0.595515 0.817238
Si Si3 0.722825 0.876149 0.191470
Si Si4 0.572039 0.052940 0.160693
Si Si5 0.956521 0.187422 0.074649
O O1 0.029028 0.319852 0.997210
O O2 0.955246 0.345159 0.394451
O O3 0.192902 0.485079 0.944185
O O4 0.243115 0.259249 0.910317
O O5 0.363760 0.638562 0.571080
O O6 0.469086 0.545133 0.702014
O O7 0.205669 0.671856 0.090296
O O8 0.558457 0.885812 0.534856
O O9 0.699743 0.974602 0.088166
O O10 0.891126 0.892471 0.063200
#
# Coordination Sequence:
#
# PCOD9244225 Si02
#       5
#     4   4   4   4   4
#     4  10  20  40  64  86 121 166 199 251 300 359
#     4  11  21  39  66  91 123 162 198 253 303 361
#     4   9  21  40  63  86 118 164 200 245 301 368
#     4  10  21  38  61  90 121 155 202 250 312 351
#     4  10  22  39  65  84 119 166 210 238 300 361
#
# _framework density 26.643615
#
# number of rings (size 3 to 8) (size 9 to 14) (size 15 to 20)
#    1.200    0.800    2.000    1.800    0.000    0.800 
#    0.000    8.000    0.000    0.000    0.000    0.000 
#    0.000    0.000    0.000    0.000    0.000    0.000 
#
# Total GULP energy -111880.295050 kJ/mol
# GULP energy per Si atom -5594.014753 kJ/mol
# Density = 2.658297 g / cm^3
# Si number density = 26.643615 Si / 1000 Ang^3
#
#
#
# Elastic Constant Matrix: (Units=GPa)
#
#
# Indices 1 2 3 4 5 6 
#
# 1 59.7924 31.2024 27.4870 0.0000 3.3663 0.0000
# 2 31.2024 71.6466 22.3235 0.0000 1.7427 0.0000
# 3 27.4870 22.3235 162.8310 0.0000 26.8714 0.0000
# 4 0.0000 0.0000 0.0000 36.0415 0.0000 2.4237
# 5 3.3663 1.7427 26.8714 0.0000 32.4904 0.0000
# 6 0.0000 0.0000 0.0000 2.4237 0.0000 41.8958
#
#
#
# Elastic Compliance Matrix: (Units=1/GPa)
#
#
# Indices 1 2 3 4 5 6 
#
# 1 0.022638 -0.009046 -0.002634 0.000000 0.000318 0.000000
# 2 -0.009046 0.018224 -0.001117 0.000000 0.000884 0.000000
# 3 -0.002634 -0.001117 0.007741 0.000000 -0.006069 0.000000
# 4 0.000000 0.000000 0.000000 0.027854 0.000000 -0.001611
# 5 0.000318 0.000884 -0.006069 0.000000 0.035718 0.000000
# 6 0.000000 0.000000 0.000000 -0.001611 0.000000 0.023962
#
#
# Mechanical properties :
#
#
# Convention : Reuss Voigt Hill
#
# Bulk Modulus (GPa) = 43.46261 50.69953 47.08107
# Shear Modulus (GPa) = 29.51604 36.30267 32.90936
#
# Velocity S-wave (km/s) = 3.33199 3.69525 3.51831
# Velocity P-wave (km/s) = 5.58129 6.10545 5.84925
#
# Compressibility (1/GPa) = 0.02300828
#
# Stress axis : x y z
#
# Youngs Moduli (GPa) = 44.17346 54.87386 129.18784
#
# Poissons Ratio (x) = 0.49639 0.34025
# Poissons Ratio (y) = 0.39960 0.14433
# Poissons Ratio (z) = 0.11634 0.06131
#
# Static dielectric constant tensor:
#      x y z
#    x 2.034860 0.000000 -0.037890 
#    y 0.000000 2.100430 0.000000 
#    z -0.037890 0.000000 2.133520 
# 
# From -- ./inp_files/17880.got.cif
#   From: 2010.05.17/outbox.cif.g08.bks.cpg/sg14_9_cif.got.tgz:17880.got - 2010.06.03 17:49:19.
