data_PCOD9244279
_publ_section_title
;
Structure prediction by ZEFSAII (Michael W. Deem and Ramdas Pophale) SiO2 
 PCOD9244279
Probable space group: P 21/C
;
_chemical_formula_sum "Si O2"
_cell_formula_units_Z 28
_cell_length_a 18.056035
_cell_length_b 8.727784
_cell_length_c 13.800492
_cell_angle_alpha 90.000000
_cell_angle_beta 142.581141
_cell_angle_gamma 90.000000
_cell_volume 1321.494516
_symmetry_space_group_name_H-M "P 21/C"
_symmetry_group_IT_number 14
_symmetry_cell_setting 'monoclinic'
loop_
_space_group_symop_operation_xyz
x,y,z
-x,1/2+y,1/2-z
-x,-y,-z
x,1/2-y,1/2+z
loop_
_atom_site_type_symbol
_atom_site_label
_atom_site_fract_x
_atom_site_fract_y
_atom_site_fract_z
Si Si1 0.995165 0.253682 0.967926
Si Si2 0.667119 0.026481 0.400227
Si Si3 0.587533 0.635890 0.556160
Si Si4 0.452159 0.826069 0.244849
Si Si5 0.811970 0.503798 0.856067
Si Si6 0.156832 0.476526 0.747063
Si Si7 0.627436 0.950485 0.681862
O O1 0.893281 0.363678 0.906167
O O2 0.927541 0.126231 0.834604
O O3 0.095313 0.359821 0.020692
O O4 0.068725 0.162176 0.127154
O O5 0.548615 0.919485 0.282265
O O6 0.727721 0.039801 0.358685
O O7 0.764590 0.958161 0.575564
O O8 0.626263 0.197268 0.390558
O O9 0.500000 0.500000 0.500000
O O10 0.527441 0.726632 0.404016
O O11 0.719716 0.561111 0.676389
O O12 0.616287 0.766482 0.667232
O O13 0.372751 0.953919 0.219187
O O14 0.256450 0.492154 0.763695
O O15 0.500000 0.000000 0.500000
#
# Coordination Sequence:
#
# PCOD9244279 Si02
#       7
#     4   4   4   4   4   4   4
#     4  10  24  43  66  85 117 186 224 253 302 396
#     4  12  25  39  61  99 135 158 206 279 332 378
#     4  11  21  40  68  95 125 174 214 260 319 408
#     4  11  25  37  62 101 133 171 202 264 346 397
#     4  11  23  41  64  92 128 162 223 264 315 378
#     4  11  22  42  67  89 125 167 223 260 318 378
#     4  10  20  40  65  91 126 169 211 254 320 406
#
# _framework density 21.188130000000001
#
# number of rings (size 3 to 8) (size 9 to 14) (size 15 to 20)
#    0.000    1.143    5.714    0.857    4.000    2.286 
#    0.000    0.000    0.000    0.000    0.000    0.000 
#    0.000    0.000    0.000    0.000    0.000    0.000 
#
# Total GULP energy -156414.903472 kJ/mol
# GULP energy per Si atom -5586.246553 kJ/mol
# Density = 2.113990 g / cm^3
# Si number density = 21.188130 Si / 1000 Ang^3
#
#
#
# Elastic Constant Matrix: (Units=GPa)
#
#
# Indices 1 2 3 4 5 6 
#
# 1 55.1587 15.6050 10.5614 0.0000 18.3682 0.0000
# 2 15.6050 104.9752 11.2209 0.0000 23.3662 0.0000
# 3 10.5614 11.2209 48.9798 0.0000 19.8895 0.0000
# 4 0.0000 0.0000 0.0000 34.1806 0.0000 13.6403
# 5 18.3682 23.3662 19.8895 0.0000 29.9470 0.0000
# 6 0.0000 0.0000 0.0000 13.6403 0.0000 34.4142
#
#
#
# Elastic Compliance Matrix: (Units=1/GPa)
#
#
# Indices 1 2 3 4 5 6 
#
# 1 0.022829 -0.000285 0.001011 0.000000 -0.014451 0.000000
# 2 -0.000285 0.011601 0.001381 0.000000 -0.009794 0.000000
# 3 0.001011 0.001381 0.028169 0.000000 -0.020406 0.000000
# 4 0.000000 0.000000 0.000000 0.034753 0.000000 -0.013775
# 5 -0.014451 -0.009794 -0.020406 0.000000 0.063450 0.000000
# 6 0.000000 0.000000 0.000000 -0.013775 0.000000 0.034517
#
#
# Mechanical properties :
#
#
# Convention : Reuss Voigt Hill
#
# Bulk Modulus (GPa) = 14.96735 31.54316 23.25525
# Shear Modulus (GPa) = 23.43276 31.15677 27.29476
#
# Velocity S-wave (km/s) = 3.32917 3.83885 3.59306
# Velocity P-wave (km/s) = 4.67517 5.87950 5.31158
#
# Compressibility (1/GPa) = 0.06681209
#
# Stress axis : x y z
#
# Youngs Moduli (GPa) = 43.80405 86.20080 35.50059
#
# Poissons Ratio (x) = 0.02457 -0.03589
# Poissons Ratio (y) = 0.01248 -0.04902
# Poissons Ratio (z) = -0.04429 -0.11903
#
# Static dielectric constant tensor:
#      x y z
#    x 1.747410 0.000000 -0.014860 
#    y 0.000000 1.809280 0.000000 
#    z -0.014860 0.000000 1.783640 
# 
# From -- ./inp_files/48583.got.cif
#   From: 2010.05.17/outbox.cif.g08.bks.cpg/sg14_25_cif.got.tgz:48583.got - 2010.06.03 17:49:19.
