data_PCOD9244114
_publ_section_title
;
Structure prediction by ZEFSAII (Michael W. Deem and Ramdas Pophale) SiO2 
 PCOD9244114
Probable space group: P 21/C
;
_chemical_formula_sum "Si O2"
_cell_formula_units_Z 20
_cell_length_a 8.861608
_cell_length_b 12.350098
_cell_length_c 7.459551
_cell_angle_alpha 90.000000
_cell_angle_beta 78.956029
_cell_angle_gamma 90.000000
_cell_volume 801.267050
_symmetry_space_group_name_H-M "P 21/C"
_symmetry_group_IT_number 14
_symmetry_cell_setting 'monoclinic'
loop_
_space_group_symop_operation_xyz
x,y,z
-x,1/2+y,1/2-z
-x,-y,-z
x,1/2-y,1/2+z
loop_
_atom_site_type_symbol
_atom_site_label
_atom_site_fract_x
_atom_site_fract_y
_atom_site_fract_z
Si Si1 0.206327 0.617669 0.176430
Si Si2 0.551064 0.888865 0.590486
Si Si3 0.781903 0.876625 0.271266
Si Si4 0.105596 0.669184 0.570952
Si Si5 0.324254 0.470736 0.583309
O O1 0.382198 0.647702 0.193996
O O2 0.193881 0.492110 0.132816
O O3 0.092340 0.628714 0.370643
O O4 0.168527 0.709347 0.044250
O O5 0.645013 0.823476 0.417534
O O6 0.661875 0.907754 0.733307
O O7 0.500000 0.000000 0.500000
O O8 0.946563 0.824213 0.212767
O O9 0.731223 0.907743 0.081364
O O10 0.221483 0.579541 0.626770
O O11 0.500000 0.500000 0.500000
#
# Coordination Sequence:
#
# PCOD9244114 Si02
#       5
#     4   4   4   4   4
#     4  10  22  41  66  94 129 173 220 263 326 393
#     4  10  20  39  69  96 121 168 225 264 321 394
#     4  10  23  44  68  96 135 172 221 272 332 390
#     4  11  24  42  66  97 136 172 217 278 329 392
#     4  11  19  39  71  93 128 177 212 268 333 388
#
# _framework density 24.960469
#
# number of rings (size 3 to 8) (size 9 to 14) (size 15 to 20)
#    0.000    1.600    6.000    2.400    5.600    0.800 
#    3.600    6.000    0.000    0.000    0.000    0.000 
#    0.000    0.000    0.000    0.000    0.000    0.000 
#
# Total GULP energy -111703.969315 kJ/mol
# GULP energy per Si atom -5585.198466 kJ/mol
# Density = 2.490366 g / cm^3
# Si number density = 24.960469 Si / 1000 Ang^3
#
#
#
# Elastic Constant Matrix: (Units=GPa)
#
#
# Indices 1 2 3 4 5 6 
#
# 1 101.4108 10.8494 31.4151 0.0000 -18.3935 0.0000
# 2 10.8494 60.8248 13.4142 0.0000 13.5801 0.0000
# 3 31.4151 13.4142 114.1634 0.0000 -16.2924 0.0000
# 4 0.0000 0.0000 0.0000 4.2648 0.0000 11.1821
# 5 -18.3935 13.5801 -16.2924 0.0000 48.0767 0.0000
# 6 0.0000 0.0000 0.0000 11.1821 0.0000 21.8892
#
#
#
# Elastic Compliance Matrix: (Units=1/GPa)
#
#
# Indices 1 2 3 4 5 6 
#
# 1 0.011638 -0.002558 -0.002273 0.000000 0.004405 0.000000
# 2 -0.002558 0.019080 -0.002571 0.000000 -0.007240 0.000000
# 3 -0.002273 -0.002571 0.010158 0.000000 0.003299 0.000000
# 4 0.000000 0.000000 0.000000 -0.690826 0.000000 0.352909
# 5 0.004405 -0.007240 0.003299 0.000000 0.025648 0.000000
# 6 0.000000 0.000000 0.000000 0.352909 0.000000 -0.134599
#
#
# Mechanical properties :
#
#
# Convention : Reuss Voigt Hill
#
# Bulk Modulus (GPa) = 38.35676 43.08405 40.72041
# Shear Modulus (GPa) = -6.79896 29.56083 11.38093
#
# Velocity S-wave (km/s) = -1.65221 3.44511 2.13763
# Velocity P-wave (km/s) = 3.42938 5.75529 4.73730
#
# Compressibility (1/GPa) = 0.02607102
#
# Stress axis : x y z
#
# Youngs Moduli (GPa) = 85.92809 52.41009 98.44618
#
# Poissons Ratio (x) = 0.13406 0.22380
# Poissons Ratio (y) = 0.21979 0.25313
# Poissons Ratio (z) = 0.19534 0.13476
#
# Static dielectric constant tensor:
#      x y z
#    x 2.035870 0.000000 0.000530 
#    y 0.000000 2.082390 0.000000 
#    z 0.000530 0.000000 2.045750 
# 
# From -- ./inp_files/8246.got.cif
#   From: 2010.05.17/outbox.cif.g08.bks.cpg/sg14_5_cif.got.tgz:8246.got - 2010.06.03 17:49:19.
