data_PCOD9244287
_publ_section_title
;
Structure prediction by ZEFSAII (Michael W. Deem and Ramdas Pophale) SiO2 
 PCOD9244287
Probable space group: P 21/C
;
_chemical_formula_sum "Si O2"
_cell_formula_units_Z 28
_cell_length_a 8.860321
_cell_length_b 20.056242
_cell_length_c 13.903698
_cell_angle_alpha 90.000000
_cell_angle_beta 26.209464
_cell_angle_gamma 90.000000
_cell_volume 1091.218109
_symmetry_space_group_name_H-M "P 21/C"
_symmetry_group_IT_number 14
_symmetry_cell_setting 'monoclinic'
loop_
_space_group_symop_operation_xyz
x,y,z
-x,1/2+y,1/2-z
-x,-y,-z
x,1/2-y,1/2+z
loop_
_atom_site_type_symbol
_atom_site_label
_atom_site_fract_x
_atom_site_fract_y
_atom_site_fract_z
Si Si1 0.071914 0.201729 0.412944
Si Si2 0.143513 0.432446 0.505505
Si Si3 0.864996 0.212851 0.738700
Si Si4 0.824723 0.342155 0.524000
Si Si5 0.859912 0.658136 0.320030
Si Si6 0.175365 0.093240 0.658921
Si Si7 0.474888 0.975636 0.383352
O O1 0.829396 0.205345 0.644240
O O2 0.053259 0.275965 0.378821
O O3 0.438593 0.182325 0.245302
O O4 0.986044 0.152153 0.374921
O O5 0.213446 0.404696 0.570867
O O6 0.480641 0.454025 0.252670
O O7 0.966257 0.376966 0.538382
O O8 0.843896 0.486801 0.684500
O O9 0.947345 0.286599 0.726694
O O10 0.153316 0.160659 0.610052
O O11 0.510124 0.190898 0.987236
O O12 0.874266 0.394093 0.408252
O O13 0.490857 0.080539 0.552593
O O14 0.197038 0.030472 0.574084
#
# Coordination Sequence:
#
# PCOD9244287 Si02
#       7
#     4   4   4   4   4   4   4
#     4  12  23  40  61 102 134 175 201 272 340 395
#     4  10  22  42  66  95 130 174 236 267 327 398
#     4  12  25  41  67  99 142 173 214 275 342 397
#     4  11  22  38  66  93 139 167 219 265 334 406
#     4  12  25  42  66 104 135 173 218 271 338 401
#     4  10  20  40  65  94 128 173 231 265 324 393
#     4   9  21  41  69  93 125 186 225 278 317 392
#
# _framework density 25.659399000000001
#
# number of rings (size 3 to 8) (size 9 to 14) (size 15 to 20)
#    0.000    1.143    4.286    1.714    2.000    1.143 
#    5.143    1.429    0.000    0.000    0.000    0.000 
#    0.000    0.000    0.000    0.000    0.000    0.000 
#
# Total GULP energy -156520.063606 kJ/mol
# GULP energy per Si atom -5590.002272 kJ/mol
# Density = 2.560100 g / cm^3
# Si number density = 25.659399 Si / 1000 Ang^3
#
#
#
# Elastic Constant Matrix: (Units=GPa)
#
#
# Indices 1 2 3 4 5 6 
#
# 1 85.2070 12.2131 14.4566 0.0000 38.9625 0.0000
# 2 12.2131 47.2593 6.6698 0.0000 4.8875 0.0000
# 3 14.4566 6.6698 70.7153 0.0000 17.1265 0.0000
# 4 0.0000 0.0000 0.0000 37.7095 0.0000 17.0222
# 5 38.9625 4.8875 17.1265 0.0000 47.4015 0.0000
# 6 0.0000 0.0000 0.0000 17.0222 0.0000 37.5174
#
#
#
# Elastic Compliance Matrix: (Units=1/GPa)
#
#
# Indices 1 2 3 4 5 6 
#
# 1 0.019327 -0.003403 0.000145 0.000000 -0.015588 0.000000
# 2 -0.003403 0.022159 -0.001664 0.000000 0.001114 0.000000
# 3 0.000145 -0.001664 0.015623 0.000000 -0.005592 0.000000
# 4 0.000000 0.000000 0.000000 0.033349 0.000000 -0.015131
# 5 -0.015588 0.001114 -0.005592 0.000000 0.035815 0.000000
# 6 0.000000 0.000000 0.000000 -0.015131 0.000000 0.033519
#
#
# Mechanical properties :
#
#
# Convention : Reuss Voigt Hill
#
# Bulk Modulus (GPa) = 21.15732 29.98449 25.57091
# Shear Modulus (GPa) = 26.97009 35.84849 31.40929
#
# Velocity S-wave (km/s) = 3.24555 3.74182 3.50249
# Velocity P-wave (km/s) = 4.72315 5.51174 5.13261
#
# Compressibility (1/GPa) = 0.04726497
#
# Stress axis : x y z
#
# Youngs Moduli (GPa) = 51.74089 45.12848 64.00854
#
# Poissons Ratio (x) = 0.15357 -0.00929
# Poissons Ratio (y) = 0.17608 0.10651
# Poissons Ratio (z) = -0.00751 0.07509
#
# Static dielectric constant tensor:
#      x y z
#    x 2.031980 0.000000 0.067490 
#    y 0.000000 2.120120 0.000000 
#    z 0.067490 0.000000 2.077610 
# 
# From -- ./inp_files/10421.got.cif
#   From: 2010.05.17/outbox.cif.g08.bks.cpg/sg14_6_cif.got.tgz:10421.got - 2010.06.03 17:49:19.
