data_PCOD9244034
_publ_section_title
;
Structure prediction by ZEFSAII (Michael W. Deem and Ramdas Pophale) SiO2 
 PCOD9244034
Probable space group: P 21/C
;
_chemical_formula_sum "Si O2"
_cell_formula_units_Z 16
_cell_length_a 6.985263
_cell_length_b 6.841944
_cell_length_c 22.185092
_cell_angle_alpha 90.000000
_cell_angle_beta 144.060055
_cell_angle_gamma 90.000000
_cell_volume 622.321728
_symmetry_space_group_name_H-M "P 21/C"
_symmetry_group_IT_number 14
_symmetry_cell_setting 'monoclinic'
loop_
_space_group_symop_operation_xyz
x,y,z
-x,1/2+y,1/2-z
-x,-y,-z
x,1/2-y,1/2+z
loop_
_atom_site_type_symbol
_atom_site_label
_atom_site_fract_x
_atom_site_fract_y
_atom_site_fract_z
Si Si1 0.177888 0.360692 0.185392
Si Si2 0.872747 0.946952 0.105668
Si Si3 0.316750 0.768380 0.789083
Si Si4 0.814880 0.882647 0.505446
O O1 0.456089 0.329042 0.205298
O O2 0.310261 0.502543 0.271319
O O3 0.065313 0.143264 0.169671
O O4 0.871126 0.470904 0.075440
O O5 0.955341 0.807877 0.182918
O O6 0.967722 0.819869 0.070277
O O7 0.500000 0.000000 0.000000
O O8 0.473645 0.687584 0.890035
O O9 0.000000 0.000000 0.500000
#
# Coordination Sequence:
#
# PCOD9244034 Si02
#       4
#     4   4   4   4
#     4  10  20  39  67  89 131 164 224 277 326 400
#     4  11  24  42  61  98 135 167 216 290 342 386
#     4  10  20  39  64  93 121 174 219 265 334 404
#     4   9  22  40  65  98 124 170 227 264 332 410
#
# _framework density 25.710175
#
# number of rings (size 3 to 8) (size 9 to 14) (size 15 to 20)
#    0.000    2.000    2.500    0.000    0.000   10.000 
#    9.000    0.000    0.000    0.000    0.000    0.000 
#    0.000    0.000    0.000    0.000    0.000    0.000 
#
# Total GULP energy -89329.212820 kJ/mol
# GULP energy per Si atom -5583.075801 kJ/mol
# Density = 2.565166 g / cm^3
# Si number density = 25.710175 Si / 1000 Ang^3
#
#
#
# Elastic Constant Matrix: (Units=GPa)
#
#
# Indices 1 2 3 4 5 6 
#
# 1 80.9258 43.2611 12.8438 0.0000 -7.0278 0.0000
# 2 43.2611 198.0178 46.7735 0.0000 -9.9002 0.0000
# 3 12.8438 46.7735 138.7784 0.0000 -9.2025 0.0000
# 4 0.0000 0.0000 0.0000 56.8332 0.0000 -18.4265
# 5 -7.0278 -9.9002 -9.2025 0.0000 26.9949 0.0000
# 6 0.0000 0.0000 0.0000 -18.4265 0.0000 27.6882
#
#
#
# Elastic Compliance Matrix: (Units=1/GPa)
#
#
# Indices 1 2 3 4 5 6 
#
# 1 0.014171 -0.002932 -0.000154 0.000000 0.002562 0.000000
# 2 -0.002932 0.006147 -0.001741 0.000000 0.000898 0.000000
# 3 -0.000154 -0.001741 0.007941 0.000000 0.002029 0.000000
# 4 0.000000 0.000000 0.000000 0.022436 0.000000 0.014931
# 5 0.002562 0.000898 0.002029 0.000000 0.038732 0.000000
# 6 0.000000 0.000000 0.000000 0.014931 0.000000 0.046053
#
#
# Mechanical properties :
#
#
# Convention : Reuss Voigt Hill
#
# Bulk Modulus (GPa) = 53.74370 69.27544 61.50957
# Shear Modulus (GPa) = 33.03941 43.29283 38.16612
#
# Velocity S-wave (km/s) = 3.58868 4.10796 3.85707
# Velocity P-wave (km/s) = 6.17418 7.03589 6.61907
#
# Compressibility (1/GPa) = 0.01860683
#
# Stress axis : x y z
#
# Youngs Moduli (GPa) = 70.56663 162.69196 125.92579
#
# Poissons Ratio (x) = 0.47695 0.01934
# Poissons Ratio (y) = 0.20687 0.21921
# Poissons Ratio (z) = 0.01084 0.28321
#
# Static dielectric constant tensor:
#      x y z
#    x 2.105240 0.000000 0.029460 
#    y 0.000000 2.001880 0.000000 
#    z 0.029460 0.000000 2.047460 
# 
# From -- ./inp_files/38426.got.cif
#   From: 2010.05.17/outbox.cif.g08.bks.cpg/sg14_20_cif.got.tgz:38426.got - 2010.06.03 17:49:19.
