data_PCOD9244915
_publ_section_title
;
Structure prediction by ZEFSAII (Michael W. Deem and Ramdas Pophale) SiO2 
 PCOD9244915
Probable space group: P 21/C
;
_chemical_formula_sum "Si O2"
_cell_formula_units_Z 28
_cell_length_a 26.349411
_cell_length_b 11.517434
_cell_length_c 20.383475
_cell_angle_alpha 90.000000
_cell_angle_beta 169.117989
_cell_angle_gamma 90.000000
_cell_volume 1167.823620
_symmetry_space_group_name_H-M "P 21/C"
_symmetry_group_IT_number 14
_symmetry_cell_setting 'monoclinic'
loop_
_space_group_symop_operation_xyz
x,y,z
-x,1/2+y,1/2-z
-x,-y,-z
x,1/2-y,1/2+z
loop_
_atom_site_type_symbol
_atom_site_label
_atom_site_fract_x
_atom_site_fract_y
_atom_site_fract_z
Si Si1 0.873855 0.879539 0.258835
Si Si2 0.984623 0.479612 0.234519
Si Si3 0.780218 0.126509 0.181882
Si Si4 0.082673 0.343775 0.949230
Si Si5 0.842378 0.317698 0.451558
Si Si6 0.521604 0.680966 0.130132
Si Si7 0.404649 0.767663 0.737553
O O1 0.134935 0.903687 0.636002
O O2 0.980981 0.798533 0.335773
O O3 0.721059 0.004882 0.068584
O O4 0.678779 0.791806 0.049614
O O5 0.868966 0.530141 0.019554
O O6 0.002495 0.581225 0.312207
O O7 0.284144 0.426309 0.606387
O O8 0.774236 0.384035 0.989643
O O9 0.045795 0.166326 0.479219
O O10 0.585444 0.237036 0.946463
O O11 0.781775 0.317213 0.541558
O O12 0.288050 0.261064 0.173591
O O13 0.607540 0.281830 0.204401
O O14 0.721591 0.353830 0.227743
#
# Coordination Sequence:
#
# PCOD9244915 Si02
#       7
#     4   4   4   4   4   4   4
#     4  10  21  36  56  81 109 148 195 241 293 357
#     4  10  21  38  59  88 122 158 198 254 317 362
#     4  10  21  36  56  81 109 148 195 241 293 357
#     4  10  21  35  55  82 113 148 190 242 299 357
#     4  10  21  39  61  84 117 159 203 249 300 365
#     4  10  21  39  61  84 117 159 203 249 300 365
#     4  10  21  35  55  82 113 148 190 242 299 357
#
# _framework density 23.976223999999998
#
# number of rings (size 3 to 8) (size 9 to 14) (size 15 to 20)
#    0.000    2.000    0.000    3.000    0.000    5.714 
#    0.000   10.000    0.000   15.429    0.000    0.000 
#    0.000    0.000    0.000    0.000    0.000    0.000 
#
# Total GULP energy -156163.697317 kJ/mol
# GULP energy per Si atom -5577.274904 kJ/mol
# Density = 2.392165 g / cm^3
# Si number density = 23.976224 Si / 1000 Ang^3
#
#
#
# Elastic Constant Matrix: (Units=GPa)
#
#
# Indices 1 2 3 4 5 6 
#
# 1 76.3001 16.6496 -1.2843 0.0000 3.8418 0.0000
# 2 16.6496 84.4932 -10.3075 0.0000 1.8424 0.0000
# 3 -1.2843 -10.3075 25.0216 0.0000 0.4211 0.0000
# 4 0.0000 0.0000 0.0000 24.8203 0.0000 8.8659
# 5 3.8418 1.8424 0.4211 0.0000 38.2282 0.0000
# 6 0.0000 0.0000 0.0000 8.8659 0.0000 35.2616
#
#
#
# Elastic Compliance Matrix: (Units=1/GPa)
#
#
# Indices 1 2 3 4 5 6 
#
# 1 0.013758 -0.002733 -0.000399 0.000000 -0.001247 0.000000
# 2 -0.002733 0.013021 0.005230 0.000000 -0.000411 0.000000
# 3 -0.000399 0.005230 0.042111 0.000000 -0.000676 0.000000
# 4 0.000000 0.000000 0.000000 0.044265 0.000000 -0.011130
# 5 -0.001247 -0.000411 -0.000676 0.000000 0.026311 0.000000
# 6 0.000000 0.000000 0.000000 -0.011130 0.000000 0.031158
#
#
# Mechanical properties :
#
#
# Convention : Reuss Voigt Hill
#
# Bulk Modulus (GPa) = 13.68193 21.77006 17.72599
# Shear Modulus (GPa) = 26.20701 31.71250 28.95976
#
# Velocity S-wave (km/s) = 3.30970 3.64079 3.47919
# Velocity P-wave (km/s) = 4.50826 5.17430 4.85272
#
# Compressibility (1/GPa) = 0.07308910
#
# Stress axis : x y z
#
# Youngs Moduli (GPa) = 72.68240 76.80042 23.74675
#
# Poissons Ratio (x) = 0.20986 0.00946
# Poissons Ratio (y) = 0.19861 -0.12421
# Poissons Ratio (z) = 0.02896 -0.40170
#
# Static dielectric constant tensor:
#      x y z
#    x 2.030610 0.000000 -0.019820 
#    y 0.000000 1.974560 0.000000 
#    z -0.019820 0.000000 1.927280 
# 
# From -- ./inp_files/75315.got.cif
#   From: 2010.05.17/outbox.cif.g08.bks.cpg/sg14_38_cif.got.tgz:75315.got - 2010.06.03 17:49:19.
