data_PCOD9244853
_publ_section_title
;
Structure prediction by ZEFSAII (Michael W. Deem and Ramdas Pophale) SiO2 
 PCOD9244853
Probable space group: P 21/C
;
_chemical_formula_sum "Si O2"
_cell_formula_units_Z 32
_cell_length_a 21.343345
_cell_length_b 8.182487
_cell_length_c 14.567851
_cell_angle_alpha 90.000000
_cell_angle_beta 141.483931
_cell_angle_gamma 90.000000
_cell_volume 1584.331099
_symmetry_space_group_name_H-M "P 21/C"
_symmetry_group_IT_number 14
_symmetry_cell_setting 'monoclinic'
loop_
_space_group_symop_operation_xyz
x,y,z
-x,1/2+y,1/2-z
-x,-y,-z
x,1/2-y,1/2+z
loop_
_atom_site_type_symbol
_atom_site_label
_atom_site_fract_x
_atom_site_fract_y
_atom_site_fract_z
Si Si1 0.323402 0.228357 0.096590
Si Si2 0.392847 0.484430 0.830466
Si Si3 0.877833 0.548103 0.637214
Si Si4 0.892921 0.471186 0.328982
Si Si5 0.279691 0.278508 0.856643
Si Si6 0.794066 0.192029 0.884896
Si Si7 0.005294 0.271745 0.843618
Si Si8 0.209942 0.073091 0.625235
O O1 0.398197 0.118838 0.242355
O O2 0.275519 0.356915 0.114402
O O3 0.352006 0.290021 0.028511
O O4 0.231195 0.109663 0.961530
O O5 0.325328 0.382327 0.824916
O O6 0.323719 0.644890 0.736175
O O7 0.500000 0.500000 0.000000
O O8 0.856125 0.431884 0.522829
O O9 0.945849 0.705688 0.694006
O O10 0.939566 0.432927 0.773516
O O11 0.824116 0.629172 0.234638
O O12 0.829763 0.354181 0.323860
O O13 0.000000 0.500000 0.500000
O O14 0.929088 0.372528 0.282340
O O15 0.262000 0.106720 0.783661
O O16 0.811503 0.383816 0.918493
O O17 0.108530 0.316004 0.014926
#
# Coordination Sequence:
#
# PCOD9244853 Si02
#       8
#     4   4   4   4   4   4   4   4
#     4   9  21  39  58  83 114 150 189 241 298 345
#     4   9  20  45  67  82 114 151 185 247 314 359
#     4  10  21  32  50  75 114 151 195 236 277 338
#     4  11  20  34  51  76 117 155 198 233 280 342
#     4  10  21  38  59  84 116 153 193 245 296 347
#     4  10  21  37  54  82 109 147 192 238 297 348
#     4  11  21  33  49  78 111 163 198 232 281 335
#     4  10  21  36  54  80 120 154 192 239 282 340
#
# _framework density 20.197799
#
# number of rings (size 3 to 8) (size 9 to 14) (size 15 to 20)
#    0.000    2.000    2.500    2.250    7.000    1.500 
#    0.000    5.000    0.000    0.000    0.000    0.000 
#    0.000    0.000    0.000    0.000    0.000    0.000 
#
# Total GULP energy -178138.207749 kJ/mol
# GULP energy per Si atom -5566.818992 kJ/mol
# Density = 2.015183 g / cm^3
# Si number density = 20.197799 Si / 1000 Ang^3
#
#
#
# Elastic Constant Matrix: (Units=GPa)
#
#
# Indices 1 2 3 4 5 6 
#
# 1 20.1034 -3.6205 -1.6286 0.0000 -15.3504 0.0000
# 2 -3.6205 66.5890 4.7776 0.0000 -0.3346 0.0000
# 3 -1.6286 4.7776 65.3503 0.0000 -5.4489 0.0000
# 4 0.0000 0.0000 0.0000 22.0673 0.0000 -6.6919
# 5 -15.3504 -0.3346 -5.4489 0.0000 32.0720 0.0000
# 6 0.0000 0.0000 0.0000 -6.6919 0.0000 10.6278
#
#
#
# Elastic Compliance Matrix: (Units=1/GPa)
#
#
# Indices 1 2 3 4 5 6 
#
# 1 0.081328 0.004261 0.005036 0.000000 0.039826 0.000000
# 2 0.004261 0.015320 -0.000842 0.000000 0.002056 0.000000
# 3 0.005036 -0.000842 0.015915 0.000000 0.005105 0.000000
# 4 0.000000 0.000000 0.000000 0.056011 0.000000 0.035268
# 5 0.039826 0.002056 0.005105 0.000000 0.051130 0.000000
# 6 0.000000 0.000000 0.000000 0.035268 0.000000 0.116299
#
#
# Mechanical properties :
#
#
# Convention : Reuss Voigt Hill
#
# Bulk Modulus (GPa) = 7.72372 16.78887 12.25630
# Shear Modulus (GPa) = 13.80256 23.12102 18.46179
#
# Velocity S-wave (km/s) = 2.61697 3.38706 3.02661
# Velocity P-wave (km/s) = 3.60052 4.86071 4.27728
#
# Compressibility (1/GPa) = 0.12947128
#
# Stress axis : x y z
#
# Youngs Moduli (GPa) = 12.29588 65.27451 62.83412
#
# Poissons Ratio (x) = -0.27811 -0.31643
# Poissons Ratio (y) = -0.05239 0.05293
# Poissons Ratio (z) = -0.06192 0.05499
#
# Static dielectric constant tensor:
#      x y z
#    x 1.770160 0.000000 -0.054830 
#    y 0.000000 1.769370 0.000000 
#    z -0.054830 0.000000 1.770710 
# 
# From -- ./inp_files/48410.got.cif
#   From: 2010.05.17/outbox.cif.g08.bks.cpg/sg14_25_cif.got.tgz:48410.got - 2010.06.03 17:49:19.
