data_PCOD9244251
_publ_section_title
;
Structure prediction by ZEFSAII (Michael W. Deem and Ramdas Pophale) SiO2 
 PCOD9244251
Probable space group: P 21/C
;
_chemical_formula_sum "Si O2"
_cell_formula_units_Z 16
_cell_length_a 9.109962
_cell_length_b 4.905147
_cell_length_c 20.287233
_cell_angle_alpha 90.000000
_cell_angle_beta 42.642034
_cell_angle_gamma 90.000000
_cell_volume 614.110805
_symmetry_space_group_name_H-M "P 21/C"
_symmetry_group_IT_number 14
_symmetry_cell_setting 'monoclinic'
loop_
_space_group_symop_operation_xyz
x,y,z
-x,1/2+y,1/2-z
-x,-y,-z
x,1/2-y,1/2+z
loop_
_atom_site_type_symbol
_atom_site_label
_atom_site_fract_x
_atom_site_fract_y
_atom_site_fract_z
Si Si1 0.712589 0.756793 0.621267
Si Si2 0.451336 0.767056 0.888148
Si Si3 0.890616 0.892600 0.311021
Si Si4 0.057469 0.463006 0.577279
O O1 0.523263 0.555129 0.657564
O O2 0.897823 0.719243 0.503187
O O3 0.833993 0.629756 0.643745
O O4 0.628668 0.058971 0.641421
O O5 0.652108 0.653699 0.861611
O O6 0.259206 0.829071 0.003828
O O7 0.924473 0.744231 0.369075
O O8 0.044595 0.707388 0.212981
#
# Coordination Sequence:
#
# PCOD9244251 Si02
#       4
#     4   4   4   4
#     4   9  20  36  72  91 115 152 229 270 306 361
#     4  10  20  40  64  94 116 166 218 260 314 373
#     4  12  27  40  58  92 139 173 206 258 327 390
#     4   9  22  39  68  92 121 161 218 266 315 374
#
# _framework density 26.053932
#
# number of rings (size 3 to 8) (size 9 to 14) (size 15 to 20)
#    1.500    0.500    0.000    3.000    3.500    1.000 
#    0.000    5.000    0.000    0.000    0.000    0.000 
#    0.000    0.000    0.000    0.000    0.000    0.000 
#
# Total GULP energy -89533.825016 kJ/mol
# GULP energy per Si atom -5595.864064 kJ/mol
# Density = 2.599463 g / cm^3
# Si number density = 26.053932 Si / 1000 Ang^3
#
#
#
# Elastic Constant Matrix: (Units=GPa)
#
#
# Indices 1 2 3 4 5 6 
#
# 1 94.5874 -15.5729 13.7708 0.0000 0.9158 0.0000
# 2 -15.5729 100.6142 -4.0121 0.0000 1.1184 0.0000
# 3 13.7708 -4.0121 65.5261 0.0000 4.2663 0.0000
# 4 0.0000 0.0000 0.0000 25.1091 0.0000 5.6909
# 5 0.9158 1.1184 4.2663 0.0000 47.9188 0.0000
# 6 0.0000 0.0000 0.0000 5.6909 0.0000 38.6792
#
#
#
# Elastic Compliance Matrix: (Units=1/GPa)
#
#
# Indices 1 2 3 4 5 6 
#
# 1 0.011169 0.001640 -0.002244 0.000000 -0.000052 0.000000
# 2 0.001640 0.010208 0.000300 0.000000 -0.000296 0.000000
# 3 -0.002244 0.000300 0.015840 0.000000 -0.001374 0.000000
# 4 0.000000 0.000000 0.000000 0.041200 0.000000 -0.006062
# 5 -0.000052 -0.000296 -0.001374 0.000000 0.020999 0.000000
# 6 0.000000 0.000000 0.000000 -0.006062 0.000000 0.026746
#
#
# Mechanical properties :
#
#
# Convention : Reuss Voigt Hill
#
# Bulk Modulus (GPa) = 27.31504 27.67771 27.49638
# Shear Modulus (GPa) = 35.97808 40.11088 38.04448
#
# Velocity S-wave (km/s) = 3.72009 3.92794 3.82543
# Velocity P-wave (km/s) = 5.38134 5.58730 5.48529
#
# Compressibility (1/GPa) = 0.03660987
#
# Stress axis : x y z
#
# Youngs Moduli (GPa) = 89.53060 97.96219 63.12966
#
# Poissons Ratio (x) = -0.16065 0.14163
# Poissons Ratio (y) = -0.14682 -0.01892
# Poissons Ratio (z) = 0.20087 -0.02936
#
# Static dielectric constant tensor:
#      x y z
#    x 2.018510 0.000000 0.063210 
#    y 0.000000 1.982260 0.000000 
#    z 0.063210 0.000000 2.140480 
# 
# From -- ./inp_files/64074.got.cif
#   From: 2010.05.17/outbox.cif.g08.bks.cpg/sg14_33_cif.got.tgz:64074.got - 2010.06.03 17:49:19.
