data_PCOD9244861
_publ_section_title
;
Structure prediction by ZEFSAII (Michael W. Deem and Ramdas Pophale) SiO2 
 PCOD9244861
Probable space group: P 21/C
;
_chemical_formula_sum "Si O2"
_cell_formula_units_Z 32
_cell_length_a 15.259228
_cell_length_b 16.798528
_cell_length_c 14.613244
_cell_angle_alpha 90.000000
_cell_angle_beta 19.883159
_cell_angle_gamma 90.000000
_cell_volume 1273.975533
_symmetry_space_group_name_H-M "P 21/C"
_symmetry_group_IT_number 14
_symmetry_cell_setting 'monoclinic'
loop_
_space_group_symop_operation_xyz
x,y,z
-x,1/2+y,1/2-z
-x,-y,-z
x,1/2-y,1/2+z
loop_
_atom_site_type_symbol
_atom_site_label
_atom_site_fract_x
_atom_site_fract_y
_atom_site_fract_z
Si Si1 0.979246 0.342877 0.146074
Si Si2 0.300365 0.074273 0.021759
Si Si3 0.196683 0.534193 0.088274
Si Si4 0.606534 0.274308 0.813841
Si Si5 0.053332 0.660225 0.383753
Si Si6 0.750734 0.953063 0.282910
Si Si7 0.535108 0.616599 0.440378
Si Si8 0.107256 0.256012 0.203097
O O1 0.231545 0.385475 0.859494
O O2 0.003621 0.314818 0.226418
O O3 0.971618 0.253648 0.109781
O O4 0.730726 0.390670 0.354433
O O5 0.542143 0.049501 0.722825
O O6 0.390004 0.069356 0.040163
O O7 0.220527 0.166429 0.075831
O O8 0.045473 0.026604 0.241915
O O9 0.138105 0.610588 0.212081
O O10 0.222423 0.462323 0.134605
O O11 0.731908 0.344865 0.748137
O O12 0.496115 0.205370 0.987003
O O13 0.855910 0.242102 0.513210
O O14 0.366092 0.296229 0.987829
O O15 0.792670 0.627658 0.684763
O O16 0.500000 0.000000 0.500000
O O17 0.000000 0.000000 0.000000
#
# Coordination Sequence:
#
# PCOD9244861 Si02
#       8
#     4   4   4   4   4   4   4   4
#     4  11  21  32  53  72 102 137 173 195 259 308
#     4  11  20  33  50  69 103 130 172 207 254 288
#     4  11  21  32  53  73  98 142 173 204 246 299
#     4  10  21  33  49  71 101 133 173 209 247 294
#     4  10  21  35  52  71 104 143 171 200 255 296
#     4  10  22  35  48  74 103 131 180 219 233 291
#     4  10  21  33  48  74  99 131 171 215 243 306
#     4  11  21  33  49  74 102 131 173 211 243 307
#
# _framework density 25.118223
#
# number of rings (size 3 to 8) (size 9 to 14) (size 15 to 20)
#    0.000    1.500    1.250    7.500    3.500    5.000 
#    0.000    0.000    0.000    0.000    0.000    0.000 
#    0.000   20.000    0.000    0.000    0.000    0.000 
#
# Total GULP energy -178971.671667 kJ/mol
# GULP energy per Si atom -5592.864740 kJ/mol
# Density = 2.506105 g / cm^3
# Si number density = 25.118223 Si / 1000 Ang^3
#
#
#
# Elastic Constant Matrix: (Units=GPa)
#
#
# Indices 1 2 3 4 5 6 
#
# 1 112.2008 22.0055 32.5342 0.0000 -35.3055 0.0000
# 2 22.0055 79.8883 27.7527 0.0000 -10.6043 0.0000
# 3 32.5342 27.7527 183.8259 0.0000 -25.8749 0.0000
# 4 0.0000 0.0000 0.0000 24.6347 0.0000 -4.4533
# 5 -35.3055 -10.6043 -25.8749 0.0000 51.2445 0.0000
# 6 0.0000 0.0000 0.0000 -4.4533 0.0000 36.3924
#
#
#
# Elastic Compliance Matrix: (Units=1/GPa)
#
#
# Indices 1 2 3 4 5 6 
#
# 1 0.011844 -0.002023 -0.000755 0.000000 0.007361 0.000000
# 2 -0.002023 0.013723 -0.001626 0.000000 0.000625 0.000000
# 3 -0.000755 -0.001626 0.006134 0.000000 0.002241 0.000000
# 4 0.000000 0.000000 0.000000 0.041511 0.000000 0.005080
# 5 0.007361 0.000625 0.002241 0.000000 0.025846 0.000000
# 6 0.000000 0.000000 0.000000 0.005080 0.000000 0.028100
#
#
# Mechanical properties :
#
#
# Convention : Reuss Voigt Hill
#
# Bulk Modulus (GPa) = 43.68009 60.05554 51.86781
# Shear Modulus (GPa) = 34.81951 42.02915 38.42433
#
# Velocity S-wave (km/s) = 3.72724 4.09498 3.91543
# Velocity P-wave (km/s) = 5.99589 6.80585 6.41367
#
# Compressibility (1/GPa) = 0.02289372
#
# Stress axis : x y z
#
# Youngs Moduli (GPa) = 84.42832 72.87299 163.01563
#
# Poissons Ratio (x) = 0.14745 0.12303
# Poissons Ratio (y) = 0.17083 0.26501
# Poissons Ratio (z) = 0.06372 0.11847
#
# Static dielectric constant tensor:
#      x y z
#    x 2.093050 0.000000 -0.045300 
#    y 0.000000 2.158170 0.000000 
#    z -0.045300 0.000000 1.909200 
# 
# From -- ./inp_files/47641.got.cif
#   From: 2010.05.17/outbox.cif.g08.bks.cpg/sg14_24_cif.got.tgz:47641.got - 2010.06.03 17:49:19.
