data_PCOD9244048
_publ_section_title
;
Structure prediction by ZEFSAII (Michael W. Deem and Ramdas Pophale) SiO2 
 PCOD9244048
Probable space group: P 21/C
;
_chemical_formula_sum "Si O2"
_cell_formula_units_Z 24
_cell_length_a 13.255681
_cell_length_b 11.520242
_cell_length_c 20.745086
_cell_angle_alpha 90.000000
_cell_angle_beta 161.444324
_cell_angle_gamma 90.000000
_cell_volume 1008.125439
_symmetry_space_group_name_H-M "P 21/C"
_symmetry_group_IT_number 14
_symmetry_cell_setting 'monoclinic'
loop_
_space_group_symop_operation_xyz
x,y,z
-x,1/2+y,1/2-z
-x,-y,-z
x,1/2-y,1/2+z
loop_
_atom_site_type_symbol
_atom_site_label
_atom_site_fract_x
_atom_site_fract_y
_atom_site_fract_z
Si Si1 0.423235 0.606743 0.999676
Si Si2 0.014479 0.746071 0.073182
Si Si3 0.345169 0.524910 0.738405
Si Si4 0.546716 0.405625 0.745655
Si Si5 0.757857 0.528082 0.570241
Si Si6 0.730957 0.166247 0.145216
O O1 0.502268 0.731591 0.019063
O O2 0.042143 0.608223 0.767195
O O3 0.500000 0.500000 0.000000
O O4 0.566038 0.567974 0.153506
O O5 0.145386 0.650494 0.101821
O O6 0.016106 0.710645 0.149490
O O7 0.286308 0.847552 0.232000
O O8 0.669640 0.803064 0.853574
O O9 0.587194 0.501798 0.826001
O O10 0.000000 0.500000 0.500000
O O11 0.323398 0.460546 0.554106
O O12 0.449090 0.574144 0.419035
O O13 0.840053 0.401267 0.647586
#
# Coordination Sequence:
#
# PCOD9244048 Si02
#       6
#     4   4   4   4   4   4
#     4  12  22  37  67  93 116 169 215 254 309 385
#     4  10  20  39  65  82 124 165 204 254 322 372
#     4  10  22  40  56  89 124 161 211 247 312 374
#     4  10  21  41  60  90 122 170 202 258 314 380
#     4  10  23  40  64  93 128 159 212 264 316 373
#     4  10  22  40  63  95 125 162 208 271 314 368
#
# _framework density 23.806560999999999
#
# number of rings (size 3 to 8) (size 9 to 14) (size 15 to 20)
#    0.000    1.667    3.333    1.000    4.667    1.333 
#    6.000    0.833    0.000    0.000    0.000    0.000 
#    0.000    0.000    0.000    0.000    0.000    0.000 
#
# Total GULP energy -133941.791367 kJ/mol
# GULP energy per Si atom -5580.907974 kJ/mol
# Density = 2.375238 g / cm^3
# Si number density = 23.806561 Si / 1000 Ang^3
#
#
#
# Elastic Constant Matrix: (Units=GPa)
#
#
# Indices 1 2 3 4 5 6 
#
# 1 104.8528 32.0329 27.8578 0.0000 -15.8479 0.0000
# 2 32.0329 66.6036 -7.1068 0.0000 -8.6002 0.0000
# 3 27.8578 -7.1068 54.5745 0.0000 -13.7495 0.0000
# 4 0.0000 0.0000 0.0000 21.8967 0.0000 0.9814
# 5 -15.8479 -8.6002 -13.7495 0.0000 46.1809 0.0000
# 6 0.0000 0.0000 0.0000 0.9814 0.0000 50.1910
#
#
#
# Elastic Compliance Matrix: (Units=1/GPa)
#
#
# Indices 1 2 3 4 5 6 
#
# 1 0.014080 -0.007472 -0.007885 0.000000 0.001093 0.000000
# 2 -0.007472 0.019800 0.007217 0.000000 0.003272 0.000000
# 3 -0.007885 0.007217 0.024806 0.000000 0.006024 0.000000
# 4 0.000000 0.000000 0.000000 0.045709 0.000000 -0.000894
# 5 0.001093 0.003272 0.006024 0.000000 0.024432 0.000000
# 6 0.000000 0.000000 0.000000 -0.000894 0.000000 0.019941
#
#
# Mechanical properties :
#
#
# Convention : Reuss Voigt Hill
#
# Bulk Modulus (GPa) = 23.58140 36.84430 30.21285
# Shear Modulus (GPa) = 27.90431 35.20352 31.55392
#
# Velocity S-wave (km/s) = 3.42735 3.84960 3.64459
# Velocity P-wave (km/s) = 5.05858 5.93880 5.51627
#
# Compressibility (1/GPa) = 0.04240630
#
# Stress axis : x y z
#
# Youngs Moduli (GPa) = 71.02299 50.50398 40.31307
#
# Poissons Ratio (x) = 0.37737 0.31786
# Poissons Ratio (y) = 0.53068 -0.29094
# Poissons Ratio (z) = 0.56001 -0.36448
#
# Static dielectric constant tensor:
#      x y z
#    x 1.972980 0.000000 0.034290 
#    y 0.000000 2.066740 0.000000 
#    z 0.034290 0.000000 1.998700 
# 
# From -- ./inp_files/57753.got.cif
#   From: 2010.05.17/outbox.cif.g08.bks.cpg/sg14_29_cif.got.tgz:57753.got - 2010.06.03 17:49:19.
