data_PCOD9244607
_publ_section_title
;
Structure prediction by ZEFSAII (Michael W. Deem and Ramdas Pophale) SiO2 
 PCOD9244607
Probable space group: P 21/C
;
_chemical_formula_sum "Si O2"
_cell_formula_units_Z 28
_cell_length_a 23.302884
_cell_length_b 11.091980
_cell_length_c 13.604551
_cell_angle_alpha 90.000000
_cell_angle_beta 157.449291
_cell_angle_gamma 90.000000
_cell_volume 1348.557319
_symmetry_space_group_name_H-M "P 21/C"
_symmetry_group_IT_number 14
_symmetry_cell_setting 'monoclinic'
loop_
_space_group_symop_operation_xyz
x,y,z
-x,1/2+y,1/2-z
-x,-y,-z
x,1/2-y,1/2+z
loop_
_atom_site_type_symbol
_atom_site_label
_atom_site_fract_x
_atom_site_fract_y
_atom_site_fract_z
Si Si1 0.826800 0.508161 0.697131
Si Si2 0.563062 0.151338 0.519171
Si Si3 0.388052 0.366547 0.924675
Si Si4 0.121777 0.614833 0.409632
Si Si5 0.351949 0.733293 0.538037
Si Si6 0.866502 0.768898 0.368848
Si Si7 0.935346 0.116050 0.951072
O O1 0.835972 0.499231 0.592849
O O2 0.741684 0.389906 0.600254
O O3 0.770196 0.621873 0.669859
O O4 0.000000 0.500000 0.000000
O O5 0.418162 0.158631 0.357724
O O6 0.567273 0.243502 0.437375
O O7 0.579320 0.010246 0.511346
O O8 0.716591 0.177738 0.822467
O O9 0.235068 0.326655 0.733820
O O10 0.515610 0.284570 0.176283
O O11 0.070171 0.597419 0.440243
O O12 0.994755 0.685381 0.147815
O O13 0.228226 0.840233 0.345591
O O14 0.951048 0.717814 0.407015
O O15 0.000000 0.000000 0.000000
#
# Coordination Sequence:
#
# PCOD9244607 Si02
#       7
#     4   4   4   4   4   4   4
#     4  10  20  42  64  94 125 169 216 265 325 383
#     4  10  23  43  66  92 130 175 214 262 327 391
#     4  11  24  42  65  96 130 172 213 259 333 385
#     4  10  21  42  65  94 125 170 212 267 324 384
#     4  11  22  43  65  93 129 170 213 265 324 388
#     4  11  23  40  65  98 126 169 222 268 322 390
#     4  11  23  41  65  97 128 166 221 272 324 381
#
# _framework density 20.762927999999999
#
# number of rings (size 3 to 8) (size 9 to 14) (size 15 to 20)
#    0.000    1.429    4.286    1.714    2.000    3.429 
#   10.286    0.714    0.000    0.000    0.000    0.000 
#    0.000    0.000    0.000    0.000    0.000    0.000 
#
# Total GULP energy -156079.089926 kJ/mol
# GULP energy per Si atom -5574.253212 kJ/mol
# Density = 2.071567 g / cm^3
# Si number density = 20.762928 Si / 1000 Ang^3
#
#
#
# Elastic Constant Matrix: (Units=GPa)
#
#
# Indices 1 2 3 4 5 6 
#
# 1 184.7220 49.2303 47.2101 0.0000 -0.0243 0.0000
# 2 49.2303 70.0076 27.0785 0.0000 -7.6101 0.0000
# 3 47.2101 27.0785 78.6221 0.0000 -6.6475 0.0000
# 4 0.0000 0.0000 0.0000 22.3146 0.0000 9.9851
# 5 -0.0243 -7.6101 -6.6475 0.0000 26.0067 0.0000
# 6 0.0000 0.0000 0.0000 9.9851 0.0000 42.9687
#
#
#
# Elastic Compliance Matrix: (Units=1/GPa)
#
#
# Indices 1 2 3 4 5 6 
#
# 1 0.007322 -0.004155 -0.003136 0.000000 -0.002010 0.000000
# 2 -0.004155 0.019145 -0.003706 0.000000 0.004651 0.000000
# 3 -0.003136 -0.003706 0.016135 0.000000 0.003037 0.000000
# 4 0.000000 0.000000 0.000000 0.050014 0.000000 -0.011622
# 5 -0.002010 0.004651 0.003037 0.000000 0.040587 0.000000
# 6 0.000000 0.000000 0.000000 -0.011622 0.000000 0.025974
#
#
# Mechanical properties :
#
#
# Convention : Reuss Voigt Hill
#
# Bulk Modulus (GPa) = 48.52095 64.48771 56.50433
# Shear Modulus (GPa) = 26.59032 32.24686 29.41859
#
# Velocity S-wave (km/s) = 3.58252 3.94521 3.76823
# Velocity P-wave (km/s) = 6.36650 7.20274 6.79749
#
# Compressibility (1/GPa) = 0.02060966
#
# Stress axis : x y z
#
# Youngs Moduli (GPa) = 136.57661 52.23395 61.97693
#
# Poissons Ratio (x) = 0.21701 0.19434
# Poissons Ratio (y) = 0.56741 0.22967
# Poissons Ratio (z) = 0.42826 0.19357
#
# Static dielectric constant tensor:
#      x y z
#    x 1.787770 0.000000 -0.014260 
#    y 0.000000 1.810110 0.000000 
#    z -0.014260 0.000000 1.784900 
# 
# From -- ./inp_files/35210.got.cif
#   From: 2010.05.17/outbox.cif.g08.bks.cpg/sg14_18_cif.got.tgz:35210.got - 2010.06.03 17:49:19.
