data_PCOD9244760
_publ_section_title
;
Structure prediction by ZEFSAII (Michael W. Deem and Ramdas Pophale) SiO2 
 PCOD9244760
Probable space group: P 21/C
;
_chemical_formula_sum "Si O2"
_cell_formula_units_Z 26
_cell_length_a 4.999708
_cell_length_b 19.928177
_cell_length_c 9.704431
_cell_angle_alpha 90.000000
_cell_angle_beta 77.298372
_cell_angle_gamma 90.000000
_cell_volume 943.239893
_symmetry_space_group_name_H-M "P 21/C"
_symmetry_group_IT_number 14
_symmetry_cell_setting 'monoclinic'
loop_
_space_group_symop_operation_xyz
x,y,z
-x,1/2+y,1/2-z
-x,-y,-z
x,1/2-y,1/2+z
loop_
_atom_site_type_symbol
_atom_site_label
_atom_site_fract_x
_atom_site_fract_y
_atom_site_fract_z
Si Si1 0.889080 0.273108 0.789384
Si Si2 0.111031 0.418943 0.840644
Si Si3 0.437506 0.212348 0.687583
Si Si4 0.552735 0.411896 0.010901
Si Si5 0.500000 0.500000 0.500000
Si Si6 0.870375 0.537315 0.718220
Si Si7 0.683036 0.357627 0.408198
O O1 0.008545 0.345600 0.807832
O O2 0.625046 0.272924 0.720898
O O3 0.814549 0.216800 0.915495
O O4 0.140098 0.236956 0.682661
O O5 0.080126 0.475674 0.727846
O O6 0.863790 0.435971 0.976125
O O7 0.400429 0.417197 0.882343
O O8 0.550575 0.165774 0.554658
O O9 0.455839 0.163849 0.820297
O O10 0.359429 0.449961 0.140313
O O11 0.712225 0.520941 0.597221
O O12 0.569200 0.415512 0.519408
O O13 0.074303 0.600213 0.692455
#
# Coordination Sequence:
#
# PCOD9244760 Si02
#       7
#     4   4   4   4   2   4   4
#     4  10  21  46  66 102 142 186 237 296 360 432
#     4  12  28  42  74 113 149 183 248 302 364 444
#     4  10  20  43  76  91 144 189 232 282 363 439
#     4  12  23  47  72 106 145 196 232 296 376 439
#     4  12  24  44  76  98 144 192 260 298 360 422
#     4  12  25  46  70 110 145 197 247 305 364 435
#     4  10  22  44  73  99 140 192 242 303 358 426
#
# _framework density 27.56457
#
# number of rings (size 3 to 8) (size 9 to 14) (size 15 to 20)
#    0.923    0.000    3.077    4.154    2.154    0.000 
#    5.538    0.000    0.000    0.000    0.000    0.000 
#    0.000    0.000    0.000    0.000    0.000    0.000 
#
# Total GULP energy -145041.938469 kJ/mol
# GULP energy per Si atom -5578.536095 kJ/mol
# Density = 2.750183 g / cm^3
# Si number density = 27.564570 Si / 1000 Ang^3
#
#
#
# Elastic Constant Matrix: (Units=GPa)
#
#
# Indices 1 2 3 4 5 6 
#
# 1 107.3911 33.1371 3.6545 0.0000 23.6693 0.0000
# 2 33.1371 234.6277 29.9982 0.0000 10.1911 0.0000
# 3 3.6545 29.9982 51.8905 0.0000 25.3339 0.0000
# 4 0.0000 0.0000 0.0000 42.2167 0.0000 1.0791
# 5 23.6693 10.1911 25.3339 0.0000 31.9688 0.0000
# 6 0.0000 0.0000 0.0000 1.0791 0.0000 54.6468
#
#
#
# Elastic Compliance Matrix: (Units=1/GPa)
#
#
# Indices 1 2 3 4 5 6 
#
# 1 0.013037 -0.002170 0.007684 0.000000 -0.015050 0.000000
# 2 -0.002170 0.004985 -0.004465 0.000000 0.003556 0.000000
# 3 0.007684 -0.004465 0.038156 0.000000 -0.034503 0.000000
# 4 0.000000 0.000000 0.000000 0.023699 0.000000 -0.000468
# 5 -0.015050 0.003556 -0.034503 0.000000 0.068632 0.000000
# 6 0.000000 0.000000 0.000000 -0.000468 0.000000 0.018309
#
#
# Mechanical properties :
#
#
# Convention : Reuss Voigt Hill
#
# Bulk Modulus (GPa) = 17.15978 58.60989 37.88483
# Shear Modulus (GPa) = 27.15249 47.57442 37.36346
#
# Velocity S-wave (km/s) = 3.14196 4.15893 3.68569
# Velocity P-wave (km/s) = 4.40469 6.66117 5.64679
#
# Compressibility (1/GPa) = 0.05827581
#
# Stress axis : x y z
#
# Youngs Moduli (GPa) = 76.70576 200.60326 26.20796
#
# Poissons Ratio (x) = 0.43530 -0.20138
# Poissons Ratio (y) = 0.16645 0.11702
# Poissons Ratio (z) = -0.58939 0.89570
#
# Static dielectric constant tensor:
#      x y z
#    x 1.878470 0.000000 0.116470 
#    y 0.000000 2.212870 0.000000 
#    z 0.116470 0.000000 1.873660 
# 
# From -- ./inp_files/21418.got.cif
#   From: 2010.05.17/outbox.cif.g08.bks.cpg/sg14_11_cif.got.tgz:21418.got - 2010.06.03 17:49:19.
