data_PCOD9244883
_publ_section_title
;
Structure prediction by ZEFSAII (Michael W. Deem and Ramdas Pophale) SiO2 
 PCOD9244883
Probable space group: P 21/C
;
_chemical_formula_sum "Si O2"
_cell_formula_units_Z 24
_cell_length_a 11.185315
_cell_length_b 19.199574
_cell_length_c 13.657059
_cell_angle_alpha 90.000000
_cell_angle_beta 22.406426
_cell_angle_gamma 90.000000
_cell_volume 1117.944755
_symmetry_space_group_name_H-M "P 21/C"
_symmetry_group_IT_number 14
_symmetry_cell_setting 'monoclinic'
loop_
_space_group_symop_operation_xyz
x,y,z
-x,1/2+y,1/2-z
-x,-y,-z
x,1/2-y,1/2+z
loop_
_atom_site_type_symbol
_atom_site_label
_atom_site_fract_x
_atom_site_fract_y
_atom_site_fract_z
Si Si1 0.107006 0.272625 0.249118
Si Si2 0.366438 0.580442 0.715045
Si Si3 0.241673 0.343215 0.417430
Si Si4 0.345378 0.812984 0.551548
Si Si5 0.469346 0.188412 0.296994
Si Si6 0.357964 0.085396 0.206472
O O1 0.907907 0.217969 0.334356
O O2 0.840217 0.296133 0.527381
O O3 0.425338 0.257188 0.068750
O O4 0.254344 0.324510 0.055139
O O5 0.599620 0.617920 0.612243
O O6 0.457507 0.599492 0.534298
O O7 0.393522 0.496896 0.700100
O O8 0.015600 0.600147 0.014762
O O9 0.320938 0.260388 0.366835
O O10 0.872629 0.351436 0.705844
O O11 0.421618 0.363495 0.182850
O O12 0.465562 0.130043 0.217294
#
# Coordination Sequence:
#
# PCOD9244883 Si02
#       6
#     4   4   4   4   4   4
#     4  10  21  36  55  83 118 156 199 245 297 355
#     4  10  21  38  61  89 121 159 205 255 303 353
#     4  10  21  34  55  85 118 152 192 244 303 357
#     4  10  21  36  55  83 118 156 199 245 297 355
#     4  10  21  34  55  85 118 152 192 244 303 357
#     4  10  21  38  61  89 121 159 205 255 303 353
#
# _framework density 21.467965
#
# number of rings (size 3 to 8) (size 9 to 14) (size 15 to 20)
#    0.000    2.000    0.000    3.000    0.000   16.000 
#    0.000    0.000    0.000    6.000    0.000    0.000 
#    0.000    0.000    0.000    0.000    0.000    0.000 
#
# Total GULP energy -133721.195076 kJ/mol
# GULP energy per Si atom -5571.716462 kJ/mol
# Density = 2.141910 g / cm^3
# Si number density = 21.467965 Si / 1000 Ang^3
#
#
#
# Elastic Constant Matrix: (Units=GPa)
#
#
# Indices 1 2 3 4 5 6 
#
# 1 1434.7542 -90.9531 -168.6180 0.0000 -859.5168 0.0000
# 2 -90.9531 25.2234 9.1682 0.0000 56.4316 0.0000
# 3 -168.6180 9.1682 154.9971 0.0000 135.6315 0.0000
# 4 0.0000 0.0000 0.0000 4.3758 0.0000 -6.0137
# 5 -859.5168 56.4316 135.6315 0.0000 601.0323 0.0000
# 6 0.0000 0.0000 0.0000 -6.0137 0.0000 26.5795
#
#
#
# Elastic Compliance Matrix: (Units=1/GPa)
#
#
# Indices 1 2 3 4 5 6 
#
# 1 0.005106 0.002454 -0.000970 0.000000 0.007291 0.000000
# 2 0.002454 0.051626 0.000980 0.000000 -0.001560 0.000000
# 3 -0.000970 0.000980 0.008265 0.000000 -0.003344 0.000000
# 4 0.000000 0.000000 0.000000 0.331660 0.000000 0.075039
# 5 0.007291 -0.001560 -0.003344 0.000000 0.012991 0.000000
# 6 0.000000 0.000000 0.000000 0.075039 0.000000 0.054601
#
#
# Mechanical properties :
#
#
# Convention : Reuss Voigt Hill
#
# Bulk Modulus (GPa) = 14.30104 123.79656 69.04880
# Shear Modulus (GPa) = 10.35991 250.75601 130.55796
#
# Velocity S-wave (km/s) = 2.19914 10.81935 7.80687
# Velocity P-wave (km/s) = 3.62275 14.62425 10.65347
#
# Compressibility (1/GPa) = 0.06992498
#
# Stress axis : x y z
#
# Youngs Moduli (GPa) = 195.84584 19.37000 120.99249
#
# Poissons Ratio (x) = -0.04753 0.11736
# Poissons Ratio (y) = -0.48053 -0.11860
# Poissons Ratio (z) = 0.18997 -0.01899
#
# Static dielectric constant tensor:
#      x y z
#    x 1.870360 0.000000 0.045440 
#    y 0.000000 1.768740 0.000000 
#    z 0.045440 0.000000 1.889540 
# 
# From -- ./inp_files/45542.got.cif
#   From: 2010.05.17/outbox.cif.g08.bks.cpg/sg14_23_cif.got.tgz:45542.got - 2010.06.03 17:49:19.
