data_PCOD9244005
_publ_section_title
;
Structure prediction by ZEFSAII (Michael W. Deem and Ramdas Pophale) SiO2 
 PCOD9244005
Probable space group: P 21/C
;
_chemical_formula_sum "Si O2"
_cell_formula_units_Z 24
_cell_length_a 17.553469
_cell_length_b 5.267858
_cell_length_c 28.048911
_cell_angle_alpha 90.000000
_cell_angle_beta 24.630132
_cell_angle_gamma 90.000000
_cell_volume 1080.930841
_symmetry_space_group_name_H-M "P 21/C"
_symmetry_group_IT_number 14
_symmetry_cell_setting 'monoclinic'
loop_
_space_group_symop_operation_xyz
x,y,z
-x,1/2+y,1/2-z
-x,-y,-z
x,1/2-y,1/2+z
loop_
_atom_site_type_symbol
_atom_site_label
_atom_site_fract_x
_atom_site_fract_y
_atom_site_fract_z
Si Si1 0.463356 0.802876 0.978348
Si Si2 0.947650 0.600892 0.443892
Si Si3 0.202424 0.115824 0.667464
Si Si4 0.885058 0.922202 0.613419
Si Si5 0.394185 0.255592 0.797480
Si Si6 0.813323 0.534374 0.417506
O O1 0.296589 0.639102 0.094623
O O2 0.381360 0.895284 0.975455
O O3 0.660985 0.674816 0.866138
O O4 0.500000 0.000000 0.000000
O O5 0.781909 0.648346 0.574550
O O6 0.856951 0.642314 0.443976
O O7 0.024267 0.319817 0.411750
O O8 0.099212 0.820213 0.365086
O O9 0.201936 0.283395 0.619714
O O10 0.997354 0.122107 0.802275
O O11 0.685975 0.841337 0.707967
O O12 0.000000 0.000000 0.500000
O O13 0.468855 0.515191 0.779368
#
# Coordination Sequence:
#
# PCOD9244005 Si02
#       6
#     4   4   4   4   4   4
#     4   9  20  39  60  87 120 169 216 265 318 384
#     4  11  24  40  67  98 128 172 222 274 311 408
#     4  10  20  39  64  87 128 178 209 264 330 381
#     4  10  21  43  65  89 128 168 211 260 339 394
#     4  11  21  41  68  92 128 169 212 264 346 392
#     4  11  22  38  66  93 131 173 227 259 332 386
#
# _framework density 22.203085999999999
#
# number of rings (size 3 to 8) (size 9 to 14) (size 15 to 20)
#    0.000    1.667    1.667    5.000    2.333    0.000 
#    3.000    6.667    0.000    0.000    0.000    0.000 
#    0.000    0.000    0.000    0.000    0.000    0.000 
#
# Total GULP energy -133656.278590 kJ/mol
# GULP energy per Si atom -5569.011608 kJ/mol
# Density = 2.215255 g / cm^3
# Si number density = 22.203086 Si / 1000 Ang^3
#
#
#
# Elastic Constant Matrix: (Units=GPa)
#
#
# Indices 1 2 3 4 5 6 
#
# 1 109.5813 25.5213 19.8298 0.0000 -26.4296 0.0000
# 2 25.5213 98.2328 12.7087 0.0000 -19.1640 0.0000
# 3 19.8298 12.7087 41.3675 0.0000 -20.1841 0.0000
# 4 0.0000 0.0000 0.0000 22.8948 0.0000 -23.1235
# 5 -26.4296 -19.1640 -20.1841 0.0000 34.5855 0.0000
# 6 0.0000 0.0000 0.0000 -23.1235 0.0000 44.3217
#
#
#
# Elastic Compliance Matrix: (Units=1/GPa)
#
#
# Indices 1 2 3 4 5 6 
#
# 1 0.011437 -0.001391 -0.001631 0.000000 0.007017 0.000000
# 2 -0.001391 0.011593 -0.000390 0.000000 0.005133 0.000000
# 3 -0.001631 -0.000390 0.034060 0.000000 0.018415 0.000000
# 4 0.000000 0.000000 0.000000 0.092330 0.000000 0.048170
# 5 0.007017 0.005133 0.018415 0.000000 0.047867 0.000000
# 6 0.000000 0.000000 0.000000 0.048170 0.000000 0.047694
#
#
# Mechanical properties :
#
#
# Convention : Reuss Voigt Hill
#
# Bulk Modulus (GPa) = 19.89447 40.58902 30.24174
# Shear Modulus (GPa) = 18.61765 33.10186 25.85975
#
# Velocity S-wave (km/s) = 2.89886 3.86536 3.41646
# Velocity P-wave (km/s) = 4.49268 6.18400 5.40491
#
# Compressibility (1/GPa) = 0.05026523
#
# Stress axis : x y z
#
# Youngs Moduli (GPa) = 87.43279 86.25719 29.35956
#
# Poissons Ratio (x) = 0.12002 0.04789
# Poissons Ratio (y) = 0.12166 0.01146
# Poissons Ratio (z) = 0.14263 0.03366
#
# Static dielectric constant tensor:
#      x y z
#    x 1.859110 0.000000 0.018990 
#    y 0.000000 1.955940 0.000000 
#    z 0.018990 0.000000 1.849230 
# 
# From -- ./inp_files/77399.got.cif
#   From: 2010.05.17/outbox.cif.g08.bks.cpg/sg14_39_cif.got.tgz:77399.got - 2010.06.03 17:49:19.
