data_PCOD9244586
_publ_section_title
;
Structure prediction by ZEFSAII (Michael W. Deem and Ramdas Pophale) SiO2 
 PCOD9244586
Probable space group: P 21/C
;
_chemical_formula_sum "Si O2"
_cell_formula_units_Z 16
_cell_length_a 9.664883
_cell_length_b 10.327899
_cell_length_c 10.164384
_cell_angle_alpha 90.000000
_cell_angle_beta 139.191150
_cell_angle_gamma 90.000000
_cell_volume 663.071215
_symmetry_space_group_name_H-M "P 21/C"
_symmetry_group_IT_number 14
_symmetry_cell_setting 'monoclinic'
loop_
_space_group_symop_operation_xyz
x,y,z
-x,1/2+y,1/2-z
-x,-y,-z
x,1/2-y,1/2+z
loop_
_atom_site_type_symbol
_atom_site_label
_atom_site_fract_x
_atom_site_fract_y
_atom_site_fract_z
Si Si1 0.128087 0.130321 0.599591
Si Si2 0.474256 0.758127 0.214883
Si Si3 0.889383 0.847339 0.109065
Si Si4 0.688870 0.104037 0.645583
O O1 0.374413 0.129935 0.736576
O O2 0.035065 0.225383 0.422921
O O3 0.118010 0.177695 0.741798
O O4 0.000000 0.000000 0.500000
O O5 0.352482 0.818296 0.249594
O O6 0.645707 0.648351 0.385662
O O7 0.340720 0.696361 0.002642
O O8 0.071282 0.950590 0.201184
O O9 0.500000 0.000000 0.500000
#
# Coordination Sequence:
#
# PCOD9244586 Si02
#       4
#     4   4   4   4
#     4  10  20  42  63  86 127 165 199 257 312 360
#     4  10  22  43  60  94 130 157 213 259 301 382
#     4  10  22  41  63  92 128 161 210 258 305 377
#     4  12  24  42  66  95 126 166 210 258 312 372
#
# _framework density 24.130137000000001
#
# number of rings (size 3 to 8) (size 9 to 14) (size 15 to 20)
#    1.500    0.000    2.500    3.000    0.000    1.000 
#    9.000    2.500    0.000    0.000    0.000    0.000 
#    0.000    0.000    0.000    0.000    0.000    0.000 
#
# Total GULP energy -89272.439752 kJ/mol
# GULP energy per Si atom -5579.527485 kJ/mol
# Density = 2.407522 g / cm^3
# Si number density = 24.130137 Si / 1000 Ang^3
#
#
#
# Elastic Constant Matrix: (Units=GPa)
#
#
# Indices 1 2 3 4 5 6 
#
# 1 179.5607 13.2128 60.0255 0.0000 -30.5755 0.0000
# 2 13.2128 21.4411 23.4739 0.0000 -7.3147 0.0000
# 3 60.0255 23.4739 137.3803 0.0000 -48.1832 0.0000
# 4 0.0000 0.0000 0.0000 23.5034 0.0000 0.3884
# 5 -30.5755 -7.3147 -48.1832 0.0000 45.0689 0.0000
# 6 0.0000 0.0000 0.0000 0.3884 0.0000 28.9774
#
#
#
# Elastic Compliance Matrix: (Units=1/GPa)
#
#
# Indices 1 2 3 4 5 6 
#
# 1 0.006689 -0.001256 -0.001901 0.000000 0.002302 0.000000
# 2 -0.001256 0.057706 -0.010120 0.000000 -0.002306 0.000000
# 3 -0.001901 -0.010120 0.014096 0.000000 0.012138 0.000000
# 4 0.000000 0.000000 0.000000 0.042556 0.000000 -0.000570
# 5 0.002302 -0.002306 0.012138 0.000000 0.036353 0.000000
# 6 0.000000 0.000000 0.000000 -0.000570 0.000000 0.034517
#
#
# Mechanical properties :
#
#
# Convention : Reuss Voigt Hill
#
# Bulk Modulus (GPa) = 19.25374 59.08960 39.17167
# Shear Modulus (GPa) = 21.20597 35.62129 28.41363
#
# Velocity S-wave (km/s) = 2.96770 3.84632 3.43522
# Velocity P-wave (km/s) = 4.44291 6.65332 5.65712
#
# Compressibility (1/GPa) = 0.05193795
#
# Stress axis : x y z
#
# Youngs Moduli (GPa) = 149.50122 17.32919 70.94313
#
# Poissons Ratio (x) = 0.02176 0.13483
# Poissons Ratio (y) = 0.18774 0.71795
# Poissons Ratio (z) = 0.28414 0.17537
#
# Static dielectric constant tensor:
#      x y z
#    x 1.974150 0.000000 0.169080 
#    y 0.000000 1.958530 0.000000 
#    z 0.169080 0.000000 2.081050 
# 
# From -- ./inp_files/7578.got.cif
#   From: 2010.05.17/outbox.cif.g08.bks.cpg/sg14_4_cif.got.tgz:7578.got - 2010.06.03 17:49:19.
