data_PCOD9244184
_publ_section_title
;
Structure prediction by ZEFSAII (Michael W. Deem and Ramdas Pophale) SiO2 
 PCOD9244184
Probable space group: P 21/C
;
_chemical_formula_sum "Si O2"
_cell_formula_units_Z 28
_cell_length_a 8.887620
_cell_length_b 17.298312
_cell_length_c 13.229137
_cell_angle_alpha 90.000000
_cell_angle_beta 139.027575
_cell_angle_gamma 90.000000
_cell_volume 1333.592282
_symmetry_space_group_name_H-M "P 21/C"
_symmetry_group_IT_number 14
_symmetry_cell_setting 'monoclinic'
loop_
_space_group_symop_operation_xyz
x,y,z
-x,1/2+y,1/2-z
-x,-y,-z
x,1/2-y,1/2+z
loop_
_atom_site_type_symbol
_atom_site_label
_atom_site_fract_x
_atom_site_fract_y
_atom_site_fract_z
Si Si1 0.620699 0.665311 0.661211
Si Si2 0.041474 0.717405 0.625170
Si Si3 0.163563 0.015807 0.238394
Si Si4 0.436544 0.342415 0.813129
Si Si5 0.905124 0.113322 0.647244
Si Si6 0.537175 0.699122 0.388670
Si Si7 0.223101 0.912533 0.084447
O O1 0.639562 0.755131 0.701825
O O2 0.546926 0.664342 0.505702
O O3 0.434696 0.625047 0.636214
O O4 0.860020 0.621432 0.793386
O O5 0.061248 0.666222 0.736368
O O6 0.282218 0.764567 0.745446
O O7 0.063438 0.658345 0.542118
O O8 0.777932 0.749604 0.499265
O O9 0.293827 0.096460 0.305413
O O10 0.146465 0.971311 0.334719
O O11 0.283332 0.960692 0.215517
O O12 0.916149 0.033406 0.063374
O O13 0.431803 0.357904 0.690612
O O14 0.697243 0.352058 0.979971
#
# Coordination Sequence:
#
# PCOD9244184 Si02
#       7
#     4   4   4   4   4   4   4
#     4  11  25  41  70  99 131 175 227 284 321 402
#     4  10  20  40  61  96 134 169 215 273 331 397
#     4  10  23  43  69  94 135 181 217 266 345 408
#     4  12  23  40  70  97 130 175 223 282 332 396
#     4  10  24  43  63  98 135 172 223 273 339 395
#     4  11  23  38  65  99 132 167 223 277 337 387
#     4  10  21  41  68  94 130 180 216 269 334 403
#
# _framework density 20.995920999999999
#
# number of rings (size 3 to 8) (size 9 to 14) (size 15 to 20)
#    0.000    1.429    4.286    0.429    6.000    0.571 
#    0.000    0.714    0.000    0.000    0.000    0.000 
#    0.000    0.000    0.000    0.000    0.000    0.000 
#
# Total GULP energy -156224.222568 kJ/mol
# GULP energy per Si atom -5579.436520 kJ/mol
# Density = 2.094813 g / cm^3
# Si number density = 20.995921 Si / 1000 Ang^3
#
#
#
# Elastic Constant Matrix: (Units=GPa)
#
#
# Indices 1 2 3 4 5 6 
#
# 1 125.3925 46.4392 28.6814 0.0000 30.5158 0.0000
# 2 46.4392 74.0111 11.2764 0.0000 10.7175 0.0000
# 3 28.6814 11.2764 49.7954 0.0000 5.1922 0.0000
# 4 0.0000 0.0000 0.0000 25.3410 0.0000 15.6527
# 5 30.5158 10.7175 5.1922 0.0000 31.3242 0.0000
# 6 0.0000 0.0000 0.0000 15.6527 0.0000 -5.7452
#
#
#
# Elastic Compliance Matrix: (Units=1/GPa)
#
#
# Indices 1 2 3 4 5 6 
#
# 1 0.014315 -0.006565 -0.005636 0.000000 -0.010766 0.000000
# 2 -0.006565 0.017609 -0.000249 0.000000 0.000412 0.000000
# 3 -0.005636 -0.000249 0.023205 0.000000 0.001730 0.000000
# 4 0.000000 0.000000 0.000000 0.014709 0.000000 0.040074
# 5 -0.010766 0.000412 0.001730 0.000000 0.041984 0.000000
# 6 0.000000 0.000000 0.000000 0.040074 0.000000 -0.064878
#
#
# Mechanical properties :
#
#
# Convention : Reuss Voigt Hill
#
# Bulk Modulus (GPa) = 33.08162 46.88812 39.98487
# Shear Modulus (GPa) = 61.03431 21.03746 41.03588
#
# Velocity S-wave (km/s) = 5.39747 3.16884 4.42573
# Velocity P-wave (km/s) = 7.39148 5.98074 6.72322
#
# Compressibility (1/GPa) = 0.03022826
#
# Stress axis : x y z
#
# Youngs Moduli (GPa) = 69.85531 56.78935 43.09464
#
# Poissons Ratio (x) = 0.37280 0.24289
# Poissons Ratio (y) = 0.45857 0.01075
# Poissons Ratio (z) = 0.39373 0.01417
#
# Static dielectric constant tensor:
#      x y z
#    x 1.737860 0.000000 0.019990 
#    y 0.000000 1.759770 0.000000 
#    z 0.019990 0.000000 1.809060 
# 
# From -- ./inp_files/41813.got.cif
#   From: 2010.05.17/outbox.cif.g08.bks.cpg/sg14_21_cif.got.tgz:41813.got - 2010.06.03 17:49:19.
