data_PCOD9244606
_publ_section_title
;
Structure prediction by ZEFSAII (Michael W. Deem and Ramdas Pophale) SiO2 
 PCOD9244606
Probable space group: P 21/C
;
_chemical_formula_sum "Si O2"
_cell_formula_units_Z 26
_cell_length_a 8.003702
_cell_length_b 15.456644
_cell_length_c 13.920458
_cell_angle_alpha 90.000000
_cell_angle_beta 143.864422
_cell_angle_gamma 90.000000
_cell_volume 1015.521845
_symmetry_space_group_name_H-M "P 21/C"
_symmetry_group_IT_number 14
_symmetry_cell_setting 'monoclinic'
loop_
_space_group_symop_operation_xyz
x,y,z
-x,1/2+y,1/2-z
-x,-y,-z
x,1/2-y,1/2+z
loop_
_atom_site_type_symbol
_atom_site_label
_atom_site_fract_x
_atom_site_fract_y
_atom_site_fract_z
Si Si1 0.000000 0.000000 0.500000
Si Si2 0.617479 0.835822 0.209756
Si Si3 0.899007 0.434541 0.158999
Si Si4 0.150149 0.261999 0.995746
Si Si5 0.395624 0.865284 0.785104
Si Si6 0.371308 0.323978 0.896590
Si Si7 0.180214 0.922949 0.894766
O O1 0.083370 0.997323 0.424587
O O2 0.277169 0.936812 0.657017
O O3 0.894847 0.856314 0.275561
O O4 0.732900 0.830783 0.370843
O O5 0.496143 0.746225 0.113714
O O6 0.395190 0.910105 0.081669
O O7 0.587953 0.398751 0.024220
O O8 0.041396 0.484178 0.313038
O O9 0.287062 0.169722 0.085945
O O10 0.285968 0.280910 0.956524
O O11 0.817891 0.282227 0.830672
O O12 0.345023 0.896205 0.872233
O O13 0.084620 0.359497 0.717754
#
# Coordination Sequence:
#
# PCOD9244606 Si02
#       7
#     2   4   4   4   4   4   4
#     4  10  20  42  64  94 122 174 212 250 332 386
#     4  12  23  41  65  98 126 169 217 266 317 383
#     4  11  23  42  69  90 131 173 213 262 324 383
#     4  11  24  40  66  96 129 166 219 263 322 380
#     4  10  21  41  64  91 126 167 209 268 313 384
#     4  11  24  43  66  98 127 170 214 267 316 384
#     4  10  23  41  64  93 130 165 212 263 324 376
#
# _framework density 25.602599000000001
#
# number of rings (size 3 to 8) (size 9 to 14) (size 15 to 20)
#    0.000    1.231    3.077    2.769    4.308    0.000 
#    0.000    0.769    0.000    0.000    0.000    0.000 
#    0.000    0.000    0.000    0.000    0.000    0.000 
#
# Total GULP energy -145133.787130 kJ/mol
# GULP energy per Si atom -5582.068736 kJ/mol
# Density = 2.554433 g / cm^3
# Si number density = 25.602599 Si / 1000 Ang^3
#
#
#
# Elastic Constant Matrix: (Units=GPa)
#
#
# Indices 1 2 3 4 5 6 
#
# 1 42.2346 1.2704 17.6056 0.0000 -11.7949 0.0000
# 2 1.2704 53.2857 32.0764 0.0000 -0.6667 0.0000
# 3 17.6056 32.0764 116.6893 0.0000 1.8410 0.0000
# 4 0.0000 0.0000 0.0000 53.2952 0.0000 4.1833
# 5 -11.7949 -0.6667 1.8410 0.0000 30.0062 0.0000
# 6 0.0000 0.0000 0.0000 4.1833 0.0000 19.0928
#
#
#
# Elastic Compliance Matrix: (Units=1/GPa)
#
#
# Indices 1 2 3 4 5 6 
#
# 1 0.029113 0.002649 -0.005307 0.000000 0.011828 0.000000
# 2 0.002649 0.022752 -0.006685 0.000000 0.001957 0.000000
# 3 -0.005307 -0.006685 0.011254 0.000000 -0.002925 0.000000
# 4 0.000000 0.000000 0.000000 0.019092 0.000000 -0.004183
# 5 0.011828 0.001957 -0.002925 0.000000 0.038199 0.000000
# 6 0.000000 0.000000 0.000000 -0.004183 0.000000 0.053292
#
#
# Mechanical properties :
#
#
# Convention : Reuss Voigt Hill
#
# Bulk Modulus (GPa) = 22.50579 34.90159 28.70369
# Shear Modulus (GPa) = 24.13126 31.22931 27.68029
#
# Velocity S-wave (km/s) = 3.07340 3.49631 3.29165
# Velocity P-wave (km/s) = 4.62643 5.47362 5.06776
#
# Compressibility (1/GPa) = 0.04443300
#
# Stress axis : x y z
#
# Youngs Moduli (GPa) = 34.34869 43.95196 88.85569
#
# Poissons Ratio (x) = -0.11642 0.47157
# Poissons Ratio (y) = -0.09098 0.59398
# Poissons Ratio (z) = 0.18229 0.29381
#
# Static dielectric constant tensor:
#      x y z
#    x 1.942210 0.000000 0.027690 
#    y 0.000000 2.281650 0.000000 
#    z 0.027690 0.000000 2.014880 
# 
# From -- ./inp_files/41430.got.cif
#   From: 2010.05.17/outbox.cif.g08.bks.cpg/sg14_21_cif.got.tgz:41430.got - 2010.06.03 17:49:19.
