data_PCOD9244036
_publ_section_title
;
Structure prediction by ZEFSAII (Michael W. Deem and Ramdas Pophale) SiO2 
 PCOD9244036
Probable space group: P 21/C
;
_chemical_formula_sum "Si O2"
_cell_formula_units_Z 32
_cell_length_a 13.703813
_cell_length_b 14.848147
_cell_length_c 20.226420
_cell_angle_alpha 90.000000
_cell_angle_beta 22.367375
_cell_angle_gamma 90.000000
_cell_volume 1566.164691
_symmetry_space_group_name_H-M "P 21/C"
_symmetry_group_IT_number 14
_symmetry_cell_setting 'monoclinic'
loop_
_space_group_symop_operation_xyz
x,y,z
-x,1/2+y,1/2-z
-x,-y,-z
x,1/2-y,1/2+z
loop_
_atom_site_type_symbol
_atom_site_label
_atom_site_fract_x
_atom_site_fract_y
_atom_site_fract_z
Si Si1 0.633844 0.638337 0.953772
Si Si2 0.141326 0.766690 0.287944
Si Si3 0.807164 0.919859 0.110689
Si Si4 0.641078 0.059399 0.504038
Si Si5 0.133366 0.757847 0.437470
Si Si6 0.513817 0.099737 0.967722
Si Si7 0.651585 0.841448 0.074449
Si Si8 0.949828 0.798049 0.699396
O O1 0.697062 0.547257 0.955806
O O2 0.872927 0.702924 0.782847
O O3 0.398449 0.701601 0.130700
O O4 0.508640 0.598467 0.965485
O O5 0.058574 0.800952 0.412860
O O6 0.213570 0.852740 0.200299
O O7 0.911804 0.712546 0.400259
O O8 0.556593 0.931866 0.311762
O O9 0.720573 0.910833 0.089073
O O10 0.980928 0.835056 0.023480
O O11 0.000000 0.000000 0.000000
O O12 0.873897 0.128823 0.372645
O O13 0.439189 0.774144 0.239028
O O14 0.059340 0.788697 0.556980
O O15 0.432596 0.113796 0.941616
O O16 0.327202 0.156351 0.130812
O O17 0.500000 0.000000 0.000000
#
# Coordination Sequence:
#
# PCOD9244036 Si02
#       8
#     4   4   4   4   4   4   4   4
#     4  10  22  41  65  95 131 169 223 278 327 392
#     4   9  20  41  69  90 130 177 221 273 330 396
#     4  11  22  39  64  98 134 165 228 279 322 397
#     4  11  21  39  68  96 128 174 221 273 330 397
#     4  10  20  39  64  93 129 168 215 275 333 391
#     4  10  23  45  64  97 135 171 221 277 335 402
#     4  10  20  42  67  92 130 181 218 264 342 399
#     4  11  22  42  65  98 129 171 219 278 336 396
#
# _framework density 20.432079000000002
#
# number of rings (size 3 to 8) (size 9 to 14) (size 15 to 20)
#    0.000    1.750    2.500    2.250    0.000    1.000 
#   13.500    5.000    0.000    0.000    0.000    0.000 
#    0.000    0.000    0.000    0.000    0.000    0.000 
#
# Total GULP energy -178237.955708 kJ/mol
# GULP energy per Si atom -5569.936116 kJ/mol
# Density = 2.038558 g / cm^3
# Si number density = 20.432079 Si / 1000 Ang^3
#
#
#
# Elastic Constant Matrix: (Units=GPa)
#
#
# Indices 1 2 3 4 5 6 
#
# 1 92.0134 35.8073 44.5660 0.0000 16.5862 0.0000
# 2 35.8073 128.1584 67.5881 0.0000 10.3632 0.0000
# 3 44.5660 67.5881 129.3323 0.0000 24.5192 0.0000
# 4 0.0000 0.0000 0.0000 30.0825 0.0000 -3.9841
# 5 16.5862 10.3632 24.5192 0.0000 27.9564 0.0000
# 6 0.0000 0.0000 0.0000 -3.9841 0.0000 35.4805
#
#
#
# Elastic Compliance Matrix: (Units=1/GPa)
#
#
# Indices 1 2 3 4 5 6 
#
# 1 0.013911 -0.002009 -0.002783 0.000000 -0.005068 0.000000
# 2 -0.002009 0.011092 -0.005458 0.000000 0.001868 0.000000
# 3 -0.002783 -0.005458 0.013010 0.000000 -0.007736 0.000000
# 4 0.000000 0.000000 0.000000 0.033744 0.000000 0.003789
# 5 -0.005068 0.001868 -0.007736 0.000000 0.044869 0.000000
# 6 0.000000 0.000000 0.000000 0.003789 0.000000 0.028610
#
#
# Mechanical properties :
#
#
# Convention : Reuss Voigt Hill
#
# Bulk Modulus (GPa) = 57.10228 71.71408 64.40818
# Shear Modulus (GPa) = 29.14192 32.14005 30.64099
#
# Velocity S-wave (km/s) = 3.78071 3.97043 3.87673
# Velocity P-wave (km/s) = 6.86050 7.49627 7.18542
#
# Compressibility (1/GPa) = 0.01751243
#
# Stress axis : x y z
#
# Youngs Moduli (GPa) = 71.88404 90.15708 76.86447
#
# Poissons Ratio (x) = 0.18117 0.21389
# Poissons Ratio (y) = 0.14445 0.41953
# Poissons Ratio (z) = 0.20003 0.49209
#
# Static dielectric constant tensor:
#      x y z
#    x 1.767640 0.000000 -0.019480 
#    y 0.000000 1.734770 0.000000 
#    z -0.019480 0.000000 1.659520 
# 
# From -- ./inp_files/68702.got.cif
#   From: 2010.05.17/outbox.cif.g08.bks.cpg/sg14_35_cif.got.tgz:68702.got - 2010.06.03 17:49:19.
