data_PCOD9244328
_publ_section_title
;
Structure prediction by ZEFSAII (Michael W. Deem and Ramdas Pophale) SiO2 
 PCOD9244328
Probable space group: P 21/C
;
_chemical_formula_sum "Si O2"
_cell_formula_units_Z 32
_cell_length_a 17.121741
_cell_length_b 11.070706
_cell_length_c 14.641458
_cell_angle_alpha 90.000000
_cell_angle_beta 32.024030
_cell_angle_gamma 90.000000
_cell_volume 1471.663878
_symmetry_space_group_name_H-M "P 21/C"
_symmetry_group_IT_number 14
_symmetry_cell_setting 'monoclinic'
loop_
_space_group_symop_operation_xyz
x,y,z
-x,1/2+y,1/2-z
-x,-y,-z
x,1/2-y,1/2+z
loop_
_atom_site_type_symbol
_atom_site_label
_atom_site_fract_x
_atom_site_fract_y
_atom_site_fract_z
Si Si1 0.856192 0.383961 0.540686
Si Si2 0.296891 0.771182 0.643719
Si Si3 0.968130 0.662244 0.171148
Si Si4 0.790402 0.876246 0.030607
Si Si5 0.390563 0.328513 0.717133
Si Si6 0.532634 0.980931 0.177848
Si Si7 0.259369 0.814045 0.469723
Si Si8 0.748997 0.499556 0.289584
O O1 0.758960 0.367228 0.727575
O O2 0.764973 0.318832 0.548582
O O3 0.997736 0.295348 0.402583
O O4 0.114555 0.478160 0.513162
O O5 0.471600 0.742136 0.464847
O O6 0.248623 0.805049 0.589303
O O7 0.226744 0.642981 0.744362
O O8 0.865732 0.666765 0.362426
O O9 0.893272 0.573522 0.174077
O O10 0.124051 0.615504 0.056473
O O11 0.743579 0.761401 0.134721
O O12 0.636431 0.943434 0.158300
O O13 0.449853 0.389937 0.752388
O O14 0.334900 0.437854 0.710088
O O15 0.410423 0.877026 0.293372
O O16 0.639475 0.986711 0.984697
#
# Coordination Sequence:
#
# PCOD9244328 Si02
#       8
#     4   4   4   4   4   4   4   4
#     4  10  23  41  66  93 136 173 211 277 336 389
#     4  11  21  41  69 101 130 175 224 277 337 394
#     4   9  24  41  63  93 130 183 215 270 340 393
#     4  11  23  43  66  94 140 173 217 277 334 406
#     4  11  22  38  66 100 128 168 234 276 333 394
#     4  10  20  40  66  95 127 174 220 276 330 390
#     4  10  20  41  66  97 129 174 222 268 344 394
#     4  10  21  41  65  96 130 172 228 283 317 395
#
# _framework density 21.744095999999999
#
# number of rings (size 3 to 8) (size 9 to 14) (size 15 to 20)
#    0.750    1.000    1.250    5.250    0.000    3.000 
#    0.000    2.500    0.000    0.000    0.000    0.000 
#    0.000    0.000    0.000    0.000    0.000    0.000 
#
# Total GULP energy -178635.139656 kJ/mol
# GULP energy per Si atom -5582.348114 kJ/mol
# Density = 2.169461 g / cm^3
# Si number density = 21.744096 Si / 1000 Ang^3
#
#
#
# Elastic Constant Matrix: (Units=GPa)
#
#
# Indices 1 2 3 4 5 6 
#
# 1 62.8439 -11.1133 6.0130 0.0000 2.0992 0.0000
# 2 -11.1133 61.5367 16.6661 0.0000 3.0463 0.0000
# 3 6.0130 16.6661 47.0778 0.0000 -0.8305 0.0000
# 4 0.0000 0.0000 0.0000 27.5887 0.0000 -0.4171
# 5 2.0992 3.0463 -0.8305 0.0000 40.8096 0.0000
# 6 0.0000 0.0000 0.0000 -0.4171 0.0000 20.5701
#
#
#
# Elastic Compliance Matrix: (Units=1/GPa)
#
#
# Indices 1 2 3 4 5 6 
#
# 1 0.017035 0.004130 -0.003660 0.000000 -0.001259 0.000000
# 2 0.004130 0.019064 -0.007308 0.000000 -0.001784 0.000000
# 3 -0.003660 -0.007308 0.024318 0.000000 0.001229 0.000000
# 4 0.000000 0.000000 0.000000 0.036258 0.000000 0.000735
# 5 -0.001259 -0.001784 0.001229 0.000000 0.024727 0.000000
# 6 0.000000 0.000000 0.000000 0.000735 0.000000 0.048629
#
#
# Mechanical properties :
#
#
# Convention : Reuss Voigt Hill
#
# Bulk Modulus (GPa) = 21.39456 21.62111 21.50784
# Shear Modulus (GPa) = 25.08949 28.45318 26.77133
#
# Velocity S-wave (km/s) = 3.40053 3.62131 3.51265
# Velocity P-wave (km/s) = 5.02779 5.23929 5.13463
#
# Compressibility (1/GPa) = 0.04674085
#
# Stress axis : x y z
#
# Youngs Moduli (GPa) = 58.70247 52.45529 41.12238
#
# Poissons Ratio (x) = -0.21664 0.15051
# Poissons Ratio (y) = -0.24244 0.30051
# Poissons Ratio (z) = 0.21486 0.38333
#
# Static dielectric constant tensor:
#      x y z
#    x 1.820910 0.000000 -0.034170 
#    y 0.000000 1.802950 0.000000 
#    z -0.034170 0.000000 1.805820 
# 
# From -- ./inp_files/47282.got.cif
#   From: 2010.05.17/outbox.cif.g08.bks.cpg/sg14_24_cif.got.tgz:47282.got - 2010.06.03 17:49:19.
