data_PCOD9244906
_publ_section_title
;
Structure prediction by ZEFSAII (Michael W. Deem and Ramdas Pophale) SiO2 
 PCOD9244906
Probable space group: P 21/C
;
_chemical_formula_sum "Si O2"
_cell_formula_units_Z 32
_cell_length_a 10.121075
_cell_length_b 12.535734
_cell_length_c 27.154174
_cell_angle_alpha 90.000000
_cell_angle_beta 27.472516
_cell_angle_gamma 90.000000
_cell_volume 1589.345016
_symmetry_space_group_name_H-M "P 21/C"
_symmetry_group_IT_number 14
_symmetry_cell_setting 'monoclinic'
loop_
_space_group_symop_operation_xyz
x,y,z
-x,1/2+y,1/2-z
-x,-y,-z
x,1/2-y,1/2+z
loop_
_atom_site_type_symbol
_atom_site_label
_atom_site_fract_x
_atom_site_fract_y
_atom_site_fract_z
Si Si1 0.691055 0.646480 0.504003
Si Si2 0.392418 0.425172 0.726047
Si Si3 0.423684 0.379882 0.280240
Si Si4 0.993511 0.316048 0.932173
Si Si5 0.783086 0.534689 0.320393
Si Si6 0.862959 0.242422 0.578855
Si Si7 0.060737 0.476599 0.321061
Si Si8 0.414019 0.704439 0.502308
O O1 0.439891 0.564716 0.602743
O O2 0.566523 0.727022 0.503841
O O3 0.849261 0.703225 0.496415
O O4 0.922695 0.572529 0.398618
O O5 0.553712 0.534430 0.684416
O O6 0.201972 0.398367 0.836599
O O7 0.192012 0.435707 0.744663
O O8 0.628331 0.332375 0.640952
O O9 0.174650 0.294911 0.372980
O O10 0.716630 0.318484 0.172794
O O11 0.341361 0.439493 0.256464
O O12 0.912701 0.332157 0.015332
O O13 0.723446 0.295521 0.985695
O O14 0.628058 0.634099 0.398382
O O15 0.051854 0.507195 0.266521
O O16 0.840526 0.377806 0.399321
#
# Coordination Sequence:
#
# PCOD9244906 Si02
#       8
#     4   4   4   4   4   4   4   4
#     4   9  16  29  56  82 101 129 174 223 267 303
#     4  11  21  34  54  78 107 142 177 221 262 320
#     4  10  21  35  53  79 110 137 179 220 263 319
#     4  10  21  35  53  79 108 140 181 214 264 319
#     4   9  16  29  56  81  98 134 175 219 273 298
#     4  11  21  34  54  78 107 146 172 219 275 307
#     4   8  15  30  52  80 104 127 169 223 264 312
#     4   8  15  30  52  79 103 127 169 223 265 310
#
# _framework density 20.134080999999998
#
# number of rings (size 3 to 8) (size 9 to 14) (size 15 to 20)
#    0.000    2.500    2.500    2.250    0.000    1.500 
#    0.000    2.500    8.250    1.500    0.000    0.000 
#    0.000    0.000    0.000    0.000    0.000    0.000 
#
# Total GULP energy -178373.430027 kJ/mol
# GULP energy per Si atom -5574.169688 kJ/mol
# Density = 2.008825 g / cm^3
# Si number density = 20.134081 Si / 1000 Ang^3
#
#
#
# Elastic Constant Matrix: (Units=GPa)
#
#
# Indices 1 2 3 4 5 6 
#
# 1 94.1965 -2.7537 -0.0595 0.0000 2.9424 0.0000
# 2 -2.7537 8.2158 -9.2558 0.0000 -2.5404 0.0000
# 3 -0.0595 -9.2558 23.7569 0.0000 6.2478 0.0000
# 4 0.0000 0.0000 0.0000 4.2137 0.0000 -1.1842
# 5 2.9424 -2.5404 6.2478 0.0000 23.3875 0.0000
# 6 0.0000 0.0000 0.0000 -1.1842 0.0000 15.9115
#
#
#
# Elastic Compliance Matrix: (Units=1/GPa)
#
#
# Indices 1 2 3 4 5 6 
#
# 1 0.010853 0.006505 0.002941 0.000000 -0.001445 0.000000
# 2 0.006505 0.220858 0.086012 0.000000 0.000194 0.000000
# 3 0.002941 0.086012 0.078787 0.000000 -0.012075 0.000000
# 4 0.000000 0.000000 0.000000 0.242393 0.000000 0.018041
# 5 -0.001445 0.000194 -0.012075 0.000000 0.046186 0.000000
# 6 0.000000 0.000000 0.000000 0.018041 0.000000 0.064190
#
#
# Mechanical properties :
#
#
# Convention : Reuss Voigt Hill
#
# Bulk Modulus (GPa) = 1.99436 11.33680 6.66558
# Shear Modulus (GPa) = 7.81874 17.91841 12.86858
#
# Velocity S-wave (km/s) = 1.97276 2.98645 2.53087
# Velocity P-wave (km/s) = 2.48631 4.18744 3.44357
#
# Compressibility (1/GPa) = 0.50141425
#
# Stress axis : x y z
#
# Youngs Moduli (GPa) = 92.13835 4.52780 12.69252
#
# Poissons Ratio (x) = -0.02945 -0.03733
# Poissons Ratio (y) = -0.59933 -1.09171
# Poissons Ratio (z) = -0.27101 -0.38945
#
# Static dielectric constant tensor:
#      x y z
#    x 1.748830 0.000000 -0.001220 
#    y 0.000000 1.732930 0.000000 
#    z -0.001220 0.000000 1.700320 
# 
# From -- ./inp_files/40939.got.cif
#   From: 2010.05.17/outbox.cif.g08.bks.cpg/sg14_21_cif.got.tgz:40939.got - 2010.06.03 17:49:19.
