data_PCOD9244438
_publ_section_title
;
Structure prediction by ZEFSAII (Michael W. Deem and Ramdas Pophale) SiO2 
 PCOD9244438
Probable space group: P 21/C
;
_chemical_formula_sum "Si O2"
_cell_formula_units_Z 24
_cell_length_a 13.422028
_cell_length_b 7.075209
_cell_length_c 9.862955
_cell_angle_alpha 90.000000
_cell_angle_beta 92.395698
_cell_angle_gamma 90.000000
_cell_volume 935.803605
_symmetry_space_group_name_H-M "P 21/C"
_symmetry_group_IT_number 14
_symmetry_cell_setting 'monoclinic'
loop_
_space_group_symop_operation_xyz
x,y,z
-x,1/2+y,1/2-z
-x,-y,-z
x,1/2-y,1/2+z
loop_
_atom_site_type_symbol
_atom_site_label
_atom_site_fract_x
_atom_site_fract_y
_atom_site_fract_z
Si Si1 0.150654 0.326619 0.411812
Si Si2 0.865945 0.226113 0.206195
Si Si3 0.531421 0.626522 0.186347
Si Si4 0.068026 0.392693 0.141770
Si Si5 0.640152 0.249434 0.652866
Si Si6 0.632998 0.887729 0.983583
O O1 0.127295 0.552134 0.403300
O O2 0.136831 0.277593 0.253346
O O3 0.078832 0.205664 0.499998
O O4 0.260376 0.297177 0.476226
O O5 0.753797 0.301282 0.196269
O O6 0.955617 0.369352 0.188445
O O7 0.888302 0.103285 0.343090
O O8 0.417259 0.639714 0.228913
O O9 0.557735 0.793562 0.086148
O O10 0.595023 0.640823 0.329975
O O11 0.428135 0.567188 0.875134
O O12 0.643747 0.394529 0.528581
#
# Coordination Sequence:
#
# PCOD9244438 Si02
#       6
#     4   4   4   4   4   4
#     4   9  21  39  68  92 139 176 234 285 348 425
#     4   9  23  41  67 100 139 173 245 283 354 430
#     4  12  26  46  78 100 158 188 239 307 357 431
#     4  10  20  41  62  93 133 184 216 301 338 418
#     4  11  25  47  69 115 138 194 241 300 356 436
#     4  11  25  47  72 113 142 196 245 292 368 430
#
# _framework density 25.646405999999999
#
# number of rings (size 3 to 8) (size 9 to 14) (size 15 to 20)
#    1.000    0.667    1.667    2.000    0.000    5.333 
#    3.000    0.000    0.000    0.000    0.000    0.000 
#    0.000    0.000    0.000    0.000    0.000    0.000 
#
# Total GULP energy -134346.241202 kJ/mol
# GULP energy per Si atom -5597.760050 kJ/mol
# Density = 2.558803 g / cm^3
# Si number density = 25.646406 Si / 1000 Ang^3
#
#
#
# Elastic Constant Matrix: (Units=GPa)
#
#
# Indices 1 2 3 4 5 6 
#
# 1 124.2489 -5.0264 12.7871 0.0000 36.3640 0.0000
# 2 -5.0264 57.9451 3.9260 0.0000 3.7743 0.0000
# 3 12.7871 3.9260 124.2928 0.0000 14.8935 0.0000
# 4 0.0000 0.0000 0.0000 33.6375 0.0000 2.6817
# 5 36.3640 3.7743 14.8935 0.0000 30.8649 0.0000
# 6 0.0000 0.0000 0.0000 2.6817 0.0000 37.9366
#
#
#
# Elastic Compliance Matrix: (Units=1/GPa)
#
#
# Indices 1 2 3 4 5 6 
#
# 1 0.012550 0.002051 0.000473 0.000000 -0.015266 0.000000
# 2 0.002051 0.017743 -0.000236 0.000000 -0.004472 0.000000
# 3 0.000473 -0.000236 0.008563 0.000000 -0.004661 0.000000
# 4 0.000000 0.000000 0.000000 0.029897 0.000000 -0.002113
# 5 -0.015266 -0.004472 -0.004661 0.000000 0.053181 0.000000
# 6 0.000000 0.000000 0.000000 -0.002113 0.000000 0.026509
#
#
# Mechanical properties :
#
#
# Convention : Reuss Voigt Hill
#
# Bulk Modulus (GPa) = 23.02371 36.65116 29.83744
# Shear Modulus (GPa) = 31.57688 40.14112 35.85900
#
# Velocity S-wave (km/s) = 3.51271 3.96052 3.74332
# Velocity P-wave (km/s) = 5.04470 5.93602 5.50842
#
# Compressibility (1/GPa) = 0.04343348
#
# Stress axis : x y z
#
# Youngs Moduli (GPa) = 79.67839 56.36061 116.78514
#
# Poissons Ratio (x) = -0.11559 -0.05527
# Poissons Ratio (y) = -0.16342 0.02751
# Poissons Ratio (z) = -0.03771 0.01327
#
# Static dielectric constant tensor:
#      x y z
#    x 1.986450 0.000000 0.019560 
#    y 0.000000 2.052400 0.000000 
#    z 0.019560 0.000000 2.042320 
# 
# From -- ./inp_files/15396.got.cif
#   From: 2010.05.17/outbox.cif.g08.bks.cpg/sg14_8_cif.got.tgz:15396.got - 2010.06.03 17:49:19.
