data_PCOD9244752
_publ_section_title
;
Structure prediction by ZEFSAII (Michael W. Deem and Ramdas Pophale) SiO2 
 PCOD9244752
Probable space group: P 21/C
;
_chemical_formula_sum "Si O2"
_cell_formula_units_Z 28
_cell_length_a 9.375292
_cell_length_b 30.229787
_cell_length_c 6.445465
_cell_angle_alpha 90.000000
_cell_angle_beta 129.781321
_cell_angle_gamma 90.000000
_cell_volume 1403.826992
_symmetry_space_group_name_H-M "P 21/C"
_symmetry_group_IT_number 14
_symmetry_cell_setting 'monoclinic'
loop_
_space_group_symop_operation_xyz
x,y,z
-x,1/2+y,1/2-z
-x,-y,-z
x,1/2-y,1/2+z
loop_
_atom_site_type_symbol
_atom_site_label
_atom_site_fract_x
_atom_site_fract_y
_atom_site_fract_z
Si Si1 0.666343 0.894032 0.896963
Si Si2 0.293059 0.491473 0.733262
Si Si3 0.002393 0.531690 0.199988
Si Si4 0.388985 0.755174 0.781160
Si Si5 0.373008 0.330217 0.027270
Si Si6 0.373565 0.647240 0.372181
Si Si7 0.056466 0.131735 0.492361
O O1 0.712562 0.943740 0.880215
O O2 0.648584 0.861456 0.688423
O O3 0.471337 0.891862 0.837882
O O4 0.828186 0.874894 0.191330
O O5 0.153937 0.488168 0.795944
O O6 0.203149 0.527247 0.495663
O O7 0.500000 0.500000 0.000000
O O8 0.954385 0.582661 0.115676
O O9 0.000000 0.500000 0.000000
O O10 0.308736 0.749212 0.458354
O O11 0.439225 0.806565 0.831489
O O12 0.554847 0.719489 0.941981
O O13 0.179265 0.334808 0.969733
O O14 0.536038 0.352099 0.317490
O O15 0.153311 0.646569 0.168307
#
# Coordination Sequence:
#
# PCOD9244752 Si02
#       7
#     4   4   4   4   4   4   4
#     4  11  22  42  63  95 131 173 227 278 339 411
#     4  11  26  40  64  96 129 181 226 276 347 406
#     4  11  24  43  59  92 139 169 222 288 326 409
#     4  10  20  43  69  97 137 178 226 289 354 412
#     4  10  22  43  67  91 136 172 221 284 338 415
#     4  10  24  40  68  96 127 179 221 280 346 422
#     4  11  24  42  66  99 132 177 227 278 354 406
#
# _framework density 19.945478000000001
#
# number of rings (size 3 to 8) (size 9 to 14) (size 15 to 20)
#    0.000    1.429    4.286    0.000    4.000    1.714 
#    0.000    8.571    0.000    0.000    0.000    0.000 
#    0.000    0.000    0.000    0.000    0.000    0.000 
#
# Total GULP energy -155921.004052 kJ/mol
# GULP energy per Si atom -5568.607288 kJ/mol
# Density = 1.990008 g / cm^3
# Si number density = 19.945478 Si / 1000 Ang^3
#
#
#
# Elastic Constant Matrix: (Units=GPa)
#
#
# Indices 1 2 3 4 5 6 
#
# 1 82.3004 18.5993 68.4719 0.0000 20.4173 0.0000
# 2 18.5993 39.5212 2.5147 0.0000 -8.5552 0.0000
# 3 68.4719 2.5147 89.2566 0.0000 0.4926 0.0000
# 4 0.0000 0.0000 0.0000 24.7285 0.0000 -14.0597
# 5 20.4173 -8.5552 0.4926 0.0000 35.3395 0.0000
# 6 0.0000 0.0000 0.0000 -14.0597 0.0000 22.5392
#
#
#
# Elastic Compliance Matrix: (Units=1/GPa)
#
#
# Indices 1 2 3 4 5 6 
#
# 1 0.166500 -0.095918 -0.124377 0.000000 -0.117682 0.000000
# 2 -0.095918 0.082015 0.070862 0.000000 0.074283 0.000000
# 3 -0.124377 0.070862 0.104138 0.000000 0.087561 0.000000
# 4 0.000000 0.000000 0.000000 0.062664 0.000000 0.039089
# 5 -0.117682 0.074283 0.087561 0.000000 0.113049 0.000000
# 6 0.000000 0.000000 0.000000 0.039089 0.000000 0.068750
#
#
# Mechanical properties :
#
#
# Convention : Reuss Voigt Hill
#
# Bulk Modulus (GPa) = 18.59206 43.36112 30.97659
# Shear Modulus (GPa) = 5.47099 24.62092 15.04596
#
# Velocity S-wave (km/s) = 1.65799 3.51723 2.74953
# Velocity P-wave (km/s) = 3.60651 6.18721 5.06401
#
# Compressibility (1/GPa) = 0.05378641
#
# Stress axis : x y z
#
# Youngs Moduli (GPa) = 6.00599 12.19295 9.60268
#
# Poissons Ratio (x) = 1.16953 1.19435
# Poissons Ratio (y) = 0.57608 -0.68046
# Poissons Ratio (z) = 0.74700 -0.86401
#
# Static dielectric constant tensor:
#      x y z
#    x 1.734280 0.000000 -0.058800 
#    y 0.000000 1.679830 0.000000 
#    z -0.058800 0.000000 1.749910 
# 
# From -- ./inp_files/2168.got.cif
#   From: 2010.05.17/outbox.cif.g08.bks.cpg/sg14_2_cif.got.tgz:2168.got - 2010.06.03 17:49:19.
