data_PCOD9244303
_publ_section_title
;
Structure prediction by ZEFSAII (Michael W. Deem and Ramdas Pophale) SiO2 
 PCOD9244303
Probable space group: P 21/C
;
_chemical_formula_sum "Si O2"
_cell_formula_units_Z 32
_cell_length_a 12.359614
_cell_length_b 14.284068
_cell_length_c 8.674543
_cell_angle_alpha 90.000000
_cell_angle_beta 108.105612
_cell_angle_gamma 90.000000
_cell_volume 1455.622714
_symmetry_space_group_name_H-M "P 21/C"
_symmetry_group_IT_number 14
_symmetry_cell_setting 'monoclinic'
loop_
_space_group_symop_operation_xyz
x,y,z
-x,1/2+y,1/2-z
-x,-y,-z
x,1/2-y,1/2+z
loop_
_atom_site_type_symbol
_atom_site_label
_atom_site_fract_x
_atom_site_fract_y
_atom_site_fract_z
Si Si1 0.413046 0.077960 0.518127
Si Si2 0.845814 0.943124 0.580023
Si Si3 0.020065 0.790996 0.538878
Si Si4 0.008310 0.892161 0.209401
Si Si5 0.444828 0.086641 0.888434
Si Si6 0.419063 0.776378 0.540127
Si Si7 0.216681 0.026947 0.808814
Si Si8 0.274676 0.673294 0.260476
O O1 0.280919 0.076997 0.411483
O O2 0.415024 0.063287 0.700629
O O3 0.478018 0.170618 0.495278
O O4 0.500000 0.000000 0.500000
O O5 0.932940 0.854986 0.603241
O O6 0.898578 0.030368 0.697874
O O7 0.825649 0.969168 0.389357
O O8 0.998086 0.822986 0.353859
O O9 0.015431 0.680168 0.571411
O O10 0.150298 0.815072 0.635768
O O11 0.893182 0.951192 0.140976
O O12 0.528883 0.173604 0.915194
O O13 0.316749 0.100078 0.896027
O O14 0.500000 0.000000 0.000000
O O15 0.309905 0.760337 0.382949
O O16 0.372076 0.826288 0.671994
O O17 0.267101 0.923431 0.849686
#
# Coordination Sequence:
#
# PCOD9244303 Si02
#       8
#     4   4   4   4   4   4   4   4
#     4  11  26  43  65  96 133 176 223 266 330 402
#     4  10  21  43  66  92 126 174 215 261 327 399
#     4  11  23  40  67  95 122 168 214 272 323 390
#     4  11  22  42  68  96 128 167 217 266 334 388
#     4  11  23  41  64  96 133 174 214 270 329 386
#     4  12  25  40  65  98 133 172 221 274 317 400
#     4  10  20  40  66  88 128 176 209 258 332 394
#     4  12  22  41  68  94 129 170 223 271 329 382
#
# _framework density 21.983719000000001
#
# number of rings (size 3 to 8) (size 9 to 14) (size 15 to 20)
#    0.000    1.000    5.000    3.000    3.500    0.000 
#    0.000    1.875    0.000    0.000    0.000    0.000 
#    0.000    0.000    0.000    0.000    0.000    0.000 
#
# Total GULP energy -178567.091359 kJ/mol
# GULP energy per Si atom -5580.221605 kJ/mol
# Density = 2.193368 g / cm^3
# Si number density = 21.983719 Si / 1000 Ang^3
#
#
#
# Elastic Constant Matrix: (Units=GPa)
#
#
# Indices 1 2 3 4 5 6 
#
# 1 127.2144 43.7287 17.0520 0.0000 30.7584 0.0000
# 2 43.7287 90.3672 15.3868 0.0000 14.3150 0.0000
# 3 17.0520 15.3868 29.9928 0.0000 13.1730 0.0000
# 4 0.0000 0.0000 0.0000 26.2457 0.0000 -0.3747
# 5 30.7584 14.3150 13.1730 0.0000 22.6662 0.0000
# 6 0.0000 0.0000 0.0000 -0.3747 0.0000 42.1071
#
#
#
# Elastic Compliance Matrix: (Units=1/GPa)
#
#
# Indices 1 2 3 4 5 6 
#
# 1 0.012851 -0.003991 0.001737 0.000000 -0.015928 0.000000
# 2 -0.003991 0.013883 -0.004540 0.000000 -0.000714 0.000000
# 3 0.001737 -0.004540 0.046269 0.000000 -0.026380 0.000000
# 4 0.000000 0.000000 0.000000 0.038106 0.000000 0.000339
# 5 -0.015928 -0.000714 -0.026380 0.000000 0.081515 0.000000
# 6 0.000000 0.000000 0.000000 0.000339 0.000000 0.023752
#
#
# Mechanical properties :
#
#
# Convention : Reuss Voigt Hill
#
# Bulk Modulus (GPa) = 16.83067 44.43437 30.63252
# Shear Modulus (GPa) = 20.01838 29.63093 24.82466
#
# Velocity S-wave (km/s) = 3.02089 3.67530 3.36405
# Velocity P-wave (km/s) = 4.45424 6.18601 5.39013
#
# Compressibility (1/GPa) = 0.05941533
#
# Stress axis : x y z
#
# Youngs Moduli (GPa) = 77.81542 72.02878 21.61256
#
# Poissons Ratio (x) = 0.28748 -0.03754
# Poissons Ratio (y) = 0.31058 0.09812
# Poissons Ratio (z) = -0.13516 0.32700
#
# Static dielectric constant tensor:
#      x y z
#    x 1.864900 0.000000 -0.000600 
#    y 0.000000 1.890350 0.000000 
#    z -0.000600 0.000000 1.825580 
# 
# From -- ./inp_files/13373.got.cif
#   From: 2010.05.17/outbox.cif.g08.bks.cpg/sg14_7_cif.got.tgz:13373.got - 2010.06.03 17:49:19.
