data_PCOD9244119
_publ_section_title
;
Structure prediction by ZEFSAII (Michael W. Deem and Ramdas Pophale) SiO2 
 PCOD9244119
Probable space group: P 21/C
;
_chemical_formula_sum "Si O2"
_cell_formula_units_Z 32
_cell_length_a 8.657410
_cell_length_b 28.637247
_cell_length_c 6.043126
_cell_angle_alpha 90.000000
_cell_angle_beta 115.874666
_cell_angle_gamma 90.000000
_cell_volume 1348.041168
_symmetry_space_group_name_H-M "P 21/C"
_symmetry_group_IT_number 14
_symmetry_cell_setting 'monoclinic'
loop_
_space_group_symop_operation_xyz
x,y,z
-x,1/2+y,1/2-z
-x,-y,-z
x,1/2-y,1/2+z
loop_
_atom_site_type_symbol
_atom_site_label
_atom_site_fract_x
_atom_site_fract_y
_atom_site_fract_z
Si Si1 0.818765 0.173519 0.932714
Si Si2 0.599531 0.030994 0.885406
Si Si3 0.539343 0.358681 0.913919
Si Si4 0.212629 0.901552 0.714726
Si Si5 0.848876 0.533878 0.331557
Si Si6 0.298236 0.399337 0.071477
Si Si7 0.436911 0.742324 0.217903
Si Si8 0.075569 0.379740 0.310645
O O1 0.667807 0.148470 0.699527
O O2 0.738588 0.225863 0.903325
O O3 0.991515 0.162426 0.900076
O O4 0.833382 0.144110 0.167064
O O5 0.468581 0.071015 0.728853
O O6 0.678105 0.997337 0.749002
O O7 0.762827 0.055893 0.104383
O O8 0.500000 0.000000 0.000000
O O9 0.602947 0.399216 0.793835
O O10 0.354637 0.366239 0.904149
O O11 0.574587 0.313102 0.791275
O O12 0.080312 0.900650 0.432305
O O13 0.837967 0.561373 0.092541
O O14 0.000000 0.500000 0.500000
O O15 0.856486 0.577061 0.505232
O O16 0.225217 0.369363 0.227698
O O17 0.514199 0.751555 0.513733
#
# Coordination Sequence:
#
# PCOD9244119 Si02
#       8
#     4   4   4   4   4   4   4   4
#     4  10  20  41  67 100 133 171 229 282 353 427
#     4  12  24  41  64  94 135 184 237 299 350 412
#     4  10  22  38  70 101 135 173 230 297 361 427
#     4  11  22  42  65  96 129 180 238 289 344 423
#     4  12  27  43  62  93 137 192 242 291 349 424
#     4  12  25  43  64 100 142 187 231 298 368 422
#     4  10  20  39  70 111 137 172 233 300 353 443
#     4  11  25  42  64  94 137 186 228 289 354 433
#
# _framework density 23.738149
#
# number of rings (size 3 to 8) (size 9 to 14) (size 15 to 20)
#    0.000    1.000    3.750    3.375    3.500    1.000 
#    0.000    0.000    0.000    9.000    0.000    0.000 
#    0.000    0.000    0.000    0.000    0.000    0.000 
#
# Total GULP energy -178453.111497 kJ/mol
# GULP energy per Si atom -5576.659734 kJ/mol
# Density = 2.368412 g / cm^3
# Si number density = 23.738149 Si / 1000 Ang^3
#
#
#
# Elastic Constant Matrix: (Units=GPa)
#
#
# Indices 1 2 3 4 5 6 
#
# 1 99.6092 38.1046 5.8157 0.0000 -17.6969 0.0000
# 2 38.1046 83.3283 4.2093 0.0000 -6.9308 0.0000
# 3 5.8157 4.2093 77.7783 0.0000 1.0216 0.0000
# 4 0.0000 0.0000 0.0000 31.5128 0.0000 -15.1092
# 5 -17.6969 -6.9308 1.0216 0.0000 42.3031 0.0000
# 6 0.0000 0.0000 0.0000 -15.1092 0.0000 32.9081
#
#
#
# Elastic Compliance Matrix: (Units=1/GPa)
#
#
# Indices 1 2 3 4 5 6 
#
# 1 0.013007 -0.005532 -0.000733 0.000000 0.004553 0.000000
# 2 -0.005532 0.014556 -0.000375 0.000000 0.000080 0.000000
# 3 -0.000733 -0.000375 0.012941 0.000000 -0.000681 0.000000
# 4 0.000000 0.000000 0.000000 0.040690 0.000000 0.018682
# 5 0.004553 0.000080 -0.000681 0.000000 0.025573 0.000000
# 6 0.000000 0.000000 0.000000 0.018682 0.000000 0.038965
#
#
# Mechanical properties :
#
#
# Convention : Reuss Voigt Hill
#
# Bulk Modulus (GPa) = 36.73283 39.66389 38.19836
# Shear Modulus (GPa) = 29.74625 35.51723 32.63174
#
# Velocity S-wave (km/s) = 3.54375 3.87228 3.71165
# Velocity P-wave (km/s) = 5.67909 6.06118 5.87324
#
# Compressibility (1/GPa) = 0.02722360
#
# Stress axis : x y z
#
# Youngs Moduli (GPa) = 76.88053 68.69976 77.27315
#
# Poissons Ratio (x) = 0.38007 0.05664
# Poissons Ratio (y) = 0.42532 0.02899
# Poissons Ratio (z) = 0.05635 0.02577
#
# Static dielectric constant tensor:
#      x y z
#    x 2.098590 0.000000 -0.033820 
#    y 0.000000 1.969680 0.000000 
#    z -0.033820 0.000000 1.962020 
# 
# From -- ./inp_files/2266.got.cif
#   From: 2010.05.17/outbox.cif.g08.bks.cpg/sg14_2_cif.got.tgz:2266.got - 2010.06.03 17:49:19.
