data_PCOD9244825
_publ_section_title
;
Structure prediction by ZEFSAII (Michael W. Deem and Ramdas Pophale) SiO2 
 PCOD9244825
Probable space group: P 21/C
;
_chemical_formula_sum "Si O2"
_cell_formula_units_Z 22
_cell_length_a 11.626601
_cell_length_b 9.678856
_cell_length_c 14.226384
_cell_angle_alpha 90.000000
_cell_angle_beta 147.844474
_cell_angle_gamma 90.000000
_cell_volume 852.043822
_symmetry_space_group_name_H-M "P 21/C"
_symmetry_group_IT_number 14
_symmetry_cell_setting 'monoclinic'
loop_
_space_group_symop_operation_xyz
x,y,z
-x,1/2+y,1/2-z
-x,-y,-z
x,1/2-y,1/2+z
loop_
_atom_site_type_symbol
_atom_site_label
_atom_site_fract_x
_atom_site_fract_y
_atom_site_fract_z
Si Si1 0.000000 0.500000 0.500000
Si Si2 0.574298 0.772277 0.179040
Si Si3 0.855870 0.880734 0.101085
Si Si4 0.068320 0.695802 0.006828
Si Si5 0.852864 0.141556 0.222071
Si Si6 0.465525 0.538299 0.224603
O O1 0.021924 0.427878 0.409787
O O2 0.116736 0.641456 0.539698
O O3 0.581784 0.607802 0.213118
O O4 0.813252 0.807561 0.309851
O O5 0.546204 0.880283 0.247980
O O6 0.380596 0.800779 0.973250
O O7 0.960079 0.735094 0.194651
O O8 0.878854 0.993508 0.195399
O O9 0.603298 0.884233 0.900682
O O10 0.111592 0.640532 0.142263
O O11 0.231378 0.607381 0.057577
#
# Coordination Sequence:
#
# PCOD9244825 Si02
#       6
#     2   4   4   4   4   4
#     4  10  20  46  66  94 140 176 216 280 328 402
#     4  11  24  42  66  97 128 178 220 267 338 399
#     4  10  22  44  67  98 134 177 223 278 330 400
#     4  11  23  44  66  97 136 171 222 278 338 392
#     4  10  23  42  65  98 130 168 228 269 332 401
#     4  11  23  43  68  93 137 172 219 279 330 401
#
# _framework density 25.820267999999999
#
# number of rings (size 3 to 8) (size 9 to 14) (size 15 to 20)
#    0.000    1.455    3.636    2.727    2.545    2.909 
#    9.818    1.818    0.000    0.000    0.000    0.000 
#    0.000    0.000    0.000    0.000    0.000    0.000 
#
# Total GULP energy -122660.717288 kJ/mol
# GULP energy per Si atom -5575.487149 kJ/mol
# Density = 2.576150 g / cm^3
# Si number density = 25.820268 Si / 1000 Ang^3
#
#
#
# Elastic Constant Matrix: (Units=GPa)
#
#
# Indices 1 2 3 4 5 6 
#
# 1 44.8549 2.6778 -3.8902 0.0000 -1.9346 0.0000
# 2 2.6778 70.2288 10.4568 0.0000 -0.1529 0.0000
# 3 -3.8902 10.4568 135.0359 0.0000 8.2402 0.0000
# 4 0.0000 0.0000 0.0000 32.5767 0.0000 -9.0806
# 5 -1.9346 -0.1529 8.2402 0.0000 26.1843 0.0000
# 6 0.0000 0.0000 0.0000 -9.0806 0.0000 25.4702
#
#
#
# Elastic Compliance Matrix: (Units=1/GPa)
#
#
# Indices 1 2 3 4 5 6 
#
# 1 0.022468 -0.000948 0.000632 0.000000 0.001456 0.000000
# 2 -0.000948 0.014450 -0.001170 0.000000 0.000382 0.000000
# 3 0.000632 -0.001170 0.007659 0.000000 -0.002370 0.000000
# 4 0.000000 0.000000 0.000000 0.034084 0.000000 0.012152
# 5 0.001456 0.000382 -0.002370 0.000000 0.039047 0.000000
# 6 0.000000 0.000000 0.000000 0.012152 0.000000 0.043594
#
#
# Mechanical properties :
#
#
# Convention : Reuss Voigt Hill
#
# Bulk Modulus (GPa) = 24.03463 29.84535 26.93999
# Shear Modulus (GPa) = 28.06757 32.90458 30.48608
#
# Velocity S-wave (km/s) = 3.30060 3.57371 3.43986
# Velocity P-wave (km/s) = 4.88405 5.34906 5.12184
#
# Compressibility (1/GPa) = 0.04160663
#
# Stress axis : x y z
#
# Youngs Moduli (GPa) = 44.50718 69.20272 130.56774
#
# Poissons Ratio (x) = 0.06558 -0.08250
# Poissons Ratio (y) = 0.04218 0.15272
# Poissons Ratio (z) = -0.02812 0.08094
#
# Static dielectric constant tensor:
#      x y z
#    x 2.022440 0.000000 0.245950 
#    y 0.000000 2.040370 0.000000 
#    z 0.245950 0.000000 2.173540 
# 
# From -- ./inp_files/44714.got.cif
#   From: 2010.05.17/outbox.cif.g08.bks.cpg/sg14_23_cif.got.tgz:44714.got - 2010.06.03 17:49:19.
