data_PCOD9244758
_publ_section_title
;
Structure prediction by ZEFSAII (Michael W. Deem and Ramdas Pophale) SiO2 
 PCOD9244758
Probable space group: P 21/C
;
_chemical_formula_sum "Si O2"
_cell_formula_units_Z 28
_cell_length_a 8.915783
_cell_length_b 9.110614
_cell_length_c 14.504955
_cell_angle_alpha 90.000000
_cell_angle_beta 67.669294
_cell_angle_gamma 90.000000
_cell_volume 1089.853639
_symmetry_space_group_name_H-M "P 21/C"
_symmetry_group_IT_number 14
_symmetry_cell_setting 'monoclinic'
loop_
_space_group_symop_operation_xyz
x,y,z
-x,1/2+y,1/2-z
-x,-y,-z
x,1/2-y,1/2+z
loop_
_atom_site_type_symbol
_atom_site_label
_atom_site_fract_x
_atom_site_fract_y
_atom_site_fract_z
Si Si1 0.619168 0.782273 0.991392
Si Si2 0.369630 0.963279 0.773230
Si Si3 0.810973 0.249501 0.045018
Si Si4 0.646792 0.470595 0.340530
Si Si5 0.313932 0.538795 0.081061
Si Si6 0.060632 0.973809 0.337220
Si Si7 0.136094 0.204383 0.895560
O O1 0.757538 0.903560 0.191147
O O2 0.465069 0.866745 0.070942
O O3 0.761197 0.790778 0.033888
O O4 0.600828 0.611754 0.971543
O O5 0.544811 0.011342 0.769772
O O6 0.375185 0.911275 0.667347
O O7 0.338399 0.123739 0.108803
O O8 0.697018 0.154050 0.137219
O O9 0.713457 0.342703 0.993169
O O10 0.951529 0.156820 0.961306
O O11 0.907935 0.364550 0.085722
O O12 0.825402 0.418414 0.272222
O O13 0.126531 0.486718 0.141749
O O14 0.120981 0.135519 0.353388
#
# Coordination Sequence:
#
# PCOD9244758 Si02
#       7
#     4   4   4   4   4   4   4
#     4  10  20  45  75 102 138 204 240 305 380 439
#     4  11  26  43  68 107 149 198 249 303 369 449
#     4  11  23  44  67 114 145 183 251 317 363 434
#     4  10  25  44  70 105 152 190 248 307 377 436
#     4  11  23  46  79 104 146 204 253 301 377 442
#     4  11  22  42  75 108 142 190 253 310 367 441
#     4  10  20  43  72 100 144 191 244 310 363 433
#
# _framework density 25.691524999999999
#
# number of rings (size 3 to 8) (size 9 to 14) (size 15 to 20)
#    0.000    1.429    2.857    2.143    2.000    5.714 
#   12.857    1.429    0.000    0.000    0.000    0.000 
#    0.000    0.000    0.000    0.000    0.000    0.000 
#
# Total GULP energy -157139.647691 kJ/mol
# GULP energy per Si atom -5612.130275 kJ/mol
# Density = 2.563305 g / cm^3
# Si number density = 25.691525 Si / 1000 Ang^3
#
#
#
# Elastic Constant Matrix: (Units=GPa)
#
#
# Indices 1 2 3 4 5 6 
#
# 1 52.6877 13.8164 24.4936 0.0000 8.2072 0.0000
# 2 13.8164 95.2645 16.1256 0.0000 3.3071 0.0000
# 3 24.4936 16.1256 107.5486 0.0000 2.4775 0.0000
# 4 0.0000 0.0000 0.0000 36.6779 0.0000 -12.9426
# 5 8.2072 3.3071 2.4775 0.0000 45.3902 0.0000
# 6 0.0000 0.0000 0.0000 -12.9426 0.0000 33.5314
#
#
#
# Elastic Compliance Matrix: (Units=1/GPa)
#
#
# Indices 1 2 3 4 5 6 
#
# 1 0.022313 -0.002324 -0.004650 0.000000 -0.003611 0.000000
# 2 -0.002324 0.011035 -0.001118 0.000000 -0.000323 0.000000
# 3 -0.004650 -0.001118 0.010517 0.000000 0.000348 0.000000
# 4 0.000000 0.000000 0.000000 0.031563 0.000000 0.012183
# 5 -0.003611 -0.000323 0.000348 0.000000 0.022689 0.000000
# 6 0.000000 0.000000 0.000000 0.012183 0.000000 0.034525
#
#
# Mechanical properties :
#
#
# Convention : Reuss Voigt Hill
#
# Bulk Modulus (GPa) = 36.12536 40.48578 38.30557
# Shear Modulus (GPa) = 31.63503 36.52424 34.07964
#
# Velocity S-wave (km/s) = 3.51285 3.77456 3.64606
# Velocity P-wave (km/s) = 5.52678 5.89822 5.71552
#
# Compressibility (1/GPa) = 0.02768139
#
# Stress axis : x y z
#
# Youngs Moduli (GPa) = 44.81599 90.62468 95.08633
#
# Poissons Ratio (x) = 0.21058 0.44217
# Poissons Ratio (y) = 0.10414 0.10629
# Poissons Ratio (z) = 0.20840 0.10131
#
# Static dielectric constant tensor:
#      x y z
#    x 2.033780 0.000000 -0.102940 
#    y 0.000000 2.014420 0.000000 
#    z -0.102940 0.000000 2.001880 
# 
# From -- ./inp_files/40664.got.cif
#   From: 2010.05.17/outbox.cif.g08.bks.cpg/sg14_21_cif.got.tgz:40664.got - 2010.06.03 17:49:19.
