data_PCOD9244767
_publ_section_title
;
Structure prediction by ZEFSAII (Michael W. Deem and Ramdas Pophale) SiO2 
 PCOD9244767
Probable space group: P 21/C
;
_chemical_formula_sum "Si O2"
_cell_formula_units_Z 14
_cell_length_a 9.709624
_cell_length_b 9.477637
_cell_length_c 5.105272
_cell_angle_alpha 90.000000
_cell_angle_beta 102.416449
_cell_angle_gamma 90.000000
_cell_volume 458.820483
_symmetry_space_group_name_H-M "P 21/C"
_symmetry_group_IT_number 14
_symmetry_cell_setting 'monoclinic'
loop_
_space_group_symop_operation_xyz
x,y,z
-x,1/2+y,1/2-z
-x,-y,-z
x,1/2-y,1/2+z
loop_
_atom_site_type_symbol
_atom_site_label
_atom_site_fract_x
_atom_site_fract_y
_atom_site_fract_z
Si Si1 0.894117 0.617265 0.627240
Si Si2 0.591724 0.769530 0.035525
Si Si3 0.500000 0.500000 0.000000
Si Si4 0.831788 0.063324 0.600920
O O1 0.759880 0.719004 0.587839
O O2 0.884245 0.546870 0.341112
O O3 0.044553 0.676687 0.788117
O O4 0.853317 0.496805 0.821988
O O5 0.551371 0.636015 0.248163
O O6 0.556893 0.866926 0.291138
O O7 0.666905 0.417800 0.078292
#
# Coordination Sequence:
#
# PCOD9244767 Si02
#       4
#     4   4   2   4
#     4  10  20  44  63  95 130 185 217 296 329 436
#     4  12  24  42  67  99 147 184 231 290 352 415
#     4  12  24  42  72 108 134 192 224 306 342 432
#     4  10  22  38  72  92 132 172 238 272 366 387
#
# _framework density 30.513020000000001
#
# number of rings (size 3 to 8) (size 9 to 14) (size 15 to 20)
#    0.000    1.143    5.714    0.000    0.000    4.571 
#    0.000    2.857    0.000    0.000    0.000    0.000 
#    0.000    0.000    0.000    0.000    0.000    0.000 
#
# Total GULP energy -77958.896289 kJ/mol
# GULP energy per Si atom -5568.492592 kJ/mol
# Density = 3.044357 g / cm^3
# Si number density = 30.513020 Si / 1000 Ang^3
#
#
#
# Elastic Constant Matrix: (Units=GPa)
#
#
# Indices 1 2 3 4 5 6 
#
# 1 309.5500 48.1066 76.3161 0.0000 58.3595 0.0000
# 2 48.1066 145.2202 56.3134 0.0000 17.8332 0.0000
# 3 76.3161 56.3134 349.5497 0.0000 -38.5741 0.0000
# 4 0.0000 0.0000 0.0000 74.6615 0.0000 7.5659
# 5 58.3595 17.8332 -38.5741 0.0000 91.0047 0.0000
# 6 0.0000 0.0000 0.0000 7.5659 0.0000 51.2375
#
#
#
# Elastic Compliance Matrix: (Units=1/GPa)
#
#
# Indices 1 2 3 4 5 6 
#
# 1 0.004181 -0.000559 -0.001161 0.000000 -0.003064 0.000000
# 2 -0.000559 0.007798 -0.001325 0.000000 -0.001732 0.000000
# 3 -0.001161 -0.001325 0.003607 0.000000 0.002533 0.000000
# 4 0.000000 0.000000 0.000000 0.013597 0.000000 -0.002008
# 5 -0.003064 -0.001732 0.002533 0.000000 0.014366 0.000000
# 6 0.000000 0.000000 0.000000 -0.002008 0.000000 0.019813
#
#
# Mechanical properties :
#
#
# Convention : Reuss Voigt Hill
#
# Bulk Modulus (GPa) = 105.30359 129.53247 117.41803
# Shear Modulus (GPa) = 68.85273 84.95300 76.90286
#
# Velocity S-wave (km/s) = 4.75542 5.28223 5.02573
# Velocity P-wave (km/s) = 8.04599 8.93008 8.49954
#
# Compressibility (1/GPa) = 0.00949635
#
# Stress axis : x y z
#
# Youngs Moduli (GPa) = 239.16663 128.24238 277.20996
#
# Poissons Ratio (x) = 0.07164 0.32184
# Poissons Ratio (y) = 0.13360 0.36740
# Poissons Ratio (z) = 0.27767 0.16997
#
# Static dielectric constant tensor:
#      x y z
#    x 2.364660 0.000000 -0.050900 
#    y 0.000000 2.724710 0.000000 
#    z -0.050900 0.000000 2.421040 
# 
# From -- ./inp_files/846.got.cif
#   From: 2010.05.17/outbox.cif.g08.bks.cpg/sg14_1_cif.got.tgz:846.got - 2010.06.03 17:49:19.
