data_PCOD9244405
_publ_section_title
;
Structure prediction by ZEFSAII (Michael W. Deem and Ramdas Pophale) SiO2 
 PCOD9244405
Probable space group: P 21/C
;
_chemical_formula_sum "Si O2"
_cell_formula_units_Z 30
_cell_length_a 24.481940
_cell_length_b 4.969170
_cell_length_c 14.287487
_cell_angle_alpha 90.000000
_cell_angle_beta 43.266042
_cell_angle_gamma 90.000000
_cell_volume 1191.300515
_symmetry_space_group_name_H-M "P 21/C"
_symmetry_group_IT_number 14
_symmetry_cell_setting 'monoclinic'
loop_
_space_group_symop_operation_xyz
x,y,z
-x,1/2+y,1/2-z
-x,-y,-z
x,1/2-y,1/2+z
loop_
_atom_site_type_symbol
_atom_site_label
_atom_site_fract_x
_atom_site_fract_y
_atom_site_fract_z
Si Si1 0.949539 0.451864 0.330083
Si Si2 0.500000 0.000000 0.000000
Si Si3 0.055691 0.746563 0.457032
Si Si4 0.175140 0.606783 0.651460
Si Si5 0.338605 0.222825 0.968618
Si Si6 0.274518 0.895201 0.393755
Si Si7 0.582534 0.459235 0.783616
Si Si8 0.359219 0.328520 0.641533
O O1 0.922681 0.315540 0.461505
O O2 0.886106 0.567242 0.333842
O O3 0.005018 0.709612 0.279930
O O4 0.473834 0.782028 0.121028
O O5 0.414414 0.915391 0.050418
O O6 0.133811 0.777634 0.294935
O O7 0.000000 0.500000 0.500000
O O8 0.000000 0.000000 0.500000
O O9 0.257523 0.456787 0.571113
O O10 0.194893 0.827697 0.546757
O O11 0.346654 0.326972 0.063262
O O12 0.324818 0.456716 0.911423
O O13 0.410372 0.056604 0.831343
O O14 0.281133 0.080020 0.294289
O O15 0.325514 0.628462 0.307309
O O16 0.573421 0.716034 0.866462
#
# Coordination Sequence:
#
# PCOD9244405 Si02
#       8
#     4   2   4   4   4   4   4   4
#     4  12  25  46  71 100 144 185 233 307 360 427
#     4  10  20  40  72  94 136 176 220 268 342 408
#     4  12  25  46  69 104 139 183 244 301 361 438
#     4  11  25  42  69  97 137 178 241 279 370 409
#     4  10  23  43  64  99 138 179 230 289 338 432
#     4   9  22  42  63  92 134 170 228 281 333 423
#     4   9  20  42  63  99 132 175 222 281 331 420
#     4  10  21  42  69  96 137 176 226 278 347 404
#
# _framework density 25.182563999999999
#
# number of rings (size 3 to 8) (size 9 to 14) (size 15 to 20)
#    0.000    1.600    2.667    0.400    5.600    4.267 
#   12.000    0.000    0.000    0.000    0.000    0.000 
#    0.000    0.000    0.000    0.000    0.000    0.000 
#
# Total GULP energy -167035.353239 kJ/mol
# GULP energy per Si atom -5567.845108 kJ/mol
# Density = 2.512525 g / cm^3
# Si number density = 25.182564 Si / 1000 Ang^3
#
#
#
# Elastic Constant Matrix: (Units=GPa)
#
#
# Indices 1 2 3 4 5 6 
#
# 1 62.8856 11.6075 33.6474 0.0000 30.4428 0.0000
# 2 11.6075 113.2011 33.8373 0.0000 1.1192 0.0000
# 3 33.6474 33.8373 161.8070 0.0000 10.8235 0.0000
# 4 0.0000 0.0000 0.0000 25.9913 0.0000 -2.9918
# 5 30.4428 1.1192 10.8235 0.0000 38.4822 0.0000
# 6 0.0000 0.0000 0.0000 -2.9918 0.0000 22.4368
#
#
#
# Elastic Compliance Matrix: (Units=1/GPa)
#
#
# Indices 1 2 3 4 5 6 
#
# 1 0.028934 -0.001480 -0.004259 0.000000 -0.021648 0.000000
# 2 -0.001480 0.009502 -0.001772 0.000000 0.001393 0.000000
# 3 -0.004259 -0.001772 0.007346 0.000000 0.001355 0.000000
# 4 0.000000 0.000000 0.000000 0.039074 0.000000 0.005210
# 5 -0.021648 0.001393 0.001355 0.000000 0.042690 0.000000
# 6 0.000000 0.000000 0.000000 0.005210 0.000000 0.045264
#
#
# Mechanical properties :
#
#
# Convention : Reuss Voigt Hill
#
# Bulk Modulus (GPa) = 32.51120 55.11979 43.81549
# Shear Modulus (GPa) = 25.24161 34.63547 29.93854
#
# Velocity S-wave (km/s) = 3.16942 3.71263 3.45173
# Velocity P-wave (km/s) = 5.13146 6.34931 5.77259
#
# Compressibility (1/GPa) = 0.03075864
#
# Stress axis : x y z
#
# Youngs Moduli (GPa) = 34.56168 105.24536 136.12989
#
# Poissons Ratio (x) = 0.15573 0.57980
# Poissons Ratio (y) = 0.05114 0.24128
# Poissons Ratio (z) = 0.14721 0.18654
#
# Static dielectric constant tensor:
#      x y z
#    x 2.108760 0.000000 -0.021090 
#    y 0.000000 2.311240 0.000000 
#    z -0.021090 0.000000 2.251510 
# 
# From -- ./inp_files/51718.got.cif
#   From: 2010.05.17/outbox.cif.g08.bks.cpg/sg14_26_cif.got.tgz:51718.got - 2010.06.03 17:49:19.
