data_PCOD9244514
_publ_section_title
;
Structure prediction by ZEFSAII (Michael W. Deem and Ramdas Pophale) SiO2 
 PCOD9244514
Probable space group: P 21/C
;
_chemical_formula_sum "Si O2"
_cell_formula_units_Z 28
_cell_length_a 7.337567
_cell_length_b 16.844351
_cell_length_c 11.026644
_cell_angle_alpha 90.000000
_cell_angle_beta 111.968041
_cell_angle_gamma 90.000000
_cell_volume 1263.901913
_symmetry_space_group_name_H-M "P 21/C"
_symmetry_group_IT_number 14
_symmetry_cell_setting 'monoclinic'
loop_
_space_group_symop_operation_xyz
x,y,z
-x,1/2+y,1/2-z
-x,-y,-z
x,1/2-y,1/2+z
loop_
_atom_site_type_symbol
_atom_site_label
_atom_site_fract_x
_atom_site_fract_y
_atom_site_fract_z
Si Si1 0.310520 0.987708 0.872268
Si Si2 0.583798 0.953096 0.344765
Si Si3 0.287820 0.066138 0.384731
Si Si4 0.661081 0.202079 0.744746
Si Si5 0.886880 0.655119 0.622461
Si Si6 0.989726 0.920063 0.912717
Si Si7 0.508403 0.766149 0.556347
O O1 0.367452 0.984002 0.747006
O O2 0.178183 0.068266 0.844215
O O3 0.206846 0.914369 0.912799
O O4 0.500000 0.000000 0.000000
O O5 0.760145 0.940496 0.484195
O O6 0.489825 0.872073 0.272807
O O7 0.402317 0.987810 0.374581
O O8 0.129817 0.074183 0.240603
O O9 0.426551 0.142601 0.415214
O O10 0.631127 0.248157 0.863808
O O11 0.588342 0.242439 0.601413
O O12 0.890137 0.177457 0.785119
O O13 0.903499 0.645037 0.480484
O O14 0.712033 0.715431 0.610740
O O15 0.000000 0.000000 0.000000
#
# Coordination Sequence:
#
# PCOD9244514 Si02
#       7
#     4   4   4   4   4   4   4
#     4  11  21  38  69 100 126 175 224 281 345 401
#     4  10  20  41  67  92 137 177 218 280 352 389
#     4  10  22  41  62  97 134 175 224 285 330 417
#     4  11  24  45  71  98 137 187 225 290 346 417
#     4  11  23  43  68  96 137 171 226 279 343 411
#     4  10  21  37  64  96 125 163 225 280 327 397
#     4  11  25  45  70  99 140 184 232 279 355 415
#
# _framework density 22.153617000000001
#
# number of rings (size 3 to 8) (size 9 to 14) (size 15 to 20)
#    0.000    1.429    1.429    5.143    0.000    2.857 
#    2.571    0.000    0.000    0.000    0.000    0.000 
#    0.000    0.000    0.000    0.000    0.000    0.000 
#
# Total GULP energy -156075.205084 kJ/mol
# GULP energy per Si atom -5574.114467 kJ/mol
# Density = 2.210319 g / cm^3
# Si number density = 22.153617 Si / 1000 Ang^3
#
#
#
# Elastic Constant Matrix: (Units=GPa)
#
#
# Indices 1 2 3 4 5 6 
#
# 1 80.4551 8.5262 41.5804 0.0000 10.2573 0.0000
# 2 8.5262 53.4942 -2.8652 0.0000 -4.5354 0.0000
# 3 41.5804 -2.8652 138.7984 0.0000 1.7703 0.0000
# 4 0.0000 0.0000 0.0000 24.4187 0.0000 -0.9751
# 5 10.2573 -4.5354 1.7703 0.0000 22.2402 0.0000
# 6 0.0000 0.0000 0.0000 -0.9751 0.0000 24.0460
#
#
#
# Elastic Compliance Matrix: (Units=1/GPa)
#
#
# Indices 1 2 3 4 5 6 
#
# 1 0.016317 -0.003527 -0.004861 0.000000 -0.007858 0.000000
# 2 -0.003527 0.019801 0.001395 0.000000 0.005554 0.000000
# 3 -0.004861 0.001395 0.008666 0.000000 0.001836 0.000000
# 4 0.000000 0.000000 0.000000 0.041019 0.000000 0.001663
# 5 -0.007858 0.005554 0.001836 0.000000 0.049574 0.000000
# 6 0.000000 0.000000 0.000000 0.001663 0.000000 0.041654
#
#
# Mechanical properties :
#
#
# Convention : Reuss Voigt Hill
#
# Bulk Modulus (GPa) = 32.46986 40.80338 36.63662
# Shear Modulus (GPa) = 24.84047 29.17473 27.00760
#
# Velocity S-wave (km/s) = 3.35219 3.63289 3.49536
# Velocity P-wave (km/s) = 5.44715 6.00463 5.73267
#
# Compressibility (1/GPa) = 0.03079780
#
# Stress axis : x y z
#
# Youngs Moduli (GPa) = 61.28575 50.50157 115.39067
#
# Poissons Ratio (x) = 0.17813 0.56088
# Poissons Ratio (y) = 0.21617 -0.16092
# Poissons Ratio (z) = 0.29789 -0.07043
#
# Static dielectric constant tensor:
#      x y z
#    x 1.889960 0.000000 0.088640 
#    y 0.000000 1.827120 0.000000 
#    z 0.088640 0.000000 2.183860 
# 
# From -- ./inp_files/21830.got.cif
#   From: 2010.05.17/outbox.cif.g08.bks.cpg/sg14_11_cif.got.tgz:21830.got - 2010.06.03 17:49:19.
