data_PCOD9244423
_publ_section_title
;
Structure prediction by ZEFSAII (Michael W. Deem and Ramdas Pophale) SiO2 
 PCOD9244423
Probable space group: P 21/C
;
_chemical_formula_sum "Si O2"
_cell_formula_units_Z 28
_cell_length_a 9.259328
_cell_length_b 21.627269
_cell_length_c 13.242794
_cell_angle_alpha 90.000000
_cell_angle_beta 149.143214
_cell_angle_gamma 90.000000
_cell_volume 1360.154786
_symmetry_space_group_name_H-M "P 21/C"
_symmetry_group_IT_number 14
_symmetry_cell_setting 'monoclinic'
loop_
_space_group_symop_operation_xyz
x,y,z
-x,1/2+y,1/2-z
-x,-y,-z
x,1/2-y,1/2+z
loop_
_atom_site_type_symbol
_atom_site_label
_atom_site_fract_x
_atom_site_fract_y
_atom_site_fract_z
Si Si1 0.557464 0.838753 0.697717
Si Si2 0.849164 0.774780 0.489239
Si Si3 0.000862 0.105511 0.538634
Si Si4 0.612941 0.300698 0.129778
Si Si5 0.170233 0.983966 0.733775
Si Si6 0.230707 0.991875 0.986698
Si Si7 0.903246 0.411570 0.422860
O O1 0.683566 0.780783 0.834758
O O2 0.304351 0.871954 0.605712
O O3 0.442311 0.815773 0.520488
O O4 0.822216 0.885590 0.853391
O O5 0.678470 0.788401 0.488408
O O6 0.853388 0.832184 0.413787
O O7 0.163122 0.753881 0.710946
O O8 0.001870 0.059031 0.444256
O O9 0.116236 0.057975 0.692693
O O10 0.752283 0.358998 0.269357
O O11 0.113953 0.963273 0.813725
O O12 0.488911 0.975261 0.885696
O O13 0.294150 0.942164 0.111213
O O14 0.016268 0.038188 0.911253
#
# Coordination Sequence:
#
# PCOD9244423 Si02
#       7
#     4   4   4   4   4   4   4
#     4  11  24  44  65  94 129 173 214 271 323 377
#     4  11  25  45  64  96 129 168 220 269 315 392
#     4  11  22  43  62  95 131 163 220 268 312 393
#     4  11  25  42  67  94 125 174 216 263 335 374
#     4  10  22  38  67  93 125 170 212 263 333 372
#     4  10  20  41  60  96 125 170 208 266 326 383
#     4  10  22  41  64  92 135 162 217 268 318 396
#
# _framework density 20.585894
#
# number of rings (size 3 to 8) (size 9 to 14) (size 15 to 20)
#    0.000    1.429    2.857    1.714    4.000    0.000 
#    5.143    2.143    0.000    0.000    0.000    0.000 
#    0.000    0.000    0.000    0.000    0.000    0.000 
#
# Total GULP energy -156240.731208 kJ/mol
# GULP energy per Si atom -5580.026115 kJ/mol
# Density = 2.053904 g / cm^3
# Si number density = 20.585894 Si / 1000 Ang^3
#
#
#
# Elastic Constant Matrix: (Units=GPa)
#
#
# Indices 1 2 3 4 5 6 
#
# 1 106.4905 31.4666 30.9505 0.0000 -10.9294 0.0000
# 2 31.4666 51.6959 2.9091 0.0000 -9.7797 0.0000
# 3 30.9505 2.9091 61.9843 0.0000 -16.8381 0.0000
# 4 0.0000 0.0000 0.0000 20.3642 0.0000 2.5440
# 5 -10.9294 -9.7797 -16.8381 0.0000 29.4880 0.0000
# 6 0.0000 0.0000 0.0000 2.5440 0.0000 21.1968
#
#
#
# Elastic Compliance Matrix: (Units=1/GPa)
#
#
# Indices 1 2 3 4 5 6 
#
# 1 0.013652 -0.008224 -0.006862 0.000000 -0.001585 0.000000
# 2 -0.008224 0.025651 0.005191 0.000000 0.008423 0.000000
# 3 -0.006862 0.005191 0.022598 0.000000 0.012082 0.000000
# 4 0.000000 0.000000 0.000000 0.049853 0.000000 -0.005983
# 5 -0.001585 0.008423 0.012082 0.000000 0.043017 0.000000
# 6 0.000000 0.000000 0.000000 -0.005983 0.000000 0.047895
#
#
# Mechanical properties :
#
#
# Convention : Reuss Voigt Hill
#
# Bulk Modulus (GPa) = 23.74657 38.98034 31.36345
# Shear Modulus (GPa) = 21.14233 24.53276 22.83754
#
# Velocity S-wave (km/s) = 3.20821 3.45588 3.33435
# Velocity P-wave (km/s) = 5.02831 5.90769 5.48565
#
# Compressibility (1/GPa) = 0.04211134
#
# Stress axis : x y z
#
# Youngs Moduli (GPa) = 73.24929 38.98509 44.25215
#
# Poissons Ratio (x) = 0.32060 0.30364
# Poissons Ratio (y) = 0.60237 -0.22969
# Poissons Ratio (z) = 0.50260 -0.20235
#
# Static dielectric constant tensor:
#      x y z
#    x 1.703650 0.000000 -0.003530 
#    y 0.000000 1.754540 0.000000 
#    z -0.003530 0.000000 1.786420 
# 
# From -- ./inp_files/26845.got.cif
#   From: 2010.05.17/outbox.cif.g08.bks.cpg/sg14_14_cif.got.tgz:26845.got - 2010.06.03 17:49:19.
