data_PCOD9244934
_publ_section_title
;
Structure prediction by ZEFSAII (Michael W. Deem and Ramdas Pophale) SiO2 
 PCOD9244934
Probable space group: P 21/C
;
_chemical_formula_sum "Si O2"
_cell_formula_units_Z 28
_cell_length_a 13.948797
_cell_length_b 7.707219
_cell_length_c 10.612733
_cell_angle_alpha 90.000000
_cell_angle_beta 111.016383
_cell_angle_gamma 90.000000
_cell_volume 1065.039562
_symmetry_space_group_name_H-M "P 21/C"
_symmetry_group_IT_number 14
_symmetry_cell_setting 'monoclinic'
loop_
_space_group_symop_operation_xyz
x,y,z
-x,1/2+y,1/2-z
-x,-y,-z
x,1/2-y,1/2+z
loop_
_atom_site_type_symbol
_atom_site_label
_atom_site_fract_x
_atom_site_fract_y
_atom_site_fract_z
Si Si1 0.786190 0.158058 0.066267
Si Si2 0.895216 0.791493 0.868511
Si Si3 0.344967 0.551443 0.695968
Si Si4 0.499219 0.675484 0.186586
Si Si5 0.690894 0.653417 0.651214
Si Si6 0.680909 0.985295 0.524891
Si Si7 0.974881 0.926519 0.174982
O O1 0.760654 0.359466 0.034365
O O2 0.709803 0.047364 0.122732
O O3 0.896291 0.088972 0.151711
O O4 0.761087 0.070540 0.920991
O O5 0.778935 0.713850 0.794822
O O6 0.958357 0.663716 0.802545
O O7 0.938681 0.813352 0.033177
O O8 0.918754 0.979415 0.812699
O O9 0.421743 0.407277 0.678773
O O10 0.408497 0.722546 0.706034
O O11 0.338467 0.516145 0.837382
O O12 0.574843 0.800717 0.140581
O O13 0.430001 0.523986 0.089341
O O14 0.716063 0.786084 0.547204
#
# Coordination Sequence:
#
# PCOD9244934 Si02
#       7
#     4   4   4   4   4   4   4
#     4  10  23  39  63  88 122 164 208 261 318 383
#     4  10  23  42  69  96 131 169 214 270 334 387
#     4  10  21  35  57  85 118 160 207 255 311 366
#     4  10  22  34  57  84 119 162 204 254 308 371
#     4  10  21  40  62  87 124 164 208 263 318 380
#     4  10  22  39  55  89 122 161 205 255 311 376
#     4  10  22  44  67  99 131 168 215 270 329 396
#
# _framework density 26.290103999999999
#
# number of rings (size 3 to 8) (size 9 to 14) (size 15 to 20)
#    0.000    2.000    0.000    3.429    8.000    1.714 
#    0.000    2.857    0.000    0.000    0.000    0.000 
#    0.000    0.000    0.000    0.000    0.000    0.000 
#
# Total GULP energy -156022.139725 kJ/mol
# GULP energy per Si atom -5572.219276 kJ/mol
# Density = 2.623027 g / cm^3
# Si number density = 26.290104 Si / 1000 Ang^3
#
#
#
# Elastic Constant Matrix: (Units=GPa)
#
#
# Indices 1 2 3 4 5 6 
#
# 1 76.3554 3.3882 -12.2530 0.0000 0.2895 0.0000
# 2 3.3882 54.6027 7.7345 0.0000 2.1897 0.0000
# 3 -12.2530 7.7345 15.6389 0.0000 -1.2911 0.0000
# 4 0.0000 0.0000 0.0000 25.9345 0.0000 8.2423
# 5 0.2895 2.1897 -1.2911 0.0000 32.7836 0.0000
# 6 0.0000 0.0000 0.0000 8.2423 0.0000 38.7567
#
#
#
# Elastic Compliance Matrix: (Units=1/GPa)
#
#
# Indices 1 2 3 4 5 6 
#
# 1 0.015397 -0.002898 0.013545 0.000000 0.000591 0.000000
# 2 -0.002898 0.020335 -0.012478 0.000000 -0.001824 0.000000
# 3 0.013545 -0.012478 0.081049 0.000000 0.003906 0.000000
# 4 0.000000 0.000000 0.000000 0.041354 0.000000 -0.008795
# 5 0.000591 -0.001824 0.003906 0.000000 0.030773 0.000000
# 6 0.000000 0.000000 0.000000 -0.008795 0.000000 0.027672
#
#
# Mechanical properties :
#
#
# Convention : Reuss Voigt Hill
#
# Bulk Modulus (GPa) = 8.84022 16.03739 12.43880
# Shear Modulus (GPa) = 19.38383 29.34346 24.36364
#
# Velocity S-wave (km/s) = 2.71828 3.34449 3.04752
# Velocity P-wave (km/s) = 3.63620 4.58558 4.13821
#
# Compressibility (1/GPa) = 0.11311940
#
# Stress axis : x y z
#
# Youngs Moduli (GPa) = 64.94937 49.17741 12.33820
#
# Poissons Ratio (x) = 0.14250 -0.16712
# Poissons Ratio (y) = 0.18821 0.15395
# Poissons Ratio (z) = -0.87974 0.61362
#
# Static dielectric constant tensor:
#      x y z
#    x 2.124520 0.000000 -0.011240 
#    y 0.000000 2.310140 0.000000 
#    z -0.011240 0.000000 2.089290 
# 
# From -- ./inp_files/31891.got.cif
#   From: 2010.05.17/outbox.cif.g08.bks.cpg/sg14_16_cif.got.tgz:31891.got - 2010.06.03 17:49:19.
