data_PCOD9244177
_publ_section_title
;
Structure prediction by ZEFSAII (Michael W. Deem and Ramdas Pophale) SiO2 
 PCOD9244177
Probable space group: P 21/C
;
_chemical_formula_sum "Si O2"
_cell_formula_units_Z 24
_cell_length_a 7.697691
_cell_length_b 12.200271
_cell_length_c 10.207932
_cell_angle_alpha 90.000000
_cell_angle_beta 111.432115
_cell_angle_gamma 90.000000
_cell_volume 892.376161
_symmetry_space_group_name_H-M "P 21/C"
_symmetry_group_IT_number 14
_symmetry_cell_setting 'monoclinic'
loop_
_space_group_symop_operation_xyz
x,y,z
-x,1/2+y,1/2-z
-x,-y,-z
x,1/2-y,1/2+z
loop_
_atom_site_type_symbol
_atom_site_label
_atom_site_fract_x
_atom_site_fract_y
_atom_site_fract_z
Si Si1 0.039140 0.879921 0.956794
Si Si2 0.491315 0.374456 0.730288
Si Si3 0.572953 0.072371 0.640786
Si Si4 0.174054 0.341342 0.096520
Si Si5 0.090575 0.953940 0.682397
Si Si6 0.594940 0.232031 0.991420
O O1 0.054009 0.896552 0.807084
O O2 0.243520 0.829408 0.044728
O O3 0.888766 0.783247 0.936033
O O4 0.000000 0.000000 0.000000
O O5 0.371333 0.481811 0.736755
O O6 0.707779 0.412495 0.810985
O O7 0.496080 0.343127 0.576223
O O8 0.464888 0.289335 0.845367
O O9 0.391815 0.137590 0.640938
O O10 0.688926 0.170165 0.605587
O O11 0.500000 0.000000 0.500000
O O12 0.106763 0.414219 0.201512
O O13 0.072426 0.411713 0.955576
#
# Coordination Sequence:
#
# PCOD9244177 Si02
#       6
#     4   4   4   4   4   4
#     4  11  24  39  62  95 126 152 206 266 306 361
#     4   9  18  38  63  88 120 160 208 250 301 370
#     4   9  20  40  60  87 118 164 208 243 299 378
#     4  10  20  40  63  88 121 163 208 247 305 374
#     4   9  20  37  64  90 117 164 207 250 313 362
#     4  10  20  40  61  86 126 159 196 258 305 360
#
# _framework density 26.894487000000002
#
# number of rings (size 3 to 8) (size 9 to 14) (size 15 to 20)
#    0.000    2.333    1.667    0.000    4.667    0.000 
#    6.000    1.667    0.000    0.000    0.000    0.000 
#    0.000    0.000    0.000    0.000    0.000    0.000 
#
# Total GULP energy -134107.225928 kJ/mol
# GULP energy per Si atom -5587.801080 kJ/mol
# Density = 2.683327 g / cm^3
# Si number density = 26.894487 Si / 1000 Ang^3
#
#
#
# Elastic Constant Matrix: (Units=GPa)
#
#
# Indices 1 2 3 4 5 6 
#
# 1 71.4033 45.5826 14.1111 0.0000 -5.5438 0.0000
# 2 45.5826 216.1831 34.9813 0.0000 -16.5122 0.0000
# 3 14.1111 34.9813 66.3139 0.0000 -8.7905 0.0000
# 4 0.0000 0.0000 0.0000 60.6156 0.0000 -18.0334
# 5 -5.5438 -16.5122 -8.7905 0.0000 28.9053 0.0000
# 6 0.0000 0.0000 0.0000 -18.0334 0.0000 47.1933
#
#
#
# Elastic Compliance Matrix: (Units=1/GPa)
#
#
# Indices 1 2 3 4 5 6 
#
# 1 0.016401 -0.003113 -0.001737 0.000000 0.000839 0.000000
# 2 -0.003113 0.005782 -0.002114 0.000000 0.002063 0.000000
# 3 -0.001737 -0.002114 0.017048 0.000000 0.003644 0.000000
# 4 0.000000 0.000000 0.000000 0.018613 0.000000 0.007113
# 5 0.000839 0.002063 0.003644 0.000000 0.037043 0.000000
# 6 0.000000 0.000000 0.000000 0.007113 0.000000 0.023907
#
#
# Mechanical properties :
#
#
# Convention : Reuss Voigt Hill
#
# Bulk Modulus (GPa) = 39.52162 60.36114 49.94138
# Shear Modulus (GPa) = 35.42206 44.62454 40.02330
#
# Velocity S-wave (km/s) = 3.63309 4.07780 3.86185
# Velocity P-wave (km/s) = 5.68560 6.68309 6.20443
#
# Compressibility (1/GPa) = 0.02530261
#
# Stress axis : x y z
#
# Youngs Moduli (GPa) = 60.97349 172.95846 58.65961
#
# Poissons Ratio (x) = 0.53842 0.10186
# Poissons Ratio (y) = 0.18981 0.12401
# Poissons Ratio (z) = 0.10588 0.36564
#
# Static dielectric constant tensor:
#      x y z
#    x 2.151570 0.000000 0.058200 
#    y 0.000000 2.312230 0.000000 
#    z 0.058200 0.000000 2.202070 
# 
# From -- ./inp_files/24091.got.cif
#   From: 2010.05.17/outbox.cif.g08.bks.cpg/sg14_13_cif.got.tgz:24091.got - 2010.06.03 17:49:19.
