data_PCOD9244154
_publ_section_title
;
Structure prediction by ZEFSAII (Michael W. Deem and Ramdas Pophale) SiO2 
 PCOD9244154
Probable space group: P 21/C
;
_chemical_formula_sum "Si O2"
_cell_formula_units_Z 24
_cell_length_a 8.139847
_cell_length_b 9.697033
_cell_length_c 19.339259
_cell_angle_alpha 90.000000
_cell_angle_beta 139.057401
_cell_angle_gamma 90.000000
_cell_volume 1000.315133
_symmetry_space_group_name_H-M "P 21/C"
_symmetry_group_IT_number 14
_symmetry_cell_setting 'monoclinic'
loop_
_space_group_symop_operation_xyz
x,y,z
-x,1/2+y,1/2-z
-x,-y,-z
x,1/2-y,1/2+z
loop_
_atom_site_type_symbol
_atom_site_label
_atom_site_fract_x
_atom_site_fract_y
_atom_site_fract_z
Si Si1 0.900468 0.029859 0.662355
Si Si2 0.394624 0.889145 0.562007
Si Si3 0.089794 0.743562 0.717727
Si Si4 0.140599 0.333201 0.493702
Si Si5 0.400631 0.593277 0.621095
Si Si6 0.616213 0.886129 0.334037
O O1 0.645225 0.961044 0.612331
O O2 0.095383 0.905978 0.731271
O O3 0.826121 0.074362 0.561537
O O4 0.970074 0.158830 0.732250
O O5 0.425429 0.726525 0.580873
O O6 0.353271 0.962782 0.622844
O O7 0.351902 0.681235 0.774559
O O8 0.884493 0.722955 0.591826
O O9 0.353107 0.449913 0.566996
O O10 0.191291 0.215327 0.566615
O O11 0.867443 0.392250 0.424707
O O12 0.601765 0.604011 0.746998
#
# Coordination Sequence:
#
# PCOD9244154 Si02
#       6
#     4   4   4   4   4   4
#     4  10  22  40  60  85 119 157 200 240 289 353
#     4  10  21  40  61  84 119 157 195 241 292 348
#     4  10  22  39  60  84 116 157 193 245 293 341
#     4  10  21  40  58  85 123 145 194 249 286 348
#     4  10  22  37  61  88 114 157 190 237 300 350
#     4  10  20  40  60  84 119 150 192 246 293 343
#
# _framework density 23.992438
#
# number of rings (size 3 to 8) (size 9 to 14) (size 15 to 20)
#    0.000    2.000    1.667    1.000    2.333    3.333 
#    3.000    1.667    0.000    0.000    0.000    0.000 
#    0.000    0.000    0.000    0.000    0.000    0.000 
#
# Total GULP energy -134318.657549 kJ/mol
# GULP energy per Si atom -5596.610731 kJ/mol
# Density = 2.393783 g / cm^3
# Si number density = 23.992438 Si / 1000 Ang^3
#
#
#
# Elastic Constant Matrix: (Units=GPa)
#
#
# Indices 1 2 3 4 5 6 
#
# 1 35.0824 31.9470 34.8939 0.0000 -12.7860 0.0000
# 2 31.9470 109.2061 34.4549 0.0000 -7.6368 0.0000
# 3 34.8939 34.4549 131.5162 0.0000 -5.8070 0.0000
# 4 0.0000 0.0000 0.0000 33.0655 0.0000 -3.4001
# 5 -12.7860 -7.6368 -5.8070 0.0000 32.5784 0.0000
# 6 0.0000 0.0000 0.0000 -3.4001 0.0000 36.6904
#
#
#
# Elastic Compliance Matrix: (Units=1/GPa)
#
#
# Indices 1 2 3 4 5 6 
#
# 1 0.056838 -0.011869 -0.011197 0.000000 0.017529 0.000000
# 2 -0.011869 0.012577 -0.000223 0.000000 -0.001750 0.000000
# 3 -0.011197 -0.000223 0.010519 0.000000 -0.002572 0.000000
# 4 0.000000 0.000000 0.000000 0.030534 0.000000 0.002830
# 5 0.017529 -0.001750 -0.002572 0.000000 0.036706 0.000000
# 6 0.000000 0.000000 0.000000 0.002830 0.000000 0.027517
#
#
# Mechanical properties :
#
#
# Convention : Reuss Voigt Hill
#
# Bulk Modulus (GPa) = 29.97919 53.15515 41.56717
# Shear Modulus (GPa) = 21.51576 32.10080 26.80828
#
# Velocity S-wave (km/s) = 2.99787 3.66177 3.34633
# Velocity P-wave (km/s) = 4.95028 6.33097 5.68272
#
# Compressibility (1/GPa) = 0.03335647
#
# Stress axis : x y z
#
# Youngs Moduli (GPa) = 17.59400 79.50937 95.06350
#
# Poissons Ratio (x) = 0.94368 1.06441
# Poissons Ratio (y) = 0.20882 0.02122
# Poissons Ratio (z) = 0.19700 0.01775
#
# Static dielectric constant tensor:
#      x y z
#    x 1.966990 0.000000 0.075720 
#    y 0.000000 1.856730 0.000000 
#    z 0.075720 0.000000 1.911240 
# 
# From -- ./inp_files/28036.got.cif
#   From: 2010.05.17/outbox.cif.g08.bks.cpg/sg14_15_cif.got.tgz:28036.got - 2010.06.03 17:49:19.
