data_PCOD9244593
_publ_section_title
;
Structure prediction by ZEFSAII (Michael W. Deem and Ramdas Pophale) SiO2 
 PCOD9244593
Probable space group: P 21/C
;
_chemical_formula_sum "Si O2"
_cell_formula_units_Z 24
_cell_length_a 14.399341
_cell_length_b 7.892100
_cell_length_c 16.316678
_cell_angle_alpha 90.000000
_cell_angle_beta 37.205501
_cell_angle_gamma 90.000000
_cell_volume 1121.216227
_symmetry_space_group_name_H-M "P 21/C"
_symmetry_group_IT_number 14
_symmetry_cell_setting 'monoclinic'
loop_
_space_group_symop_operation_xyz
x,y,z
-x,1/2+y,1/2-z
-x,-y,-z
x,1/2-y,1/2+z
loop_
_atom_site_type_symbol
_atom_site_label
_atom_site_fract_x
_atom_site_fract_y
_atom_site_fract_z
Si Si1 0.974487 0.573398 0.106065
Si Si2 0.184189 0.592577 0.100003
Si Si3 0.333687 0.396608 0.431628
Si Si4 0.495477 0.244412 0.658754
Si Si5 0.355899 0.128837 0.099327
Si Si6 0.028947 0.910410 0.138450
O O1 0.806713 0.543788 0.262619
O O2 0.997828 0.777957 0.088026
O O3 0.104970 0.507130 0.076401
O O4 0.000000 0.500000 0.000000
O O5 0.124639 0.495524 0.220776
O O6 0.101208 0.778150 0.154585
O O7 0.361910 0.620978 0.960296
O O8 0.429375 0.571035 0.377845
O O9 0.406628 0.303225 0.303471
O O10 0.340786 0.307837 0.516165
O O11 0.160115 0.451996 0.533602
O O12 0.392499 0.248036 0.649389
O O13 0.500000 0.000000 0.000000
#
# Coordination Sequence:
#
# PCOD9244593 Si02
#       6
#     4   4   4   4   4   4
#     4  10  22  40  65  93 125 165 215 260 323 386
#     4   9  20  39  64  93 126 170 214 257 332 380
#     4  10  20  42  63  95 130 174 213 271 328 386
#     4  10  23  37  67  96 130 175 215 272 329 385
#     4  10  22  41  65  96 125 168 223 262 324 390
#     4   9  19  39  67  89 124 172 213 258 326 385
#
# _framework density 21.405328000000001
#
# number of rings (size 3 to 8) (size 9 to 14) (size 15 to 20)
#    1.000    1.333    1.667    0.000    4.667    2.667 
#    0.000    4.167    0.000    0.000    0.000    0.000 
#    0.000    0.000    0.000    0.000    0.000    0.000 
#
# Total GULP energy -133841.669034 kJ/mol
# GULP energy per Si atom -5576.736210 kJ/mol
# Density = 2.135661 g / cm^3
# Si number density = 21.405328 Si / 1000 Ang^3
#
#
#
# Elastic Constant Matrix: (Units=GPa)
#
#
# Indices 1 2 3 4 5 6 
#
# 1 117.7264 27.8874 83.9171 0.0000 10.9936 0.0000
# 2 27.8874 40.2947 49.2553 0.0000 8.2214 0.0000
# 3 83.9171 49.2553 163.7274 0.0000 28.5335 0.0000
# 4 0.0000 0.0000 0.0000 42.6316 0.0000 10.3344
# 5 10.9936 8.2214 28.5335 0.0000 30.0545 0.0000
# 6 0.0000 0.0000 0.0000 10.3344 0.0000 22.7118
#
#
#
# Elastic Compliance Matrix: (Units=1/GPa)
#
#
# Indices 1 2 3 4 5 6 
#
# 1 0.013527 -0.001375 -0.006857 0.000000 0.001938 0.000000
# 2 -0.001375 0.039399 -0.011212 0.000000 0.000370 0.000000
# 3 -0.006857 -0.011212 0.014408 0.000000 -0.008103 0.000000
# 4 0.000000 0.000000 0.000000 0.026365 0.000000 -0.011997
# 5 0.001938 0.000370 -0.008103 0.000000 0.040155 0.000000
# 6 0.000000 0.000000 0.000000 -0.011997 0.000000 0.049489
#
#
# Mechanical properties :
#
#
# Convention : Reuss Voigt Hill
#
# Bulk Modulus (GPa) = 35.15680 71.54091 53.34885
# Shear Modulus (GPa) = 21.57834 29.79216 25.68525
#
# Velocity S-wave (km/s) = 3.17848 3.73474 3.46778
# Velocity P-wave (km/s) = 5.47086 7.21750 6.40401
#
# Compressibility (1/GPa) = 0.02844400
#
# Stress axis : x y z
#
# Youngs Moduli (GPa) = 73.92648 25.38124 69.40778
#
# Poissons Ratio (x) = 0.03490 0.47595
# Poissons Ratio (y) = 0.10166 0.77823
# Poissons Ratio (z) = 0.50693 0.28459
#
# Static dielectric constant tensor:
#      x y z
#    x 1.798180 0.000000 0.006460 
#    y 0.000000 1.848020 0.000000 
#    z 0.006460 0.000000 1.752870 
# 
# From -- ./inp_files/46375.got.cif
#   From: 2010.05.17/outbox.cif.g08.bks.cpg/sg14_24_cif.got.tgz:46375.got - 2010.06.03 17:49:19.
