data_PCOD9244102
_publ_section_title
;
Structure prediction by ZEFSAII (Michael W. Deem and Ramdas Pophale) SiO2 
 PCOD9244102
Probable space group: P 21/C
;
_chemical_formula_sum "Si O2"
_cell_formula_units_Z 20
_cell_length_a 8.923663
_cell_length_b 13.857441
_cell_length_c 9.261353
_cell_angle_alpha 90.000000
_cell_angle_beta 135.937932
_cell_angle_gamma 90.000000
_cell_volume 796.450090
_symmetry_space_group_name_H-M "P 21/C"
_symmetry_group_IT_number 14
_symmetry_cell_setting 'monoclinic'
loop_
_space_group_symop_operation_xyz
x,y,z
-x,1/2+y,1/2-z
-x,-y,-z
x,1/2-y,1/2+z
loop_
_atom_site_type_symbol
_atom_site_label
_atom_site_fract_x
_atom_site_fract_y
_atom_site_fract_z
Si Si1 0.556697 0.389503 0.494657
Si Si2 0.009301 0.362687 0.961298
Si Si3 0.397877 0.018924 0.636590
Si Si4 0.205559 0.441278 0.698122
Si Si5 0.841556 0.738571 0.688844
O O1 0.500000 0.500000 0.500000
O O2 0.541773 0.393701 0.308779
O O3 0.385417 0.313122 0.436277
O O4 0.787119 0.373162 0.723885
O O5 0.119793 0.274648 0.946037
O O6 0.175870 0.452321 0.064708
O O7 0.989556 0.332897 0.115221
O O8 0.300472 0.011063 0.409309
O O9 0.588102 0.938978 0.766649
O O10 0.143068 0.337456 0.712063
O O11 0.000000 0.500000 0.500000
#
# Coordination Sequence:
#
# PCOD9244102 Si02
#       5
#     4   4   4   4   4
#     4  11  25  45  66  95 141 180 226 283 346 419
#     4  10  23  45  66  96 137 175 229 285 345 410
#     4   9  20  38  64  96 130 172 225 263 347 404
#     4  10  20  39  67  98 134 172 222 288 337 405
#     4  10  24  42  66 101 132 176 233 280 349 411
#
# _framework density 25.111426999999999
#
# number of rings (size 3 to 8) (size 9 to 14) (size 15 to 20)
#    0.000    2.000    0.000    2.400    2.800   12.800 
#    7.200    0.000    0.000    0.000    0.000    0.000 
#    0.000    0.000    0.000    0.000    0.000    0.000 
#
# Total GULP energy -111354.838313 kJ/mol
# GULP energy per Si atom -5567.741916 kJ/mol
# Density = 2.505427 g / cm^3
# Si number density = 25.111427 Si / 1000 Ang^3
#
#
#
# Elastic Constant Matrix: (Units=GPa)
#
#
# Indices 1 2 3 4 5 6 
#
# 1 61.1959 14.3703 24.1610 0.0000 -3.6044 0.0000
# 2 14.3703 51.1337 19.1543 0.0000 9.2829 0.0000
# 3 24.1610 19.1543 191.3538 0.0000 15.5950 0.0000
# 4 0.0000 0.0000 0.0000 52.1979 0.0000 -1.5612
# 5 -3.6044 9.2829 15.5950 0.0000 41.7983 0.0000
# 6 0.0000 0.0000 0.0000 -1.5612 0.0000 42.1882
#
#
#
# Elastic Compliance Matrix: (Units=1/GPa)
#
#
# Indices 1 2 3 4 5 6 
#
# 1 0.018576 -0.005063 -0.002126 0.000000 0.003519 0.000000
# 2 -0.005063 0.022325 -0.001192 0.000000 -0.004950 0.000000
# 3 -0.002126 -0.001192 0.005783 0.000000 -0.002076 0.000000
# 4 0.000000 0.000000 0.000000 0.019179 0.000000 0.000710
# 5 0.003519 -0.004950 -0.002076 0.000000 0.026102 0.000000
# 6 0.000000 0.000000 0.000000 0.000710 0.000000 0.023730
#
#
# Mechanical properties :
#
#
# Convention : Reuss Voigt Hill
#
# Bulk Modulus (GPa) = 33.41987 46.56161 39.99074
# Shear Modulus (GPa) = 35.10494 43.63674 39.37084
#
# Velocity S-wave (km/s) = 3.74300 4.17312 3.96390
# Velocity P-wave (km/s) = 5.65840 6.46546 6.07535
#
# Compressibility (1/GPa) = 0.02992232
#
# Stress axis : x y z
#
# Youngs Moduli (GPa) = 53.83168 44.79354 172.92621
#
# Poissons Ratio (x) = 0.22680 0.36756
# Poissons Ratio (y) = 0.27257 0.20612
# Poissons Ratio (z) = 0.11442 0.05339
#
# Static dielectric constant tensor:
#      x y z
#    x 2.158050 0.000000 -0.117160 
#    y 0.000000 1.988170 0.000000 
#    z -0.117160 0.000000 2.075050 
# 
# From -- ./inp_files/20879.got.cif
#   From: 2010.05.17/outbox.cif.g08.bks.cpg/sg14_11_cif.got.tgz:20879.got - 2010.06.03 17:49:19.
