data_PCOD9244172
_publ_section_title
;
Structure prediction by ZEFSAII (Michael W. Deem and Ramdas Pophale) SiO2 
 PCOD9244172
Probable space group: P 21/C
;
_chemical_formula_sum "Si O2"
_cell_formula_units_Z 32
_cell_length_a 5.317501
_cell_length_b 13.682467
_cell_length_c 20.284118
_cell_angle_alpha 90.000000
_cell_angle_beta 94.843895
_cell_angle_gamma 90.000000
_cell_volume 1470.531194
_symmetry_space_group_name_H-M "P 21/C"
_symmetry_group_IT_number 14
_symmetry_cell_setting 'monoclinic'
loop_
_space_group_symop_operation_xyz
x,y,z
-x,1/2+y,1/2-z
-x,-y,-z
x,1/2-y,1/2+z
loop_
_atom_site_type_symbol
_atom_site_label
_atom_site_fract_x
_atom_site_fract_y
_atom_site_fract_z
Si Si1 0.197768 0.966093 0.815640
Si Si2 0.730649 0.761576 0.585380
Si Si3 0.772969 0.890547 0.706587
Si Si4 0.249023 0.593348 0.457100
Si Si5 0.254253 0.279794 0.555945
Si Si6 0.229370 0.629249 0.600443
Si Si7 0.413886 0.922994 0.241049
Si Si8 0.484536 0.232291 0.196129
O O1 0.186005 0.978006 0.894838
O O2 0.383444 0.870369 0.817753
O O3 0.995861 0.926963 0.758892
O O4 0.310863 0.062967 0.785111
O O5 0.792309 0.853290 0.633235
O O6 0.720985 0.788022 0.507550
O O7 0.469606 0.704972 0.599400
O O8 0.972212 0.690399 0.595856
O O9 0.673357 0.796084 0.743268
O O10 0.599290 0.985999 0.709731
O O11 0.526071 0.640096 0.453691
O O12 0.240864 0.564188 0.533983
O O13 0.024551 0.673826 0.446475
O O14 0.322518 0.238252 0.629017
O O15 0.251736 0.571485 0.669894
O O16 0.351783 0.823771 0.277071
#
# Coordination Sequence:
#
# PCOD9244172 Si02
#       8
#     4   4   4   4   4   4   4   4
#     4  10  22  37  59  87 122 156 201 246 301 359
#     4  10  21  38  64  87 118 159 203 244 298 351
#     4  11  22  37  60  85 122 160 199 252 297 356
#     4   9  18  36  60  86 118 155 197 239 301 358
#     4   9  18  36  62  88 110 159 204 240 294 358
#     4  10  21  38  61  89 119 159 198 244 297 364
#     4  11  24  36  57  93 120 157 205 246 298 360
#     4  10  20  40  61  82 120 161 197 249 300 356
#
# _framework density 21.760842
#
# number of rings (size 3 to 8) (size 9 to 14) (size 15 to 20)
#    0.000    2.000    2.500    0.750    3.500    1.500 
#    0.000    1.250    0.000    0.750    0.000    0.000 
#    0.000    0.000    0.000    0.000    0.000    0.000 
#
# Total GULP energy -178309.375598 kJ/mol
# GULP energy per Si atom -5572.167987 kJ/mol
# Density = 2.171131 g / cm^3
# Si number density = 21.760842 Si / 1000 Ang^3
#
#
#
# Elastic Constant Matrix: (Units=GPa)
#
#
# Indices 1 2 3 4 5 6 
#
# 1 56.7111 0.0110 -11.9971 0.0000 9.9447 0.0000
# 2 0.0110 57.1114 29.7994 0.0000 -2.9379 0.0000
# 3 -11.9971 29.7994 74.3730 0.0000 9.7425 0.0000
# 4 0.0000 0.0000 0.0000 30.3322 0.0000 -5.2922
# 5 9.9447 -2.9379 9.7425 0.0000 25.8779 0.0000
# 6 0.0000 0.0000 0.0000 -5.2922 0.0000 12.0526
#
#
#
# Elastic Compliance Matrix: (Units=1/GPa)
#
#
# Indices 1 2 3 4 5 6 
#
# 1 0.020878 -0.003870 0.006340 0.000000 -0.010849 0.000000
# 2 -0.003870 0.023829 -0.011277 0.000000 0.008438 0.000000
# 3 0.006340 -0.011277 0.020484 0.000000 -0.011428 0.000000
# 4 0.000000 0.000000 0.000000 0.035704 0.000000 0.015677
# 5 -0.010849 0.008438 -0.011428 0.000000 0.048073 0.000000
# 6 0.000000 0.000000 0.000000 0.015677 0.000000 0.089853
#
#
# Mechanical properties :
#
#
# Convention : Reuss Voigt Hill
#
# Bulk Modulus (GPa) = 21.01947 24.86913 22.94430
# Shear Modulus (GPa) = 18.36257 25.01135 21.68696
#
# Velocity S-wave (km/s) = 2.90804 3.39392 3.16033
# Velocity P-wave (km/s) = 4.57776 5.17798 4.88709
#
# Compressibility (1/GPa) = 0.04757493
#
# Stress axis : x y z
#
# Youngs Moduli (GPa) = 47.89833 41.96634 48.81885
#
# Poissons Ratio (x) = 0.16241 -0.30949
# Poissons Ratio (y) = 0.18536 0.55054
# Poissons Ratio (z) = -0.30365 0.47326
#
# Static dielectric constant tensor:
#      x y z
#    x 1.946310 0.000000 -0.013510 
#    y 0.000000 1.784890 0.000000 
#    z -0.013510 0.000000 1.869820 
# 
# From -- ./inp_files/63705.got.cif
#   From: 2010.05.17/outbox.cif.g08.bks.cpg/sg14_32_cif.got.tgz:63705.got - 2010.06.03 17:49:19.
