data_PCOD9244364
_publ_section_title
;
Structure prediction by ZEFSAII (Michael W. Deem and Ramdas Pophale) SiO2 
 PCOD9244364
Probable space group: P 21/C
;
_chemical_formula_sum "Si O2"
_cell_formula_units_Z 30
_cell_length_a 20.259430
_cell_length_b 5.009752
_cell_length_c 14.702361
_cell_angle_alpha 90.000000
_cell_angle_beta 116.856588
_cell_angle_gamma 90.000000
_cell_volume 1331.262137
_symmetry_space_group_name_H-M "P 21/C"
_symmetry_group_IT_number 14
_symmetry_cell_setting 'monoclinic'
loop_
_space_group_symop_operation_xyz
x,y,z
-x,1/2+y,1/2-z
-x,-y,-z
x,1/2-y,1/2+z
loop_
_atom_site_type_symbol
_atom_site_label
_atom_site_fract_x
_atom_site_fract_y
_atom_site_fract_z
Si Si1 0.465410 0.732203 0.630621
Si Si2 0.617069 0.490418 0.272578
Si Si3 0.950885 0.323957 0.237304
Si Si4 0.723781 0.817201 0.467792
Si Si5 0.948714 0.247731 0.944401
Si Si6 0.500000 0.500000 0.500000
Si Si7 0.620700 0.548843 0.073483
Si Si8 0.174829 0.690667 0.484337
O O1 0.399557 0.733123 0.661231
O O2 0.534184 0.893413 0.709418
O O3 0.489664 0.445698 0.606684
O O4 0.434557 0.831926 0.510406
O O5 0.669516 0.697976 0.357407
O O6 0.644775 0.435588 0.187150
O O7 0.931073 0.252741 0.327533
O O8 0.880931 0.280364 0.129779
O O9 0.984073 0.620555 0.252093
O O10 0.681652 0.868552 0.537407
O O11 0.788815 0.594653 0.514639
O O12 0.760798 0.094760 0.465081
O O13 0.875338 0.208982 0.957415
O O14 0.000000 0.500000 0.000000
O O15 0.000000 0.000000 0.000000
O O16 0.426894 0.309814 0.434553
#
# Coordination Sequence:
#
# PCOD9244364 Si02
#       8
#     4   4   4   4   4   2   4   4
#     4  11  23  42  68 108 133 180 259 333 363 428
#     4  11  24  43  72  98 144 195 248 306 386 432
#     4  12  23  44  77 112 142 188 237 300 360 409
#     4  12  27  48  65 107 155 202 233 300 370 463
#     4  12  23  44  77 113 142 180 243 299 349 424
#     4  10  20  40  68  96 126 178 244 326 358 400
#     4  11  25  46  69 103 142 189 256 319 372 439
#     4  12  27  46  73 105 158 189 237 293 364 442
#
# _framework density 22.535005000000002
#
# number of rings (size 3 to 8) (size 9 to 14) (size 15 to 20)
#    0.000    0.533    4.000    4.800    1.867    2.133 
#    4.800    0.000    0.000    0.000    0.000    0.000 
#    0.000    0.000    0.000    0.000    0.000    0.000 
#
# Total GULP energy -167421.133917 kJ/mol
# GULP energy per Si atom -5580.704464 kJ/mol
# Density = 2.248371 g / cm^3
# Si number density = 22.535005 Si / 1000 Ang^3
#
#
#
# Elastic Constant Matrix: (Units=GPa)
#
#
# Indices 1 2 3 4 5 6 
#
# 1 170.9092 14.7174 47.0889 0.0000 -29.8897 0.0000
# 2 14.7174 56.5562 -5.3833 0.0000 3.1025 0.0000
# 3 47.0889 -5.3833 139.1436 0.0000 -30.1444 0.0000
# 4 0.0000 0.0000 0.0000 28.6166 0.0000 3.2949
# 5 -29.8897 3.1025 -30.1444 0.0000 46.1284 0.0000
# 6 0.0000 0.0000 0.0000 3.2949 0.0000 37.4960
#
#
#
# Elastic Compliance Matrix: (Units=1/GPa)
#
#
# Indices 1 2 3 4 5 6 
#
# 1 0.007156 -0.002226 -0.001714 0.000000 0.003667 0.000000
# 2 -0.002226 0.018469 0.001033 0.000000 -0.002010 0.000000
# 3 -0.001714 0.001033 0.008796 0.000000 0.004569 0.000000
# 4 0.000000 0.000000 0.000000 0.035302 0.000000 -0.003102
# 5 0.003667 -0.002010 0.004569 0.000000 0.027175 0.000000
# 6 0.000000 0.000000 0.000000 -0.003102 0.000000 0.026942
#
#
# Mechanical properties :
#
#
# Convention : Reuss Voigt Hill
#
# Bulk Modulus (GPa) = 34.95621 53.27277 44.11449
# Shear Modulus (GPa) = 35.92156 43.12726 39.52441
#
# Velocity S-wave (km/s) = 3.99687 4.37943 4.19252
# Velocity P-wave (km/s) = 6.07005 7.01883 6.56161
#
# Compressibility (1/GPa) = 0.02860722
#
# Stress axis : x y z
#
# Youngs Moduli (GPa) = 139.73891 54.14335 113.68270
#
# Poissons Ratio (x) = 0.12055 0.19480
# Poissons Ratio (y) = 0.31113 -0.11739
# Poissons Ratio (z) = 0.23945 -0.05591
#
# Static dielectric constant tensor:
#      x y z
#    x 2.096740 0.000000 -0.115540 
#    y 0.000000 1.633030 0.000000 
#    z -0.115540 0.000000 1.920520 
# 
# From -- ./inp_files/48231.got.cif
#   From: 2010.05.17/outbox.cif.g08.bks.cpg/sg14_25_cif.got.tgz:48231.got - 2010.06.03 17:49:19.
