data_PCOD9244307
_publ_section_title
;
Structure prediction by ZEFSAII (Michael W. Deem and Ramdas Pophale) SiO2 
 PCOD9244307
Probable space group: P 21/C
;
_chemical_formula_sum "Si O2"
_cell_formula_units_Z 32
_cell_length_a 6.712350
_cell_length_b 8.009370
_cell_length_c 27.017207
_cell_angle_alpha 90.000000
_cell_angle_beta 87.791495
_cell_angle_gamma 90.000000
_cell_volume 1451.411935
_symmetry_space_group_name_H-M "P 21/C"
_symmetry_group_IT_number 14
_symmetry_cell_setting 'monoclinic'
loop_
_space_group_symop_operation_xyz
x,y,z
-x,1/2+y,1/2-z
-x,-y,-z
x,1/2-y,1/2+z
loop_
_atom_site_type_symbol
_atom_site_label
_atom_site_fract_x
_atom_site_fract_y
_atom_site_fract_z
Si Si1 0.585156 0.442701 0.595494
Si Si2 0.992037 0.030293 0.610336
Si Si3 0.657303 0.819604 0.335817
Si Si4 0.931163 0.272249 0.528363
Si Si5 0.902346 0.835028 0.144885
Si Si6 0.758989 0.146845 0.700947
Si Si7 0.944416 0.679083 0.248797
Si Si8 0.198235 0.933678 0.062998
O O1 0.445819 0.312246 0.626127
O O2 0.738573 0.353174 0.557189
O O3 0.713226 0.555972 0.631494
O O4 0.432920 0.558326 0.566561
O O5 0.211269 0.050494 0.633130
O O6 0.979888 0.100390 0.555271
O O7 0.856807 0.154217 0.645514
O O8 0.899821 0.849490 0.620542
O O9 0.472384 0.886968 0.305224
O O10 0.804655 0.731914 0.295560
O O11 0.880009 0.284592 0.471169
O O12 0.113785 0.398013 0.538460
O O13 0.923926 0.803925 0.202528
O O14 0.093468 0.920040 0.117364
O O15 0.830414 0.306010 0.732093
O O16 0.868834 0.994189 0.727205
#
# Coordination Sequence:
#
# PCOD9244307 Si02
#       8
#     4   4   4   4   4   4   4   4
#     4  11  22  39  65  92 120 162 214 258 303 383
#     4  10  21  43  59  89 124 162 198 258 313 373
#     4  11  23  37  68  87 119 168 212 243 318 375
#     4  10  20  40  66  90 125 160 210 259 312 378
#     4  10  25  40  60  89 132 157 204 265 314 365
#     4  10  23  40  59  88 119 160 202 252 304 364
#     4  10  25  38  61  88 125 156 204 254 305 370
#     4  10  22  39  64  95 121 166 207 258 314 373
#
# _framework density 22.047498000000001
#
# number of rings (size 3 to 8) (size 9 to 14) (size 15 to 20)
#    0.000    1.750    2.500    0.375    5.250    4.500 
#    0.000    0.625    0.000    0.000    0.000    0.000 
#    0.000    0.000    0.000    0.000    0.000    0.000 
#
# Total GULP energy -178760.996972 kJ/mol
# GULP energy per Si atom -5586.281155 kJ/mol
# Density = 2.199732 g / cm^3
# Si number density = 22.047498 Si / 1000 Ang^3
#
#
#
# Elastic Constant Matrix: (Units=GPa)
#
#
# Indices 1 2 3 4 5 6 
#
# 1 100.0201 2.5590 18.4206 0.0000 12.1351 0.0000
# 2 2.5590 39.3645 3.4529 0.0000 4.2176 0.0000
# 3 18.4206 3.4529 84.7818 0.0000 -5.0904 0.0000
# 4 0.0000 0.0000 0.0000 32.2098 0.0000 -1.7336
# 5 12.1351 4.2176 -5.0904 0.0000 22.8595 0.0000
# 6 0.0000 0.0000 0.0000 -1.7336 0.0000 17.0622
#
#
#
# Elastic Compliance Matrix: (Units=1/GPa)
#
#
# Indices 1 2 3 4 5 6 
#
# 1 0.011334 0.000233 -0.002874 0.000000 -0.006700 0.000000
# 2 0.000233 0.026077 -0.001428 0.000000 -0.005253 0.000000
# 3 -0.002874 -0.001428 0.012756 0.000000 0.004630 0.000000
# 4 0.000000 0.000000 0.000000 0.031217 0.000000 0.003172
# 5 -0.006700 -0.005253 0.004630 0.000000 0.049302 0.000000
# 6 0.000000 0.000000 0.000000 0.003172 0.000000 0.058931
#
#
# Mechanical properties :
#
#
# Convention : Reuss Voigt Hill
#
# Bulk Modulus (GPa) = 23.79371 30.33682 27.06526
# Shear Modulus (GPa) = 23.61104 27.74189 25.67646
#
# Velocity S-wave (km/s) = 3.27604 3.55107 3.41632
# Velocity P-wave (km/s) = 5.01252 5.53201 5.27866
#
# Compressibility (1/GPa) = 0.04202791
#
# Stress axis : x y z
#
# Youngs Moduli (GPa) = 88.22794 38.34866 78.39668
#
# Poissons Ratio (x) = -0.00894 0.22534
# Poissons Ratio (y) = -0.02057 0.11196
# Poissons Ratio (z) = 0.25360 0.05476
#
# Static dielectric constant tensor:
#      x y z
#    x 1.797390 0.000000 0.015680 
#    y 0.000000 1.875660 0.000000 
#    z 0.015680 0.000000 1.837780 
# 
# From -- ./inp_files/78831.got.cif
#   From: 2010.05.17/outbox.cif.g08.bks.cpg/sg14_40_cif.got.tgz:78831.got - 2010.06.03 17:49:19.
