data_PCOD9244070
_publ_section_title
;
Structure prediction by ZEFSAII (Michael W. Deem and Ramdas Pophale) SiO2 
 PCOD9244070
Probable space group: P 21/C
;
_chemical_formula_sum "Si O2"
_cell_formula_units_Z 32
_cell_length_a 20.884794
_cell_length_b 9.118707
_cell_length_c 14.731803
_cell_angle_alpha 90.000000
_cell_angle_beta 38.518727
_cell_angle_gamma 90.000000
_cell_volume 1747.218906
_symmetry_space_group_name_H-M "P 21/C"
_symmetry_group_IT_number 14
_symmetry_cell_setting 'monoclinic'
loop_
_space_group_symop_operation_xyz
x,y,z
-x,1/2+y,1/2-z
-x,-y,-z
x,1/2-y,1/2+z
loop_
_atom_site_type_symbol
_atom_site_label
_atom_site_fract_x
_atom_site_fract_y
_atom_site_fract_z
Si Si1 0.802689 0.516798 0.097109
Si Si2 0.292628 0.735312 0.384002
Si Si3 0.876011 0.278270 0.148603
Si Si4 0.529781 0.166541 0.455793
Si Si5 0.351041 0.695703 0.518321
Si Si6 0.910281 0.091005 0.933471
Si Si7 0.967833 0.750229 0.357662
Si Si8 0.600200 0.922241 0.933920
O O1 0.765777 0.388999 0.069394
O O2 0.870048 0.428904 0.097401
O O3 0.697967 0.570678 0.259946
O O4 0.867767 0.649101 0.984713
O O5 0.371912 0.701377 0.215876
O O6 0.350103 0.736368 0.415092
O O7 0.203978 0.613171 0.479969
O O8 0.760138 0.261249 0.316158
O O9 0.953235 0.280800 0.147056
O O10 0.904529 0.152763 0.043084
O O11 0.561525 0.226102 0.519640
O O12 0.436611 0.257174 0.514437
O O13 0.500000 0.000000 0.500000
O O14 0.368910 0.522036 0.514976
O O15 0.982184 0.195187 0.791984
O O16 0.944389 0.922969 0.886294
O O17 0.500000 0.000000 0.000000
#
# Coordination Sequence:
#
# PCOD9244070 Si02
#       8
#     4   4   4   4   4   4   4   4
#     4  10  21  38  64  89 120 160 202 250 303 364
#     4  11  21  41  63  86 128 162 197 252 309 359
#     4  10  20  41  63  86 122 166 200 250 308 359
#     4  11  23  40  64  91 122 157 204 258 302 358
#     4  10  20  39  66  84 121 163 199 246 308 363
#     4  11  23  40  59  90 124 162 205 253 306 358
#     4  12  24  38  64  91 122 164 206 252 303 374
#     4   9  18  40  62  83 116 159 196 240 306 354
#
# _framework density 18.314819
#
# number of rings (size 3 to 8) (size 9 to 14) (size 15 to 20)
#    0.000    1.500    6.250    2.250    1.750    1.000 
#    0.000    1.250    0.000    0.000    0.000    0.000 
#    0.000    0.000    0.000    0.000    0.000    0.000 
#
# Total GULP energy -178487.636878 kJ/mol
# GULP energy per Si atom -5577.738652 kJ/mol
# Density = 1.827313 g / cm^3
# Si number density = 18.314819 Si / 1000 Ang^3
#
#
#
# Elastic Constant Matrix: (Units=GPa)
#
#
# Indices 1 2 3 4 5 6 
#
# 1 84.1824 28.6396 24.0655 0.0000 2.4984 0.0000
# 2 28.6396 123.8980 35.1297 0.0000 -11.7578 0.0000
# 3 24.0655 35.1297 46.6815 0.0000 -10.1144 0.0000
# 4 0.0000 0.0000 0.0000 27.5740 0.0000 -8.4450
# 5 2.4984 -11.7578 -10.1144 0.0000 26.4737 0.0000
# 6 0.0000 0.0000 0.0000 -8.4450 0.0000 12.5561
#
#
#
# Elastic Compliance Matrix: (Units=1/GPa)
#
#
# Indices 1 2 3 4 5 6 
#
# 1 0.014733 -0.001804 -0.007318 0.000000 -0.004987 0.000000
# 2 -0.001804 0.010556 -0.006499 0.000000 0.002376 0.000000
# 3 -0.007318 -0.006499 0.032282 0.000000 0.010137 0.000000
# 4 0.000000 0.000000 0.000000 0.045675 0.000000 0.030720
# 5 -0.004987 0.002376 0.010137 0.000000 0.043172 0.000000
# 6 0.000000 0.000000 0.000000 0.030720 0.000000 0.100305
#
#
# Mechanical properties :
#
#
# Convention : Reuss Voigt Hill
#
# Bulk Modulus (GPa) = 37.98232 47.82572 42.90402
# Shear Modulus (GPa) = 17.43729 24.44924 20.94326
#
# Velocity S-wave (km/s) = 3.08894 3.65765 3.38526
# Velocity P-wave (km/s) = 5.78841 6.63383 6.22549
#
# Compressibility (1/GPa) = 0.02632804
#
# Stress axis : x y z
#
# Youngs Moduli (GPa) = 67.87586 94.72934 30.97694
#
# Poissons Ratio (x) = 0.17088 0.22670
# Poissons Ratio (y) = 0.12244 0.20133
# Poissons Ratio (z) = 0.49674 0.61569
#
# Static dielectric constant tensor:
#      x y z
#    x 1.629630 0.000000 0.007240 
#    y 0.000000 1.663330 0.000000 
#    z 0.007240 0.000000 1.641310 
# 
# From -- ./inp_files/50084.got.cif
#   From: 2010.05.17/outbox.cif.g08.bks.cpg/sg14_26_cif.got.tgz:50084.got - 2010.06.03 17:49:19.
