data_PCOD9244991
_publ_section_title
;
Structure prediction by ZEFSAII (Michael W. Deem and Ramdas Pophale) SiO2 
 PCOD9244991
Probable space group: P 21/C
;
_chemical_formula_sum "Si O2"
_cell_formula_units_Z 32
_cell_length_a 24.265875
_cell_length_b 4.845787
_cell_length_c 10.674160
_cell_angle_alpha 90.000000
_cell_angle_beta 111.555843
_cell_angle_gamma 90.000000
_cell_volume 1167.360283
_symmetry_space_group_name_H-M "P 21/C"
_symmetry_group_IT_number 14
_symmetry_cell_setting 'monoclinic'
loop_
_space_group_symop_operation_xyz
x,y,z
-x,1/2+y,1/2-z
-x,-y,-z
x,1/2-y,1/2+z
loop_
_atom_site_type_symbol
_atom_site_label
_atom_site_fract_x
_atom_site_fract_y
_atom_site_fract_z
Si Si1 0.010848 0.070883 0.181075
Si Si2 0.249785 0.722706 0.449769
Si Si3 0.396687 0.159564 0.991282
Si Si4 0.513282 0.189448 0.672712
Si Si5 0.898967 0.441741 0.428512
Si Si6 0.275605 0.277949 0.806672
Si Si7 0.826761 0.552179 0.942148
Si Si8 0.629564 0.338012 0.856835
O O1 0.997185 0.757317 0.204858
O O2 0.075818 0.080237 0.176218
O O3 0.958890 0.166036 0.044311
O O4 0.269418 0.911732 0.348942
O O5 0.302138 0.753563 0.597117
O O6 0.251260 0.413785 0.400800
O O7 0.191318 0.863616 0.455311
O O8 0.392386 0.858316 0.046587
O O9 0.464195 0.254212 0.025093
O O10 0.376299 0.358966 0.090095
O O11 0.344786 0.205563 0.847299
O O12 0.493269 0.392814 0.769995
O O13 0.581603 0.272249 0.709026
O O14 0.855696 0.182024 0.376488
O O15 0.870092 0.686953 0.485568
O O16 0.232444 0.195571 0.660053
#
# Coordination Sequence:
#
# PCOD9244991 Si02
#       8
#     4   4   4   4   4   4   4   4
#     4  11  24  45  70  92 122 155 182 229 280 318
#     4  10  21  36  54  79 112 151 192 233 282 336
#     4   8  14  25  42  66  96 132 178 227 277 332
#     4   8  12  20  38  63  90 125 172 226 278 327
#     4  11  26  42  62  96 120 147 196 226 266 337
#     4  10  21  36  54  79 112 151 192 233 282 336
#     4  12  24  39  60  87 122 154 188 234 272 324
#     4   8  14  25  42  66  96 132 178 227 277 332
#
# _framework density 27.412272999999999
#
# number of rings (size 3 to 8) (size 9 to 14) (size 15 to 20)
#    0.000    2.250    0.000    3.000    0.000    8.000 
#    0.000    0.000    0.000    0.750    0.000    0.000 
#    0.000   32.000    0.000    0.000    0.000    4.250 
#
# Total GULP energy -179241.032608 kJ/mol
# GULP energy per Si atom -5601.282269 kJ/mol
# Density = 2.734988 g / cm^3
# Si number density = 27.412273 Si / 1000 Ang^3
#
#
#
# Elastic Constant Matrix: (Units=GPa)
#
#
# Indices 1 2 3 4 5 6 
#
# 1 80.2526 21.2045 28.4149 0.0000 0.4806 0.0000
# 2 21.2045 112.3266 8.5241 0.0000 -6.6605 0.0000
# 3 28.4149 8.5241 75.2211 0.0000 11.8134 0.0000
# 4 0.0000 0.0000 0.0000 24.1377 0.0000 -4.3024
# 5 0.4806 -6.6605 11.8134 0.0000 40.4614 0.0000
# 6 0.0000 0.0000 0.0000 -4.3024 0.0000 33.6401
#
#
#
# Elastic Compliance Matrix: (Units=1/GPa)
#
#
# Indices 1 2 3 4 5 6 
#
# 1 0.015055 -0.002355 -0.005587 0.000000 0.001065 0.000000
# 2 -0.002355 0.009484 -0.000456 0.000000 0.001722 0.000000
# 3 -0.005587 -0.000456 0.016201 0.000000 -0.004739 0.000000
# 4 0.000000 0.000000 0.000000 0.042395 0.000000 0.005422
# 5 0.001065 0.001722 -0.004739 0.000000 0.026369 0.000000
# 6 0.000000 0.000000 0.000000 0.005422 0.000000 0.030420
#
#
# Mechanical properties :
#
#
# Convention : Reuss Voigt Hill
#
# Bulk Modulus (GPa) = 41.76481 42.67636 42.22059
# Shear Modulus (GPa) = 30.35810 33.62496 31.99153
#
# Velocity S-wave (km/s) = 3.33147 3.50614 3.41992
# Velocity P-wave (km/s) = 5.48335 5.65622 5.57046
#
# Compressibility (1/GPa) = 0.02394360
#
# Stress axis : x y z
#
# Youngs Moduli (GPa) = 66.42413 105.44253 61.72604
#
# Poissons Ratio (x) = 0.24830 0.34488
# Poissons Ratio (y) = 0.15642 0.02813
# Poissons Ratio (z) = 0.37113 0.04804
#
# Static dielectric constant tensor:
#      x y z
#    x 2.145400 0.000000 0.020070 
#    y 0.000000 2.032680 0.000000 
#    z 0.020070 0.000000 2.182180 
# 
# From -- ./inp_files/35607.got.cif
#   From: 2010.05.17/outbox.cif.g08.bks.cpg/sg14_18_cif.got.tgz:35607.got - 2010.06.03 17:49:19.
