data_PCOD9244411
_publ_section_title
;
Structure prediction by ZEFSAII (Michael W. Deem and Ramdas Pophale) SiO2 
 PCOD9244411
Probable space group: P 21/C
;
_chemical_formula_sum "Si O2"
_cell_formula_units_Z 20
_cell_length_a 5.373826
_cell_length_b 17.143762
_cell_length_c 11.818840
_cell_angle_alpha 90.000000
_cell_angle_beta 40.831258
_cell_angle_gamma 90.000000
_cell_volume 711.920902
_symmetry_space_group_name_H-M "P 21/C"
_symmetry_group_IT_number 14
_symmetry_cell_setting 'monoclinic'
loop_
_space_group_symop_operation_xyz
x,y,z
-x,1/2+y,1/2-z
-x,-y,-z
x,1/2-y,1/2+z
loop_
_atom_site_type_symbol
_atom_site_label
_atom_site_fract_x
_atom_site_fract_y
_atom_site_fract_z
Si Si1 0.566029 0.016669 0.609331
Si Si2 0.623846 0.123322 0.889130
Si Si3 0.458660 0.552529 0.358651
Si Si4 0.164638 0.661915 0.058002
Si Si5 0.162604 0.231419 0.544992
O O1 0.555996 0.036673 0.861860
O O2 0.554641 0.109542 0.615866
O O3 0.315898 0.964902 0.780020
O O4 0.000000 0.000000 0.500000
O O5 0.893799 0.176646 0.716425
O O6 0.761305 0.099171 0.968496
O O7 0.248613 0.177350 0.032455
O O8 0.500000 0.500000 0.000000
O O9 0.423919 0.695387 0.067019
O O10 0.972392 0.721284 0.037305
O O11 0.830918 0.606328 0.215928
#
# Coordination Sequence:
#
# PCOD9244411 Si02
#       5
#     4   4   4   4   4
#     4  10  20  40  75 114 146 192 250 319 388 461
#     4  11  26  49  78 115 165 204 271 325 407 475
#     4  10  23  49  80 122 152 208 268 339 385 485
#     4  11  24  47  81 110 156 206 270 319 408 475
#     4  12  27  50  76 114 160 217 256 334 406 485
#
# _framework density 28.093008000000001
#
# number of rings (size 3 to 8) (size 9 to 14) (size 15 to 20)
#    0.000    1.200    2.000    3.600    2.800    3.200 
#    0.000   11.000    0.000    0.000    0.000    0.000 
#    0.000    0.000    0.000    0.000    0.000    0.000 
#
# Total GULP energy -111782.193745 kJ/mol
# GULP energy per Si atom -5589.109687 kJ/mol
# Density = 2.802907 g / cm^3
# Si number density = 28.093008 Si / 1000 Ang^3
#
#
#
# Elastic Constant Matrix: (Units=GPa)
#
#
# Indices 1 2 3 4 5 6 
#
# 1 112.2681 33.5866 61.8416 0.0000 7.7571 0.0000
# 2 33.5866 176.9908 76.6470 0.0000 -7.0543 0.0000
# 3 61.8416 76.6470 142.4934 0.0000 -2.2240 0.0000
# 4 0.0000 0.0000 0.0000 58.3769 0.0000 0.7987
# 5 7.7571 -7.0543 -2.2240 0.0000 42.4459 0.0000
# 6 0.0000 0.0000 0.0000 0.7987 0.0000 61.6120
#
#
#
# Elastic Compliance Matrix: (Units=1/GPa)
#
#
# Indices 1 2 3 4 5 6 
#
# 1 0.011959 -0.000135 -0.005156 0.000000 -0.002478 0.000000
# 2 -0.000135 0.007412 -0.003912 0.000000 0.001052 0.000000
# 3 -0.005156 -0.003912 0.011373 0.000000 0.000888 0.000000
# 4 0.000000 0.000000 0.000000 0.017133 0.000000 -0.000222
# 5 -0.002478 0.001052 0.000888 0.000000 0.024234 0.000000
# 6 0.000000 0.000000 0.000000 -0.000222 0.000000 0.016233
#
#
# Mechanical properties :
#
#
# Convention : Reuss Voigt Hill
#
# Bulk Modulus (GPa) = 81.04877 86.21140 83.63009
# Shear Modulus (GPa) = 45.10075 49.79878 47.44976
#
# Velocity S-wave (km/s) = 4.01110 4.21484 4.11423
# Velocity P-wave (km/s) = 7.09681 7.37841 7.23898
#
# Compressibility (1/GPa) = 0.01233825
#
# Stress axis : x y z
#
# Youngs Moduli (GPa) = 83.61796 134.92545 87.92391
#
# Poissons Ratio (x) = 0.01826 0.45335
# Poissons Ratio (y) = 0.01131 0.34391
# Poissons Ratio (z) = 0.43115 0.52776
#
# Static dielectric constant tensor:
#      x y z
#    x 2.333390 0.000000 -0.078520 
#    y 0.000000 2.202640 0.000000 
#    z -0.078520 0.000000 2.418320 
# 
# From -- ./inp_files/5850.got.cif
#   From: 2010.05.17/outbox.cif.g08.bks.cpg/sg14_3_cif.got.tgz:5850.got - 2010.06.03 17:49:19.
