data_PCOD9244037
_publ_section_title
;
Structure prediction by ZEFSAII (Michael W. Deem and Ramdas Pophale) SiO2 
 PCOD9244037
Probable space group: P 21/C
;
_chemical_formula_sum "Si O2"
_cell_formula_units_Z 24
_cell_length_a 11.806390
_cell_length_b 11.972123
_cell_length_c 8.955648
_cell_angle_alpha 90.000000
_cell_angle_beta 48.272355
_cell_angle_gamma 90.000000
_cell_volume 944.732198
_symmetry_space_group_name_H-M "P 21/C"
_symmetry_group_IT_number 14
_symmetry_cell_setting 'monoclinic'
loop_
_space_group_symop_operation_xyz
x,y,z
-x,1/2+y,1/2-z
-x,-y,-z
x,1/2-y,1/2+z
loop_
_atom_site_type_symbol
_atom_site_label
_atom_site_fract_x
_atom_site_fract_y
_atom_site_fract_z
Si Si1 0.208682 0.314227 0.536568
Si Si2 0.606738 0.642651 0.915329
Si Si3 0.636740 0.986311 0.667685
Si Si4 0.929380 0.406675 0.869519
Si Si5 0.902641 0.238557 0.675734
Si Si6 0.408869 0.834962 0.050454
O O1 0.297667 0.236353 0.572849
O O2 0.310322 0.364458 0.315905
O O3 0.075288 0.235905 0.583677
O O4 0.110535 0.413613 0.699067
O O5 0.448983 0.706435 0.036656
O O6 0.601886 0.536234 0.026263
O O7 0.540209 0.890685 0.835785
O O8 0.819892 0.995841 0.518429
O O9 0.587081 0.098627 0.796446
O O10 0.905383 0.301526 0.002882
O O11 0.874015 0.365781 0.754734
O O12 0.762516 0.165187 0.861544
#
# Coordination Sequence:
#
# PCOD9244037 Si02
#       6
#     4   4   4   4   4   4
#     4  10  20  39  64  94 121 170 200 261 321 365
#     4  12  22  40  68  94 129 165 211 267 314 371
#     4  10  23  40  64  94 130 162 218 260 306 386
#     4   9  19  39  65  90 124 162 211 250 318 368
#     4   9  19  38  67  85 124 168 204 249 320 373
#     4  10  23  42  65  92 128 174 207 256 321 378
#
# _framework density 25.404026000000002
#
# number of rings (size 3 to 8) (size 9 to 14) (size 15 to 20)
#    1.000    1.000    3.333    0.000    4.667    0.667 
#    0.000   12.500    0.000    0.000    0.000    0.000 
#    0.000    0.000    0.000    0.000    0.000    0.000 
#
# Total GULP energy -133749.132745 kJ/mol
# GULP energy per Si atom -5572.880531 kJ/mol
# Density = 2.534621 g / cm^3
# Si number density = 25.404026 Si / 1000 Ang^3
#
#
#
# Elastic Constant Matrix: (Units=GPa)
#
#
# Indices 1 2 3 4 5 6 
#
# 1 76.9089 5.7895 8.0919 0.0000 1.7728 0.0000
# 2 5.7895 76.2165 27.1762 0.0000 -3.2344 0.0000
# 3 8.0919 27.1762 107.9462 0.0000 14.3859 0.0000
# 4 0.0000 0.0000 0.0000 36.8908 0.0000 2.0803
# 5 1.7728 -3.2344 14.3859 0.0000 23.0568 0.0000
# 6 0.0000 0.0000 0.0000 2.0803 0.0000 39.0422
#
#
#
# Elastic Compliance Matrix: (Units=1/GPa)
#
#
# Indices 1 2 3 4 5 6 
#
# 1 0.013150 -0.000779 -0.000698 0.000000 -0.000685 0.000000
# 2 -0.000779 0.014938 -0.004351 0.000000 0.004870 0.000000
# 3 -0.000698 -0.004351 0.011437 0.000000 -0.007693 0.000000
# 4 0.000000 0.000000 0.000000 0.027189 0.000000 -0.001449
# 5 -0.000685 0.004870 -0.007693 0.000000 0.048907 0.000000
# 6 0.000000 0.000000 0.000000 -0.001449 0.000000 0.025690
#
#
# Mechanical properties :
#
#
# Convention : Reuss Voigt Hill
#
# Bulk Modulus (GPa) = 35.88395 38.13185 37.00790
# Shear Modulus (GPa) = 30.81518 34.46556 32.64037
#
# Velocity S-wave (km/s) = 3.48660 3.68733 3.58837
# Velocity P-wave (km/s) = 5.51040 5.75945 5.63630
#
# Compressibility (1/GPa) = 0.02786762
#
# Stress axis : x y z
#
# Youngs Moduli (GPa) = 76.04387 66.94367 87.43622
#
# Poissons Ratio (x) = 0.05214 0.06107
# Poissons Ratio (y) = 0.05923 0.38047
# Poissons Ratio (z) = 0.05311 0.29130
#
# Static dielectric constant tensor:
#      x y z
#    x 2.005250 0.000000 -0.020540 
#    y 0.000000 2.022030 0.000000 
#    z -0.020540 0.000000 2.034100 
# 
# From -- ./inp_files/32143.got.cif
#   From: 2010.05.17/outbox.cif.g08.bks.cpg/sg14_17_cif.got.tgz:32143.got - 2010.06.03 17:49:19.
