data_PCOD9244741
_publ_section_title
;
Structure prediction by ZEFSAII (Michael W. Deem and Ramdas Pophale) SiO2 
 PCOD9244741
Probable space group: P 21/C
;
_chemical_formula_sum "Si O2"
_cell_formula_units_Z 24
_cell_length_a 8.839156
_cell_length_b 11.740851
_cell_length_c 10.225251
_cell_angle_alpha 90.000000
_cell_angle_beta 103.739588
_cell_angle_gamma 90.000000
_cell_volume 1030.803432
_symmetry_space_group_name_H-M "P 21/C"
_symmetry_group_IT_number 14
_symmetry_cell_setting 'monoclinic'
loop_
_space_group_symop_operation_xyz
x,y,z
-x,1/2+y,1/2-z
-x,-y,-z
x,1/2-y,1/2+z
loop_
_atom_site_type_symbol
_atom_site_label
_atom_site_fract_x
_atom_site_fract_y
_atom_site_fract_z
Si Si1 0.883366 0.249316 0.910351
Si Si2 0.653706 0.453821 0.313991
Si Si3 0.068968 0.564990 0.266745
Si Si4 0.787654 0.037431 0.554004
Si Si5 0.696590 0.899167 0.275861
Si Si6 0.824599 0.833286 0.910473
O O1 0.780680 0.136987 0.888196
O O2 0.854363 0.320780 0.772653
O O3 0.829462 0.335865 0.013009
O O4 0.068038 0.222170 0.955137
O O5 0.682511 0.466071 0.162788
O O6 0.482028 0.406463 0.301013
O O7 0.687037 0.574802 0.390041
O O8 0.196379 0.467640 0.304494
O O9 0.949621 0.519458 0.132048
O O10 0.959732 0.596441 0.363224
O O11 0.716991 0.968117 0.417648
O O12 0.758520 0.772605 0.313985
#
# Coordination Sequence:
#
# PCOD9244741 Si02
#       6
#     4   4   4   4   4   4
#     4  11  20  41  64  92 128 164 214 262 310 372
#     4  11  26  38  65  99 130 162 209 266 324 368
#     4  10  21  39  69  88 119 173 224 245 305 387
#     4  10  20  43  67  90 120 178 214 249 310 389
#     4  11  22  43  64  95 129 165 214 263 313 370
#     4  11  23  41  66  93 126 172 210 260 314 382
#
# _framework density 23.282809
#
# number of rings (size 3 to 8) (size 9 to 14) (size 15 to 20)
#    0.000    1.333    3.333    3.000    7.000    0.000 
#    0.000    0.833    0.000    0.000    0.000    0.000 
#    0.000    0.000    0.000    0.000    0.000    0.000 
#
# Total GULP energy -134250.453777 kJ/mol
# GULP energy per Si atom -5593.768907 kJ/mol
# Density = 2.322982 g / cm^3
# Si number density = 23.282809 Si / 1000 Ang^3
#
#
#
# Elastic Constant Matrix: (Units=GPa)
#
#
# Indices 1 2 3 4 5 6 
#
# 1 106.5898 38.9949 10.8568 0.0000 30.9162 0.0000
# 2 38.9949 159.8430 25.6980 0.0000 19.2409 0.0000
# 3 10.8568 25.6980 60.8803 0.0000 3.6466 0.0000
# 4 0.0000 0.0000 0.0000 30.5779 0.0000 4.7085
# 5 30.9162 19.2409 3.6466 0.0000 34.3944 0.0000
# 6 0.0000 0.0000 0.0000 4.7085 0.0000 28.6644
#
#
#
# Elastic Compliance Matrix: (Units=1/GPa)
#
#
# Indices 1 2 3 4 5 6 
#
# 1 0.013273 -0.001779 -0.000967 0.000000 -0.010833 0.000000
# 2 -0.001779 0.007390 -0.002667 0.000000 -0.002253 0.000000
# 3 -0.000967 -0.002667 0.017695 0.000000 0.000486 0.000000
# 4 0.000000 0.000000 0.000000 0.033552 0.000000 -0.005511
# 5 -0.010833 -0.002253 0.000486 0.000000 0.040021 0.000000
# 6 0.000000 0.000000 0.000000 -0.005511 0.000000 0.035792
#
#
# Mechanical properties :
#
#
# Convention : Reuss Voigt Hill
#
# Bulk Modulus (GPa) = 36.32166 53.15697 44.73931
# Shear Modulus (GPa) = 29.81042 35.51158 32.66100
#
# Velocity S-wave (km/s) = 3.58210 3.90965 3.74945
# Velocity P-wave (km/s) = 5.72212 6.57731 6.16456
#
# Compressibility (1/GPa) = 0.02753178
#
# Stress axis : x y z
#
# Youngs Moduli (GPa) = 75.34000 135.31800 56.51322
#
# Poissons Ratio (x) = 0.24066 0.05467
# Poissons Ratio (y) = 0.13399 0.15074
# Poissons Ratio (z) = 0.07288 0.36093
#
# Static dielectric constant tensor:
#      x y z
#    x 1.862860 0.000000 -0.038490 
#    y 0.000000 1.892510 0.000000 
#    z -0.038490 0.000000 1.935340 
# 
# From -- ./inp_files/24262.got.cif
#   From: 2010.05.17/outbox.cif.g08.bks.cpg/sg14_13_cif.got.tgz:24262.got - 2010.06.03 17:49:19.
