data_PCOD9244781
_publ_section_title
;
Structure prediction by ZEFSAII (Michael W. Deem and Ramdas Pophale) SiO2 
 PCOD9244781
Probable space group: P 21/C
;
_chemical_formula_sum "Si O2"
_cell_formula_units_Z 28
_cell_length_a 11.232561
_cell_length_b 8.943019
_cell_length_c 22.743217
_cell_angle_alpha 90.000000
_cell_angle_beta 27.079914
_cell_angle_gamma 90.000000
_cell_volume 1040.036019
_symmetry_space_group_name_H-M "P 21/C"
_symmetry_group_IT_number 14
_symmetry_cell_setting 'monoclinic'
loop_
_space_group_symop_operation_xyz
x,y,z
-x,1/2+y,1/2-z
-x,-y,-z
x,1/2-y,1/2+z
loop_
_atom_site_type_symbol
_atom_site_label
_atom_site_fract_x
_atom_site_fract_y
_atom_site_fract_z
Si Si1 0.344519 0.154033 0.452874
Si Si2 0.437492 0.891863 0.772469
Si Si3 0.247371 0.406475 0.636431
Si Si4 0.271852 0.080202 0.671171
Si Si5 0.489484 0.989288 0.135769
Si Si6 0.945553 0.617637 0.607665
Si Si7 0.055779 0.835307 0.455204
O O1 0.433535 0.114064 0.347425
O O2 0.452404 0.321504 0.412307
O O3 0.038637 0.174592 0.571734
O O4 0.468205 0.024606 0.438866
O O5 0.547827 0.981599 0.779065
O O6 0.160773 0.969126 0.877068
O O7 0.348078 0.728251 0.832298
O O8 0.500000 0.500000 0.500000
O O9 0.276511 0.224767 0.625456
O O10 0.251156 0.452001 0.702965
O O11 0.974579 0.468659 0.731502
O O12 0.214247 0.141383 0.762369
O O13 0.752552 0.087502 0.008075
O O14 0.920402 0.741126 0.568175
O O15 0.000000 0.000000 0.500000
#
# Coordination Sequence:
#
# PCOD9244781 Si02
#       7
#     4   4   4   4   4   4   4
#     4  11  24  40  68 105 145 183 240 295 361 445
#     4  10  22  38  64 100 143 188 225 285 366 444
#     4  12  27  50  77 101 146 192 251 310 364 427
#     4  11  27  48  74 107 138 191 254 301 368 439
#     4  11  21  42  70  94 139 194 232 298 363 417
#     4  10  20  44  67  96 141 185 229 291 363 439
#     4  11  23  34  60 103 144 181 234 281 359 441
#
# _framework density 26.922146999999999
#
# number of rings (size 3 to 8) (size 9 to 14) (size 15 to 20)
#    0.000    1.143    4.286    1.714    8.000    0.000 
#    0.000    4.286    0.000    0.000    0.000    0.000 
#    0.000    0.000    0.000    0.000    0.000    0.000 
#
# Total GULP energy -156525.387106 kJ/mol
# GULP energy per Si atom -5590.192397 kJ/mol
# Density = 2.686087 g / cm^3
# Si number density = 26.922147 Si / 1000 Ang^3
#
#
#
# Elastic Constant Matrix: (Units=GPa)
#
#
# Indices 1 2 3 4 5 6 
#
# 1 124.3947 53.8843 12.2841 0.0000 -23.7555 0.0000
# 2 53.8843 200.1546 24.6497 0.0000 -8.7060 0.0000
# 3 12.2841 24.6497 67.7691 0.0000 -3.5397 0.0000
# 4 0.0000 0.0000 0.0000 37.9215 0.0000 -1.2656
# 5 -23.7555 -8.7060 -3.5397 0.0000 43.5716 0.0000
# 6 0.0000 0.0000 0.0000 -1.2656 0.0000 57.5976
#
#
#
# Elastic Compliance Matrix: (Units=1/GPa)
#
#
# Indices 1 2 3 4 5 6 
#
# 1 0.010104 -0.002419 -0.000692 0.000000 0.004969 0.000000
# 2 -0.002419 0.005844 -0.001702 0.000000 -0.000289 0.000000
# 3 -0.000692 -0.001702 0.015529 0.000000 0.000544 0.000000
# 4 0.000000 0.000000 0.000000 0.026390 0.000000 0.000580
# 5 0.004969 -0.000289 0.000544 0.000000 0.025646 0.000000
# 6 0.000000 0.000000 0.000000 0.000580 0.000000 0.017375
#
#
# Mechanical properties :
#
#
# Convention : Reuss Voigt Hill
#
# Bulk Modulus (GPa) = 45.76509 63.77275 54.76892
# Shear Modulus (GPa) = 42.44542 47.91816 45.18179
#
# Velocity S-wave (km/s) = 3.97495 4.22344 4.10108
# Velocity P-wave (km/s) = 6.17275 6.89366 6.54314
#
# Compressibility (1/GPa) = 0.02185072
#
# Stress axis : x y z
#
# Youngs Moduli (GPa) = 98.97093 171.10466 64.39523
#
# Poissons Ratio (x) = 0.41386 0.04457
# Poissons Ratio (y) = 0.23938 0.10963
# Poissons Ratio (z) = 0.06850 0.29130
#
# Static dielectric constant tensor:
#      x y z
#    x 2.132680 0.000000 -0.090310 
#    y 0.000000 2.186960 0.000000 
#    z -0.090310 0.000000 2.357020 
# 
# From -- ./inp_files/77095.got.cif
#   From: 2010.05.17/outbox.cif.g08.bks.cpg/sg14_39_cif.got.tgz:77095.got - 2010.06.03 17:49:19.
