data_PCOD9244309
_publ_section_title
;
Structure prediction by ZEFSAII (Michael W. Deem and Ramdas Pophale) SiO2 
 PCOD9244309
Probable space group: P 21/C
;
_chemical_formula_sum "Si O2"
_cell_formula_units_Z 28
_cell_length_a 15.659476
_cell_length_b 4.731933
_cell_length_c 13.986420
_cell_angle_alpha 90.000000
_cell_angle_beta 113.256674
_cell_angle_gamma 90.000000
_cell_volume 952.176529
_symmetry_space_group_name_H-M "P 21/C"
_symmetry_group_IT_number 14
_symmetry_cell_setting 'monoclinic'
loop_
_space_group_symop_operation_xyz
x,y,z
-x,1/2+y,1/2-z
-x,-y,-z
x,1/2-y,1/2+z
loop_
_atom_site_type_symbol
_atom_site_label
_atom_site_fract_x
_atom_site_fract_y
_atom_site_fract_z
Si Si1 0.463330 0.690122 0.646742
Si Si2 0.658582 0.526322 0.268732
Si Si3 0.055582 0.484983 0.241300
Si Si4 0.776442 0.967090 0.433400
Si Si5 0.000000 0.500000 0.000000
Si Si6 0.500000 0.500000 0.500000
Si Si7 0.648481 0.524228 0.058237
Si Si8 0.119187 0.526566 0.466729
O O1 0.370915 0.713083 0.666921
O O2 0.551748 0.850820 0.723276
O O3 0.493442 0.396806 0.612937
O O4 0.428335 0.804911 0.522344
O O5 0.725500 0.779659 0.331671
O O6 0.685917 0.418616 0.176580
O O7 0.063596 0.575448 0.135407
O O8 0.132041 0.551226 0.357947
O O9 0.033281 0.159294 0.256467
O O10 0.721867 0.913672 0.508483
O O11 0.878224 0.800444 0.496750
O O12 0.800998 0.295635 0.444855
O O13 0.966786 0.210101 0.039572
O O14 0.403023 0.309411 0.435703
#
# Coordination Sequence:
#
# PCOD9244309 Si02
#       8
#     4   4   4   4   2   2   4   4
#     4  11  23  42  66 102 138 191 278 330 373 460
#     4  11  24  42  70  99 143 205 254 319 390 455
#     4  10  22  43  74 113 145 189 242 302 357 436
#     4  12  26  47  65 110 153 194 241 314 376 458
#     4  10  24  48  82 112 144 196 256 292 364 474
#     4  10  20  40  66  90 126 190 246 324 372 422
#     4  11  25  45  66 100 143 194 259 325 383 447
#     4  11  26  46  74 106 154 190 241 303 377 446
#
# _framework density 29.406310999999999
#
# number of rings (size 3 to 8) (size 9 to 14) (size 15 to 20)
#    0.000    1.143    1.429    5.143    2.000    7.429 
#    5.143    0.000    0.000    0.000    0.000    0.000 
#    0.000    0.000    0.000    0.000    0.000    0.000 
#
# Total GULP energy -155868.511670 kJ/mol
# GULP energy per Si atom -5566.732560 kJ/mol
# Density = 2.933938 g / cm^3
# Si number density = 29.406311 Si / 1000 Ang^3
#
#
#
# Elastic Constant Matrix: (Units=GPa)
#
#
# Indices 1 2 3 4 5 6 
#
# 1 53.0294 -14.4117 26.1210 0.0000 -13.7192 0.0000
# 2 -14.4117 141.0174 36.1777 0.0000 12.8774 0.0000
# 3 26.1210 36.1777 157.1868 0.0000 -44.1537 0.0000
# 4 0.0000 0.0000 0.0000 35.2127 0.0000 2.1748
# 5 -13.7192 12.8774 -44.1537 0.0000 60.0711 0.0000
# 6 0.0000 0.0000 0.0000 2.1748 0.0000 39.2611
#
#
#
# Elastic Compliance Matrix: (Units=1/GPa)
#
#
# Indices 1 2 3 4 5 6 
#
# 1 0.022045 0.003145 -0.003985 0.000000 0.001432 0.000000
# 2 0.003145 0.008675 -0.003579 0.000000 -0.003772 0.000000
# 3 -0.003985 -0.003579 0.009839 0.000000 0.007089 0.000000
# 4 0.000000 0.000000 0.000000 0.028496 0.000000 -0.001579
# 5 0.001432 -0.003772 0.007089 0.000000 0.022993 0.000000
# 6 0.000000 0.000000 0.000000 -0.001579 0.000000 0.025558
#
#
# Mechanical properties :
#
#
# Convention : Reuss Voigt Hill
#
# Bulk Modulus (GPa) = 31.52464 49.66749 40.59606
# Shear Modulus (GPa) = 36.49116 47.13209 41.81162
#
# Velocity S-wave (km/s) = 3.52650 4.00783 3.77485
# Velocity P-wave (km/s) = 5.22736 6.19222 5.73014
#
# Compressibility (1/GPa) = 0.03172122
#
# Stress axis : x y z
#
# Youngs Moduli (GPa) = 45.36095 115.26985 101.63532
#
# Poissons Ratio (x) = -0.36248 0.40503
# Poissons Ratio (y) = -0.14264 0.36373
# Poissons Ratio (z) = 0.18077 0.41253
#
# Static dielectric constant tensor:
#      x y z
#    x 2.133280 0.000000 0.194530 
#    y 0.000000 2.656970 0.000000 
#    z 0.194530 0.000000 1.571960 
# 
# From -- ./inp_files/48230.got.cif
#   From: 2010.05.17/outbox.cif.g08.bks.cpg/sg14_25_cif.got.tgz:48230.got - 2010.06.03 17:49:19.
