data_PCOD9244787
_publ_section_title
;
Structure prediction by ZEFSAII (Michael W. Deem and Ramdas Pophale) SiO2 
 PCOD9244787
Probable space group: P 21/C
;
_chemical_formula_sum "Si O2"
_cell_formula_units_Z 28
_cell_length_a 13.640587
_cell_length_b 9.284635
_cell_length_c 10.896474
_cell_angle_alpha 90.000000
_cell_angle_beta 48.016961
_cell_angle_gamma 90.000000
_cell_volume 1025.824492
_symmetry_space_group_name_H-M "P 21/C"
_symmetry_group_IT_number 14
_symmetry_cell_setting 'monoclinic'
loop_
_space_group_symop_operation_xyz
x,y,z
-x,1/2+y,1/2-z
-x,-y,-z
x,1/2-y,1/2+z
loop_
_atom_site_type_symbol
_atom_site_label
_atom_site_fract_x
_atom_site_fract_y
_atom_site_fract_z
Si Si1 0.001716 0.178291 0.911020
Si Si2 0.197201 0.874480 0.276192
Si Si3 0.293549 0.192311 0.771987
Si Si4 0.754642 0.943386 0.518726
Si Si5 0.526551 0.036394 0.263526
Si Si6 0.968699 0.551718 0.280812
Si Si7 0.518658 0.179407 0.908633
O O1 0.152391 0.186727 0.827758
O O2 0.931621 0.024964 0.939832
O O3 0.001025 0.288823 0.793109
O O4 0.909512 0.256500 0.090837
O O5 0.344335 0.817611 0.129614
O O6 0.131062 0.977107 0.231089
O O7 0.224277 0.972841 0.372039
O O8 0.268186 0.280299 0.919668
O O9 0.364510 0.047159 0.752276
O O10 0.397177 0.226346 0.095947
O O11 0.887341 0.978087 0.340672
O O12 0.622426 0.993427 0.563398
O O13 0.517187 0.968594 0.134133
O O14 0.543585 0.204954 0.277138
#
# Coordination Sequence:
#
# PCOD9244787 Si02
#       7
#     4   4   4   4   4   4   4
#     4  11  24  41  69  96 127 183 220 270 331 399
#     4  10  22  43  64  93 135 171 217 273 332 386
#     4  12  23  43  71  98 129 177 229 268 337 398
#     4  10  20  44  68  94 132 181 215 274 336 397
#     4  11  24  44  65 101 136 171 221 283 335 396
#     4  11  22  44  69  94 134 178 228 267 332 395
#     4  11  26  41  69  99 137 173 222 281 336 397
#
# _framework density 27.295119
#
# number of rings (size 3 to 8) (size 9 to 14) (size 15 to 20)
#    0.000    1.143    4.286    2.143    0.000    8.000 
#    0.000    1.429    0.000    0.000    0.000    0.000 
#    0.000    0.000    0.000    0.000    0.000    0.000 
#
# Total GULP energy -156776.865578 kJ/mol
# GULP energy per Si atom -5599.173771 kJ/mol
# Density = 2.723299 g / cm^3
# Si number density = 27.295119 Si / 1000 Ang^3
#
#
#
# Elastic Constant Matrix: (Units=GPa)
#
#
# Indices 1 2 3 4 5 6 
#
# 1 113.9771 27.7173 51.1395 0.0000 -51.6481 0.0000
# 2 27.7173 115.3904 28.4952 0.0000 -16.5263 0.0000
# 3 51.1395 28.4952 91.7683 0.0000 -22.5187 0.0000
# 4 0.0000 0.0000 0.0000 41.5137 0.0000 9.4243
# 5 -51.6481 -16.5263 -22.5187 0.0000 44.5788 0.0000
# 6 0.0000 0.0000 0.0000 9.4243 0.0000 51.3304
#
#
#
# Elastic Compliance Matrix: (Units=1/GPa)
#
#
# Indices 1 2 3 4 5 6 
#
# 1 0.021606 -0.000475 -0.006613 0.000000 0.021516 0.000000
# 2 -0.000475 0.009606 -0.002259 0.000000 0.001869 0.000000
# 3 -0.006613 -0.002259 0.015066 0.000000 -0.000889 0.000000
# 4 0.000000 0.000000 0.000000 0.025136 0.000000 -0.004615
# 5 0.021516 0.001869 -0.000889 0.000000 0.047604 0.000000
# 6 0.000000 0.000000 0.000000 -0.004615 0.000000 0.020329
#
#
# Mechanical properties :
#
#
# Convention : Reuss Voigt Hill
#
# Bulk Modulus (GPa) = 36.25502 59.53775 47.89639
# Shear Modulus (GPa) = 29.89784 41.73683 35.81733
#
# Velocity S-wave (km/s) = 3.31320 3.91461 3.62639
# Velocity P-wave (km/s) = 5.28657 6.50324 5.92621
#
# Compressibility (1/GPa) = 0.02758239
#
# Stress axis : x y z
#
# Youngs Moduli (GPa) = 46.28302 104.10130 66.37606
#
# Poissons Ratio (x) = 0.04948 0.43896
# Poissons Ratio (y) = 0.02200 0.14996
# Poissons Ratio (z) = 0.30608 0.23519
#
# Static dielectric constant tensor:
#      x y z
#    x 2.096350 0.000000 0.082970 
#    y 0.000000 2.223730 0.000000 
#    z 0.082970 0.000000 2.358060 
# 
# From -- ./inp_files/44018.got.cif
#   From: 2010.05.17/outbox.cif.g08.bks.cpg/sg14_23_cif.got.tgz:44018.got - 2010.06.03 17:49:19.
