data_PCOD9244432
_publ_section_title
;
Structure prediction by ZEFSAII (Michael W. Deem and Ramdas Pophale) SiO2 
 PCOD9244432
Probable space group: P 21/C
;
_chemical_formula_sum "Si O2"
_cell_formula_units_Z 12
_cell_length_a 7.905363
_cell_length_b 6.570537
_cell_length_c 13.290161
_cell_angle_alpha 90.000000
_cell_angle_beta 137.435412
_cell_angle_gamma 90.000000
_cell_volume 466.949523
_symmetry_space_group_name_H-M "P 21/C"
_symmetry_group_IT_number 14
_symmetry_cell_setting 'monoclinic'
loop_
_space_group_symop_operation_xyz
x,y,z
-x,1/2+y,1/2-z
-x,-y,-z
x,1/2-y,1/2+z
loop_
_atom_site_type_symbol
_atom_site_label
_atom_site_fract_x
_atom_site_fract_y
_atom_site_fract_z
Si Si1 0.179815 0.808154 0.099155
Si Si2 0.666935 0.552023 0.168472
Si Si3 0.022373 0.074174 0.663170
O O1 0.073183 0.631390 0.124412
O O2 0.393278 0.915529 0.260170
O O3 0.186216 0.697813 0.993875
O O4 0.000000 0.000000 0.000000
O O5 0.731988 0.783792 0.224270
O O6 0.933409 0.477106 0.236180
O O7 0.500000 0.500000 0.000000
#
# Coordination Sequence:
#
# PCOD9244432 Si02
#       3
#     4   4   4
#     4   9  20  40  62  86 123 163 200 257 314 355
#     4  11  22  39  63  93 118 165 208 251 313 369
#     4  10  20  41  62  85 129 158 202 266 299 365
#
# _framework density 25.698709999999998
#
# number of rings (size 3 to 8) (size 9 to 14) (size 15 to 20)
#    0.000    2.000    3.333    0.000    0.000    1.333 
#   18.000    0.000    0.000    0.000    0.000    0.000 
#    0.000    0.000    0.000    0.000    0.000    0.000 
#
# Total GULP energy -66973.511962 kJ/mol
# GULP energy per Si atom -5581.125997 kJ/mol
# Density = 2.564022 g / cm^3
# Si number density = 25.698710 Si / 1000 Ang^3
#
#
#
# Elastic Constant Matrix: (Units=GPa)
#
#
# Indices 1 2 3 4 5 6 
#
# 1 95.8023 46.3113 6.9014 0.0000 -36.0674 0.0000
# 2 46.3113 178.9603 62.6931 0.0000 -21.1555 0.0000
# 3 6.9014 62.6931 163.4604 0.0000 -23.4211 0.0000
# 4 0.0000 0.0000 0.0000 47.1591 0.0000 -36.9274
# 5 -36.0674 -21.1555 -23.4211 0.0000 39.0827 0.0000
# 6 0.0000 0.0000 0.0000 -36.9274 0.0000 46.4781
#
#
#
# Elastic Compliance Matrix: (Units=1/GPa)
#
#
# Indices 1 2 3 4 5 6 
#
# 1 0.018383 -0.003867 0.003104 0.000000 0.016732 0.000000
# 2 -0.003867 0.007446 -0.002873 0.000000 -0.001260 0.000000
# 3 0.003104 -0.002873 0.007960 0.000000 0.006080 0.000000
# 4 0.000000 0.000000 0.000000 0.056117 0.000000 0.044586
# 5 0.016732 -0.001260 0.006080 0.000000 0.043989 0.000000
# 6 0.000000 0.000000 0.000000 0.044586 0.000000 0.056940
#
#
# Mechanical properties :
#
#
# Convention : Reuss Voigt Hill
#
# Bulk Modulus (GPa) = 37.71077 74.44830 56.07953
# Shear Modulus (GPa) = 24.16102 48.03179 36.09640
#
# Velocity S-wave (km/s) = 3.06954 4.32792 3.75187
# Velocity P-wave (km/s) = 5.22195 7.34895 6.37479
#
# Compressibility (1/GPa) = 0.02651763
#
# Stress axis : x y z
#
# Youngs Moduli (GPa) = 54.39852 134.29973 125.63385
#
# Poissons Ratio (x) = 0.51929 -0.39000
# Poissons Ratio (y) = 0.21034 0.36095
# Poissons Ratio (z) = -0.16887 0.38585
#
# Static dielectric constant tensor:
#      x y z
#    x 2.144160 0.000000 0.150260 
#    y 0.000000 2.004460 0.000000 
#    z 0.150260 0.000000 2.107540 
# 
# From -- ./inp_files/14880.got.cif
#   From: 2010.05.17/outbox.cif.g08.bks.cpg/sg14_8_cif.got.tgz:14880.got - 2010.06.03 17:49:19.
