data_PCOD9244322
_publ_section_title
;
Structure prediction by ZEFSAII (Michael W. Deem and Ramdas Pophale) SiO2 
 PCOD9244322
Probable space group: P 21/C
;
_chemical_formula_sum "Si O2"
_cell_formula_units_Z 30
_cell_length_a 13.583952
_cell_length_b 11.985287
_cell_length_c 9.979981
_cell_angle_alpha 90.000000
_cell_angle_beta 114.956033
_cell_angle_gamma 90.000000
_cell_volume 1473.110246
_symmetry_space_group_name_H-M "P 21/C"
_symmetry_group_IT_number 14
_symmetry_cell_setting 'monoclinic'
loop_
_space_group_symop_operation_xyz
x,y,z
-x,1/2+y,1/2-z
-x,-y,-z
x,1/2-y,1/2+z
loop_
_atom_site_type_symbol
_atom_site_label
_atom_site_fract_x
_atom_site_fract_y
_atom_site_fract_z
Si Si1 0.285453 0.932891 0.805495
Si Si2 0.866581 0.431105 0.532215
Si Si3 0.500000 0.000000 0.500000
Si Si4 0.894883 0.499837 0.251534
Si Si5 0.818413 0.320892 0.996381
Si Si6 0.369765 0.329889 0.257980
Si Si7 0.588939 0.255641 0.989866
Si Si8 0.293175 0.147687 0.419536
O O1 0.229114 0.953913 0.916685
O O2 0.195167 0.888766 0.649245
O O3 0.342457 0.042925 0.781406
O O4 0.371727 0.833684 0.877830
O O5 0.848123 0.480988 0.374444
O O6 0.876495 0.297827 0.517128
O O7 0.978206 0.477956 0.656225
O O8 0.462614 0.868224 0.482556
O O9 0.628175 0.957333 0.567236
O O10 0.829085 0.602693 0.151179
O O11 0.871962 0.395181 0.142473
O O12 0.695635 0.290719 0.970029
O O13 0.497402 0.304482 0.347632
O O14 0.310093 0.245349 0.323102
O O15 0.329120 0.310249 0.085391
#
# Coordination Sequence:
#
# PCOD9244322 Si02
#       8
#     4   4   2   4   4   4   4   4
#     4  11  23  43  67 102 134 178 230 284 333 408
#     4  10  25  41  71  98 129 178 228 286 346 408
#     4  10  20  40  66  94 128 182 218 270 336 400
#     4  11  23  48  67  97 135 177 228 285 349 413
#     4  11  22  44  70  99 135 174 229 280 345 403
#     4  11  25  43  64 100 136 182 231 277 339 403
#     4  10  22  38  68  95 140 175 223 273 335 403
#     4  11  25  44  66  96 138 181 226 284 342 404
#
# _framework density 20.365074
#
# number of rings (size 3 to 8) (size 9 to 14) (size 15 to 20)
#    0.000    1.333    2.667    2.000    5.600    2.667 
#    7.200    0.000    0.000    0.000    0.000    0.000 
#    0.000    0.000    0.000    0.000    0.000    0.000 
#
# Total GULP energy -167170.688555 kJ/mol
# GULP energy per Si atom -5572.356285 kJ/mol
# Density = 2.031872 g / cm^3
# Si number density = 20.365074 Si / 1000 Ang^3
#
#
#
# Elastic Constant Matrix: (Units=GPa)
#
#
# Indices 1 2 3 4 5 6 
#
# 1 33.1572 21.0519 22.3510 0.0000 3.7032 0.0000
# 2 21.0519 79.2973 42.3648 0.0000 -1.5921 0.0000
# 3 22.3510 42.3648 132.0479 0.0000 14.0928 0.0000
# 4 0.0000 0.0000 0.0000 23.2874 0.0000 5.7407
# 5 3.7032 -1.5921 14.0928 0.0000 19.2873 0.0000
# 6 0.0000 0.0000 0.0000 5.7407 0.0000 31.5916
#
#
#
# Elastic Compliance Matrix: (Units=1/GPa)
#
#
# Indices 1 2 3 4 5 6 
#
# 1 0.038394 -0.008653 -0.003102 0.000000 -0.005820 0.000000
# 2 -0.008653 0.017672 -0.004922 0.000000 0.006717 0.000000
# 3 -0.003102 -0.004922 0.010474 0.000000 -0.007464 0.000000
# 4 0.000000 0.000000 0.000000 0.044955 0.000000 -0.008169
# 5 -0.005820 0.006717 -0.007464 0.000000 0.058973 0.000000
# 6 0.000000 0.000000 0.000000 -0.008169 0.000000 0.033138
#
#
# Mechanical properties :
#
#
# Convention : Reuss Voigt Hill
#
# Bulk Modulus (GPa) = 30.13200 46.22643 38.17921
# Shear Modulus (GPa) = 20.15955 25.41560 22.78757
#
# Velocity S-wave (km/s) = 3.14969 3.53654 3.34871
# Velocity P-wave (km/s) = 5.29674 6.27887 5.80860
#
# Compressibility (1/GPa) = 0.03318731
#
# Stress axis : x y z
#
# Youngs Moduli (GPa) = 26.04588 56.58561 95.47737
#
# Poissons Ratio (x) = 0.48961 0.29613
# Poissons Ratio (y) = 0.22537 0.46994
# Poissons Ratio (z) = 0.08078 0.27852
#
# Static dielectric constant tensor:
#      x y z
#    x 1.729600 0.000000 -0.004780 
#    y 0.000000 1.702960 0.000000 
#    z -0.004780 0.000000 1.727280 
# 
# From -- ./inp_files/15918.got.cif
#   From: 2010.05.17/outbox.cif.g08.bks.cpg/sg14_8_cif.got.tgz:15918.got - 2010.06.03 17:49:19.
