data_PCOD9244429
_publ_section_title
;
Structure prediction by ZEFSAII (Michael W. Deem and Ramdas Pophale) SiO2 
 PCOD9244429
Probable space group: P 21/C
;
_chemical_formula_sum "Si O2"
_cell_formula_units_Z 28
_cell_length_a 17.571467
_cell_length_b 4.984218
_cell_length_c 12.967326
_cell_angle_alpha 90.000000
_cell_angle_beta 107.519219
_cell_angle_gamma 90.000000
_cell_volume 1083.001411
_symmetry_space_group_name_H-M "P 21/C"
_symmetry_group_IT_number 14
_symmetry_cell_setting 'monoclinic'
loop_
_space_group_symop_operation_xyz
x,y,z
-x,1/2+y,1/2-z
-x,-y,-z
x,1/2-y,1/2+z
loop_
_atom_site_type_symbol
_atom_site_label
_atom_site_fract_x
_atom_site_fract_y
_atom_site_fract_z
Si Si1 0.133073 0.240504 0.114980
Si Si2 0.009660 0.983978 0.823357
Si Si3 0.425017 0.713924 0.060051
Si Si4 0.596100 0.786715 0.091553
Si Si5 0.771056 0.810804 0.170423
Si Si6 0.857650 0.076731 0.563053
Si Si7 0.267817 0.906239 0.065180
O O1 0.166543 0.428422 0.221665
O O2 0.061900 0.055221 0.126500
O O3 0.212422 0.073181 0.118601
O O4 0.098794 0.384392 0.000109
O O5 0.089940 0.839929 0.896195
O O6 0.986410 0.783341 0.718608
O O7 0.404517 0.421249 0.005933
O O8 0.416550 0.914850 0.958351
O O9 0.518052 0.719696 0.127142
O O10 0.360566 0.833600 0.113414
O O11 0.682393 0.760833 0.177925
O O12 0.819641 0.552272 0.149319
O O13 0.748739 0.969991 0.056418
O O14 0.778011 0.127678 0.463462
#
# Coordination Sequence:
#
# PCOD9244429 Si02
#       7
#     4   4   4   4   4   4   4
#     4  11  25  41  64  95 129 173 217 276 334 394
#     4  12  27  46  70  95 130 173 221 276 332 402
#     4   9  17  33  59  93 121 163 211 259 316 381
#     4   9  17  32  62  89 122 165 212 256 315 385
#     4  10  20  41  61  93 125 173 216 267 327 396
#     4  11  23  41  66  92 128 170 215 274 332 393
#     4  10  22  38  65  91 132 166 219 270 327 397
#
# _framework density 25.854077
#
# number of rings (size 3 to 8) (size 9 to 14) (size 15 to 20)
#    0.000    1.714    2.857    1.286    4.000    1.714 
#    0.000    0.000    3.143    0.000    0.000    0.000 
#    0.000    0.000    0.000    0.000    0.000    0.000 
#
# Total GULP energy -156402.682821 kJ/mol
# GULP energy per Si atom -5585.810101 kJ/mol
# Density = 2.579523 g / cm^3
# Si number density = 25.854077 Si / 1000 Ang^3
#
#
#
# Elastic Constant Matrix: (Units=GPa)
#
#
# Indices 1 2 3 4 5 6 
#
# 1 187.9450 -5.6738 33.2314 0.0000 7.5726 0.0000
# 2 -5.6738 70.5719 9.9783 0.0000 -3.7773 0.0000
# 3 33.2314 9.9783 64.1689 0.0000 8.0506 0.0000
# 4 0.0000 0.0000 0.0000 25.2787 0.0000 1.2618
# 5 7.5726 -3.7773 8.0506 0.0000 33.5985 0.0000
# 6 0.0000 0.0000 0.0000 1.2618 0.0000 34.0960
#
#
#
# Elastic Compliance Matrix: (Units=1/GPa)
#
#
# Indices 1 2 3 4 5 6 
#
# 1 0.005923 0.000895 -0.003147 0.000000 -0.000480 0.000000
# 2 0.000895 0.014789 -0.003038 0.000000 0.002189 0.000000
# 3 -0.003147 -0.003038 0.018186 0.000000 -0.003990 0.000000
# 4 0.000000 0.000000 0.000000 0.039632 0.000000 -0.001467
# 5 -0.000480 0.002189 -0.003990 0.000000 0.031074 0.000000
# 6 0.000000 0.000000 0.000000 -0.001467 0.000000 0.029383
#
#
# Mechanical properties :
#
#
# Convention : Reuss Voigt Hill
#
# Bulk Modulus (GPa) = 35.31040 44.19531 39.75286
# Shear Modulus (GPa) = 31.44541 37.60465 34.52503
#
# Velocity S-wave (km/s) = 3.49128 3.81792 3.65825
# Velocity P-wave (km/s) = 5.47168 6.04703 5.76654
#
# Compressibility (1/GPa) = 0.02832026
#
# Stress axis : x y z
#
# Youngs Moduli (GPa) = 168.82049 67.61956 54.98619
#
# Poissons Ratio (x) = -0.06055 0.17302
# Poissons Ratio (y) = -0.15116 0.16704
# Poissons Ratio (z) = 0.53120 0.20542
#
# Static dielectric constant tensor:
#      x y z
#    x 2.114700 0.000000 -0.024580 
#    y 0.000000 2.091600 0.000000 
#    z -0.024580 0.000000 2.100590 
# 
# From -- ./inp_files/47854.got.cif
#   From: 2010.05.17/outbox.cif.g08.bks.cpg/sg14_24_cif.got.tgz:47854.got - 2010.06.03 17:49:19.
