data_PCOD9244819
_publ_section_title
;
Structure prediction by ZEFSAII (Michael W. Deem and Ramdas Pophale) SiO2 
 PCOD9244819
Probable space group: P 21/C
;
_chemical_formula_sum "Si O2"
_cell_formula_units_Z 20
_cell_length_a 9.203030
_cell_length_b 6.896309
_cell_length_c 24.708654
_cell_angle_alpha 90.000000
_cell_angle_beta 150.505350
_cell_angle_gamma 90.000000
_cell_volume 772.082623
_symmetry_space_group_name_H-M "P 21/C"
_symmetry_group_IT_number 14
_symmetry_cell_setting 'monoclinic'
loop_
_space_group_symop_operation_xyz
x,y,z
-x,1/2+y,1/2-z
-x,-y,-z
x,1/2-y,1/2+z
loop_
_atom_site_type_symbol
_atom_site_label
_atom_site_fract_x
_atom_site_fract_y
_atom_site_fract_z
Si Si1 0.642973 0.664326 0.123868
Si Si2 0.439565 0.909405 0.921522
Si Si3 0.058123 0.630733 0.572151
Si Si4 0.602294 0.871452 0.729914
Si Si5 0.090019 0.591949 0.867673
O O1 0.652266 0.558448 0.184544
O O2 0.880643 0.609152 0.154667
O O3 0.643663 0.894087 0.136654
O O4 0.335782 0.610884 0.994261
O O5 0.204584 0.744830 0.858788
O O6 0.737134 0.827327 0.992463
O O7 0.500000 0.000000 0.000000
O O8 0.260735 0.816953 0.626111
O O9 0.241909 0.509123 0.676458
O O10 0.000000 0.500000 0.500000
O O11 0.787331 0.669534 0.793296
#
# Coordination Sequence:
#
# PCOD9244819 Si02
#       5
#     4   4   4   4   4
#     4  10  22  41  69 102 136 181 244 297 355 436
#     4  10  20  45  71  94 143 185 225 310 366 408
#     4  12  26  47  68 104 153 187 239 311 361 434
#     4  12  25  43  70 104 144 195 246 286 381 432
#     4  10  23  42  70 104 137 184 244 300 360 437
#
# _framework density 25.903960999999999
#
# number of rings (size 3 to 8) (size 9 to 14) (size 15 to 20)
#    0.000    1.200    6.000    0.000    2.800    6.400 
#    0.000    3.000    0.000    0.000    0.000    0.000 
#    0.000    0.000    0.000    0.000    0.000    0.000 
#
# Total GULP energy -111979.164371 kJ/mol
# GULP energy per Si atom -5598.958219 kJ/mol
# Density = 2.584500 g / cm^3
# Si number density = 25.903961 Si / 1000 Ang^3
#
#
#
# Elastic Constant Matrix: (Units=GPa)
#
#
# Indices 1 2 3 4 5 6 
#
# 1 113.2877 20.3553 48.9611 0.0000 -1.2317 0.0000
# 2 20.3553 76.1627 21.3459 0.0000 4.1611 0.0000
# 3 48.9611 21.3459 104.3764 0.0000 0.4552 0.0000
# 4 0.0000 0.0000 0.0000 51.3162 0.0000 -1.3415
# 5 -1.2317 4.1611 0.4552 0.0000 79.4625 0.0000
# 6 0.0000 0.0000 0.0000 -1.3415 0.0000 44.4759
#
#
#
# Elastic Compliance Matrix: (Units=1/GPa)
#
#
# Indices 1 2 3 4 5 6 
#
# 1 0.011264 -0.001639 -0.004950 0.000000 0.000289 0.000000
# 2 -0.001639 0.014207 -0.002133 0.000000 -0.000757 0.000000
# 3 -0.004950 -0.002133 0.012339 0.000000 -0.000036 0.000000
# 4 0.000000 0.000000 0.000000 0.019502 0.000000 0.000588
# 5 0.000289 -0.000757 -0.000036 0.000000 0.012629 0.000000
# 6 0.000000 0.000000 0.000000 0.000588 0.000000 0.022502
#
#
# Mechanical properties :
#
#
# Convention : Reuss Voigt Hill
#
# Bulk Modulus (GPa) = 49.10183 52.79461 50.94822
# Shear Modulus (GPa) = 42.85372 48.59521 45.72446
#
# Velocity S-wave (km/s) = 4.07176 4.33595 4.20593
# Velocity P-wave (km/s) = 6.41109 6.74481 6.58007
#
# Compressibility (1/GPa) = 0.02036584
#
# Stress axis : x y z
#
# Youngs Moduli (GPa) = 88.77906 70.38737 81.04365
#
# Poissons Ratio (x) = 0.11536 0.40115
# Poissons Ratio (y) = 0.14550 0.17290
# Poissons Ratio (z) = 0.43944 0.15016
#
# Static dielectric constant tensor:
#      x y z
#    x 1.981700 0.000000 -0.027160 
#    y 0.000000 2.134230 0.000000 
#    z -0.027160 0.000000 2.115490 
# 
# From -- ./inp_files/38717.got.cif
#   From: 2010.05.17/outbox.cif.g08.bks.cpg/sg14_20_cif.got.tgz:38717.got - 2010.06.03 17:49:19.
