data_PCOD9244818
_publ_section_title
;
Structure prediction by ZEFSAII (Michael W. Deem and Ramdas Pophale) SiO2 
 PCOD9244818
Probable space group: P 21/C
;
_chemical_formula_sum "Si O2"
_cell_formula_units_Z 22
_cell_length_a 7.771068
_cell_length_b 19.642812
_cell_length_c 7.555306
_cell_angle_alpha 90.000000
_cell_angle_beta 52.775880
_cell_angle_gamma 90.000000
_cell_volume 918.331935
_symmetry_space_group_name_H-M "P 21/C"
_symmetry_group_IT_number 14
_symmetry_cell_setting 'monoclinic'
loop_
_space_group_symop_operation_xyz
x,y,z
-x,1/2+y,1/2-z
-x,-y,-z
x,1/2-y,1/2+z
loop_
_atom_site_type_symbol
_atom_site_label
_atom_site_fract_x
_atom_site_fract_y
_atom_site_fract_z
Si Si1 0.693359 0.415777 0.747271
Si Si2 0.542063 0.344215 0.385746
Si Si3 0.994332 0.130291 0.748417
Si Si4 0.500000 0.500000 0.500000
Si Si5 0.728001 0.993294 0.563132
Si Si6 0.408230 0.200644 0.583008
O O1 0.535041 0.474083 0.755032
O O2 0.885413 0.399005 0.495844
O O3 0.750492 0.449550 0.900350
O O4 0.558431 0.346893 0.863592
O O5 0.454420 0.417034 0.499729
O O6 0.466216 0.279407 0.544271
O O7 0.457559 0.330243 0.243169
O O8 0.801578 0.345184 0.243105
O O9 0.152628 0.073209 0.572060
O O10 0.158549 0.190900 0.691215
O O11 0.250444 0.511193 0.746699
#
# Coordination Sequence:
#
# PCOD9244818 Si02
#       6
#     4   4   4   2   4   4
#     4  10  20  45  71 109 153 192 251 310 371 448
#     4  12  27  50  74 112 153 195 255 318 369 457
#     4  11  25  47  78 110 149 205 251 309 388 456
#     4  12  24  48  74 114 158 192 258 322 366 454
#     4  10  22  41  74 110 152 197 245 314 374 445
#     4  11  27  49  74 107 151 202 251 314 383 443
#
# _framework density 23.956477
#
# number of rings (size 3 to 8) (size 9 to 14) (size 15 to 20)
#    0.000    1.091    3.636    1.636    2.545    5.091 
#    3.273    0.000    0.000    0.000    0.000    0.000 
#    0.000    0.000    0.000    0.000    0.000    0.000 
#
# Total GULP energy -122721.073613 kJ/mol
# GULP energy per Si atom -5578.230619 kJ/mol
# Density = 2.390195 g / cm^3
# Si number density = 23.956477 Si / 1000 Ang^3
#
#
#
# Elastic Constant Matrix: (Units=GPa)
#
#
# Indices 1 2 3 4 5 6 
#
# 1 81.4470 27.8341 -4.8180 0.0000 -14.0787 0.0000
# 2 27.8341 164.0469 20.2814 0.0000 -6.7961 0.0000
# 3 -4.8180 20.2814 95.4899 0.0000 2.4999 0.0000
# 4 0.0000 0.0000 0.0000 26.0562 0.0000 -3.4805
# 5 -14.0787 -6.7961 2.4999 0.0000 31.5299 0.0000
# 6 0.0000 0.0000 0.0000 -3.4805 0.0000 20.0878
#
#
#
# Elastic Compliance Matrix: (Units=1/GPa)
#
#
# Indices 1 2 3 4 5 6 
#
# 1 0.014111 -0.002287 0.001048 0.000000 0.005725 0.000000
# 2 -0.002287 0.006698 -0.001552 0.000000 0.000546 0.000000
# 3 0.001048 -0.001552 0.010874 0.000000 -0.000729 0.000000
# 4 0.000000 0.000000 0.000000 0.039288 0.000000 0.006807
# 5 0.005725 0.000546 -0.000729 0.000000 0.034448 0.000000
# 6 0.000000 0.000000 0.000000 0.006807 0.000000 0.050961
#
#
# Mechanical properties :
#
#
# Convention : Reuss Voigt Hill
#
# Bulk Modulus (GPa) = 38.31293 47.50876 42.91084
# Shear Modulus (GPa) = 29.29763 35.38053 32.33908
#
# Velocity S-wave (km/s) = 3.50087 3.84717 3.67810
# Velocity P-wave (km/s) = 5.68936 6.29354 5.99906
#
# Compressibility (1/GPa) = 0.02610085
#
# Stress axis : x y z
#
# Youngs Moduli (GPa) = 70.86714 149.29122 91.96272
#
# Poissons Ratio (x) = 0.34137 -0.09635
# Poissons Ratio (y) = 0.16204 0.14276
# Poissons Ratio (z) = -0.07425 0.23175
#
# Static dielectric constant tensor:
#      x y z
#    x 1.682090 0.000000 -0.297140 
#    y 0.000000 2.068880 0.000000 
#    z -0.297140 0.000000 1.666670 
# 
# From -- ./inp_files/10094.got.cif
#   From: 2010.05.17/outbox.cif.g08.bks.cpg/sg14_6_cif.got.tgz:10094.got - 2010.06.03 17:49:19.
