data_PCOD9244378
_publ_section_title
;
Structure prediction by ZEFSAII (Michael W. Deem and Ramdas Pophale) SiO2 
 PCOD9244378
Probable space group: P 21/C
;
_chemical_formula_sum "Si O2"
_cell_formula_units_Z 30
_cell_length_a 11.745136
_cell_length_b 18.259693
_cell_length_c 5.047595
_cell_angle_alpha 90.000000
_cell_angle_beta 100.019235
_cell_angle_gamma 90.000000
_cell_volume 1066.011153
_symmetry_space_group_name_H-M "P 21/C"
_symmetry_group_IT_number 14
_symmetry_cell_setting 'monoclinic'
loop_
_space_group_symop_operation_xyz
x,y,z
-x,1/2+y,1/2-z
-x,-y,-z
x,1/2-y,1/2+z
loop_
_atom_site_type_symbol
_atom_site_label
_atom_site_fract_x
_atom_site_fract_y
_atom_site_fract_z
Si Si1 0.191553 0.298229 0.693064
Si Si2 0.514561 0.289927 0.582978
Si Si3 0.611175 0.922301 0.756861
Si Si4 0.000000 0.000000 0.000000
Si Si5 0.162148 0.588191 0.784144
Si Si6 0.213893 0.785148 0.900328
Si Si7 0.293877 0.490501 0.199205
Si Si8 0.939496 0.596244 0.011700
O O1 0.196714 0.228765 0.892515
O O2 0.291064 0.358938 0.738451
O O3 0.083333 0.337731 0.793687
O O4 0.465721 0.230997 0.775290
O O5 0.492970 0.371057 0.681944
O O6 0.650791 0.276508 0.604787
O O7 0.644462 0.980207 0.996740
O O8 0.612367 0.961980 0.476975
O O9 0.138575 0.989320 0.130629
O O10 0.015209 0.955660 0.729092
O O11 0.203273 0.645631 0.586754
O O12 0.245281 0.567574 0.060494
O O13 0.024300 0.603592 0.791129
O O14 0.163797 0.722271 0.082249
O O15 0.182746 0.435073 0.137779
#
# Coordination Sequence:
#
# PCOD9244378 Si02
#       8
#     4   4   4   2   4   4   4   4
#     4  11  23  36  54  87 126 156 199 262 321 370
#     4  10  20  40  69  93 125 172 218 260 326 400
#     4  11  21  38  62  93 127 165 205 266 321 395
#     4  10  22  40  64  86 112 170 224 246 314 376
#     4  11  25  41  67  91 130 179 217 274 318 389
#     4  10  25  46  68  98 129 169 222 271 321 384
#     4  10  23  37  61  94 126 162 217 257 317 384
#     4  10  24  37  61  83 125 169 217 252 311 387
#
# _framework density 28.142295000000001
#
# number of rings (size 3 to 8) (size 9 to 14) (size 15 to 20)
#    0.000    1.600    0.000    4.800   14.933    1.067 
#    0.000    1.333    0.000    0.000    0.000    0.000 
#    0.000    0.000    0.000    0.000    0.000    0.000 
#
# Total GULP energy -167416.525564 kJ/mol
# GULP energy per Si atom -5580.550852 kJ/mol
# Density = 2.807824 g / cm^3
# Si number density = 28.142295 Si / 1000 Ang^3
#
#
#
# Elastic Constant Matrix: (Units=GPa)
#
#
# Indices 1 2 3 4 5 6 
#
# 1 92.5141 26.9340 36.0935 0.0000 -31.9691 0.0000
# 2 26.9340 56.9081 -10.2448 0.0000 -21.0979 0.0000
# 3 36.0935 -10.2448 158.7255 0.0000 -34.9380 0.0000
# 4 0.0000 0.0000 0.0000 50.1452 0.0000 -21.7357
# 5 -31.9691 -21.0979 -34.9380 0.0000 36.5513 0.0000
# 6 0.0000 0.0000 0.0000 -21.7357 0.0000 46.7808
#
#
#
# Elastic Compliance Matrix: (Units=1/GPa)
#
#
# Indices 1 2 3 4 5 6 
#
# 1 0.016201 -0.004261 -0.001750 0.000000 0.010038 0.000000
# 2 -0.004261 0.027894 0.006957 0.000000 0.019023 0.000000
# 3 -0.001750 0.006957 0.009744 0.000000 0.011800 0.000000
# 4 0.000000 0.000000 0.000000 0.024971 0.000000 0.011602
# 5 0.010038 0.019023 0.011800 0.000000 0.058398 0.000000
# 6 0.000000 0.000000 0.000000 0.011602 0.000000 0.026767
#
#
# Mechanical properties :
#
#
# Convention : Reuss Voigt Hill
#
# Bulk Modulus (GPa) = 17.94324 45.96812 31.95568
# Shear Modulus (GPa) = 27.67618 43.71980 35.69799
#
# Velocity S-wave (km/s) = 3.13938 3.94576 3.56544
# Velocity P-wave (km/s) = 4.41936 6.09330 5.32255
#
# Compressibility (1/GPa) = 0.05573129
#
# Stress axis : x y z
#
# Youngs Moduli (GPa) = 61.72423 35.84993 102.62405
#
# Poissons Ratio (x) = 0.15277 0.17955
# Poissons Ratio (y) = 0.26302 -0.71393
# Poissons Ratio (z) = 0.10799 -0.24940
#
# Static dielectric constant tensor:
#      x y z
#    x 2.193460 0.000000 -0.005640 
#    y 0.000000 2.164680 0.000000 
#    z -0.005640 0.000000 2.056880 
# 
# From -- ./inp_files/2958.got.cif
#   From: 2010.05.17/outbox.cif.g08.bks.cpg/sg14_2_cif.got.tgz:2958.got - 2010.06.03 17:49:19.
