data_PCOD9244268
_publ_section_title
;
Structure prediction by ZEFSAII (Michael W. Deem and Ramdas Pophale) SiO2 
 PCOD9244268
Probable space group: P 21/C
;
_chemical_formula_sum "Si O2"
_cell_formula_units_Z 28
_cell_length_a 9.745903
_cell_length_b 19.710588
_cell_length_c 14.962012
_cell_angle_alpha 90.000000
_cell_angle_beta 151.425856
_cell_angle_gamma 90.000000
_cell_volume 1374.700368
_symmetry_space_group_name_H-M "P 21/C"
_symmetry_group_IT_number 14
_symmetry_cell_setting 'monoclinic'
loop_
_space_group_symop_operation_xyz
x,y,z
-x,1/2+y,1/2-z
-x,-y,-z
x,1/2-y,1/2+z
loop_
_atom_site_type_symbol
_atom_site_label
_atom_site_fract_x
_atom_site_fract_y
_atom_site_fract_z
Si Si1 0.131470 0.829537 0.118062
Si Si2 0.785741 0.330939 0.545971
Si Si3 0.584637 0.726068 0.393342
Si Si4 0.318124 0.402127 0.849899
Si Si5 0.274759 0.128342 0.860591
Si Si6 0.295783 0.682463 0.052225
Si Si7 0.100627 0.951787 0.224627
O O1 0.432427 0.797838 0.324311
O O2 0.045410 0.901249 0.111398
O O3 0.167075 0.838714 0.033036
O O4 0.883191 0.777584 0.009187
O O5 0.551186 0.378917 0.456727
O O6 0.680825 0.253101 0.489846
O O7 0.095882 0.348036 0.764023
O O8 0.637626 0.682794 0.512668
O O9 0.361264 0.693677 0.193596
O O10 0.467791 0.368438 0.850252
O O11 0.133986 0.469379 0.723849
O O12 0.588369 0.426094 0.062552
O O13 0.019070 0.156145 0.651891
O O14 0.136142 0.065547 0.835247
#
# Coordination Sequence:
#
# PCOD9244268 Si02
#       7
#     4   4   4   4   4   4   4
#     4  10  22  38  58  90 120 158 202 249 303 359
#     4  11  22  35  60  93 117 157 196 258 303 355
#     4  10  22  38  56  90 123 155 199 254 295 361
#     4  10  20  40  65  84 121 162 208 245 299 366
#     4  10  23  37  59  90 122 158 200 250 308 356
#     4  10  21  39  60  87 123 156 202 249 303 358
#     4   9  22  41  61  86 119 167 206 242 298 375
#
# _framework density 20.368074
#
# number of rings (size 3 to 8) (size 9 to 14) (size 15 to 20)
#    0.000    2.000    1.429    0.857   14.000    1.143 
#    0.000    0.000    0.000    2.571    0.000    0.000 
#    0.000    0.000    0.000    0.000    0.000    0.000 
#
# Total GULP energy -156126.985586 kJ/mol
# GULP energy per Si atom -5575.963771 kJ/mol
# Density = 2.032172 g / cm^3
# Si number density = 20.368074 Si / 1000 Ang^3
#
#
#
# Elastic Constant Matrix: (Units=GPa)
#
#
# Indices 1 2 3 4 5 6 
#
# 1 91.3089 10.9036 38.8356 0.0000 20.1878 0.0000
# 2 10.9036 43.4259 1.9782 0.0000 -2.5334 0.0000
# 3 38.8356 1.9782 90.5492 0.0000 9.1895 0.0000
# 4 0.0000 0.0000 0.0000 21.3985 0.0000 -4.5833
# 5 20.1878 -2.5334 9.1895 0.0000 23.9932 0.0000
# 6 0.0000 0.0000 0.0000 -4.5833 0.0000 10.6284
#
#
#
# Elastic Compliance Matrix: (Units=1/GPa)
#
#
# Indices 1 2 3 4 5 6 
#
# 1 0.016702 -0.004647 -0.005812 0.000000 -0.012318 0.000000
# 2 -0.004647 0.024517 0.000830 0.000000 0.006181 0.000000
# 3 -0.005812 0.000830 0.013539 0.000000 -0.000208 0.000000
# 4 0.000000 0.000000 0.000000 0.051488 0.000000 0.022203
# 5 -0.012318 0.006181 -0.000208 0.000000 0.052775 0.000000
# 6 0.000000 0.000000 0.000000 0.022203 0.000000 0.103662
#
#
# Mechanical properties :
#
#
# Convention : Reuss Voigt Hill
#
# Bulk Modulus (GPa) = 28.16823 36.52430 32.34627
# Shear Modulus (GPa) = 17.01983 22.77514 19.89749
#
# Velocity S-wave (km/s) = 2.89383 3.34755 3.12892
# Velocity P-wave (km/s) = 5.00253 5.73694 5.38228
#
# Compressibility (1/GPa) = 0.03550099
#
# Stress axis : x y z
#
# Youngs Moduli (GPa) = 59.87297 40.78737 73.85925
#
# Poissons Ratio (x) = 0.18956 0.42925
# Poissons Ratio (y) = 0.27826 -0.06133
# Poissons Ratio (z) = 0.34796 -0.03387
#
# Static dielectric constant tensor:
#      x y z
#    x 1.713530 0.000000 -0.009800 
#    y 0.000000 1.754960 0.000000 
#    z -0.009800 0.000000 1.771780 
# 
# From -- ./inp_files/10439.got.cif
#   From: 2010.05.17/outbox.cif.g08.bks.cpg/sg14_6_cif.got.tgz:10439.got - 2010.06.03 17:49:19.
