data_PCOD9244110
_publ_section_title
;
Structure prediction by ZEFSAII (Michael W. Deem and Ramdas Pophale) SiO2 
 PCOD9244110
Probable space group: P 21/C
;
_chemical_formula_sum "Si O2"
_cell_formula_units_Z 32
_cell_length_a 17.596490
_cell_length_b 11.021263
_cell_length_c 14.095014
_cell_angle_alpha 90.000000
_cell_angle_beta 148.485549
_cell_angle_gamma 90.000000
_cell_volume 1428.850278
_symmetry_space_group_name_H-M "P 21/C"
_symmetry_group_IT_number 14
_symmetry_cell_setting 'monoclinic'
loop_
_space_group_symop_operation_xyz
x,y,z
-x,1/2+y,1/2-z
-x,-y,-z
x,1/2-y,1/2+z
loop_
_atom_site_type_symbol
_atom_site_label
_atom_site_fract_x
_atom_site_fract_y
_atom_site_fract_z
Si Si1 0.423304 0.812415 0.946211
Si Si2 0.311960 0.314823 0.395280
Si Si3 0.892841 0.228040 0.361657
Si Si4 0.926137 0.867928 0.812787
Si Si5 0.170890 0.814663 0.918372
Si Si6 0.203011 0.997154 0.635932
Si Si7 0.437347 0.963845 0.149035
Si Si8 0.248799 0.538073 0.978737
O O1 0.277450 0.733240 0.804977
O O2 0.358237 0.928200 0.818947
O O3 0.555213 0.761368 0.025756
O O4 0.465764 0.865308 0.094551
O O5 0.213431 0.219635 0.344770
O O6 0.213446 0.387797 0.214357
O O7 0.375741 0.415110 0.534061
O O8 0.898912 0.178751 0.261240
O O9 0.002748 0.330459 0.511825
O O10 0.903882 0.108575 0.441371
O O11 0.859133 0.998582 0.719163
O O12 0.052173 0.837594 0.871781
O O13 0.235164 0.679078 0.989687
O O14 0.305997 0.906335 0.068876
O O15 0.191563 0.026264 0.514102
O O16 0.585684 0.997298 0.359259
#
# Coordination Sequence:
#
# PCOD9244110 Si02
#       8
#     4   4   4   4   4   4   4   4
#     4   8  15  35  68  96 113 158 217 287 322 354
#     4  11  19  37  67 101 124 158 227 279 335 373
#     4   9  21  42  63  90 128 178 210 267 329 384
#     4  12  29  36  61 104 133 181 206 267 340 394
#     4  11  25  44  66  95 141 172 218 269 329 397
#     4   9  17  37  70  93 119 156 227 286 310 368
#     4  10  20  39  68  98 123 169 222 286 322 377
#     4  12  24  40  65 101 135 165 221 278 328 389
#
# _framework density 22.395627000000001
#
# number of rings (size 3 to 8) (size 9 to 14) (size 15 to 20)
#    0.750    1.000    5.000    0.750    5.250    1.000 
#    0.000    0.000    0.000    3.750    0.000    0.000 
#    0.000    0.000    0.000    0.000    0.000    0.000 
#
# Total GULP energy -178660.900316 kJ/mol
# GULP energy per Si atom -5583.153135 kJ/mol
# Density = 2.234465 g / cm^3
# Si number density = 22.395627 Si / 1000 Ang^3
#
#
#
# Elastic Constant Matrix: (Units=GPa)
#
#
# Indices 1 2 3 4 5 6 
#
# 1 90.2780 20.8524 24.3897 0.0000 34.0892 0.0000
# 2 20.8524 32.0742 29.0865 0.0000 8.0790 0.0000
# 3 24.3897 29.0865 86.0576 0.0000 19.8400 0.0000
# 4 0.0000 0.0000 0.0000 18.0466 0.0000 7.1486
# 5 34.0892 8.0790 19.8400 0.0000 36.3597 0.0000
# 6 0.0000 0.0000 0.0000 7.1486 0.0000 26.7716
#
#
#
# Elastic Compliance Matrix: (Units=1/GPa)
#
#
# Indices 1 2 3 4 5 6 
#
# 1 0.019218 -0.009858 0.001755 0.000000 -0.016785 0.000000
# 2 -0.009858 0.050134 -0.015687 0.000000 0.006662 0.000000
# 3 0.001755 -0.015687 0.018303 0.000000 -0.008147 0.000000
# 4 0.000000 0.000000 0.000000 0.061966 0.000000 -0.016546
# 5 -0.016785 0.006662 -0.008147 0.000000 0.046205 0.000000
# 6 0.000000 0.000000 0.000000 -0.016546 0.000000 0.041771
#
#
# Mechanical properties :
#
#
# Convention : Reuss Voigt Hill
#
# Bulk Modulus (GPa) = 24.95291 39.67412 32.31351
# Shear Modulus (GPa) = 16.74849 25.17434 20.96141
#
# Velocity S-wave (km/s) = 2.73764 3.35636 3.06267
# Velocity P-wave (km/s) = 4.59989 5.72484 5.19292
#
# Compressibility (1/GPa) = 0.04007549
#
# Stress axis : x y z
#
# Youngs Moduli (GPa) = 52.03543 19.94659 54.63598
#
# Poissons Ratio (x) = 0.19662 -0.09588
# Poissons Ratio (y) = 0.51294 0.85707
# Poissons Ratio (z) = -0.09131 0.31290
#
# Static dielectric constant tensor:
#      x y z
#    x 1.847790 0.000000 -0.000750 
#    y 0.000000 1.836730 0.000000 
#    z -0.000750 0.000000 1.878690 
# 
# From -- ./inp_files/49056.got.cif
#   From: 2010.05.17/outbox.cif.g08.bks.cpg/sg14_25_cif.got.tgz:49056.got - 2010.06.03 17:49:19.
