data_PCOD9244053
_publ_section_title
;
Structure prediction by ZEFSAII (Michael W. Deem and Ramdas Pophale) SiO2 
 PCOD9244053
Probable space group: P 21/C
;
_chemical_formula_sum "Si O2"
_cell_formula_units_Z 32
_cell_length_a 8.903007
_cell_length_b 14.015465
_cell_length_c 25.079617
_cell_angle_alpha 90.000000
_cell_angle_beta 23.223188
_cell_angle_gamma 90.000000
_cell_volume 1233.977288
_symmetry_space_group_name_H-M "P 21/C"
_symmetry_group_IT_number 14
_symmetry_cell_setting 'monoclinic'
loop_
_space_group_symop_operation_xyz
x,y,z
-x,1/2+y,1/2-z
-x,-y,-z
x,1/2-y,1/2+z
loop_
_atom_site_type_symbol
_atom_site_label
_atom_site_fract_x
_atom_site_fract_y
_atom_site_fract_z
Si Si1 0.354895 0.531107 0.680378
Si Si2 0.881728 0.220879 0.343530
Si Si3 0.762891 0.236578 0.767183
Si Si4 0.855063 0.890463 0.434633
Si Si5 0.977416 0.923064 0.193152
Si Si6 0.638483 0.413078 0.742106
Si Si7 0.694015 0.345730 0.607752
Si Si8 0.104138 0.636387 0.975758
O O1 0.052415 0.534837 0.829157
O O2 0.153880 0.529527 0.688476
O O3 0.496547 0.641875 0.639643
O O4 0.654944 0.446196 0.589148
O O5 0.986448 0.252402 0.248944
O O6 0.590621 0.133004 0.429344
O O7 0.786537 0.326734 0.398274
O O8 0.251317 0.187519 0.253106
O O9 0.631367 0.339944 0.794001
O O10 0.001400 0.208126 0.638447
O O11 0.014275 0.886311 0.442613
O O12 0.535989 0.894529 0.347708
O O13 0.911223 0.999935 0.168420
O O14 0.771343 0.370789 0.643553
O O15 0.177567 0.421523 0.893382
O O16 0.902337 0.252138 0.515989
#
# Coordination Sequence:
#
# PCOD9244053 Si02
#       8
#     4   4   4   4   4   4   4   4
#     4   9  21  38  61  88 127 160 208 260 306 376
#     4  10  21  39  64  90 126 164 206 265 316 374
#     4   9  20  39  60  87 126 162 207 256 320 367
#     4  10  20  39  65  88 126 161 209 255 319 375
#     4  10  23  40  61  95 129 159 214 263 314 374
#     4  12  22  38  65  90 125 169 205 264 314 374
#     4  11  23  39  63  92 126 163 211 263 316 374
#     4  11  23  40  62  93 128 164 212 262 315 379
#
# _framework density 25.932407000000001
#
# number of rings (size 3 to 8) (size 9 to 14) (size 15 to 20)
#    0.750    1.000    2.500    1.875    1.750    0.500 
#    0.000    1.250    0.000    0.000    0.000    0.000 
#    0.000    0.000    0.000    0.000    0.000    0.000 
#
# Total GULP energy -178284.946891 kJ/mol
# GULP energy per Si atom -5571.404590 kJ/mol
# Density = 2.587338 g / cm^3
# Si number density = 25.932407 Si / 1000 Ang^3
#
#
#
# Elastic Constant Matrix: (Units=GPa)
#
#
# Indices 1 2 3 4 5 6 
#
# 1 92.3636 64.1196 25.4776 0.0000 0.2863 0.0000
# 2 64.1196 137.9764 16.0181 0.0000 -20.2448 0.0000
# 3 25.4776 16.0181 59.4877 0.0000 6.9226 0.0000
# 4 0.0000 0.0000 0.0000 -3.8031 0.0000 1.2436
# 5 0.2863 -20.2448 6.9226 0.0000 19.4501 0.0000
# 6 0.0000 0.0000 0.0000 1.2436 0.0000 52.4764
#
#
#
# Elastic Compliance Matrix: (Units=1/GPa)
#
#
# Indices 1 2 3 4 5 6 
#
# 1 0.018572 -0.009348 -0.004457 0.000000 -0.008417 0.000000
# 2 -0.009348 0.014012 -0.001547 0.000000 0.015273 0.000000
# 3 -0.004457 -0.001547 0.020150 0.000000 -0.008716 0.000000
# 4 0.000000 0.000000 0.000000 -0.260919 0.000000 0.006183
# 5 -0.008417 0.015273 -0.008716 0.000000 0.070536 0.000000
# 6 0.000000 0.000000 0.000000 0.006183 0.000000 0.018910
#
#
# Mechanical properties :
#
#
# Convention : Reuss Voigt Hill
#
# Bulk Modulus (GPa) = 45.39328 55.67316 50.53322
# Shear Modulus (GPa) = -61.96549 25.90550 -18.02999
#
# Velocity S-wave (km/s) = -4.89355 3.16407 -2.63966
# Velocity P-wave (km/s) = 3.79298 5.90454 3.19976
#
# Compressibility (1/GPa) = 0.02202969
#
# Stress axis : x y z
#
# Youngs Moduli (GPa) = 53.84442 71.36548 49.62780
#
# Poissons Ratio (x) = 0.66714 0.22121
# Poissons Ratio (y) = 0.50335 0.07676
# Poissons Ratio (z) = 0.24001 0.11038
#
# Static dielectric constant tensor:
#      x y z
#    x 2.050800 0.000000 -0.290530 
#    y 0.000000 2.172330 0.000000 
#    z -0.290530 0.000000 2.559180 
# 
# From -- ./inp_files/76725.got.cif
#   From: 2010.05.17/outbox.cif.g08.bks.cpg/sg14_39_cif.got.tgz:76725.got - 2010.06.03 17:49:19.
