data_PCOD9244095
_publ_section_title
;
Structure prediction by ZEFSAII (Michael W. Deem and Ramdas Pophale) SiO2 
 PCOD9244095
Probable space group: P 21/C
;
_chemical_formula_sum "Si O2"
_cell_formula_units_Z 30
_cell_length_a 16.245153
_cell_length_b 8.034577
_cell_length_c 19.514303
_cell_angle_alpha 90.000000
_cell_angle_beta 152.207906
_cell_angle_gamma 90.000000
_cell_volume 1187.605743
_symmetry_space_group_name_H-M "P 21/C"
_symmetry_group_IT_number 14
_symmetry_cell_setting 'monoclinic'
loop_
_space_group_symop_operation_xyz
x,y,z
-x,1/2+y,1/2-z
-x,-y,-z
x,1/2-y,1/2+z
loop_
_atom_site_type_symbol
_atom_site_label
_atom_site_fract_x
_atom_site_fract_y
_atom_site_fract_z
Si Si1 0.727290 0.857045 0.909298
Si Si2 0.942391 0.560105 0.767434
Si Si3 0.266252 0.341486 0.953210
Si Si4 0.500000 0.500000 0.000000
Si Si5 0.252115 0.768955 0.033267
Si Si6 0.520184 0.734919 0.624389
Si Si7 0.044713 0.679245 0.107611
Si Si8 0.278657 0.938466 0.676270
O O1 0.635842 0.824191 0.769202
O O2 0.704613 0.045661 0.914097
O O3 0.677533 0.712412 0.927929
O O4 0.941292 0.837356 0.058389
O O5 0.091140 0.457586 0.834615
O O6 0.798359 0.661316 0.620835
O O7 0.871339 0.428044 0.769804
O O8 0.051809 0.705930 0.887306
O O9 0.402835 0.428713 0.002162
O O10 0.456039 0.324902 0.929303
O O11 0.323292 0.753635 0.008946
O O12 0.343383 0.641432 0.153708
O O13 0.585873 0.544850 0.679712
O O14 0.189152 0.705238 0.156075
O O15 0.882729 0.564300 0.960638
#
# Coordination Sequence:
#
# PCOD9244095 Si02
#       8
#     4   4   4   2   4   4   4   4
#     4  10  23  39  70  98 140 185 243 282 365 439
#     4  10  20  39  67  92 144 188 238 281 364 436
#     4  11  23  44  71 106 140 198 241 303 360 444
#     4  12  26  44  74 110 148 184 252 314 370 412
#     4  11  21  38  67 100 132 197 234 288 354 439
#     4  11  23  42  66 101 140 188 234 304 360 438
#     4   8  17  35  58  96 126 178 224 287 342 416
#     4   9  18  35  63  91 136 171 231 286 351 412
#
# _framework density 25.260908000000001
#
# number of rings (size 3 to 8) (size 9 to 14) (size 15 to 20)
#    0.000    1.867    1.333    3.200    1.867    1.600 
#    0.000    3.333    0.000    0.000    0.000    0.000 
#    0.000    0.000    0.000    0.000    0.000    0.000 
#
# Total GULP energy -167178.612839 kJ/mol
# GULP energy per Si atom -5572.620428 kJ/mol
# Density = 2.520341 g / cm^3
# Si number density = 25.260908 Si / 1000 Ang^3
#
#
#
# Elastic Constant Matrix: (Units=GPa)
#
#
# Indices 1 2 3 4 5 6 
#
# 1 112.8938 25.5821 3.6237 0.0000 -7.8894 0.0000
# 2 25.5821 98.3960 25.5168 0.0000 -2.9957 0.0000
# 3 3.6237 25.5168 34.8504 0.0000 0.6749 0.0000
# 4 0.0000 0.0000 0.0000 46.2316 0.0000 2.3037
# 5 -7.8894 -2.9957 0.6749 0.0000 5.2966 0.0000
# 6 0.0000 0.0000 0.0000 2.3037 0.0000 3.3558
#
#
#
# Elastic Compliance Matrix: (Units=1/GPa)
#
#
# Indices 1 2 3 4 5 6 
#
# 1 0.010364 -0.002366 0.000383 0.000000 0.014050 0.000000
# 2 -0.002366 0.013459 -0.009711 0.000000 0.005325 0.000000
# 3 0.000383 -0.009711 0.035949 0.000000 -0.009503 0.000000
# 4 0.000000 0.000000 0.000000 0.022396 0.000000 -0.015375
# 5 0.014050 0.005325 -0.009503 0.000000 0.213949 0.000000
# 6 0.000000 0.000000 0.000000 -0.015375 0.000000 0.308544
#
#
# Mechanical properties :
#
#
# Convention : Reuss Voigt Hill
#
# Bulk Modulus (GPa) = 27.48626 39.50950 33.49788
# Shear Modulus (GPa) = 7.81035 23.73800 15.77417
#
# Velocity S-wave (km/s) = 1.76028 3.06880 2.50161
# Velocity P-wave (km/s) = 3.87763 5.31331 4.65120
#
# Compressibility (1/GPa) = 0.03638182
#
# Stress axis : x y z
#
# Youngs Moduli (GPa) = 96.49185 74.30149 27.81732
#
# Poissons Ratio (x) = 0.17579 -0.01064
# Poissons Ratio (y) = 0.22829 0.27014
# Poissons Ratio (z) = -0.03692 0.72157
#
# Static dielectric constant tensor:
#      x y z
#    x 2.033390 0.000000 0.028010 
#    y 0.000000 1.990340 0.000000 
#    z 0.028010 0.000000 2.044350 
# 
# From -- ./inp_files/69183.got.cif
#   From: 2010.05.17/outbox.cif.g08.bks.cpg/sg14_35_cif.got.tgz:69183.got - 2010.06.03 17:49:19.
