data_PCOD9244063
_publ_section_title
;
Structure prediction by ZEFSAII (Michael W. Deem and Ramdas Pophale) SiO2 
 PCOD9244063
Probable space group: P 21/C
;
_chemical_formula_sum "Si O2"
_cell_formula_units_Z 32
_cell_length_a 9.583059
_cell_length_b 16.993448
_cell_length_c 11.830874
_cell_angle_alpha 90.000000
_cell_angle_beta 135.156017
_cell_angle_gamma 90.000000
_cell_volume 1358.631519
_symmetry_space_group_name_H-M "P 21/C"
_symmetry_group_IT_number 14
_symmetry_cell_setting 'monoclinic'
loop_
_space_group_symop_operation_xyz
x,y,z
-x,1/2+y,1/2-z
-x,-y,-z
x,1/2-y,1/2+z
loop_
_atom_site_type_symbol
_atom_site_label
_atom_site_fract_x
_atom_site_fract_y
_atom_site_fract_z
Si Si1 0.952155 0.246286 0.500096
Si Si2 0.189252 0.328581 0.476411
Si Si3 0.608541 0.057368 0.472518
Si Si4 0.466530 0.780474 0.652676
Si Si5 0.042902 0.493958 0.158545
Si Si6 0.033578 0.905522 0.868569
Si Si7 0.290131 0.351147 0.288784
Si Si8 0.270335 0.018104 0.134918
O O1 0.734786 0.215890 0.394165
O O2 0.994314 0.314108 0.618610
O O3 0.988398 0.288784 0.401834
O O4 0.111347 0.177501 0.605657
O O5 0.353489 0.301440 0.660860
O O6 0.248181 0.311288 0.385034
O O7 0.186992 0.421786 0.493688
O O8 0.550629 0.149695 0.449947
O O9 0.844261 0.048521 0.595485
O O10 0.499229 0.030344 0.293663
O O11 0.500000 0.000000 0.500000
O O12 0.511989 0.692293 0.636962
O O13 0.058689 0.569221 0.252483
O O14 0.245350 0.442756 0.279988
O O15 0.000000 0.500000 0.000000
O O16 0.851567 0.953619 0.823719
O O17 0.213633 0.934499 0.052542
#
# Coordination Sequence:
#
# PCOD9244063 Si02
#       8
#     4   4   4   4   4   4   4   4
#     4  10  22  40  63  95 131 171 221 269 333 401
#     4   9  20  39  66  86 125 170 215 272 321 388
#     4  11  22  43  69  95 127 175 235 270 320 406
#     4  10  23  43  63  98 131 172 222 276 334 402
#     4  12  26  44  67  97 139 176 216 283 351 394
#     4  10  20  39  65  95 126 173 222 268 328 390
#     4  11  23  44  62  96 137 169 217 276 340 392
#     4   9  18  37  66  91 116 164 228 269 303 385
#
# _framework density 23.553113
#
# number of rings (size 3 to 8) (size 9 to 14) (size 15 to 20)
#    0.000    1.750    3.750    0.750    0.000    4.000 
#    6.750    1.250    0.000    0.000    0.000    0.000 
#    0.000    0.000    0.000    0.000    0.000    0.000 
#
# Total GULP energy -178466.905715 kJ/mol
# GULP energy per Si atom -5577.090804 kJ/mol
# Density = 2.349951 g / cm^3
# Si number density = 23.553113 Si / 1000 Ang^3
#
#
#
# Elastic Constant Matrix: (Units=GPa)
#
#
# Indices 1 2 3 4 5 6 
#
# 1 58.5255 5.1851 -5.0238 0.0000 2.6545 0.0000
# 2 5.1851 51.4936 -0.2418 0.0000 1.3358 0.0000
# 3 -5.0238 -0.2418 20.7226 0.0000 2.8169 0.0000
# 4 0.0000 0.0000 0.0000 23.4008 0.0000 2.3558
# 5 2.6545 1.3358 2.8169 0.0000 37.2795 0.0000
# 6 0.0000 0.0000 0.0000 2.3558 0.0000 26.5592
#
#
#
# Elastic Compliance Matrix: (Units=1/GPa)
#
#
# Indices 1 2 3 4 5 6 
#
# 1 0.017693 -0.001721 0.004478 0.000000 -0.001537 0.000000
# 2 -0.001721 0.019607 -0.000111 0.000000 -0.000572 0.000000
# 3 0.004478 -0.000111 0.049896 0.000000 -0.004085 0.000000
# 4 0.000000 0.000000 0.000000 0.043119 0.000000 -0.003825
# 5 -0.001537 -0.000572 -0.004085 0.000000 0.027263 0.000000
# 6 0.000000 0.000000 0.000000 -0.003825 0.000000 0.037991
#
#
# Mechanical properties :
#
#
# Convention : Reuss Voigt Hill
#
# Bulk Modulus (GPa) = 10.81193 14.50895 12.66044
# Shear Modulus (GPa) = 22.61363 26.16939 24.39151
#
# Velocity S-wave (km/s) = 3.10193 3.33690 3.22156
# Velocity P-wave (km/s) = 4.17489 4.58476 4.38462
#
# Compressibility (1/GPa) = 0.09249039
#
# Stress axis : x y z
#
# Youngs Moduli (GPa) = 56.51918 51.00096 20.04165
#
# Poissons Ratio (x) = 0.08776 -0.08975
# Poissons Ratio (y) = 0.09725 0.00222
# Poissons Ratio (z) = -0.25310 0.00564
#
# Static dielectric constant tensor:
#      x y z
#    x 1.898250 0.000000 0.012090 
#    y 0.000000 1.985950 0.000000 
#    z 0.012090 0.000000 1.912070 
# 
# From -- ./inp_files/26828.got.cif
#   From: 2010.05.17/outbox.cif.g08.bks.cpg/sg14_14_cif.got.tgz:26828.got - 2010.06.03 17:49:19.
