data_PCOD9244638
_publ_section_title
;
Structure prediction by ZEFSAII (Michael W. Deem and Ramdas Pophale) SiO2 
 PCOD9244638
Probable space group: P 21/C
;
_chemical_formula_sum "Si O2"
_cell_formula_units_Z 20
_cell_length_a 7.841157
_cell_length_b 12.195475
_cell_length_c 11.081797
_cell_angle_alpha 90.000000
_cell_angle_beta 128.362394
_cell_angle_gamma 90.000000
_cell_volume 830.923527
_symmetry_space_group_name_H-M "P 21/C"
_symmetry_group_IT_number 14
_symmetry_cell_setting 'monoclinic'
loop_
_space_group_symop_operation_xyz
x,y,z
-x,1/2+y,1/2-z
-x,-y,-z
x,1/2-y,1/2+z
loop_
_atom_site_type_symbol
_atom_site_label
_atom_site_fract_x
_atom_site_fract_y
_atom_site_fract_z
Si Si1 0.810157 0.604878 0.147214
Si Si2 0.060945 0.915077 0.131908
Si Si3 0.657806 0.671559 0.610810
Si Si4 0.262692 0.482141 0.127920
Si Si5 0.726508 0.190912 0.245767
O O1 0.818501 0.490679 0.218241
O O2 0.724256 0.707606 0.184173
O O3 0.053580 0.640777 0.216158
O O4 0.679546 0.584504 0.966297
O O5 0.206959 0.808146 0.169500
O O6 0.842448 0.869713 0.098448
O O7 0.000000 0.000000 0.000000
O O8 0.664526 0.586981 0.723818
O O9 0.442392 0.686977 0.437860
O O10 0.348843 0.604675 0.185479
O O11 0.000000 0.500000 0.000000
#
# Coordination Sequence:
#
# PCOD9244638 Si02
#       5
#     4   4   4   4   4
#     4  10  24  42  66  94 132 171 218 272 335 392
#     4  11  25  42  66  98 136 171 217 282 331 389
#     4  11  23  43  67  98 129 171 224 269 329 400
#     4  10  20  42  66  92 127 175 217 266 336 392
#     4  10  23  42  68  97 122 179 221 267 334 392
#
# _framework density 24.069606
#
# number of rings (size 3 to 8) (size 9 to 14) (size 15 to 20)
#    0.000    1.600    4.000    0.600    8.400    2.400 
#    3.600    0.000    0.000    0.000    0.000    0.000 
#    0.000    0.000    0.000    0.000    0.000    0.000 
#
# Total GULP energy -111878.336169 kJ/mol
# GULP energy per Si atom -5593.916808 kJ/mol
# Density = 2.401482 g / cm^3
# Si number density = 24.069606 Si / 1000 Ang^3
#
#
#
# Elastic Constant Matrix: (Units=GPa)
#
#
# Indices 1 2 3 4 5 6 
#
# 1 56.7676 41.1817 28.5497 0.0000 10.0438 0.0000
# 2 41.1817 207.4282 57.9595 0.0000 -1.4212 0.0000
# 3 28.5497 57.9595 127.9663 0.0000 10.7526 0.0000
# 4 0.0000 0.0000 0.0000 46.3657 0.0000 -1.7720
# 5 10.0438 -1.4212 10.7526 0.0000 27.2472 0.0000
# 6 0.0000 0.0000 0.0000 -1.7720 0.0000 4.7607
#
#
#
# Elastic Compliance Matrix: (Units=1/GPa)
#
#
# Indices 1 2 3 4 5 6 
#
# 1 0.023178 -0.003880 -0.002771 0.000000 -0.007653 0.000000
# 2 -0.003880 0.006215 -0.002169 0.000000 0.002610 0.000000
# 3 -0.002771 -0.002169 0.009659 0.000000 -0.002904 0.000000
# 4 0.000000 0.000000 0.000000 0.021879 0.000000 0.008144
# 5 -0.007653 0.002610 -0.002904 0.000000 0.040804 0.000000
# 6 0.000000 0.000000 0.000000 0.008144 0.000000 0.213082
#
#
# Mechanical properties :
#
#
# Convention : Reuss Voigt Hill
#
# Bulk Modulus (GPa) = 46.70002 71.94932 59.32467
# Shear Modulus (GPa) = 14.72351 33.30615 24.01483
#
# Velocity S-wave (km/s) = 2.47595 3.72391 3.16210
# Velocity P-wave (km/s) = 5.25528 6.96039 6.16705
#
# Compressibility (1/GPa) = 0.02141327
#
# Stress axis : x y z
#
# Youngs Moduli (GPa) = 43.14489 160.89878 103.53086
#
# Poissons Ratio (x) = 0.62426 0.28685
# Poissons Ratio (y) = 0.16739 0.22453
# Poissons Ratio (z) = 0.11954 0.34894
#
# Static dielectric constant tensor:
#      x y z
#    x 1.982620 0.000000 0.004650 
#    y 0.000000 1.941480 0.000000 
#    z 0.004650 0.000000 1.911490 
# 
# From -- ./inp_files/24341.got.cif
#   From: 2010.05.17/outbox.cif.g08.bks.cpg/sg14_13_cif.got.tgz:24341.got - 2010.06.03 17:49:19.
