data_PCOD9244756
_publ_section_title
;
Structure prediction by ZEFSAII (Michael W. Deem and Ramdas Pophale) SiO2 
 PCOD9244756
Probable space group: P 21/C
;
_chemical_formula_sum "Si O2"
_cell_formula_units_Z 24
_cell_length_a 8.286870
_cell_length_b 13.178291
_cell_length_c 10.201723
_cell_angle_alpha 90.000000
_cell_angle_beta 56.520108
_cell_angle_gamma 90.000000
_cell_volume 929.245742
_symmetry_space_group_name_H-M "P 21/C"
_symmetry_group_IT_number 14
_symmetry_cell_setting 'monoclinic'
loop_
_space_group_symop_operation_xyz
x,y,z
-x,1/2+y,1/2-z
-x,-y,-z
x,1/2-y,1/2+z
loop_
_atom_site_type_symbol
_atom_site_label
_atom_site_fract_x
_atom_site_fract_y
_atom_site_fract_z
Si Si1 0.953953 0.770825 0.482645
Si Si2 0.878484 0.543657 0.436446
Si Si3 0.464110 0.878259 0.922399
Si Si4 0.179830 0.616109 0.099846
Si Si5 0.627742 0.248518 0.792576
Si Si6 0.223257 0.461958 0.895312
O O1 0.866865 0.662089 0.488260
O O2 0.793312 0.854561 0.524370
O O3 0.041951 0.798570 0.589008
O O4 0.149303 0.790360 0.314922
O O5 0.701651 0.464058 0.507115
O O6 0.000000 0.500000 0.500000
O O7 0.024498 0.547708 0.247398
O O8 0.428320 0.789456 0.827561
O O9 0.658751 0.933419 0.786077
O O10 0.475190 0.829344 0.061844
O O11 0.332734 0.652899 0.137404
O O12 0.308610 0.555021 0.936499
O O13 0.000000 0.500000 0.000000
#
# Coordination Sequence:
#
# PCOD9244756 Si02
#       6
#     4   4   4   4   4   4
#     4  10  21  44  71 102 150 195 241 308 382 444
#     4  11  21  42  72 111 147 197 250 305 385 453
#     4  12  25  47  74 116 147 202 252 316 374 465
#     4  10  20  43  71 104 151 194 242 317 378 441
#     4  11  22  44  76 107 149 189 251 315 378 452
#     4  10  25  47  69 100 148 198 245 311 379 440
#
# _framework density 25.827397999999999
#
# number of rings (size 3 to 8) (size 9 to 14) (size 15 to 20)
#    0.000    1.333    5.000    1.000    0.000    3.333 
#   15.000    6.667    0.000    0.000    0.000    0.000 
#    0.000    0.000    0.000    0.000    0.000    0.000 
#
# Total GULP energy -133806.810200 kJ/mol
# GULP energy per Si atom -5575.283758 kJ/mol
# Density = 2.576861 g / cm^3
# Si number density = 25.827398 Si / 1000 Ang^3
#
#
#
# Elastic Constant Matrix: (Units=GPa)
#
#
# Indices 1 2 3 4 5 6 
#
# 1 88.7574 31.6392 54.0110 0.0000 2.1871 0.0000
# 2 31.6392 156.9206 71.3391 0.0000 1.9647 0.0000
# 3 54.0110 71.3391 170.0574 0.0000 4.1388 0.0000
# 4 0.0000 0.0000 0.0000 72.3067 0.0000 17.6318
# 5 2.1871 1.9647 4.1388 0.0000 43.6580 0.0000
# 6 0.0000 0.0000 0.0000 17.6318 0.0000 38.8221
#
#
#
# Elastic Compliance Matrix: (Units=1/GPa)
#
#
# Indices 1 2 3 4 5 6 
#
# 1 0.014094 -0.000996 -0.004052 0.000000 -0.000277 0.000000
# 2 -0.000996 0.007945 -0.003016 0.000000 -0.000022 0.000000
# 3 -0.004052 -0.003016 0.008444 0.000000 -0.000462 0.000000
# 4 0.000000 0.000000 0.000000 0.015552 0.000000 -0.007063
# 5 -0.000277 -0.000022 -0.000462 0.000000 0.022964 0.000000
# 6 0.000000 0.000000 0.000000 -0.007063 0.000000 0.028966
#
#
# Mechanical properties :
#
#
# Convention : Reuss Voigt Hill
#
# Bulk Modulus (GPa) = 69.66272 81.07933 75.37103
# Shear Modulus (GPa) = 42.05981 48.20711 45.13346
#
# Velocity S-wave (km/s) = 4.03984 4.32500 4.18485
# Velocity P-wave (km/s) = 6.98508 7.51011 7.25235
#
# Compressibility (1/GPa) = 0.01435488
#
# Stress axis : x y z
#
# Youngs Moduli (GPa) = 70.95113 125.86690 118.43262
#
# Poissons Ratio (x) = 0.12540 0.47985
# Poissons Ratio (y) = 0.07069 0.35718
# Poissons Ratio (z) = 0.28747 0.37960
#
# Static dielectric constant tensor:
#      x y z
#    x 1.661030 0.000000 -0.141850 
#    y 0.000000 2.162250 0.000000 
#    z -0.141850 0.000000 2.025190 
# 
# From -- ./inp_files/29721.got.cif
#   From: 2010.05.17/outbox.cif.g08.bks.cpg/sg14_15_cif.got.tgz:29721.got - 2010.06.03 17:49:19.
