data_PCOD9244289
_publ_section_title
;
Structure prediction by ZEFSAII (Michael W. Deem and Ramdas Pophale) SiO2 
 PCOD9244289
Probable space group: P 21/C
;
_chemical_formula_sum "Si O2"
_cell_formula_units_Z 32
_cell_length_a 5.426992
_cell_length_b 14.830494
_cell_length_c 18.543587
_cell_angle_alpha 90.000000
_cell_angle_beta 79.385191
_cell_angle_gamma 90.000000
_cell_volume 1466.940425
_symmetry_space_group_name_H-M "P 21/C"
_symmetry_group_IT_number 14
_symmetry_cell_setting 'monoclinic'
loop_
_space_group_symop_operation_xyz
x,y,z
-x,1/2+y,1/2-z
-x,-y,-z
x,1/2-y,1/2+z
loop_
_atom_site_type_symbol
_atom_site_label
_atom_site_fract_x
_atom_site_fract_y
_atom_site_fract_z
Si Si1 0.584124 0.115843 0.555520
Si Si2 0.226454 0.254721 0.496270
Si Si3 0.920706 0.144347 0.408779
Si Si4 0.295271 0.087350 0.808260
Si Si5 0.726272 0.962799 0.035633
Si Si6 0.790305 0.975766 0.342360
Si Si7 0.206030 0.707723 0.692627
Si Si8 0.097925 0.707549 0.854573
O O1 0.426622 0.187927 0.519303
O O2 0.817958 0.103255 0.490199
O O3 0.442633 0.026785 0.589032
O O4 0.648652 0.167314 0.626111
O O5 0.294774 0.355552 0.474104
O O6 0.138672 0.206225 0.428146
O O7 0.019585 0.261361 0.572069
O O8 0.760374 0.215815 0.369884
O O9 0.961401 0.060014 0.354318
O O10 0.299295 0.023203 0.877571
O O11 0.300655 0.030016 0.734385
O O12 0.541639 0.150685 0.804742
O O13 0.030739 0.143704 0.818057
O O14 0.500000 0.000000 0.000000
O O15 0.000000 0.000000 0.000000
O O16 0.931571 0.882136 0.350621
O O17 0.130579 0.750432 0.774546
#
# Coordination Sequence:
#
# PCOD9244289 Si02
#       8
#     4   4   4   4   4   4   4   4
#     4  10  20  40  65  94 132 173 214 275 336 410
#     4  10  23  42  64  97 131 176 225 278 341 410
#     4  11  23  37  67  96 135 170 230 271 340 411
#     4  11  23  46  67  93 135 174 228 270 347 389
#     4  12  27  45  72  98 133 181 233 292 335 394
#     4  10  22  40  61 103 131 178 215 286 336 411
#     4  11  22  43  69  94 131 185 216 278 331 410
#     4   9  21  39  67  89 139 171 223 269 348 401
#
# _framework density 21.814112999999999
#
# number of rings (size 3 to 8) (size 9 to 14) (size 15 to 20)
#    0.000    1.500    2.500    1.875    3.500    6.500 
#    0.000    0.000    0.000    0.000    0.000    0.000 
#    0.000    0.000    0.000    0.000    0.000    0.000 
#
# Total GULP energy -178460.736660 kJ/mol
# GULP energy per Si atom -5576.898021 kJ/mol
# Density = 2.176446 g / cm^3
# Si number density = 21.814113 Si / 1000 Ang^3
#
#
#
# Elastic Constant Matrix: (Units=GPa)
#
#
# Indices 1 2 3 4 5 6 
#
# 1 84.8134 24.8811 39.5346 0.0000 20.5598 0.0000
# 2 24.8811 53.2849 25.8475 0.0000 12.1706 0.0000
# 3 39.5346 25.8475 144.1976 0.0000 28.2715 0.0000
# 4 0.0000 0.0000 0.0000 33.6650 0.0000 7.7117
# 5 20.5598 12.1706 28.2715 0.0000 38.1204 0.0000
# 6 0.0000 0.0000 0.0000 7.7117 0.0000 26.1080
#
#
#
# Elastic Compliance Matrix: (Units=1/GPa)
#
#
# Indices 1 2 3 4 5 6 
#
# 1 0.015586 -0.004964 -0.002394 0.000000 -0.005046 0.000000
# 2 -0.004964 0.022811 -0.002135 0.000000 -0.003022 0.000000
# 3 -0.002394 -0.002135 0.008878 0.000000 -0.004611 0.000000
# 4 0.000000 0.000000 0.000000 0.031860 0.000000 -0.009411
# 5 -0.005046 -0.003022 -0.004611 0.000000 0.033339 0.000000
# 6 0.000000 0.000000 0.000000 -0.009411 0.000000 0.041082
#
#
# Mechanical properties :
#
#
# Convention : Reuss Voigt Hill
#
# Bulk Modulus (GPa) = 35.35059 51.42470 43.38764
# Shear Modulus (GPa) = 27.47664 32.38087 29.92875
#
# Velocity S-wave (km/s) = 3.55291 3.85697 3.70806
# Velocity P-wave (km/s) = 5.75078 6.59243 6.18594
#
# Compressibility (1/GPa) = 0.02828807
#
# Stress axis : x y z
#
# Youngs Moduli (GPa) = 64.16023 43.83845 112.63518
#
# Poissons Ratio (x) = 0.21761 0.26966
# Poissons Ratio (y) = 0.31849 0.24053
# Poissons Ratio (z) = 0.15361 0.09362
#
# Static dielectric constant tensor:
#      x y z
#    x 1.875520 0.000000 -0.076490 
#    y 0.000000 1.769840 0.000000 
#    z -0.076490 0.000000 1.845760 
# 
# From -- ./inp_files/53315.got.cif
#   From: 2010.05.17/outbox.cif.g08.bks.cpg/sg14_27_cif.got.tgz:53315.got - 2010.06.03 17:49:19.
