data_PCOD9244121
_publ_section_title
;
Structure prediction by ZEFSAII (Michael W. Deem and Ramdas Pophale) SiO2 
 PCOD9244121
Probable space group: P 21/C
;
_chemical_formula_sum "Si O2"
_cell_formula_units_Z 32
_cell_length_a 21.325485
_cell_length_b 14.467799
_cell_length_c 14.573292
_cell_angle_alpha 90.000000
_cell_angle_beta 19.983003
_cell_angle_gamma 90.000000
_cell_volume 1536.585038
_symmetry_space_group_name_H-M "P 21/C"
_symmetry_group_IT_number 14
_symmetry_cell_setting 'monoclinic'
loop_
_space_group_symop_operation_xyz
x,y,z
-x,1/2+y,1/2-z
-x,-y,-z
x,1/2-y,1/2+z
loop_
_atom_site_type_symbol
_atom_site_label
_atom_site_fract_x
_atom_site_fract_y
_atom_site_fract_z
Si Si1 0.911060 0.774018 0.742705
Si Si2 0.947524 0.381699 0.775087
Si Si3 0.209070 0.417429 0.748730
Si Si4 0.677940 0.540669 0.706507
Si Si5 0.547312 0.761545 0.321923
Si Si6 0.546290 0.396841 0.405275
Si Si7 0.804062 0.281218 0.797833
Si Si8 0.192876 0.575933 0.642400
O O1 0.852331 0.859297 0.756574
O O2 0.992903 0.810538 0.725822
O O3 0.065448 0.724920 0.470529
O O4 0.722439 0.721606 0.025753
O O5 0.911175 0.338838 0.725986
O O6 0.115049 0.454334 0.537119
O O7 0.745331 0.408310 0.086965
O O8 0.383494 0.373149 0.557233
O O9 0.245252 0.520232 0.662473
O O10 0.029585 0.426058 0.059702
O O11 0.627421 0.648746 0.763051
O O12 0.708664 0.477707 0.574279
O O13 0.500000 0.500000 0.000000
O O14 0.463419 0.682737 0.503212
O O15 0.395707 0.806652 0.463901
O O16 0.500000 0.500000 0.500000
O O17 0.766161 0.182252 0.897886
#
# Coordination Sequence:
#
# PCOD9244121 Si02
#       8
#     4   4   4   4   4   4   4   4
#     4  10  22  42  63  96 133 174 230 280 347 415
#     4  11  24  45  67 100 137 174 234 285 343 423
#     4  10  20  39  70  95 133 180 228 290 337 414
#     4  11  26  46  67  97 143 187 232 280 354 431
#     4  11  24  45  67 101 141 180 232 294 345 422
#     4  12  25  41  70 103 137 176 242 293 352 407
#     4  11  24  41  70  99 135 182 226 292 350 409
#     4  10  21  39  69  96 135 179 231 279 359 400
#
# _framework density 20.825400999999999
#
# number of rings (size 3 to 8) (size 9 to 14) (size 15 to 20)
#    0.000    1.250    3.750    2.250   10.500    1.000 
#    2.250    0.625    0.000    0.000    0.000    0.000 
#    0.000    0.000    0.000    0.000    0.000    0.000 
#
# Total GULP energy -178442.807208 kJ/mol
# GULP energy per Si atom -5576.337725 kJ/mol
# Density = 2.077800 g / cm^3
# Si number density = 20.825401 Si / 1000 Ang^3
#
#
#
# Elastic Constant Matrix: (Units=GPa)
#
#
# Indices 1 2 3 4 5 6 
#
# 1 79.2330 -5.9265 49.7167 0.0000 -17.6325 0.0000
# 2 -5.9265 36.2251 16.7573 0.0000 7.5378 0.0000
# 3 49.7167 16.7573 160.8928 0.0000 9.8004 0.0000
# 4 0.0000 0.0000 0.0000 27.5857 0.0000 -3.5343
# 5 -17.6325 7.5378 9.8004 0.0000 28.1789 0.0000
# 6 0.0000 0.0000 0.0000 -3.5343 0.0000 17.2793
#
#
#
# Elastic Compliance Matrix: (Units=1/GPa)
#
#
# Indices 1 2 3 4 5 6 
#
# 1 0.021178 0.004001 -0.007870 0.000000 0.014919 0.000000
# 2 0.004001 0.031114 -0.004212 0.000000 -0.004355 0.000000
# 3 -0.007870 -0.004212 0.009519 0.000000 -0.007108 0.000000
# 4 0.000000 0.000000 0.000000 0.037226 0.000000 0.007614
# 5 0.014919 -0.004355 -0.007108 0.000000 0.048460 0.000000
# 6 0.000000 0.000000 0.000000 0.007614 0.000000 0.059430
#
#
# Mechanical properties :
#
#
# Convention : Reuss Voigt Hill
#
# Bulk Modulus (GPa) = 21.90565 44.16064 33.03314
# Shear Modulus (GPa) = 20.98153 28.99566 24.98860
#
# Velocity S-wave (km/s) = 3.17755 3.73543 3.46773
# Velocity P-wave (km/s) = 4.89939 6.31315 5.65066
#
# Compressibility (1/GPa) = 0.04565033
#
# Stress axis : x y z
#
# Youngs Moduli (GPa) = 47.21818 32.13979 105.05635
#
# Poissons Ratio (x) = -0.12859 0.82675
# Poissons Ratio (y) = -0.18891 0.44246
# Poissons Ratio (z) = 0.37159 0.13536
#
# Static dielectric constant tensor:
#      x y z
#    x 1.836590 0.000000 0.035090 
#    y 0.000000 1.721760 0.000000 
#    z 0.035090 0.000000 1.846410 
# 
# From -- ./inp_files/50618.got.cif
#   From: 2010.05.17/outbox.cif.g08.bks.cpg/sg14_26_cif.got.tgz:50618.got - 2010.06.03 17:49:19.
