data_PCOD9244208
_publ_section_title
;
Structure prediction by ZEFSAII (Michael W. Deem and Ramdas Pophale) SiO2 
 PCOD9244208
Probable space group: P 21/C
;
_chemical_formula_sum "Si O2"
_cell_formula_units_Z 30
_cell_length_a 26.134565
_cell_length_b 8.740430
_cell_length_c 9.537592
_cell_angle_alpha 90.000000
_cell_angle_beta 38.456797
_cell_angle_gamma 90.000000
_cell_volume 1354.953444
_symmetry_space_group_name_H-M "P 21/C"
_symmetry_group_IT_number 14
_symmetry_cell_setting 'monoclinic'
loop_
_space_group_symop_operation_xyz
x,y,z
-x,1/2+y,1/2-z
-x,-y,-z
x,1/2-y,1/2+z
loop_
_atom_site_type_symbol
_atom_site_label
_atom_site_fract_x
_atom_site_fract_y
_atom_site_fract_z
Si Si1 0.490850 0.928368 0.867336
Si Si2 0.000000 0.500000 0.500000
Si Si3 0.436521 0.919850 0.530902
Si Si4 0.057846 0.398643 0.683570
Si Si5 0.282221 0.772100 0.000441
Si Si6 0.103541 0.605270 0.832956
Si Si7 0.313284 0.943981 0.202263
Si Si8 0.149169 0.397872 0.990530
O O1 0.472528 0.748334 0.917204
O O2 0.563433 0.978421 0.609046
O O3 0.406281 0.995505 0.983095
O O4 0.500000 0.000000 0.000000
O O5 0.035069 0.439539 0.576263
O O6 0.092790 0.480163 0.227334
O O7 0.347604 0.891029 0.791541
O O8 0.500000 0.000000 0.500000
O O9 0.079750 0.545148 0.731136
O O10 0.131305 0.280274 0.533957
O O11 0.978766 0.314534 0.929343
O O12 0.304952 0.612416 0.880090
O O13 0.187662 0.803154 0.162897
O O14 0.294723 0.798807 0.138993
O O15 0.118561 0.462692 0.905726
O O16 0.243501 0.061946 0.311180
#
# Coordination Sequence:
#
# PCOD9244208 Si02
#       8
#     4   2   4   4   4   4   4   4
#     4  11  24  43  69 101 137 182 230 282 353 426
#     4  10  22  36  60  92 116 172 214 254 332 388
#     4  11  22  44  69  97 137 179 226 288 342 417
#     4  10  20  40  63  86 130 166 217 272 324 396
#     4  10  22  41  64  91 130 172 220 274 336 411
#     4   9  21  40  59  90 125 170 209 269 335 384
#     4  10  23  41  64  96 132 171 223 279 343 406
#     4  10  21  39  60  92 127 164 217 273 325 394
#
# _framework density 22.140982000000001
#
# number of rings (size 3 to 8) (size 9 to 14) (size 15 to 20)
#    0.000    1.867    1.333    1.600    7.467    1.067 
#   14.400    0.000    0.000    0.000    0.000    0.000 
#    0.000    0.000    0.000    0.000    0.000    0.000 
#
# Total GULP energy -167201.144361 kJ/mol
# GULP energy per Si atom -5573.371479 kJ/mol
# Density = 2.209059 g / cm^3
# Si number density = 22.140982 Si / 1000 Ang^3
#
#
#
# Elastic Constant Matrix: (Units=GPa)
#
#
# Indices 1 2 3 4 5 6 
#
# 1 110.4578 15.6049 45.5561 0.0000 -6.7377 0.0000
# 2 15.6049 40.7327 14.4512 0.0000 -0.3907 0.0000
# 3 45.5561 14.4512 49.9075 0.0000 16.8300 0.0000
# 4 0.0000 0.0000 0.0000 31.4409 0.0000 -4.2008
# 5 -6.7377 -0.3907 16.8300 0.0000 40.3874 0.0000
# 6 0.0000 0.0000 0.0000 -4.2008 0.0000 18.7637
#
#
#
# Elastic Compliance Matrix: (Units=1/GPa)
#
#
# Indices 1 2 3 4 5 6 
#
# 1 0.018255 0.000479 -0.020746 0.000000 0.011695 0.000000
# 2 0.000479 0.027985 -0.010074 0.000000 0.004549 0.000000
# 3 -0.020746 -0.010074 0.050137 0.000000 -0.024451 0.000000
# 4 0.000000 0.000000 0.000000 0.032786 0.000000 0.007340
# 5 0.011695 0.004549 -0.024451 0.000000 0.036945 0.000000
# 6 0.000000 0.000000 0.000000 0.007340 0.000000 0.054938
#
#
# Mechanical properties :
#
#
# Convention : Reuss Voigt Hill
#
# Bulk Modulus (GPa) = 28.01610 39.14696 33.58153
# Shear Modulus (GPa) = 17.02840 26.48412 21.75626
#
# Velocity S-wave (km/s) = 2.77626 3.46230 3.13808
# Velocity P-wave (km/s) = 4.79143 5.80539 5.32261
#
# Compressibility (1/GPa) = 0.03569376
#
# Stress axis : x y z
#
# Youngs Moduli (GPa) = 54.77839 35.73395 19.94529
#
# Poissons Ratio (x) = -0.01711 0.41379
# Poissons Ratio (y) = -0.02623 0.20093
# Poissons Ratio (z) = 1.13645 0.35999
#
# Static dielectric constant tensor:
#      x y z
#    x 1.788790 0.000000 0.021400 
#    y 0.000000 1.900020 0.000000 
#    z 0.021400 0.000000 1.856420 
# 
# From -- ./inp_files/19750.got.cif
#   From: 2010.05.17/outbox.cif.g08.bks.cpg/sg14_10_cif.got.tgz:19750.got - 2010.06.03 17:49:19.
