data_PCOD9244140
_publ_section_title
;
Structure prediction by ZEFSAII (Michael W. Deem and Ramdas Pophale) SiO2 
 PCOD9244140
Probable space group: P 21/C
;
_chemical_formula_sum "Si O2"
_cell_formula_units_Z 32
_cell_length_a 7.786084
_cell_length_b 9.865171
_cell_length_c 17.343622
_cell_angle_alpha 90.000000
_cell_angle_beta 81.017376
_cell_angle_gamma 90.000000
_cell_volume 1315.843590
_symmetry_space_group_name_H-M "P 21/C"
_symmetry_group_IT_number 14
_symmetry_cell_setting 'monoclinic'
loop_
_space_group_symop_operation_xyz
x,y,z
-x,1/2+y,1/2-z
-x,-y,-z
x,1/2-y,1/2+z
loop_
_atom_site_type_symbol
_atom_site_label
_atom_site_fract_x
_atom_site_fract_y
_atom_site_fract_z
Si Si1 0.040840 0.719942 0.801665
Si Si2 0.489166 0.308863 0.692800
Si Si3 0.682789 0.915346 0.390962
Si Si4 0.862712 0.574171 0.208870
Si Si5 0.040673 0.372171 0.550864
Si Si6 0.403717 0.781554 0.649593
Si Si7 0.232346 0.154870 0.445071
Si Si8 0.387217 0.506776 0.584231
O O1 0.859628 0.648250 0.844257
O O2 0.007940 0.827983 0.735657
O O3 0.087791 0.810008 0.874930
O O4 0.130516 0.581624 0.767010
O O5 0.463785 0.181260 0.637589
O O6 0.310451 0.353536 0.747795
O O7 0.608857 0.274345 0.756759
O O8 0.513996 0.442759 0.640081
O O9 0.692339 0.912478 0.482838
O O10 0.655179 0.068828 0.368371
O O11 0.853576 0.568593 0.116801
O O12 0.088657 0.255581 0.487563
O O13 0.217922 0.412890 0.584278
O O14 0.000000 0.500000 0.500000
O O15 0.604741 0.770846 0.606273
O O16 0.323039 0.655887 0.610162
O O17 0.500000 0.500000 0.500000
#
# Coordination Sequence:
#
# PCOD9244140 Si02
#       8
#     4   4   4   4   4   4   4   4
#     4  10  23  43  64  92 132 172 217 275 328 400
#     4  10  21  42  61  93 134 169 215 279 329 391
#     4  10  20  40  58  88 128 167 210 271 328 385
#     4  10  22  39  67  90 129 171 217 266 339 390
#     4  11  24  43  66  95 137 176 222 277 333 392
#     4  11  22  35  67  94 125 171 218 269 336 392
#     4  10  21  39  62  90 129 166 214 275 328 390
#     4  12  22  43  69  97 133 177 223 274 332 402
#
# _framework density 24.318999999999999
#
# number of rings (size 3 to 8) (size 9 to 14) (size 15 to 20)
#    0.000    1.500    5.000    1.125    1.750    5.000 
#    0.000    2.500    0.000    0.000    0.000    0.000 
#    0.000    0.000    0.000    0.000    0.000    0.000 
#
# Total GULP energy -178813.227961 kJ/mol
# GULP energy per Si atom -5587.913374 kJ/mol
# Density = 2.426365 g / cm^3
# Si number density = 24.319000 Si / 1000 Ang^3
#
#
#
# Elastic Constant Matrix: (Units=GPa)
#
#
# Indices 1 2 3 4 5 6 
#
# 1 17.8153 18.2303 10.6863 0.0000 6.8333 0.0000
# 2 18.2303 189.1453 74.8387 0.0000 20.2416 0.0000
# 3 10.6863 74.8387 176.8001 0.0000 19.3814 0.0000
# 4 0.0000 0.0000 0.0000 41.7237 0.0000 6.3186
# 5 6.8333 20.2416 19.3814 0.0000 30.5529 0.0000
# 6 0.0000 0.0000 0.0000 6.3186 0.0000 27.4510
#
#
#
# Elastic Compliance Matrix: (Units=1/GPa)
#
#
# Indices 1 2 3 4 5 6 
#
# 1 0.065779 -0.004882 -0.000700 0.000000 -0.011033 0.000000
# 2 -0.004882 0.006925 -0.002422 0.000000 -0.001960 0.000000
# 3 -0.000700 -0.002422 0.007018 0.000000 -0.002691 0.000000
# 4 0.000000 0.000000 0.000000 0.024833 0.000000 -0.005716
# 5 -0.011033 -0.001960 -0.002691 0.000000 0.038204 0.000000
# 6 0.000000 0.000000 0.000000 -0.005716 0.000000 0.037744
#
#
# Mechanical properties :
#
#
# Convention : Reuss Voigt Hill
#
# Bulk Modulus (GPa) = 15.69469 65.69679 40.69574
# Shear Modulus (GPa) = 22.96218 38.61254 30.78736
#
# Velocity S-wave (km/s) = 3.07613 3.98898 3.56192
# Velocity P-wave (km/s) = 4.36858 6.94905 5.80404
#
# Compressibility (1/GPa) = 0.06371581
#
# Stress axis : x y z
#
# Youngs Moduli (GPa) = 15.20240 144.39627 142.48144
#
# Poissons Ratio (x) = 0.70499 0.09969
# Poissons Ratio (y) = 0.07422 0.34502
# Poissons Ratio (z) = 0.01064 0.34966
#
# Static dielectric constant tensor:
#      x y z
#    x 2.095940 0.000000 -0.017640 
#    y 0.000000 1.869910 0.000000 
#    z -0.017640 0.000000 1.966350 
# 
# From -- ./inp_files/43739.got.cif
#   From: 2010.05.17/outbox.cif.g08.bks.cpg/sg14_22_cif.got.tgz:43739.got - 2010.06.03 17:49:19.
