data_PCOD9244636
_publ_section_title
;
Structure prediction by ZEFSAII (Michael W. Deem and Ramdas Pophale) SiO2 
 PCOD9244636
Probable space group: P 21/C
;
_chemical_formula_sum "Si O2"
_cell_formula_units_Z 20
_cell_length_a 18.275270
_cell_length_b 9.642518
_cell_length_c 11.671580
_cell_angle_alpha 90.000000
_cell_angle_beta 23.566842
_cell_angle_gamma 90.000000
_cell_volume 822.331566
_symmetry_space_group_name_H-M "P 21/C"
_symmetry_group_IT_number 14
_symmetry_cell_setting 'monoclinic'
loop_
_space_group_symop_operation_xyz
x,y,z
-x,1/2+y,1/2-z
-x,-y,-z
x,1/2-y,1/2+z
loop_
_atom_site_type_symbol
_atom_site_label
_atom_site_fract_x
_atom_site_fract_y
_atom_site_fract_z
Si Si1 0.806066 0.034025 0.838792
Si Si2 0.646987 0.596475 0.353822
Si Si3 0.611160 0.837482 0.258198
Si Si4 0.225173 0.841179 0.696235
Si Si5 0.139739 0.098047 0.656949
O O1 0.772662 0.196816 0.875241
O O2 0.664341 0.956543 0.955918
O O3 0.000000 0.000000 0.500000
O O4 0.747850 0.966014 0.043335
O O5 0.500000 0.500000 0.500000
O O6 0.607971 0.759023 0.386104
O O7 0.836885 0.570455 0.011884
O O8 0.408365 0.862793 0.505750
O O9 0.705207 0.714575 0.048578
O O10 0.187569 0.963986 0.661173
O O11 0.052197 0.840892 0.029544
#
# Coordination Sequence:
#
# PCOD9244636 Si02
#       5
#     4   4   4   4   4
#     4  12  22  41  68  97 132 176 225 281 333 402
#     4  10  20  42  66  90 129 179 221 267 343 400
#     4  10  21  40  67  99 126 178 225 269 342 400
#     4  11  19  40  66  94 136 174 224 280 329 397
#     4   9  22  39  62  99 131 179 223 272 341 400
#
# _framework density 24.321089000000001
#
# number of rings (size 3 to 8) (size 9 to 14) (size 15 to 20)
#    1.200    0.400    4.000    2.400    0.000    0.000 
#    7.200    0.000    0.000    4.800    0.000    0.000 
#    0.000    0.000    0.000    0.000    0.000    0.000 
#
# Total GULP energy -111764.370064 kJ/mol
# GULP energy per Si atom -5588.218503 kJ/mol
# Density = 2.426573 g / cm^3
# Si number density = 24.321089 Si / 1000 Ang^3
#
#
#
# Elastic Constant Matrix: (Units=GPa)
#
#
# Indices 1 2 3 4 5 6 
#
# 1 35.7725 20.0984 12.1165 0.0000 0.0153 0.0000
# 2 20.0984 130.5917 41.6026 0.0000 4.3572 0.0000
# 3 12.1165 41.6026 123.4435 0.0000 -2.8352 0.0000
# 4 0.0000 0.0000 0.0000 36.8505 0.0000 1.7311
# 5 0.0153 4.3572 -2.8352 0.0000 29.1625 0.0000
# 6 0.0000 0.0000 0.0000 1.7311 0.0000 22.5226
#
#
#
# Elastic Compliance Matrix: (Units=1/GPa)
#
#
# Indices 1 2 3 4 5 6 
#
# 1 0.030887 -0.004265 -0.001584 0.000000 0.000467 0.000000
# 2 -0.004265 0.009239 -0.002733 0.000000 -0.001644 0.000000
# 3 -0.001584 -0.002733 0.009207 0.000000 0.001304 0.000000
# 4 0.000000 0.000000 0.000000 0.027235 0.000000 -0.002093
# 5 0.000467 -0.001644 0.001304 0.000000 0.034663 0.000000
# 6 0.000000 0.000000 0.000000 -0.002093 0.000000 0.044561
#
#
# Mechanical properties :
#
#
# Convention : Reuss Voigt Hill
#
# Bulk Modulus (GPa) = 31.08410 48.60473 39.84442
# Shear Modulus (GPa) = 27.22155 32.10646 29.66401
#
# Velocity S-wave (km/s) = 3.34916 3.63727 3.49618
# Velocity P-wave (km/s) = 5.26918 6.13740 5.71979
#
# Compressibility (1/GPa) = 0.03217079
#
# Stress axis : x y z
#
# Youngs Moduli (GPa) = 32.37639 108.23354 108.60914
#
# Poissons Ratio (x) = 0.46157 0.17200
# Poissons Ratio (y) = 0.13807 0.29682
# Poissons Ratio (z) = 0.05127 0.29580
#
# Static dielectric constant tensor:
#      x y z
#    x 2.024030 0.000000 0.080620 
#    y 0.000000 1.925750 0.000000 
#    z 0.080620 0.000000 1.993710 
# 
# From -- ./inp_files/51085.got.cif
#   From: 2010.05.17/outbox.cif.g08.bks.cpg/sg14_26_cif.got.tgz:51085.got - 2010.06.03 17:49:19.
