data_PCOD9244898
_publ_section_title
;
Structure prediction by ZEFSAII (Michael W. Deem and Ramdas Pophale) SiO2 
 PCOD9244898
Probable space group: P 21/C
;
_chemical_formula_sum "Si O2"
_cell_formula_units_Z 32
_cell_length_a 11.900500
_cell_length_b 6.800110
_cell_length_c 19.396389
_cell_angle_alpha 90.000000
_cell_angle_beta 53.093930
_cell_angle_gamma 90.000000
_cell_volume 1255.122883
_symmetry_space_group_name_H-M "P 21/C"
_symmetry_group_IT_number 14
_symmetry_cell_setting 'monoclinic'
loop_
_space_group_symop_operation_xyz
x,y,z
-x,1/2+y,1/2-z
-x,-y,-z
x,1/2-y,1/2+z
loop_
_atom_site_type_symbol
_atom_site_label
_atom_site_fract_x
_atom_site_fract_y
_atom_site_fract_z
Si Si1 0.742682 0.425112 0.106250
Si Si2 0.192021 0.684294 0.698224
Si Si3 0.499855 0.665858 0.901088
Si Si4 0.492373 0.210715 0.949184
Si Si5 0.766204 0.638744 0.546498
Si Si6 0.999068 0.393185 0.830691
Si Si7 0.035968 0.785786 0.886911
Si Si8 0.269193 0.240463 0.795898
O O1 0.633692 0.306652 0.100184
O O2 0.787004 0.624950 0.051552
O O3 0.871409 0.295268 0.084167
O O4 0.681512 0.539390 0.196689
O O5 0.355709 0.649901 0.634843
O O6 0.106255 0.479445 0.733284
O O7 0.143370 0.816431 0.782646
O O8 0.134419 0.792063 0.652114
O O9 0.484849 0.441093 0.931195
O O10 0.636212 0.683273 0.802869
O O11 0.510769 0.792174 0.966724
O O12 0.361012 0.113971 0.959072
O O13 0.724193 0.592428 0.641377
O O14 0.913723 0.572709 0.459200
O O15 0.959480 0.594342 0.882168
O O16 0.105018 0.266747 0.837744
#
# Coordination Sequence:
#
# PCOD9244898 Si02
#       8
#     4   4   4   4   4   4   4   4
#     4   8  18  33  55  83 112 146 200 231 293 334
#     4  10  22  36  58  84 118 153 190 247 288 354
#     4  10  21  34  61  85 120 152 199 248 286 348
#     4  10  23  35  58  89 114 153 203 244 289 342
#     4   9  18  34  56  86 111 151 192 241 286 345
#     4   9  22  35  59  83 118 150 197 234 305 336
#     4   9  19  33  59  81 114 147 194 240 282 346
#     4   9  20  34  55  84 116 150 189 244 294 343
#
# _framework density 25.495508999999998
#
# number of rings (size 3 to 8) (size 9 to 14) (size 15 to 20)
#    1.500    1.250    0.000    0.375   10.500    0.000 
#    0.000    0.625    2.750    0.750    0.000    0.000 
#    0.000    0.000    0.000    0.000    0.000    0.000 
#
# Total GULP energy -178673.460382 kJ/mol
# GULP energy per Si atom -5583.545637 kJ/mol
# Density = 2.543748 g / cm^3
# Si number density = 25.495509 Si / 1000 Ang^3
#
#
#
# Elastic Constant Matrix: (Units=GPa)
#
#
# Indices 1 2 3 4 5 6 
#
# 1 105.8587 28.9264 52.0707 0.0000 13.4358 0.0000
# 2 28.9264 58.2781 14.4713 0.0000 13.4808 0.0000
# 3 52.0707 14.4713 158.8434 0.0000 8.5051 0.0000
# 4 0.0000 0.0000 0.0000 25.8426 0.0000 13.5576
# 5 13.4358 13.4808 8.5051 0.0000 25.0061 0.0000
# 6 0.0000 0.0000 0.0000 13.5576 0.0000 22.9824
#
#
#
# Elastic Compliance Matrix: (Units=1/GPa)
#
#
# Indices 1 2 3 4 5 6 
#
# 1 0.012945 -0.004797 -0.003639 0.000000 -0.003131 0.000000
# 2 -0.004797 0.021625 0.000090 0.000000 -0.009111 0.000000
# 3 -0.003639 0.000090 0.007515 0.000000 -0.000650 0.000000
# 4 0.000000 0.000000 0.000000 0.056039 0.000000 -0.033058
# 5 -0.003131 -0.009111 -0.000650 0.000000 0.046806 0.000000
# 6 0.000000 0.000000 0.000000 -0.033058 0.000000 0.063013
#
#
# Mechanical properties :
#
#
# Convention : Reuss Voigt Hill
#
# Bulk Modulus (GPa) = 39.37984 57.10189 48.24086
# Shear Modulus (GPa) = 21.45019 29.93368 25.69194
#
# Velocity S-wave (km/s) = 2.90372 3.43020 3.17788
# Velocity P-wave (km/s) = 5.16928 6.17526 5.69453
#
# Compressibility (1/GPa) = 0.02539371
#
# Stress axis : x y z
#
# Youngs Moduli (GPa) = 77.25169 46.24188 133.06941
#
# Poissons Ratio (x) = 0.22183 0.48420
# Poissons Ratio (y) = 0.37059 -0.01201
# Poissons Ratio (z) = 0.28110 -0.00417
#
# Static dielectric constant tensor:
#      x y z
#    x 1.976190 0.000000 0.049980 
#    y 0.000000 2.085770 0.000000 
#    z 0.049980 0.000000 2.057720 
# 
# From -- ./inp_files/57561.got.cif
#   From: 2010.05.17/outbox.cif.g08.bks.cpg/sg14_29_cif.got.tgz:57561.got - 2010.06.03 17:49:19.
