data_PCOD9244707
_publ_section_title
;
Structure prediction by ZEFSAII (Michael W. Deem and Ramdas Pophale) SiO2 
 PCOD9244707
Probable space group: P 21/C
;
_chemical_formula_sum "Si O2"
_cell_formula_units_Z 32
_cell_length_a 18.402497
_cell_length_b 5.691264
_cell_length_c 13.249798
_cell_angle_alpha 90.000000
_cell_angle_beta 89.705294
_cell_angle_gamma 90.000000
_cell_volume 1387.678947
_symmetry_space_group_name_H-M "P 21/C"
_symmetry_group_IT_number 14
_symmetry_cell_setting 'monoclinic'
loop_
_space_group_symop_operation_xyz
x,y,z
-x,1/2+y,1/2-z
-x,-y,-z
x,1/2-y,1/2+z
loop_
_atom_site_type_symbol
_atom_site_label
_atom_site_fract_x
_atom_site_fract_y
_atom_site_fract_z
Si Si1 0.996142 0.181693 0.189492
Si Si2 0.607634 0.855227 0.435743
Si Si3 0.156524 0.999793 0.840037
Si Si4 0.504215 0.754472 0.090687
Si Si5 0.251663 0.613451 0.757976
Si Si6 0.851984 0.717382 0.354649
Si Si7 0.233220 0.349030 0.972314
Si Si8 0.410519 0.463619 0.739899
O O1 0.916300 0.147513 0.140870
O O2 0.995094 0.447935 0.237517
O O3 0.065676 0.156744 0.115065
O O4 0.554175 0.674142 0.496109
O O5 0.686202 0.844383 0.483896
O O6 0.611209 0.771675 0.320283
O O7 0.565482 0.101749 0.441371
O O8 0.215948 0.862573 0.774385
O O9 0.134039 0.199495 0.760670
O O10 0.197139 0.103824 0.935962
O O11 0.560826 0.584547 0.149549
O O12 0.476646 0.924241 0.178025
O O13 0.209317 0.478873 0.668299
O O14 0.238039 0.494268 0.868489
O O15 0.337476 0.615755 0.739050
O O16 0.819385 0.906229 0.433203
#
# Coordination Sequence:
#
# PCOD9244707 Si02
#       8
#     4   4   4   4   4   4   4   4
#     4  10  20  42  73 102 141 188 233 286 346 415
#     4  11  24  44  60  91 129 162 216 274 329 404
#     4  10  24  41  66  97 132 173 222 279 331 408
#     4  11  25  41  63  93 122 166 216 269 336 401
#     4  11  23  41  63  95 129 169 223 271 335 402
#     4  10  22  42  67  94 133 179 216 273 341 404
#     4  11  24  41  65  97 133 169 221 278 335 407
#     4  12  23  40  68  88 123 169 214 272 331 403
#
# _framework density 23.060088
#
# number of rings (size 3 to 8) (size 9 to 14) (size 15 to 20)
#    0.000    1.250    5.000    0.375    1.750    3.500 
#    0.000    0.625    0.000    0.000    0.000    0.000 
#    0.000    0.000    0.000    0.000    0.000    0.000 
#
# Total GULP energy -178357.024198 kJ/mol
# GULP energy per Si atom -5573.657006 kJ/mol
# Density = 2.300760 g / cm^3
# Si number density = 23.060088 Si / 1000 Ang^3
#
#
#
# Elastic Constant Matrix: (Units=GPa)
#
#
# Indices 1 2 3 4 5 6 
#
# 1 121.6810 4.8801 13.3817 0.0000 -6.6639 0.0000
# 2 4.8801 33.4462 0.0318 0.0000 9.6091 0.0000
# 3 13.3817 0.0318 85.1368 0.0000 4.9633 0.0000
# 4 0.0000 0.0000 0.0000 20.7800 0.0000 -4.5679
# 5 -6.6639 9.6091 4.9633 0.0000 22.8259 0.0000
# 6 0.0000 0.0000 0.0000 -4.5679 0.0000 29.1133
#
#
#
# Elastic Compliance Matrix: (Units=1/GPa)
#
#
# Indices 1 2 3 4 5 6 
#
# 1 0.008702 -0.002386 -0.001594 0.000000 0.003892 0.000000
# 2 -0.002386 0.034725 0.001271 0.000000 -0.015591 0.000000
# 3 -0.001594 0.001271 0.012209 0.000000 -0.003655 0.000000
# 4 0.000000 0.000000 0.000000 0.049842 0.000000 0.007820
# 5 0.003892 -0.015591 -0.003655 0.000000 0.052304 0.000000
# 6 0.000000 0.000000 0.000000 0.007820 0.000000 0.035576
#
#
# Mechanical properties :
#
#
# Convention : Reuss Voigt Hill
#
# Bulk Modulus (GPa) = 19.91309 30.76125 25.33717
# Shear Modulus (GPa) = 23.20009 29.34186 26.27098
#
# Velocity S-wave (km/s) = 3.17530 3.57095 3.37892
# Velocity P-wave (km/s) = 4.70079 5.51098 5.12193
#
# Compressibility (1/GPa) = 0.05021823
#
# Stress axis : x y z
#
# Youngs Moduli (GPa) = 114.91183 28.79756 81.90724
#
# Poissons Ratio (x) = 0.06872 0.13054
# Poissons Ratio (y) = 0.27422 -0.10411
# Poissons Ratio (z) = 0.18315 -0.03660
#
# Static dielectric constant tensor:
#      x y z
#    x 1.881570 0.000000 0.005940 
#    y 0.000000 1.977130 0.000000 
#    z 0.005940 0.000000 1.918510 
# 
# From -- ./inp_files/48181.got.cif
#   From: 2010.05.17/outbox.cif.g08.bks.cpg/sg14_25_cif.got.tgz:48181.got - 2010.06.03 17:49:19.
