data_PCOD9244084
_publ_section_title
;
Structure prediction by ZEFSAII (Michael W. Deem and Ramdas Pophale) SiO2 
 PCOD9244084
Probable space group: P 21/C
;
_chemical_formula_sum "Si O2"
_cell_formula_units_Z 32
_cell_length_a 14.439877
_cell_length_b 5.106004
_cell_length_c 19.181612
_cell_angle_alpha 90.000000
_cell_angle_beta 95.552260
_cell_angle_gamma 90.000000
_cell_volume 1407.626387
_symmetry_space_group_name_H-M "P 21/C"
_symmetry_group_IT_number 14
_symmetry_cell_setting 'monoclinic'
loop_
_space_group_symop_operation_xyz
x,y,z
-x,1/2+y,1/2-z
-x,-y,-z
x,1/2-y,1/2+z
loop_
_atom_site_type_symbol
_atom_site_label
_atom_site_fract_x
_atom_site_fract_y
_atom_site_fract_z
Si Si1 0.020618 0.446492 0.298634
Si Si2 0.704330 0.065386 0.298171
Si Si3 0.451755 0.625886 0.764011
Si Si4 0.348763 0.429257 0.936744
Si Si5 0.162046 0.934020 0.154451
Si Si6 0.463932 0.910119 0.911839
Si Si7 0.783506 0.710014 0.194967
Si Si8 0.323536 0.201818 0.080297
O O1 0.124405 0.356647 0.325916
O O2 0.982011 0.218786 0.243820
O O3 0.948238 0.464584 0.357557
O O4 0.644786 0.326993 0.282224
O O5 0.806012 0.133710 0.334618
O O6 0.716431 0.923662 0.225862
O O7 0.655716 0.899086 0.354203
O O8 0.478837 0.325233 0.770949
O O9 0.447542 0.771935 0.836518
O O10 0.410643 0.688137 0.953255
O O11 0.272114 0.444650 0.868890
O O12 0.415579 0.187515 0.919932
O O13 0.302557 0.349843 0.006730
O O14 0.184201 0.053180 0.233390
O O15 0.232344 0.047302 0.101424
O O16 0.575833 0.932710 0.925777
#
# Coordination Sequence:
#
# PCOD9244084 Si02
#       8
#     4   4   4   4   4   4   4   4
#     4  10  20  39  66  98 127 159 205 271 331 379
#     4  11  21  37  63  88 124 159 205 264 310 365
#     4  12  23  37  60  91 123 157 206 266 311 359
#     4  12  27  43  63  92 131 174 216 257 317 379
#     4  10  22  40  66  94 125 163 213 265 323 376
#     4  12  25  43  63  88 129 175 218 258 311 380
#     4  10  22  40  64  98 124 162 210 267 315 381
#     4  11  26  41  62  90 130 176 213 259 315 389
#
# _framework density 22.733304
#
# number of rings (size 3 to 8) (size 9 to 14) (size 15 to 20)
#    0.000    1.000    3.750    3.000    5.250    0.000 
#    0.000    0.625    0.000    0.750    0.000    0.000 
#    0.000    0.000    0.000    0.000    0.000    0.000 
#
# Total GULP energy -178710.480626 kJ/mol
# GULP energy per Si atom -5584.702520 kJ/mol
# Density = 2.268156 g / cm^3
# Si number density = 22.733304 Si / 1000 Ang^3
#
#
#
# Elastic Constant Matrix: (Units=GPa)
#
#
# Indices 1 2 3 4 5 6 
#
# 1 133.4160 37.5572 44.0274 0.0000 -25.0231 0.0000
# 2 37.5572 80.6037 11.5699 0.0000 -10.9534 0.0000
# 3 44.0274 11.5699 99.9244 0.0000 -15.1642 0.0000
# 4 0.0000 0.0000 0.0000 23.0565 0.0000 -2.7301
# 5 -25.0231 -10.9534 -15.1642 0.0000 20.0159 0.0000
# 6 0.0000 0.0000 0.0000 -2.7301 0.0000 38.0130
#
#
#
# Elastic Compliance Matrix: (Units=1/GPa)
#
#
# Indices 1 2 3 4 5 6 
#
# 1 0.011368 -0.003500 -0.003093 0.000000 0.009953 0.000000
# 2 -0.003500 0.014503 0.000456 0.000000 0.003906 0.000000
# 3 -0.003093 0.000456 0.012168 0.000000 0.005601 0.000000
# 4 0.000000 0.000000 0.000000 0.043744 0.000000 0.003142
# 5 0.009953 0.003906 0.005601 0.000000 0.068784 0.000000
# 6 0.000000 0.000000 0.000000 0.003142 0.000000 0.026532
#
#
# Mechanical properties :
#
#
# Convention : Reuss Voigt Hill
#
# Bulk Modulus (GPa) = 38.81549 55.58368 47.19958
# Shear Modulus (GPa) = 25.25738 30.93638 28.09688
#
# Velocity S-wave (km/s) = 3.33683 3.69296 3.51940
# Velocity P-wave (km/s) = 5.65307 6.53355 6.10920
#
# Compressibility (1/GPa) = 0.02576291
#
# Stress axis : x y z
#
# Youngs Moduli (GPa) = 87.96390 68.95259 82.18540
#
# Poissons Ratio (x) = 0.24137 0.25421
# Poissons Ratio (y) = 0.30792 -0.03746
# Poissons Ratio (z) = 0.27209 -0.03143
#
# Static dielectric constant tensor:
#      x y z
#    x 1.929180 0.000000 -0.042740 
#    y 0.000000 1.914190 0.000000 
#    z -0.042740 0.000000 1.880230 
# 
# From -- ./inp_files/58611.got.cif
#   From: 2010.05.17/outbox.cif.g08.bks.cpg/sg14_30_cif.got.tgz:58611.got - 2010.06.03 17:49:19.
