data_PCOD9244616
_publ_section_title
;
Structure prediction by ZEFSAII (Michael W. Deem and Ramdas Pophale) SiO2 
 PCOD9244616
Probable space group: P 21/C
;
_chemical_formula_sum "Si O2"
_cell_formula_units_Z 20
_cell_length_a 9.144628
_cell_length_b 14.240915
_cell_length_c 8.784078
_cell_angle_alpha 90.000000
_cell_angle_beta 136.345622
_cell_angle_gamma 90.000000
_cell_volume 789.663566
_symmetry_space_group_name_H-M "P 21/C"
_symmetry_group_IT_number 14
_symmetry_cell_setting 'monoclinic'
loop_
_space_group_symop_operation_xyz
x,y,z
-x,1/2+y,1/2-z
-x,-y,-z
x,1/2-y,1/2+z
loop_
_atom_site_type_symbol
_atom_site_label
_atom_site_fract_x
_atom_site_fract_y
_atom_site_fract_z
Si Si1 0.787410 0.500003 0.039279
Si Si2 0.651896 0.695645 0.250275
Si Si3 0.348080 0.695638 0.749695
Si Si4 0.000009 0.340605 0.000019
Si Si5 0.283526 0.499996 0.659316
O O1 0.897840 0.590545 0.047934
O O2 0.801723 0.500005 0.231332
O O3 0.537282 0.500000 0.815963
O O4 0.897851 0.409460 0.047955
O O5 0.499989 0.750006 0.249982
O O6 0.816818 0.770087 0.307559
O O7 0.764134 0.607935 0.419699
O O8 0.499987 0.658969 0.999987
O O9 0.235847 0.607924 0.580285
O O10 0.183159 0.770085 0.692400
#
# Coordination Sequence:
#
# PCOD9244616 Si02
#       5
#     4   4   4   4   4
#     4  10  20  42  65  92 136 174 208 268 336 383
#     4  12  24  43  69  97 134 171 221 271 326 386
#     4  12  24  43  69  97 134 171 221 271 326 386
#     4  11  24  41  70  98 126 177 224 263 324 392
#     4  11  20  43  64  91 139 173 205 274 336 374
#
# _framework density 25.327241000000001
#
# number of rings (size 3 to 8) (size 9 to 14) (size 15 to 20)
#    0.000    0.800    8.000    0.000    0.000    7.200 
#    0.000    9.000    0.000    0.000    0.000    0.000 
#    0.000    0.000    0.000    0.000    0.000    0.000 
#
# Total GULP energy -111800.608694 kJ/mol
# GULP energy per Si atom -5590.030435 kJ/mol
# Density = 2.526959 g / cm^3
# Si number density = 25.327241 Si / 1000 Ang^3
#
#
#
# Elastic Constant Matrix: (Units=GPa)
#
#
# Indices 1 2 3 4 5 6 
#
# 1 142.9642 64.9338 17.6645 0.0000 28.1501 0.0000
# 2 64.9338 231.7993 25.6857 0.0000 21.4732 0.0000
# 3 17.6645 25.6857 64.7402 0.0000 12.8862 0.0000
# 4 0.0000 0.0000 0.0000 29.1604 0.0000 23.4562
# 5 28.1501 21.4732 12.8862 0.0000 26.9316 0.0000
# 6 0.0000 0.0000 0.0000 23.4562 0.0000 63.8071
#
#
#
# Elastic Compliance Matrix: (Units=1/GPa)
#
#
# Indices 1 2 3 4 5 6 
#
# 1 0.009514 -0.001869 -0.000190 0.000000 -0.008363 0.000000
# 2 -0.001869 0.005115 -0.001212 0.000000 -0.001545 0.000000
# 3 -0.000190 -0.001212 0.017405 0.000000 -0.007163 0.000000
# 4 0.000000 0.000000 0.000000 0.048691 0.000000 -0.017899
# 5 -0.008363 -0.001545 -0.007163 0.000000 0.050532 0.000000
# 6 0.000000 0.000000 0.000000 -0.017899 0.000000 0.022252
#
#
# Mechanical properties :
#
#
# Convention : Reuss Voigt Hill
#
# Bulk Modulus (GPa) = 39.22790 72.89687 56.06239
# Shear Modulus (GPa) = 29.66515 46.06114 37.86315
#
# Velocity S-wave (km/s) = 3.42610 4.26918 3.87066
# Velocity P-wave (km/s) = 5.58327 7.29011 6.49302
#
# Compressibility (1/GPa) = 0.02549206
#
# Stress axis : x y z
#
# Youngs Moduli (GPa) = 105.10824 195.49855 57.45568
#
# Poissons Ratio (x) = 0.36546 0.01089
# Poissons Ratio (y) = 0.19649 0.06963
# Poissons Ratio (z) = 0.01993 0.23693
#
# Static dielectric constant tensor:
#      x y z
#    x 1.911190 0.000000 0.025930 
#    y 0.000000 1.980070 0.000000 
#    z 0.025930 0.000000 2.148400 
# 
# From -- ./inp_files/24317.got.cif
#   From: 2010.05.17/outbox.cif.g08.bks.cpg/sg14_13_cif.got.tgz:24317.got - 2010.06.03 17:49:19.
