data_PCOD9244132
_publ_section_title
;
Structure prediction by ZEFSAII (Michael W. Deem and Ramdas Pophale) SiO2 
 PCOD9244132
Probable space group: P 21/C
;
_chemical_formula_sum "Si O2"
_cell_formula_units_Z 16
_cell_length_a 16.102797
_cell_length_b 8.842330
_cell_length_c 11.709783
_cell_angle_alpha 90.000000
_cell_angle_beta 24.393900
_cell_angle_gamma 90.000000
_cell_volume 688.612326
_symmetry_space_group_name_H-M "P 21/C"
_symmetry_group_IT_number 14
_symmetry_cell_setting 'monoclinic'
loop_
_space_group_symop_operation_xyz
x,y,z
-x,1/2+y,1/2-z
-x,-y,-z
x,1/2-y,1/2+z
loop_
_atom_site_type_symbol
_atom_site_label
_atom_site_fract_x
_atom_site_fract_y
_atom_site_fract_z
Si Si1 0.044832 0.514238 0.758566
Si Si2 0.578777 0.290365 0.681758
Si Si3 0.225986 0.505279 0.116575
Si Si4 0.802845 0.790761 0.739850
O O1 0.246866 0.608903 0.482595
O O2 0.108934 0.373543 0.757780
O O3 0.927579 0.469535 0.793111
O O4 0.900418 0.622951 0.013420
O O5 0.414680 0.402841 0.833428
O O6 0.678310 0.167301 0.473507
O O7 0.439321 0.204631 0.949047
O O8 0.149307 0.387647 0.308335
#
# Coordination Sequence:
#
# PCOD9244132 Si02
#       4
#     4   4   4   4
#     4  11  20  39  62  81 114 151 185 233 284 326
#     4  10  20  40  55  84 121 137 194 233 269 343
#     4  10  21  38  58  84 116 149 183 233 283 325
#     4   9  21  39  56  90 108 147 195 225 277 343
#
# _framework density 23.235136000000001
#
# number of rings (size 3 to 8) (size 9 to 14) (size 15 to 20)
#    1.500    0.500    2.500    1.500    0.000    2.000 
#    4.500    1.250    0.000    0.000    0.000    0.000 
#    0.000    0.000    0.000    0.000    0.000    0.000 
#
# Total GULP energy -89257.124480 kJ/mol
# GULP energy per Si atom -5578.570280 kJ/mol
# Density = 2.318225 g / cm^3
# Si number density = 23.235136 Si / 1000 Ang^3
#
#
#
# Elastic Constant Matrix: (Units=GPa)
#
#
# Indices 1 2 3 4 5 6 
#
# 1 66.5834 12.1657 39.0428 0.0000 -6.6526 0.0000
# 2 12.1657 99.8089 15.3783 0.0000 -6.3614 0.0000
# 3 39.0428 15.3783 103.8356 0.0000 -12.9022 0.0000
# 4 0.0000 0.0000 0.0000 32.9729 0.0000 3.0433
# 5 -6.6526 -6.3614 -12.9022 0.0000 18.7947 0.0000
# 6 0.0000 0.0000 0.0000 3.0433 0.0000 9.5844
#
#
#
# Elastic Compliance Matrix: (Units=1/GPa)
#
#
# Indices 1 2 3 4 5 6 
#
# 1 0.019474 -0.001196 -0.006930 0.000000 0.001731 0.000000
# 2 -0.001196 0.010449 -0.000777 0.000000 0.002580 0.000000
# 3 -0.006930 -0.000777 0.013134 0.000000 0.006300 0.000000
# 4 0.000000 0.000000 0.000000 0.031244 0.000000 -0.009921
# 5 0.001731 0.002580 0.006300 0.000000 0.059017 0.000000
# 6 0.000000 0.000000 0.000000 -0.009921 0.000000 0.107486
#
#
# Mechanical properties :
#
#
# Convention : Reuss Voigt Hill
#
# Bulk Modulus (GPa) = 39.60234 44.82237 42.21235
# Shear Modulus (GPa) = 18.72468 25.84649 22.28558
#
# Velocity S-wave (km/s) = 2.84188 3.33887 3.10035
# Velocity P-wave (km/s) = 5.27726 5.84779 5.56984
#
# Compressibility (1/GPa) = 0.02525104
#
# Stress axis : x y z
#
# Youngs Moduli (GPa) = 51.35109 95.70213 76.13615
#
# Poissons Ratio (x) = 0.11442 0.52763
# Poissons Ratio (y) = 0.06139 0.05919
# Poissons Ratio (z) = 0.35587 0.07440
#
# Static dielectric constant tensor:
#      x y z
#    x 1.761660 0.000000 0.014970 
#    y 0.000000 1.923290 0.000000 
#    z 0.014970 0.000000 2.000630 
# 
# From -- ./inp_files/20369.got.cif
#   From: 2010.05.17/outbox.cif.g08.bks.cpg/sg14_11_cif.got.tgz:20369.got - 2010.06.03 17:49:19.
