data_PCOD9244526
_publ_section_title
;
Structure prediction by ZEFSAII (Michael W. Deem and Ramdas Pophale) SiO2 
 PCOD9244526
Probable space group: P 21/C
;
_chemical_formula_sum "Si O2"
_cell_formula_units_Z 28
_cell_length_a 15.661679
_cell_length_b 6.655357
_cell_length_c 13.415774
_cell_angle_alpha 90.000000
_cell_angle_beta 126.312786
_cell_angle_gamma 90.000000
_cell_volume 1126.809751
_symmetry_space_group_name_H-M "P 21/C"
_symmetry_group_IT_number 14
_symmetry_cell_setting 'monoclinic'
loop_
_space_group_symop_operation_xyz
x,y,z
-x,1/2+y,1/2-z
-x,-y,-z
x,1/2-y,1/2+z
loop_
_atom_site_type_symbol
_atom_site_label
_atom_site_fract_x
_atom_site_fract_y
_atom_site_fract_z
Si Si1 0.289667 0.543043 0.340668
Si Si2 0.925197 0.191704 0.970546
Si Si3 0.003692 0.427371 0.854263
Si Si4 0.133805 0.440883 0.407194
Si Si5 0.364781 0.302447 0.226664
Si Si6 0.453669 0.399360 0.606019
Si Si7 0.602952 0.419837 0.128428
O O1 0.206039 0.456516 0.360202
O O2 0.286098 0.464169 0.223922
O O3 0.397047 0.446906 0.462945
O O4 0.310962 0.781450 0.366733
O O5 0.976336 0.367466 0.072923
O O6 0.837514 0.089044 0.981589
O O7 0.914793 0.301968 0.856388
O O8 0.000000 0.000000 0.000000
O O9 0.106068 0.281649 0.924989
O O10 0.974068 0.474881 0.720073
O O11 0.483027 0.401558 0.315885
O O12 0.366786 0.204322 0.118387
O O13 0.349031 0.109791 0.285316
O O14 0.547727 0.239428 0.662746
O O15 0.500000 0.500000 0.000000
#
# Coordination Sequence:
#
# PCOD9244526 Si02
#       7
#     4   4   4   4   4   4   4
#     4  11  25  39  57  97 126 155 215 267 309 367
#     4   9  20  40  66  92 115 160 221 260 321 399
#     4  10  20  41  68  87 121 172 213 261 327 394
#     4  11  22  42  63  92 129 166 213 266 326 388
#     4  11  21  38  61  89 117 166 207 247 308 380
#     4  11  21  38  62  86 119 163 208 248 309 374
#     4  11  19  39  64  78 120 164 202 248 308 372
#
# _framework density 24.848913
#
# number of rings (size 3 to 8) (size 9 to 14) (size 15 to 20)
#    0.000    1.429    5.714    0.857    0.000    1.143 
#   10.286    0.000    0.000    0.000    0.000    0.000 
#    0.000    0.000    0.000    0.000    0.000    0.000 
#
# Total GULP energy -156091.624342 kJ/mol
# GULP energy per Si atom -5574.700869 kJ/mol
# Density = 2.479236 g / cm^3
# Si number density = 24.848913 Si / 1000 Ang^3
#
#
#
# Elastic Constant Matrix: (Units=GPa)
#
#
# Indices 1 2 3 4 5 6 
#
# 1 90.4334 27.2385 0.3324 0.0000 -17.7427 0.0000
# 2 27.2385 152.4979 30.2872 0.0000 -9.6097 0.0000
# 3 0.3324 30.2872 70.2330 0.0000 -20.2998 0.0000
# 4 0.0000 0.0000 0.0000 42.1798 0.0000 -18.6958
# 5 -17.7427 -9.6097 -20.2998 0.0000 28.8398 0.0000
# 6 0.0000 0.0000 0.0000 -18.6958 0.0000 35.7561
#
#
#
# Elastic Compliance Matrix: (Units=1/GPa)
#
#
# Indices 1 2 3 4 5 6 
#
# 1 0.013915 -0.002639 0.004133 0.000000 0.010591 0.000000
# 2 -0.002639 0.007674 -0.003800 0.000000 -0.001741 0.000000
# 3 0.004133 -0.003800 0.020371 0.000000 0.015615 0.000000
# 4 0.000000 0.000000 0.000000 0.030860 0.000000 0.016136
# 5 0.010591 -0.001741 0.015615 0.000000 0.051601 0.000000
# 6 0.000000 0.000000 0.000000 0.016136 0.000000 0.036404
#
#
# Mechanical properties :
#
#
# Convention : Reuss Voigt Hill
#
# Bulk Modulus (GPa) = 26.77464 47.65339 37.21402
# Shear Modulus (GPa) = 28.10774 38.37555 33.24165
#
# Velocity S-wave (km/s) = 3.36690 3.93409 3.66150
# Velocity P-wave (km/s) = 5.09049 6.31308 5.73446
#
# Compressibility (1/GPa) = 0.03734877
#
# Stress axis : x y z
#
# Youngs Moduli (GPa) = 71.86234 130.31298 49.08959
#
# Poissons Ratio (x) = 0.34390 -0.20291
# Poissons Ratio (y) = 0.18965 0.18655
# Poissons Ratio (z) = -0.29704 0.49520
#
# Static dielectric constant tensor:
#      x y z
#    x 2.107730 0.000000 0.081310 
#    y 0.000000 2.063600 0.000000 
#    z 0.081310 0.000000 2.081040 
# 
# From -- ./inp_files/48007.got.cif
#   From: 2010.05.17/outbox.cif.g08.bks.cpg/sg14_25_cif.got.tgz:48007.got - 2010.06.03 17:49:19.
