data_PCOD9244609
_publ_section_title
;
Structure prediction by ZEFSAII (Michael W. Deem and Ramdas Pophale) SiO2 
 PCOD9244609
Probable space group: P 21/C
;
_chemical_formula_sum "Si O2"
_cell_formula_units_Z 32
_cell_length_a 12.472665
_cell_length_b 14.067903
_cell_length_c 13.791935
_cell_angle_alpha 90.000000
_cell_angle_beta 39.859692
_cell_angle_gamma 90.000000
_cell_volume 1550.996131
_symmetry_space_group_name_H-M "P 21/C"
_symmetry_group_IT_number 14
_symmetry_cell_setting 'monoclinic'
loop_
_space_group_symop_operation_xyz
x,y,z
-x,1/2+y,1/2-z
-x,-y,-z
x,1/2-y,1/2+z
loop_
_atom_site_type_symbol
_atom_site_label
_atom_site_fract_x
_atom_site_fract_y
_atom_site_fract_z
Si Si1 0.256507 0.073937 0.601768
Si Si2 0.341556 0.462031 0.668693
Si Si3 0.334879 0.725114 0.439738
Si Si4 0.444737 0.244705 0.043794
Si Si5 0.497657 0.457641 0.761631
Si Si6 0.904400 0.109793 0.746432
Si Si7 0.766654 0.259979 0.187712
Si Si8 0.186513 0.533110 0.347579
O O1 0.321416 0.176209 0.591592
O O2 0.392287 0.036375 0.431985
O O3 0.082218 0.086897 0.667491
O O4 0.238007 0.008702 0.708436
O O5 0.500000 0.500000 0.500000
O O6 0.347393 0.349384 0.645856
O O7 0.386154 0.489706 0.748265
O O8 0.183988 0.515421 0.733358
O O9 0.446668 0.780657 0.439459
O O10 0.456314 0.651380 0.299290
O O11 0.209029 0.660198 0.591203
O O12 0.244674 0.783799 0.418343
O O13 0.586998 0.221583 0.864420
O O14 0.680466 0.499255 0.661700
O O15 0.899667 0.182138 0.658808
O O16 0.804699 0.147510 0.164751
O O17 0.000000 0.500000 0.500000
#
# Coordination Sequence:
#
# PCOD9244609 Si02
#       8
#     4   4   4   4   4   4   4   4
#     4  12  24  42  62  99 140 167 219 281 330 393
#     4  11  21  43  71  94 129 177 226 262 336 403
#     4   9  18  40  63  89 126 165 222 266 322 394
#     4  10  21  38  68  96 124 173 215 271 328 399
#     4  10  21  40  66  93 131 170 219 273 323 402
#     4  11  24  42  66  96 134 171 220 285 321 401
#     4  10  20  42  64  96 127 168 221 273 332 386
#     4  11  24  43  68  95 130 176 220 272 336 399
#
# _framework density 20.631902
#
# number of rings (size 3 to 8) (size 9 to 14) (size 15 to 20)
#    0.000    1.500    6.250    1.875    0.000    2.500 
#   11.250    0.000    0.000    0.000    0.000    0.000 
#    0.000    0.000    0.000    0.000    0.000    0.000 
#
# Total GULP energy -178684.752365 kJ/mol
# GULP energy per Si atom -5583.898511 kJ/mol
# Density = 2.058494 g / cm^3
# Si number density = 20.631902 Si / 1000 Ang^3
#
#
#
# Elastic Constant Matrix: (Units=GPa)
#
#
# Indices 1 2 3 4 5 6 
#
# 1 181.0698 43.3888 43.8195 0.0000 -5.6414 0.0000
# 2 43.3888 65.6402 13.3965 0.0000 -6.3326 0.0000
# 3 43.8195 13.3965 73.3213 0.0000 3.4898 0.0000
# 4 0.0000 0.0000 0.0000 13.8483 0.0000 -4.3690
# 5 -5.6414 -6.3326 3.4898 0.0000 45.2354 0.0000
# 6 0.0000 0.0000 0.0000 -4.3690 0.0000 32.8621
#
#
#
# Elastic Compliance Matrix: (Units=1/GPa)
#
#
# Indices 1 2 3 4 5 6 
#
# 1 0.007422 -0.004085 -0.003720 0.000000 0.000641 0.000000
# 2 -0.004085 0.018348 -0.001013 0.000000 0.002137 0.000000
# 3 -0.003720 -0.001013 0.016135 0.000000 -0.001850 0.000000
# 4 0.000000 0.000000 0.000000 0.075373 0.000000 0.010021
# 5 0.000641 0.002137 -0.001850 0.000000 0.022628 0.000000
# 6 0.000000 0.000000 0.000000 0.010021 0.000000 0.031762
#
#
# Mechanical properties :
#
#
# Convention : Reuss Voigt Hill
#
# Bulk Modulus (GPa) = 41.20397 57.91566 49.55981
# Shear Modulus (GPa) = 25.33034 33.01759 29.17397
#
# Velocity S-wave (km/s) = 3.50769 4.00474 3.76443
# Velocity P-wave (km/s) = 6.03486 7.03674 6.55497
#
# Compressibility (1/GPa) = 0.02426951
#
# Stress axis : x y z
#
# Youngs Moduli (GPa) = 134.74028 54.50314 61.97829
#
# Poissons Ratio (x) = 0.22264 0.23054
# Poissons Ratio (y) = 0.55040 0.06277
# Poissons Ratio (z) = 0.50118 0.05520
#
# Static dielectric constant tensor:
#      x y z
#    x 1.789880 0.000000 0.006520 
#    y 0.000000 1.791350 0.000000 
#    z 0.006520 0.000000 1.730890 
# 
# From -- ./inp_files/45068.got.cif
#   From: 2010.05.17/outbox.cif.g08.bks.cpg/sg14_23_cif.got.tgz:45068.got - 2010.06.03 17:49:19.
