data_PCOD9244071
_publ_section_title
;
Structure prediction by ZEFSAII (Michael W. Deem and Ramdas Pophale) SiO2 
 PCOD9244071
Probable space group: P 21/C
;
_chemical_formula_sum "Si O2"
_cell_formula_units_Z 28
_cell_length_a 8.548097
_cell_length_b 9.473618
_cell_length_c 25.630561
_cell_angle_alpha 90.000000
_cell_angle_beta 43.920706
_cell_angle_gamma 90.000000
_cell_volume 1439.764430
_symmetry_space_group_name_H-M "P 21/C"
_symmetry_group_IT_number 14
_symmetry_cell_setting 'monoclinic'
loop_
_space_group_symop_operation_xyz
x,y,z
-x,1/2+y,1/2-z
-x,-y,-z
x,1/2-y,1/2+z
loop_
_atom_site_type_symbol
_atom_site_label
_atom_site_fract_x
_atom_site_fract_y
_atom_site_fract_z
Si Si1 0.858183 0.031880 0.252171
Si Si2 0.132382 0.756221 0.157986
Si Si3 0.771452 0.551272 0.581393
Si Si4 0.095726 0.827930 0.871818
Si Si5 0.751004 0.721109 0.165005
Si Si6 0.578277 0.889816 0.024686
Si Si7 0.578261 0.087632 0.688194
O O1 0.887225 0.131660 0.295130
O O2 0.877558 0.132615 0.195878
O O3 0.612584 0.953912 0.308922
O O4 0.041619 0.905990 0.203240
O O5 0.387769 0.772205 0.076933
O O6 0.973544 0.733196 0.146257
O O7 0.760919 0.449479 0.633332
O O8 0.784763 0.709801 0.600089
O O9 0.590645 0.539943 0.579268
O O10 0.000000 0.500000 0.500000
O O11 0.200757 0.685484 0.870506
O O12 0.830375 0.839837 0.949471
O O13 0.561818 0.817940 0.237393
O O14 0.668382 0.562590 0.184464
O O15 0.500000 0.000000 0.000000
#
# Coordination Sequence:
#
# PCOD9244071 Si02
#       7
#     4   4   4   4   4   4   4
#     4  11  23  40  63  98 132 168 223 277 332 389
#     4  11  24  39  64  97 133 169 219 270 343 385
#     4  10  20  39  66  88 122 171 220 263 321 405
#     4  11  22  43  63  98 125 173 226 270 324 402
#     4  11  21  40  63  95 123 176 221 273 324 396
#     4  11  22  41  67  95 131 171 217 272 331 404
#     4  11  22  39  66  88 133 163 227 269 321 383
#
# _framework density 19.447626
#
# number of rings (size 3 to 8) (size 9 to 14) (size 15 to 20)
#    0.000    1.143    5.714    1.714    2.000    2.286 
#    0.000    7.143    0.000    0.000    0.000    0.000 
#    0.000    0.000    0.000    0.000    0.000    0.000 
#
# Total GULP energy -156068.057988 kJ/mol
# GULP energy per Si atom -5573.859214 kJ/mol
# Density = 1.940336 g / cm^3
# Si number density = 19.447626 Si / 1000 Ang^3
#
#
#
# Elastic Constant Matrix: (Units=GPa)
#
#
# Indices 1 2 3 4 5 6 
#
# 1 116.4700 40.1383 48.1877 0.0000 -10.6876 0.0000
# 2 40.1383 111.5734 21.0772 0.0000 -15.2133 0.0000
# 3 48.1877 21.0772 54.0026 0.0000 -18.4859 0.0000
# 4 0.0000 0.0000 0.0000 21.6527 0.0000 -7.2291
# 5 -10.6876 -15.2133 -18.4859 0.0000 35.1818 0.0000
# 6 0.0000 0.0000 0.0000 -7.2291 0.0000 41.5371
#
#
#
# Elastic Compliance Matrix: (Units=1/GPa)
#
#
# Indices 1 2 3 4 5 6 
#
# 1 0.014904 -0.003381 -0.013327 0.000000 -0.003937 0.000000
# 2 -0.003381 0.010655 0.000102 0.000000 0.003634 0.000000
# 3 -0.013327 0.000102 0.035359 0.000000 0.014574 0.000000
# 4 0.000000 0.000000 0.000000 0.049033 0.000000 0.008534
# 5 -0.003937 0.003634 0.014574 0.000000 0.036457 0.000000
# 6 0.000000 0.000000 0.000000 0.008534 0.000000 0.025560
#
#
# Mechanical properties :
#
#
# Convention : Reuss Voigt Hill
#
# Bulk Modulus (GPa) = 36.09308 55.65028 45.87168
# Shear Modulus (GPa) = 23.31937 31.18385 27.25161
#
# Velocity S-wave (km/s) = 3.46654 4.00869 3.74743
# Velocity P-wave (km/s) = 5.88404 7.07840 6.50867
#
# Compressibility (1/GPa) = 0.02770614
#
# Stress axis : x y z
#
# Youngs Moduli (GPa) = 67.09818 93.85107 28.28156
#
# Poissons Ratio (x) = 0.31729 0.37691
# Poissons Ratio (y) = 0.22684 -0.00289
# Poissons Ratio (z) = 0.89421 -0.00958
#
# Static dielectric constant tensor:
#      x y z
#    x 1.732320 0.000000 -0.011850 
#    y 0.000000 1.684750 0.000000 
#    z -0.011850 0.000000 1.762480 
# 
# From -- ./inp_files/76318.got.cif
#   From: 2010.05.17/outbox.cif.g08.bks.cpg/sg14_39_cif.got.tgz:76318.got - 2010.06.03 17:49:19.
