data_PCOD9244663
_publ_section_title
;
Structure prediction by ZEFSAII (Michael W. Deem and Ramdas Pophale) SiO2 
 PCOD9244663
Probable space group: P 21/C
;
_chemical_formula_sum "Si O2"
_cell_formula_units_Z 30
_cell_length_a 7.480024
_cell_length_b 7.863922
_cell_length_c 21.900321
_cell_angle_alpha 90.000000
_cell_angle_beta 95.689142
_cell_angle_gamma 90.000000
_cell_volume 1281.882477
_symmetry_space_group_name_H-M "P 21/C"
_symmetry_group_IT_number 14
_symmetry_cell_setting 'monoclinic'
loop_
_space_group_symop_operation_xyz
x,y,z
-x,1/2+y,1/2-z
-x,-y,-z
x,1/2-y,1/2+z
loop_
_atom_site_type_symbol
_atom_site_label
_atom_site_fract_x
_atom_site_fract_y
_atom_site_fract_z
Si Si1 0.000000 0.500000 0.500000
Si Si2 0.219922 0.239772 0.816307
Si Si3 0.817314 0.255069 0.290920
Si Si4 0.742067 0.952189 0.876039
Si Si5 0.276786 0.172567 0.958151
Si Si6 0.589145 0.183423 0.054414
Si Si7 0.311048 0.616778 0.834489
Si Si8 0.709230 0.887010 0.307543
O O1 0.103853 0.496150 0.570602
O O2 0.090626 0.303940 0.486213
O O3 0.278703 0.201602 0.886874
O O4 0.216998 0.443166 0.813526
O O5 0.329251 0.162733 0.764007
O O6 0.019203 0.176121 0.798107
O O7 0.713947 0.389917 0.329630
O O8 0.745097 0.250267 0.219294
O O9 0.811972 0.063899 0.315542
O O10 0.554798 0.907810 0.904851
O O11 0.793227 0.781474 0.840404
O O12 0.279658 0.962930 0.967388
O O13 0.454539 0.244632 0.996671
O O14 0.704386 0.314098 0.097487
O O15 0.521507 0.581618 0.834223
#
# Coordination Sequence:
#
# PCOD9244663 Si02
#       8
#     2   4   4   4   4   4   4   4
#     4  10  20  42  68  88 136 172 214 272 332 386
#     4  12  24  40  64  98 133 170 220 275 334 395
#     4  12  24  40  64  97 132 172 213 273 334 388
#     4  10  22  43  66  94 131 169 218 269 325 395
#     4  10  21  39  66  92 125 173 220 266 327 393
#     4   9  22  41  65  92 120 175 217 263 323 391
#     4  11  24  42  65  94 135 169 217 279 326 397
#     4  11  25  41  65  99 132 174 221 272 331 395
#
# _framework density 23.403079999999999
#
# number of rings (size 3 to 8) (size 9 to 14) (size 15 to 20)
#    0.000    1.333    2.667    2.400    5.600    2.667 
#    0.000    0.667    0.000    0.000    0.000    0.000 
#    0.000    0.000    0.000    0.000    0.000    0.000 
#
# Total GULP energy -167193.299767 kJ/mol
# GULP energy per Si atom -5573.109992 kJ/mol
# Density = 2.334981 g / cm^3
# Si number density = 23.403080 Si / 1000 Ang^3
#
#
#
# Elastic Constant Matrix: (Units=GPa)
#
#
# Indices 1 2 3 4 5 6 
#
# 1 25.8439 -3.5193 -3.9156 0.0000 19.4883 0.0000
# 2 -3.5193 76.6461 12.5411 0.0000 -1.0296 0.0000
# 3 -3.9156 12.5411 109.1920 0.0000 14.5499 0.0000
# 4 0.0000 0.0000 0.0000 33.6722 0.0000 -2.0922
# 5 19.4883 -1.0296 14.5499 0.0000 31.6320 0.0000
# 6 0.0000 0.0000 0.0000 -2.0922 0.0000 18.9434
#
#
#
# Elastic Compliance Matrix: (Units=1/GPa)
#
#
# Indices 1 2 3 4 5 6 
#
# 1 0.081981 0.001367 0.010128 0.000000 -0.055122 0.000000
# 2 0.001367 0.013363 -0.001525 0.000000 0.000294 0.000000
# 3 0.010128 -0.001525 0.011222 0.000000 -0.011451 0.000000
# 4 0.000000 0.000000 0.000000 0.029903 0.000000 0.003303
# 5 -0.055122 0.000294 -0.011451 0.000000 0.070851 0.000000
# 6 0.000000 0.000000 0.000000 0.003303 0.000000 0.053154
#
#
# Mechanical properties :
#
#
# Convention : Reuss Voigt Hill
#
# Bulk Modulus (GPa) = 7.90481 24.65494 16.27988
# Shear Modulus (GPa) = 17.68638 30.62124 24.15381
#
# Velocity S-wave (km/s) = 2.75203 3.62114 3.21608
# Velocity P-wave (km/s) = 3.67196 5.29541 4.55657
#
# Compressibility (1/GPa) = 0.12650523
#
# Stress axis : x y z
#
# Youngs Moduli (GPa) = 12.19799 74.83224 89.10732
#
# Poissons Ratio (x) = -0.10227 -0.90247
# Poissons Ratio (y) = -0.01667 0.13589
# Poissons Ratio (z) = -0.12354 0.11412
#
# Static dielectric constant tensor:
#      x y z
#    x 0.874770 0.000000 0.325160 
#    y 0.000000 1.916600 0.000000 
#    z 0.325160 0.000000 1.616140 
# 
# From -- ./inp_files/64855.got.cif
#   From: 2010.05.17/outbox.cif.g08.bks.cpg/sg14_33_cif.got.tgz:64855.got - 2010.06.03 17:49:19.
