data_PCOD9244282
_publ_section_title
;
Structure prediction by ZEFSAII (Michael W. Deem and Ramdas Pophale) SiO2 
 PCOD9244282
Probable space group: P 21/C
;
_chemical_formula_sum "Si O2"
_cell_formula_units_Z 32
_cell_length_a 14.753020
_cell_length_b 5.167483
_cell_length_c 19.023507
_cell_angle_alpha 90.000000
_cell_angle_beta 60.963694
_cell_angle_gamma 90.000000
_cell_volume 1267.993923
_symmetry_space_group_name_H-M "P 21/C"
_symmetry_group_IT_number 14
_symmetry_cell_setting 'monoclinic'
loop_
_space_group_symop_operation_xyz
x,y,z
-x,1/2+y,1/2-z
-x,-y,-z
x,1/2-y,1/2+z
loop_
_atom_site_type_symbol
_atom_site_label
_atom_site_fract_x
_atom_site_fract_y
_atom_site_fract_z
Si Si1 0.174480 0.035370 0.818153
Si Si2 0.442713 0.764685 0.628796
Si Si3 0.367932 0.554226 0.446055
Si Si4 0.634910 0.197254 0.693429
Si Si5 0.687114 0.766547 0.852680
Si Si6 0.063482 0.749292 0.738150
Si Si7 0.225630 0.936466 0.565266
Si Si8 0.212547 0.193784 0.430746
O O1 0.266157 0.860839 0.816121
O O2 0.229884 0.218747 0.740251
O O3 0.100245 0.852022 0.800556
O O4 0.135796 0.201147 0.899662
O O5 0.551493 0.660212 0.558651
O O6 0.443820 0.732250 0.713112
O O7 0.402165 0.047910 0.624475
O O8 0.359116 0.548790 0.637504
O O9 0.413340 0.695098 0.359955
O O10 0.330560 0.777942 0.511160
O O11 0.263789 0.423880 0.455717
O O12 0.690114 0.931421 0.648800
O O13 0.744178 0.694101 0.903145
O O14 0.977783 0.959081 0.746299
O O15 0.152691 0.782681 0.646218
O O16 0.178596 0.000451 0.505917
#
# Coordination Sequence:
#
# PCOD9244282 Si02
#       8
#     4   4   4   4   4   4   4   4
#     4   9  20  41  67  95 131 172 221 263 334 399
#     4  11  23  37  60  95 132 178 241 272 310 368
#     4  10  24  36  61  94 135 183 222 280 323 381
#     4   9  20  36  61  91 129 180 224 266 317 375
#     4  10  23  39  63  90 132 186 225 277 315 387
#     4  11  27  47  77 104 126 164 219 278 334 415
#     4  10  25  44  66  93 137 174 219 270 353 397
#     4  10  20  40  65  92 132 182 214 266 332 391
#
# _framework density 25.236713999999999
#
# number of rings (size 3 to 8) (size 9 to 14) (size 15 to 20)
#    0.000    2.000    1.250    0.000   10.500    3.000 
#    0.000    1.250    0.000    0.000    0.000    0.000 
#    0.000    0.000    0.000    0.000    0.000    0.000 
#
# Total GULP energy -179077.358585 kJ/mol
# GULP energy per Si atom -5596.167456 kJ/mol
# Density = 2.517927 g / cm^3
# Si number density = 25.236714 Si / 1000 Ang^3
#
#
#
# Elastic Constant Matrix: (Units=GPa)
#
#
# Indices 1 2 3 4 5 6 
#
# 1 75.2671 21.3384 28.9623 0.0000 15.3999 0.0000
# 2 21.3384 80.8393 21.3278 0.0000 9.7943 0.0000
# 3 28.9623 21.3278 112.7622 0.0000 30.5430 0.0000
# 4 0.0000 0.0000 0.0000 32.8817 0.0000 -2.0437
# 5 15.3999 9.7943 30.5430 0.0000 35.2671 0.0000
# 6 0.0000 0.0000 0.0000 -2.0437 0.0000 49.1554
#
#
#
# Elastic Compliance Matrix: (Units=1/GPa)
#
#
# Indices 1 2 3 4 5 6 
#
# 1 0.015907 -0.003076 -0.002422 0.000000 -0.003994 0.000000
# 2 -0.003076 0.013717 -0.001485 0.000000 -0.001181 0.000000
# 3 -0.002422 -0.001485 0.012245 0.000000 -0.009135 0.000000
# 4 0.000000 0.000000 0.000000 0.030491 0.000000 0.001268
# 5 -0.003994 -0.001181 -0.009135 0.000000 0.038339 0.000000
# 6 0.000000 0.000000 0.000000 0.001268 0.000000 0.020396
#
#
# Mechanical properties :
#
#
# Convention : Reuss Voigt Hill
#
# Bulk Modulus (GPa) = 35.83642 45.79172 40.81407
# Shear Modulus (GPa) = 32.39135 36.61018 34.50077
#
# Velocity S-wave (km/s) = 3.58649 3.81290 3.70142
# Velocity P-wave (km/s) = 5.60191 6.12932 5.87154
#
# Compressibility (1/GPa) = 0.02790458
#
# Stress axis : x y z
#
# Youngs Moduli (GPa) = 62.86429 72.90301 81.66268
#
# Poissons Ratio (x) = 0.22425 0.19779
# Poissons Ratio (y) = 0.19337 0.12124
# Poissons Ratio (z) = 0.15226 0.10823
#
# Static dielectric constant tensor:
#      x y z
#    x 1.994140 0.000000 0.031090 
#    y 0.000000 2.020210 0.000000 
#    z 0.031090 0.000000 2.034900 
# 
# From -- ./inp_files/67832.got.cif
#   From: 2010.05.17/outbox.cif.g08.bks.cpg/sg14_34_cif.got.tgz:67832.got - 2010.06.03 17:49:19.
