data_PCOD9244751
_publ_section_title
;
Structure prediction by ZEFSAII (Michael W. Deem and Ramdas Pophale) SiO2 
 PCOD9244751
Probable space group: P 21/C
;
_chemical_formula_sum "Si O2"
_cell_formula_units_Z 28
_cell_length_a 11.713716
_cell_length_b 8.545685
_cell_length_c 14.957653
_cell_angle_alpha 90.000000
_cell_angle_beta 63.470491
_cell_angle_gamma 90.000000
_cell_volume 1339.629233
_symmetry_space_group_name_H-M "P 21/C"
_symmetry_group_IT_number 14
_symmetry_cell_setting 'monoclinic'
loop_
_space_group_symop_operation_xyz
x,y,z
-x,1/2+y,1/2-z
-x,-y,-z
x,1/2-y,1/2+z
loop_
_atom_site_type_symbol
_atom_site_label
_atom_site_fract_x
_atom_site_fract_y
_atom_site_fract_z
Si Si1 0.397864 0.590856 0.597743
Si Si2 0.865548 0.488953 0.501131
Si Si3 0.544576 0.202937 0.724853
Si Si4 0.727226 0.175681 0.497215
Si Si5 0.138181 0.030308 0.685493
Si Si6 0.321366 0.482078 0.277704
Si Si7 0.139822 0.105116 0.189264
O O1 0.500000 0.500000 0.500000
O O2 0.451494 0.632532 0.676467
O O3 0.358571 0.739689 0.549536
O O4 0.268623 0.491730 0.663158
O O5 0.829876 0.311620 0.485117
O O6 0.760143 0.547526 0.606154
O O7 0.868233 0.596035 0.414447
O O8 0.000000 0.500000 0.500000
O O9 0.648373 0.144871 0.615409
O O10 0.579413 0.381946 0.731787
O O11 0.408590 0.167352 0.727107
O O12 0.792046 0.025455 0.429280
O O13 0.223452 0.958611 0.736401
O O14 0.142038 0.212427 0.710163
O O15 0.991966 0.973447 0.731714
#
# Coordination Sequence:
#
# PCOD9244751 Si02
#       7
#     4   4   4   4   4   4   4
#     4  11  23  45  71  98 141 183 224 280 348 409
#     4  10  20  43  69  94 131 178 222 275 343 406
#     4  11  24  44  67 100 138 176 231 280 340 404
#     4  10  24  42  65 101 135 174 228 286 334 403
#     4  12  25  45  68 100 137 179 230 287 342 405
#     4  11  25  42  71  95 138 179 226 281 341 404
#     4  11  25  42  70  97 137 181 226 279 349 406
#
# _framework density 20.901306999999999
#
# number of rings (size 3 to 8) (size 9 to 14) (size 15 to 20)
#    0.000    1.143    2.857    4.286    4.000    2.857 
#    0.000    1.429    0.000    0.000    0.000    0.000 
#    0.000    0.000    0.000    0.000    0.000    0.000 
#
# Total GULP energy -156286.489797 kJ/mol
# GULP energy per Si atom -5581.660350 kJ/mol
# Density = 2.085373 g / cm^3
# Si number density = 20.901307 Si / 1000 Ang^3
#
#
#
# Elastic Constant Matrix: (Units=GPa)
#
#
# Indices 1 2 3 4 5 6 
#
# 1 90.9710 7.6872 21.0350 0.0000 -13.3023 0.0000
# 2 7.6872 14.4026 26.4442 0.0000 -24.6801 0.0000
# 3 21.0350 26.4442 93.7116 0.0000 9.5789 0.0000
# 4 0.0000 0.0000 0.0000 31.9157 0.0000 -4.6157
# 5 -13.3023 -24.6801 9.5789 0.0000 27.3620 0.0000
# 6 0.0000 0.0000 0.0000 -4.6157 0.0000 14.8425
#
#
#
# Elastic Compliance Matrix: (Units=1/GPa)
#
#
# Indices 1 2 3 4 5 6 
#
# 1 0.011534 -0.007671 -0.000301 0.000000 -0.001207 0.000000
# 2 -0.007671 -0.041451 0.018276 0.000000 -0.047515 0.000000
# 3 -0.000301 0.018276 0.004057 0.000000 0.014918 0.000000
# 4 0.000000 0.000000 0.000000 0.032808 0.000000 0.010203
# 5 -0.001207 -0.047515 0.014918 0.000000 -0.012120 0.000000
# 6 0.000000 0.000000 0.000000 0.010203 0.000000 0.070547
#
#
# Mechanical properties :
#
#
# Convention : Reuss Voigt Hill
#
# Bulk Modulus (GPa) = -190.36524 34.37978 -77.99273
# Shear Modulus (GPa) = 116.23401 24.41863 70.32632
#
# Velocity S-wave (km/s) = 7.46536 3.42172 5.80688
# Velocity P-wave (km/s) = 4.11911 5.66527 2.75029
#
# Compressibility (1/GPa) = -0.00525306
#
# Stress axis : x y z
#
# Youngs Moduli (GPa) = 86.70109 -24.12509 246.51431
#
# Poissons Ratio (x) = -0.18507 0.07418
# Poissons Ratio (y) = 0.66510 -4.50521
# Poissons Ratio (z) = 0.02609 0.44090
#
# Static dielectric constant tensor:
#      x y z
#    x 1.723210 0.000000 -0.011180 
#    y 0.000000 1.810880 0.000000 
#    z -0.011180 0.000000 1.724030 
# 
# From -- ./inp_files/43289.got.cif
#   From: 2010.05.17/outbox.cif.g08.bks.cpg/sg14_22_cif.got.tgz:43289.got - 2010.06.03 17:49:19.
