data_PCOD9244163
_publ_section_title
;
Structure prediction by ZEFSAII (Michael W. Deem and Ramdas Pophale) SiO2 
 PCOD9244163
Probable space group: P 21/C
;
_chemical_formula_sum "Si O2"
_cell_formula_units_Z 24
_cell_length_a 6.347223
_cell_length_b 8.257090
_cell_length_c 20.806337
_cell_angle_alpha 90.000000
_cell_angle_beta 74.492322
_cell_angle_gamma 90.000000
_cell_volume 1050.753332
_symmetry_space_group_name_H-M "P 21/C"
_symmetry_group_IT_number 14
_symmetry_cell_setting 'monoclinic'
loop_
_space_group_symop_operation_xyz
x,y,z
-x,1/2+y,1/2-z
-x,-y,-z
x,1/2-y,1/2+z
loop_
_atom_site_type_symbol
_atom_site_label
_atom_site_fract_x
_atom_site_fract_y
_atom_site_fract_z
Si Si1 0.350637 0.567515 0.609219
Si Si2 0.438374 0.268375 0.527094
Si Si3 0.528790 0.791451 0.221683
Si Si4 0.016641 0.152736 0.367092
Si Si5 0.283052 0.499985 0.953814
Si Si6 0.665089 0.005683 0.320015
O O1 0.321730 0.382464 0.588540
O O2 0.522765 0.632208 0.541742
O O3 0.446727 0.584168 0.673054
O O4 0.147087 0.692122 0.618150
O O5 0.306290 0.112137 0.514335
O O6 0.665872 0.188099 0.534241
O O7 0.351420 0.649997 0.230478
O O8 0.760047 0.718004 0.181055
O O9 0.570087 0.856689 0.288887
O O10 0.902471 0.017896 0.331333
O O11 0.081915 0.067218 0.428700
O O12 0.494075 0.459222 0.890997
#
# Coordination Sequence:
#
# PCOD9244163 Si02
#       6
#     4   4   4   4   4   4
#     4  10  21  40  60  89 118 162 193 252 301 359
#     4  10  20  40  62  84 126 156 200 240 310 360
#     4  10  22  41  62  85 120 156 196 251 298 353
#     4  10  20  40  60  90 122 152 208 244 306 354
#     4  10  21  40  60  89 118 162 193 252 301 359
#     4  10  22  41  62  85 120 156 196 251 298 353
#
# _framework density 22.840755000000001
#
# number of rings (size 3 to 8) (size 9 to 14) (size 15 to 20)
#    0.000    2.000    5.000    0.000    2.333    6.667 
#    0.000    0.000    0.000    0.000    0.000    0.000 
#    0.000    0.000    0.000    0.000    0.000    0.000 
#
# Total GULP energy -133828.925784 kJ/mol
# GULP energy per Si atom -5576.205241 kJ/mol
# Density = 2.278877 g / cm^3
# Si number density = 22.840755 Si / 1000 Ang^3
#
#
#
# Elastic Constant Matrix: (Units=GPa)
#
#
# Indices 1 2 3 4 5 6 
#
# 1 92.3706 8.7463 34.4272 0.0000 36.9974 0.0000
# 2 8.7463 61.3183 29.8274 0.0000 23.7328 0.0000
# 3 34.4272 29.8274 62.1363 0.0000 38.5525 0.0000
# 4 0.0000 0.0000 0.0000 49.1488 0.0000 15.5996
# 5 36.9974 23.7328 38.5525 0.0000 38.0007 0.0000
# 6 0.0000 0.0000 0.0000 15.5996 0.0000 19.7813
#
#
#
# Elastic Compliance Matrix: (Units=1/GPa)
#
#
# Indices 1 2 3 4 5 6 
#
# 1 0.019292 0.005816 0.001151 0.000000 -0.023582 0.000000
# 2 0.005816 0.023946 -0.005195 0.000000 -0.015346 0.000000
# 3 0.001151 -0.005195 0.044886 0.000000 -0.043414 0.000000
# 4 0.000000 0.000000 0.000000 0.027139 0.000000 -0.021402
# 5 -0.023582 -0.015346 -0.043414 0.000000 0.102904 0.000000
# 6 0.000000 0.000000 0.000000 -0.021402 0.000000 0.067430
#
#
# Mechanical properties :
#
#
# Convention : Reuss Voigt Hill
#
# Bulk Modulus (GPa) = 10.90912 40.20301 25.55607
# Shear Modulus (GPa) = 15.99442 30.90778 23.45110
#
# Velocity S-wave (km/s) = 2.64911 3.68256 3.20773
# Velocity P-wave (km/s) = 3.76079 5.97673 4.99324
#
# Compressibility (1/GPa) = 0.09166641
#
# Stress axis : x y z
#
# Youngs Moduli (GPa) = 51.83571 41.76130 22.27871
#
# Poissons Ratio (x) = -0.24287 -0.02565
# Poissons Ratio (y) = -0.30146 0.11575
# Poissons Ratio (z) = -0.05968 0.21696
#
# Static dielectric constant tensor:
#      x y z
#    x 1.876380 0.000000 0.002370 
#    y 0.000000 2.020750 0.000000 
#    z 0.002370 0.000000 1.876380 
# 
# From -- ./inp_files/70993.got.cif
#   From: 2010.05.17/outbox.cif.g08.bks.cpg/sg14_36_cif.got.tgz:70993.got - 2010.06.03 17:49:19.
