data_PCOD9244589
_publ_section_title
;
Structure prediction by ZEFSAII (Michael W. Deem and Ramdas Pophale) SiO2 
 PCOD9244589
Probable space group: P 21/C
;
_chemical_formula_sum "Si O2"
_cell_formula_units_Z 32
_cell_length_a 14.760713
_cell_length_b 5.310254
_cell_length_c 23.942209
_cell_angle_alpha 90.000000
_cell_angle_beta 136.477055
_cell_angle_gamma 90.000000
_cell_volume 1292.356264
_symmetry_space_group_name_H-M "P 21/C"
_symmetry_group_IT_number 14
_symmetry_cell_setting 'monoclinic'
loop_
_space_group_symop_operation_xyz
x,y,z
-x,1/2+y,1/2-z
-x,-y,-z
x,1/2-y,1/2+z
loop_
_atom_site_type_symbol
_atom_site_label
_atom_site_fract_x
_atom_site_fract_y
_atom_site_fract_z
Si Si1 0.569949 0.253244 0.009558
Si Si2 0.136743 0.821761 0.870743
Si Si3 0.131185 0.295950 0.240433
Si Si4 0.634510 0.998569 0.782773
Si Si5 0.407718 0.152134 0.840304
Si Si6 0.152252 0.327013 0.948350
Si Si7 0.883207 0.203500 0.840016
Si Si8 0.584112 0.770900 0.870739
O O1 0.537575 0.261432 0.928502
O O2 0.500000 0.500000 0.000000
O O3 0.723193 0.240325 0.094387
O O4 0.500000 0.000000 0.000000
O O5 0.133979 0.609859 0.918134
O O6 0.997345 0.754859 0.778693
O O7 0.148032 0.106975 0.898827
O O8 0.284387 0.289563 0.325904
O O9 0.128397 0.569261 0.209679
O O10 0.111604 0.064116 0.189033
O O11 0.639115 0.767837 0.739797
O O12 0.641717 0.967990 0.852066
O O13 0.754383 0.182770 0.819986
O O14 0.486589 0.083851 0.703196
O O15 0.460849 0.872202 0.852048
O O16 0.026406 0.256064 0.930469
O O17 0.293700 0.310027 0.038828
#
# Coordination Sequence:
#
# PCOD9244589 Si02
#       8
#     4   4   4   4   4   4   4   4
#     4  12  27  43  66  97 123 161 210 262 318 379
#     4  10  20  42  63  91 126 162 208 255 313 377
#     4   9  19  36  65  88 117 169 203 250 320 370
#     4  11  23  37  61  92 131 169 215 258 312 380
#     4  11  23  42  63  89 129 167 206 270 313 373
#     4  10  21  36  64  90 124 175 203 255 311 366
#     4   9  19  36  56  89 127 163 215 248 301 370
#     4  12  22  36  62  93 127 171 213 255 319 374
#
# _framework density 24.760973
#
# number of rings (size 3 to 8) (size 9 to 14) (size 15 to 20)
#    0.000    1.500    3.750    1.500    1.750    0.500 
#    0.000    1.250    0.000    6.750    0.000    0.000 
#    0.000    0.000    0.000    0.000    0.000    0.000 
#
# Total GULP energy -178431.026567 kJ/mol
# GULP energy per Si atom -5575.969580 kJ/mol
# Density = 2.470462 g / cm^3
# Si number density = 24.760973 Si / 1000 Ang^3
#
#
#
# Elastic Constant Matrix: (Units=GPa)
#
#
# Indices 1 2 3 4 5 6 
#
# 1 72.8332 28.0157 52.4356 0.0000 34.5086 0.0000
# 2 28.0157 110.1415 20.3414 0.0000 6.6267 0.0000
# 3 52.4356 20.3414 108.2306 0.0000 37.4326 0.0000
# 4 0.0000 0.0000 0.0000 32.1423 0.0000 9.5297
# 5 34.5086 6.6267 37.4326 0.0000 46.6587 0.0000
# 6 0.0000 0.0000 0.0000 9.5297 0.0000 26.4152
#
#
#
# Elastic Compliance Matrix: (Units=1/GPa)
#
#
# Indices 1 2 3 4 5 6 
#
# 1 0.027543 -0.004756 -0.007804 0.000000 -0.013435 0.000000
# 2 -0.004756 0.010228 -0.000460 0.000000 0.002434 0.000000
# 3 -0.007804 -0.000460 0.015346 0.000000 -0.006475 0.000000
# 4 0.000000 0.000000 0.000000 0.034838 0.000000 -0.012568
# 5 -0.013435 0.002434 -0.006475 0.000000 0.036217 0.000000
# 6 0.000000 0.000000 0.000000 -0.012568 0.000000 0.042391
#
#
# Mechanical properties :
#
#
# Convention : Reuss Voigt Hill
#
# Bulk Modulus (GPa) = 36.93138 54.75453 45.84295
# Shear Modulus (GPa) = 24.79810 33.73741 29.26775
#
# Velocity S-wave (km/s) = 3.16808 3.69524 3.44177
# Velocity P-wave (km/s) = 5.32258 6.35355 5.86078
#
# Compressibility (1/GPa) = 0.02707724
#
# Stress axis : x y z
#
# Youngs Moduli (GPa) = 36.30664 97.77544 65.16372
#
# Poissons Ratio (x) = 0.46506 0.50852
# Poissons Ratio (y) = 0.17269 0.02995
# Poissons Ratio (z) = 0.28332 0.04494
#
# Static dielectric constant tensor:
#      x y z
#    x 2.141020 0.000000 0.053520 
#    y 0.000000 2.087150 0.000000 
#    z 0.053520 0.000000 1.973800 
# 
# From -- ./inp_files/80148.got.cif
#   From: 2010.05.17/outbox.cif.g08.bks.cpg/sg14_41_cif.got.tgz:80148.got - 2010.06.03 17:49:19.
