data_PCOD9244596
_publ_section_title
;
Structure prediction by ZEFSAII (Michael W. Deem and Ramdas Pophale) SiO2 
 PCOD9244596
Probable space group: P 21/C
;
_chemical_formula_sum "Si O2"
_cell_formula_units_Z 26
_cell_length_a 8.438873
_cell_length_b 12.345054
_cell_length_c 10.379030
_cell_angle_alpha 90.000000
_cell_angle_beta 73.313622
_cell_angle_gamma 90.000000
_cell_volume 1035.738712
_symmetry_space_group_name_H-M "P 21/C"
_symmetry_group_IT_number 14
_symmetry_cell_setting 'monoclinic'
loop_
_space_group_symop_operation_xyz
x,y,z
-x,1/2+y,1/2-z
-x,-y,-z
x,1/2-y,1/2+z
loop_
_atom_site_type_symbol
_atom_site_label
_atom_site_fract_x
_atom_site_fract_y
_atom_site_fract_z
Si Si1 0.408468 0.331219 0.544798
Si Si2 0.272059 0.584046 0.124318
Si Si3 0.688928 0.440659 0.333959
Si Si4 0.543923 0.615486 0.848762
Si Si5 0.938296 0.269237 0.228474
Si Si6 0.150378 0.221380 0.427840
Si Si7 0.000000 0.500000 0.000000
O O1 0.593685 0.370885 0.466259
O O2 0.311928 0.437501 0.615747
O O3 0.409953 0.241287 0.655260
O O4 0.314577 0.280537 0.443383
O O5 0.306141 0.469791 0.185280
O O6 0.213957 0.685651 0.222510
O O7 0.437305 0.607933 0.005836
O O8 0.121781 0.569820 0.061669
O O9 0.572433 0.422592 0.238761
O O10 0.865270 0.391285 0.252369
O O11 0.068431 0.257789 0.313516
O O12 0.022319 0.249671 0.073230
O O13 0.153786 0.091240 0.437502
#
# Coordination Sequence:
#
# PCOD9244596 Si02
#       7
#     4   4   4   4   4   4   2
#     4  11  26  46  66 103 138 187 234 295 355 427
#     4  10  22  40  70  99 134 180 238 285 348 422
#     4  11  26  43  71 101 143 184 238 291 359 427
#     4  11  23  43  70  99 135 189 233 297 347 424
#     4  11  25  45  69 108 142 188 230 300 350 433
#     4  11  26  45  73 102 148 184 240 289 363 422
#     4  10  20  42  64 104 132 182 236 286 340 426
#
# _framework density 25.102855999999999
#
# number of rings (size 3 to 8) (size 9 to 14) (size 15 to 20)
#    0.000    1.231    3.077    1.846    4.308    6.769 
#    0.000    0.000    0.000    0.000    0.000    0.000 
#    0.000    0.000    0.000    0.000    0.000    0.000 
#
# Total GULP energy -145221.951608 kJ/mol
# GULP energy per Si atom -5585.459677 kJ/mol
# Density = 2.504572 g / cm^3
# Si number density = 25.102856 Si / 1000 Ang^3
#
#
#
# Elastic Constant Matrix: (Units=GPa)
#
#
# Indices 1 2 3 4 5 6 
#
# 1 85.1265 27.0674 11.0256 0.0000 5.7179 0.0000
# 2 27.0674 153.7694 15.8574 0.0000 13.9788 0.0000
# 3 11.0256 15.8574 83.7406 0.0000 4.5913 0.0000
# 4 0.0000 0.0000 0.0000 22.9192 0.0000 3.4155
# 5 5.7179 13.9788 4.5913 0.0000 45.7196 0.0000
# 6 0.0000 0.0000 0.0000 3.4155 0.0000 44.7237
#
#
#
# Elastic Compliance Matrix: (Units=1/GPa)
#
#
# Indices 1 2 3 4 5 6 
#
# 1 0.012604 -0.002016 -0.001232 0.000000 -0.000836 0.000000
# 2 -0.002016 0.007126 -0.000984 0.000000 -0.001828 0.000000
# 3 -0.001232 -0.000984 0.012333 0.000000 -0.000784 0.000000
# 4 0.000000 0.000000 0.000000 0.044134 0.000000 -0.003370
# 5 -0.000836 -0.001828 -0.000784 0.000000 0.022615 0.000000
# 6 0.000000 0.000000 0.000000 -0.003370 0.000000 0.022617
#
#
# Mechanical properties :
#
#
# Convention : Reuss Voigt Hill
#
# Bulk Modulus (GPa) = 42.37268 47.83749 45.10508
# Shear Modulus (GPa) = 36.29577 40.58490 38.44034
#
# Velocity S-wave (km/s) = 3.80660 4.02524 3.91745
# Velocity P-wave (km/s) = 6.01968 6.37976 6.20233
#
# Compressibility (1/GPa) = 0.02360011
#
# Stress axis : x y z
#
# Youngs Moduli (GPa) = 79.34092 140.33825 81.08259
#
# Poissons Ratio (x) = 0.28286 0.09989
# Poissons Ratio (y) = 0.15991 0.07976
# Poissons Ratio (z) = 0.09774 0.13806
#
# Static dielectric constant tensor:
#      x y z
#    x 1.955940 0.000000 -0.152980 
#    y 0.000000 1.969150 0.000000 
#    z -0.152980 0.000000 1.459090 
# 
# From -- ./inp_files/24217.got.cif
#   From: 2010.05.17/outbox.cif.g08.bks.cpg/sg14_13_cif.got.tgz:24217.got - 2010.06.03 17:49:19.
