data_PCOD9244721
_publ_section_title
;
Structure prediction by ZEFSAII (Michael W. Deem and Ramdas Pophale) SiO2 
 PCOD9244721
Probable space group: P 21/C
;
_chemical_formula_sum "Si O2"
_cell_formula_units_Z 24
_cell_length_a 13.940634
_cell_length_b 9.190145
_cell_length_c 17.598228
_cell_angle_alpha 90.000000
_cell_angle_beta 23.781422
_cell_angle_gamma 90.000000
_cell_volume 909.173355
_symmetry_space_group_name_H-M "P 21/C"
_symmetry_group_IT_number 14
_symmetry_cell_setting 'monoclinic'
loop_
_space_group_symop_operation_xyz
x,y,z
-x,1/2+y,1/2-z
-x,-y,-z
x,1/2-y,1/2+z
loop_
_atom_site_type_symbol
_atom_site_label
_atom_site_fract_x
_atom_site_fract_y
_atom_site_fract_z
Si Si1 0.035167 0.268525 0.874688
Si Si2 0.208820 0.298786 0.584202
Si Si3 0.275451 0.825339 0.646065
Si Si4 0.695645 0.524138 0.743205
Si Si5 0.484371 0.423744 0.604434
Si Si6 0.493741 0.281587 0.242685
O O1 0.122125 0.230695 0.725855
O O2 0.082493 0.124702 0.890375
O O3 0.213959 0.393277 0.774926
O O4 0.762987 0.314619 0.071410
O O5 0.399090 0.422469 0.465694
O O6 0.342532 0.212365 0.420978
O O7 0.973835 0.357813 0.713125
O O8 0.474354 0.909297 0.452797
O O9 0.346426 0.658797 0.579145
O O10 0.278420 0.871157 0.731780
O O11 0.633936 0.576552 0.702662
O O12 0.508009 0.334437 0.665168
#
# Coordination Sequence:
#
# PCOD9244721 Si02
#       6
#     4   4   4   4   4   4
#     4  10  20  43  63  89 133 163 209 257 313 379
#     4  12  22  40  68  92 124 171 209 255 324 368
#     4   9  19  38  66  90 119 165 211 247 315 361
#     4   9  19  41  67  90 130 164 205 267 304 373
#     4  10  23  44  60  94 133 161 213 264 301 386
#     4  10  22  42  59  99 125 162 213 259 311 361
#
# _framework density 26.397607000000001
#
# number of rings (size 3 to 8) (size 9 to 14) (size 15 to 20)
#    0.000    2.333    3.333    1.500    0.000    1.333 
#   27.000    0.000    0.000    0.000    0.000    0.000 
#    0.000    0.000    0.000    0.000    0.000    0.000 
#
# Total GULP energy -134371.249083 kJ/mol
# GULP energy per Si atom -5598.802045 kJ/mol
# Density = 2.633752 g / cm^3
# Si number density = 26.397607 Si / 1000 Ang^3
#
#
#
# Elastic Constant Matrix: (Units=GPa)
#
#
# Indices 1 2 3 4 5 6 
#
# 1 147.7629 20.4250 39.9137 0.0000 -21.8998 0.0000
# 2 20.4250 40.8493 -8.2963 0.0000 4.2921 0.0000
# 3 39.9137 -8.2963 91.3138 0.0000 4.1602 0.0000
# 4 0.0000 0.0000 0.0000 -4.5301 0.0000 6.2004
# 5 -21.8998 4.2921 4.1602 0.0000 51.1548 0.0000
# 6 0.0000 0.0000 0.0000 6.2004 0.0000 45.2779
#
#
#
# Elastic Compliance Matrix: (Units=1/GPa)
#
#
# Indices 1 2 3 4 5 6 
#
# 1 0.009810 -0.006485 -0.005112 0.000000 0.005159 0.000000
# 2 -0.006485 0.029497 0.005775 0.000000 -0.005721 0.000000
# 3 -0.005112 0.005775 0.013884 0.000000 -0.003802 0.000000
# 4 0.000000 0.000000 0.000000 -0.185901 0.000000 0.025458
# 5 0.005159 -0.005721 -0.003802 0.000000 0.022547 0.000000
# 6 0.000000 0.000000 0.000000 0.025458 0.000000 0.018600
#
#
# Mechanical properties :
#
#
# Convention : Reuss Voigt Hill
#
# Bulk Modulus (GPa) = 24.06959 42.66785 33.36872
# Shear Modulus (GPa) = -75.67507 33.57276 -21.05116
#
# Velocity S-wave (km/s) = -5.36000 3.57011 -2.82701
# Velocity P-wave (km/s) = 5.40077 5.76133 1.41856
#
# Compressibility (1/GPa) = 0.04154620
#
# Stress axis : x y z
#
# Youngs Moduli (GPa) = 101.94098 33.90184 72.02690
#
# Poissons Ratio (x) = 0.21986 0.36821
# Poissons Ratio (y) = 0.66111 -0.41598
# Poissons Ratio (z) = 0.52113 -0.19579
#
# Static dielectric constant tensor:
#      x y z
#    x 2.098330 0.000000 0.027560 
#    y 0.000000 2.133180 0.000000 
#    z 0.027560 0.000000 2.080360 
# 
# From -- ./inp_files/59589.got.cif
#   From: 2010.05.17/outbox.cif.g08.bks.cpg/sg14_30_cif.got.tgz:59589.got - 2010.06.03 17:49:19.
