data_PCOD9244974
_publ_section_title
;
Structure prediction by ZEFSAII (Michael W. Deem and Ramdas Pophale) SiO2 
 PCOD9244974
Probable space group: P 21/C
;
_chemical_formula_sum "Si O2"
_cell_formula_units_Z 30
_cell_length_a 16.506152
_cell_length_b 4.987946
_cell_length_c 16.810878
_cell_angle_alpha 90.000000
_cell_angle_beta 84.414138
_cell_angle_gamma 90.000000
_cell_volume 1377.497432
_symmetry_space_group_name_H-M "P 21/C"
_symmetry_group_IT_number 14
_symmetry_cell_setting 'monoclinic'
loop_
_space_group_symop_operation_xyz
x,y,z
-x,1/2+y,1/2-z
-x,-y,-z
x,1/2-y,1/2+z
loop_
_atom_site_type_symbol
_atom_site_label
_atom_site_fract_x
_atom_site_fract_y
_atom_site_fract_z
Si Si1 0.029583 0.127941 0.785085
Si Si2 0.203202 0.727294 0.440126
Si Si3 0.500000 0.000000 0.000000
Si Si4 0.620766 0.344797 0.573345
Si Si5 0.621418 0.814639 0.226956
Si Si6 0.487991 0.539836 0.129763
Si Si7 0.199060 0.214953 0.330501
Si Si8 0.959632 0.248950 0.460798
O O1 0.985952 0.236500 0.867924
O O2 0.991452 0.316482 0.721067
O O3 0.125374 0.185613 0.783094
O O4 0.295937 0.795940 0.455044
O O5 0.204709 0.430001 0.402341
O O6 0.136603 0.748098 0.514571
O O7 0.179575 0.930917 0.372119
O O8 0.403428 0.082024 0.983225
O O9 0.532499 0.202717 0.920187
O O10 0.625628 0.440059 0.663399
O O11 0.531714 0.196537 0.572283
O O12 0.556806 0.619025 0.189119
O O13 0.712732 0.702253 0.219405
O O14 0.585278 0.913874 0.313261
O O15 0.000000 0.500000 0.500000
O O16 0.000000 0.000000 0.500000
#
# Coordination Sequence:
#
# PCOD9244974 Si02
#       8
#     4   4   2   4   4   4   4   4
#     4  12  25  43  66  98 140 175 210 279 354 401
#     4  11  21  40  69  97 122 167 233 277 310 390
#     4  10  24  38  58  86 132 172 204 268 346 394
#     4  10  21  38  61  87 126 163 214 271 329 382
#     4  10  21  35  65  93 118 168 228 271 315 387
#     4  11  19  39  61  92 122 171 218 270 327 397
#     4  11  22  41  66  96 130 170 222 277 332 387
#     4  12  22  42  71  97 125 177 231 270 321 409
#
# _framework density 21.778623
#
# number of rings (size 3 to 8) (size 9 to 14) (size 15 to 20)
#    0.000    1.067    5.333    2.000    0.000    0.000 
#    2.400    1.333    0.000    0.000    0.000    0.000 
#    0.000    0.000    0.000    0.000    0.000    0.000 
#
# Total GULP energy -167216.909080 kJ/mol
# GULP energy per Si atom -5573.896969 kJ/mol
# Density = 2.172905 g / cm^3
# Si number density = 21.778623 Si / 1000 Ang^3
#
#
#
# Elastic Constant Matrix: (Units=GPa)
#
#
# Indices 1 2 3 4 5 6 
#
# 1 123.1035 3.3927 41.6344 0.0000 -21.1573 0.0000
# 2 3.3927 79.8383 12.9241 0.0000 -10.1170 0.0000
# 3 41.6344 12.9241 73.0536 0.0000 -14.5821 0.0000
# 4 0.0000 0.0000 0.0000 33.9763 0.0000 5.1455
# 5 -21.1573 -10.1170 -14.5821 0.0000 35.7748 0.0000
# 6 0.0000 0.0000 0.0000 5.1455 0.0000 30.7474
#
#
#
# Elastic Compliance Matrix: (Units=1/GPa)
#
#
# Indices 1 2 3 4 5 6 
#
# 1 0.010670 0.000974 -0.005376 0.000000 0.004394 0.000000
# 2 0.000974 0.013277 -0.002220 0.000000 0.003426 0.000000
# 3 -0.005376 -0.002220 0.017837 0.000000 0.003463 0.000000
# 4 0.000000 0.000000 0.000000 0.030198 0.000000 -0.005053
# 5 0.004394 0.003426 0.003463 0.000000 0.032932 0.000000
# 6 0.000000 0.000000 0.000000 -0.005053 0.000000 0.033369
#
#
# Mechanical properties :
#
#
# Convention : Reuss Voigt Hill
#
# Bulk Modulus (GPa) = 35.03984 43.54419 39.29202
# Shear Modulus (GPa) = 31.04823 34.63597 32.84210
#
# Velocity S-wave (km/s) = 3.77985 3.99226 3.88751
# Velocity P-wave (km/s) = 5.93074 6.42560 6.18312
#
# Compressibility (1/GPa) = 0.02853894
#
# Stress axis : x y z
#
# Youngs Moduli (GPa) = 93.72206 75.31578 56.06480
#
# Poissons Ratio (x) = -0.07333 0.30141
# Poissons Ratio (y) = -0.09126 0.12447
# Poissons Ratio (z) = 0.50385 0.16720
#
# Static dielectric constant tensor:
#      x y z
#    x 1.465310 0.000000 -0.650590 
#    y 0.000000 4.084080 0.000000 
#    z -0.650590 0.000000 0.562520 
# 
# From -- ./inp_files/58469.got.cif
#   From: 2010.05.17/outbox.cif.g08.bks.cpg/sg14_30_cif.got.tgz:58469.got - 2010.06.03 17:49:19.
