data_PCOD9244015
_publ_section_title
;
Structure prediction by ZEFSAII (Michael W. Deem and Ramdas Pophale) SiO2 
 PCOD9244015
Probable space group: P 21/C
;
_chemical_formula_sum "Si O2"
_cell_formula_units_Z 32
_cell_length_a 23.789306
_cell_length_b 12.604186
_cell_length_c 12.776477
_cell_angle_alpha 90.000000
_cell_angle_beta 156.012479
_cell_angle_gamma 90.000000
_cell_volume 1557.429801
_symmetry_space_group_name_H-M "P 21/C"
_symmetry_group_IT_number 14
_symmetry_cell_setting 'monoclinic'
loop_
_space_group_symop_operation_xyz
x,y,z
-x,1/2+y,1/2-z
-x,-y,-z
x,1/2-y,1/2+z
loop_
_atom_site_type_symbol
_atom_site_label
_atom_site_fract_x
_atom_site_fract_y
_atom_site_fract_z
Si Si1 0.457795 0.502628 0.306008
Si Si2 0.180339 0.856465 0.512768
Si Si3 0.085941 0.294355 0.550375
Si Si4 0.828853 0.919975 0.618388
Si Si5 0.742308 0.795567 0.857106
Si Si6 0.690244 0.403340 0.560382
Si Si7 0.570483 0.233583 0.200697
Si Si8 0.866261 0.574213 0.752289
O O1 0.500000 0.500000 0.500000
O O2 0.308249 0.450777 0.049807
O O3 0.561928 0.437261 0.413475
O O4 0.460841 0.627163 0.285749
O O5 0.195993 0.861490 0.663740
O O6 0.320581 0.807077 0.701736
O O7 0.151435 0.975850 0.419531
O O8 0.051171 0.790566 0.252524
O O9 0.211481 0.314621 0.683571
O O10 0.110403 0.182380 0.645835
O O11 0.069400 0.379514 0.616869
O O12 0.799601 0.818633 0.494810
O O13 0.575727 0.783230 0.585244
O O14 0.815720 0.886516 0.051966
O O15 0.648552 0.316593 0.405812
O O16 0.743288 0.507049 0.592866
O O17 0.000000 0.500000 0.000000
#
# Coordination Sequence:
#
# PCOD9244015 Si02
#       8
#     4   4   4   4   4   4   4   4
#     4  11  19  40  67  90 126 161 205 257 315 373
#     4  11  22  41  62  89 128 166 208 266 310 382
#     4  11  23  38  65  90 121 169 216 256 323 380
#     4  10  20  39  64  90 121 161 211 258 310 383
#     4  11  22  40  63  93 125 161 211 266 312 386
#     4  12  23  40  65  89 127 167 202 257 330 369
#     4  11  23  39  65  95 123 163 216 255 318 384
#     4  11  25  43  61  89 128 167 212 263 323 385
#
# _framework density 20.546672000000001
#
# number of rings (size 3 to 8) (size 9 to 14) (size 15 to 20)
#    0.000    1.000    3.750    4.125    0.000    4.500 
#    0.000    8.750    0.000    0.000    0.000    0.000 
#    0.000    0.000    0.000    0.000    0.000    0.000 
#
# Total GULP energy -178685.869965 kJ/mol
# GULP energy per Si atom -5583.933436 kJ/mol
# Density = 2.049991 g / cm^3
# Si number density = 20.546672 Si / 1000 Ang^3
#
#
#
# Elastic Constant Matrix: (Units=GPa)
#
#
# Indices 1 2 3 4 5 6 
#
# 1 51.9417 37.8963 7.3262 0.0000 -14.4415 0.0000
# 2 37.8963 92.4957 24.8394 0.0000 -19.7616 0.0000
# 3 7.3262 24.8394 68.7659 0.0000 -15.8872 0.0000
# 4 0.0000 0.0000 0.0000 6.2512 0.0000 17.5411
# 5 -14.4415 -19.7616 -15.8872 0.0000 27.1053 0.0000
# 6 0.0000 0.0000 0.0000 17.5411 0.0000 20.4413
#
#
#
# Elastic Compliance Matrix: (Units=1/GPa)
#
#
# Indices 1 2 3 4 5 6 
#
# 1 0.029350 -0.010790 0.002968 0.000000 0.009510 0.000000
# 2 -0.010790 0.017277 -0.004059 0.000000 0.004468 0.000000
# 3 0.002968 -0.004059 0.017782 0.000000 0.009044 0.000000
# 4 0.000000 0.000000 0.000000 -0.113621 0.000000 0.097501
# 5 0.009510 0.004468 0.009044 0.000000 0.050519 0.000000
# 6 0.000000 0.000000 0.000000 0.097501 0.000000 -0.034747
#
#
# Mechanical properties :
#
#
# Convention : Reuss Voigt Hill
#
# Bulk Modulus (GPa) = 24.60249 39.25859 31.93054
# Shear Modulus (GPa) = 1291.80485 20.30231 656.05358
#
# Velocity S-wave (km/s) = 25.10144 3.14683 17.88833
# Velocity P-wave (km/s) = 29.19092 5.68787 21.02928
#
# Compressibility (1/GPa) = 0.04064630
#
# Stress axis : x y z
#
# Youngs Moduli (GPa) = 34.07105 57.88120 56.23802
#
# Poissons Ratio (x) = 0.62455 -0.16691
# Poissons Ratio (y) = 0.36764 0.22826
# Poissons Ratio (z) = -0.10112 0.23493
#
# Static dielectric constant tensor:
#      x y z
#    x 1.726040 0.000000 0.048850 
#    y 0.000000 1.743530 0.000000 
#    z 0.048850 0.000000 1.683130 
# 
# From -- ./inp_files/35287.got.cif
#   From: 2010.05.17/outbox.cif.g08.bks.cpg/sg14_18_cif.got.tgz:35287.got - 2010.06.03 17:49:19.
