data_PCOD9244254
_publ_section_title
;
Structure prediction by ZEFSAII (Michael W. Deem and Ramdas Pophale) SiO2 
 PCOD9244254
Probable space group: P 21/C
;
_chemical_formula_sum "Si O2"
_cell_formula_units_Z 22
_cell_length_a 4.957105
_cell_length_b 8.238267
_cell_length_c 23.024748
_cell_angle_alpha 90.000000
_cell_angle_beta 97.276487
_cell_angle_gamma 90.000000
_cell_volume 932.711042
_symmetry_space_group_name_H-M "P 21/C"
_symmetry_group_IT_number 14
_symmetry_cell_setting 'monoclinic'
loop_
_space_group_symop_operation_xyz
x,y,z
-x,1/2+y,1/2-z
-x,-y,-z
x,1/2-y,1/2+z
loop_
_atom_site_type_symbol
_atom_site_label
_atom_site_fract_x
_atom_site_fract_y
_atom_site_fract_z
Si Si1 0.662250 0.707237 0.506924
Si Si2 0.500000 0.500000 0.000000
Si Si3 0.928984 0.115857 0.417750
Si Si4 0.649119 0.030713 0.779819
Si Si5 0.885968 0.395705 0.784173
Si Si6 0.688187 0.028216 0.914428
O O1 0.575616 0.588825 0.556301
O O2 0.800389 0.613221 0.458650
O O3 0.791138 0.878479 0.536726
O O4 0.402570 0.806770 0.477433
O O5 0.313671 0.523992 0.058723
O O6 0.971235 0.068298 0.352717
O O7 0.869420 0.309858 0.417539
O O8 0.763901 0.213848 0.779728
O O9 0.629311 0.982801 0.847041
O O10 0.355457 0.012652 0.743104
O O11 0.860185 0.918601 0.751076
#
# Coordination Sequence:
#
# PCOD9244254 Si02
#       6
#     4   2   4   4   4   4
#     4  10  20  40  64  94 128 167 215 275 337 396
#     4  10  22  36  56  98 124 166 202 276 328 398
#     4  10  22  40  65  89 132 171 218 273 341 395
#     4  11  25  46  67 103 132 185 231 283 339 413
#     4  11  26  44  72  95 140 180 231 281 343 401
#     4   9  22  39  66  90 125 168 228 266 333 401
#
# _framework density 23.587156
#
# number of rings (size 3 to 8) (size 9 to 14) (size 15 to 20)
#    0.000    1.818    0.000    2.182   12.727    2.909 
#    3.273    0.000    0.000    0.000    0.000    0.000 
#    0.000    0.000    0.000    0.000    0.000    0.000 
#
# Total GULP energy -122607.273685 kJ/mol
# GULP energy per Si atom -5573.057895 kJ/mol
# Density = 2.353347 g / cm^3
# Si number density = 23.587156 Si / 1000 Ang^3
#
#
#
# Elastic Constant Matrix: (Units=GPa)
#
#
# Indices 1 2 3 4 5 6 
#
# 1 80.1695 18.6039 44.2828 0.0000 6.4111 0.0000
# 2 18.6039 72.8726 71.2298 0.0000 -2.9174 0.0000
# 3 44.2828 71.2298 204.3100 0.0000 -3.2738 0.0000
# 4 0.0000 0.0000 0.0000 -57.8700 0.0000 1.4568
# 5 6.4111 -2.9174 -3.2738 0.0000 31.6173 0.0000
# 6 0.0000 0.0000 0.0000 1.4568 0.0000 42.4524
#
#
#
# Elastic Compliance Matrix: (Units=1/GPa)
#
#
# Indices 1 2 3 4 5 6 
#
# 1 0.014556 -0.001083 -0.002831 0.000000 -0.003345 0.000000
# 2 -0.001083 0.020940 -0.007043 0.000000 0.001423 0.000000
# 3 -0.002831 -0.007043 0.007976 0.000000 0.000750 0.000000
# 4 0.000000 0.000000 0.000000 -0.017265 0.000000 0.000592
# 5 -0.003345 0.001423 0.000750 0.000000 0.032515 0.000000
# 6 0.000000 0.000000 0.000000 0.000592 0.000000 0.023535
#
#
# Mechanical properties :
#
#
# Convention : Reuss Voigt Hill
#
# Bulk Modulus (GPa) = 46.38600 69.50947 57.94774
# Shear Modulus (GPa) = 44.90055 18.12233 31.51144
#
# Velocity S-wave (km/s) = 4.36776 2.77485 3.65904
# Velocity P-wave (km/s) = 6.71900 6.30869 6.51708
#
# Compressibility (1/GPa) = 0.02155823
#
# Stress axis : x y z
#
# Youngs Moduli (GPa) = 68.69993 47.75502 125.38225
#
# Poissons Ratio (x) = 0.05171 0.35496
# Poissons Ratio (y) = 0.07438 0.88307
# Poissons Ratio (z) = 0.19449 0.33634
#
# Static dielectric constant tensor:
#      x y z
#    x 2.033980 0.000000 0.112180 
#    y 0.000000 1.993990 0.000000 
#    z 0.112180 0.000000 1.890860 
# 
# From -- ./inp_files/63074.got.cif
#   From: 2010.05.17/outbox.cif.g08.bks.cpg/sg14_32_cif.got.tgz:63074.got - 2010.06.03 17:49:19.
