data_PCOD9244722
_publ_section_title
;
Structure prediction by ZEFSAII (Michael W. Deem and Ramdas Pophale) SiO2 
 PCOD9244722
Probable space group: P 21/C
;
_chemical_formula_sum "Si O2"
_cell_formula_units_Z 20
_cell_length_a 11.471706
_cell_length_b 6.567626
_cell_length_c 11.882672
_cell_angle_alpha 90.000000
_cell_angle_beta 84.041174
_cell_angle_gamma 90.000000
_cell_volume 890.425459
_symmetry_space_group_name_H-M "P 21/C"
_symmetry_group_IT_number 14
_symmetry_cell_setting 'monoclinic'
loop_
_space_group_symop_operation_xyz
x,y,z
-x,1/2+y,1/2-z
-x,-y,-z
x,1/2-y,1/2+z
loop_
_atom_site_type_symbol
_atom_site_label
_atom_site_fract_x
_atom_site_fract_y
_atom_site_fract_z
Si Si1 0.085311 0.184979 0.504412
Si Si2 0.098576 0.539283 0.358655
Si Si3 0.452962 0.193565 0.577364
Si Si4 0.255820 0.552791 0.136737
Si Si5 0.668774 0.087171 0.019408
O O1 0.088110 0.300194 0.385219
O O2 0.020009 0.343858 0.595493
O O3 0.202760 0.082513 0.539656
O O4 0.000000 0.000000 0.500000
O O5 0.149682 0.584885 0.232256
O O6 0.205952 0.587157 0.433127
O O7 0.386001 0.372254 0.514007
O O8 0.571025 0.302755 0.606305
O O9 0.500000 0.000000 0.500000
O O10 0.359973 0.092817 0.671604
O O11 0.308856 0.765165 0.089662
#
# Coordination Sequence:
#
# PCOD9244722 Si02
#       5
#     4   4   4   4   4
#     4  11  24  42  60  89 129 163 210 266 311 372
#     4  11  25  40  65  93 121 170 212 260 318 382
#     4   9  20  41  66  88 129 166 201 265 311 370
#     4  11  23  41  65  92 124 168 209 260 320 377
#     4  10  20  43  63  92 129 159 211 263 309 376
#
# _framework density 22.461174
#
# number of rings (size 3 to 8) (size 9 to 14) (size 15 to 20)
#    0.000    1.600    4.000    0.000    2.800    1.600 
#   10.800    0.000    0.000    0.000    0.000    0.000 
#    0.000    0.000    0.000    0.000    0.000    0.000 
#
# Total GULP energy -111460.077565 kJ/mol
# GULP energy per Si atom -5573.003878 kJ/mol
# Density = 2.241005 g / cm^3
# Si number density = 22.461174 Si / 1000 Ang^3
#
#
#
# Elastic Constant Matrix: (Units=GPa)
#
#
# Indices 1 2 3 4 5 6 
#
# 1 78.6756 36.1262 -2.0871 0.0000 -10.8821 0.0000
# 2 36.1262 130.3426 16.6995 0.0000 -2.3820 0.0000
# 3 -2.0871 16.6995 29.5983 0.0000 -7.5049 0.0000
# 4 0.0000 0.0000 0.0000 17.8435 0.0000 -9.3857
# 5 -10.8821 -2.3820 -7.5049 0.0000 16.6551 0.0000
# 6 0.0000 0.0000 0.0000 -9.3857 0.0000 67.4537
#
#
#
# Elastic Compliance Matrix: (Units=1/GPa)
#
#
# Indices 1 2 3 4 5 6 
#
# 1 0.017462 -0.005605 0.007997 0.000000 0.014211 0.000000
# 2 -0.005605 0.010085 -0.007505 0.000000 -0.005602 0.000000
# 3 0.007997 -0.007505 0.044750 0.000000 0.024316 0.000000
# 4 0.000000 0.000000 0.000000 0.060468 0.000000 0.008414
# 5 0.014211 -0.005602 0.024316 0.000000 0.079483 0.000000
# 6 0.000000 0.000000 0.000000 0.008414 0.000000 0.015996
#
#
# Mechanical properties :
#
#
# Convention : Reuss Voigt Hill
#
# Bulk Modulus (GPa) = 16.11095 37.78818 26.94957
# Shear Modulus (GPa) = 19.29317 32.91565 26.10441
#
# Velocity S-wave (km/s) = 2.93398 3.83227 3.41281
# Velocity P-wave (km/s) = 4.32042 6.03672 5.24919
#
# Compressibility (1/GPa) = 0.06206960
#
# Stress axis : x y z
#
# Youngs Moduli (GPa) = 57.26850 99.16046 22.34652
#
# Poissons Ratio (x) = 0.55575 -0.17870
# Poissons Ratio (y) = 0.32096 0.16772
# Poissons Ratio (z) = -0.45796 0.74423
#
# Static dielectric constant tensor:
#      x y z
#    x 2.006780 0.000000 -0.024780 
#    y 0.000000 1.767190 0.000000 
#    z -0.024780 0.000000 1.837830 
# 
# From -- ./inp_files/33321.got.cif
#   From: 2010.05.17/outbox.cif.g08.bks.cpg/sg14_17_cif.got.tgz:33321.got - 2010.06.03 17:49:19.
