data_PCOD9244481
_publ_section_title
;
Structure prediction by ZEFSAII (Michael W. Deem and Ramdas Pophale) SiO2 
 PCOD9244481
Probable space group: P 21/C
;
_chemical_formula_sum "Si O2"
_cell_formula_units_Z 28
_cell_length_a 7.249446
_cell_length_b 31.976944
_cell_length_c 5.432397
_cell_angle_alpha 90.000000
_cell_angle_beta 118.507020
_cell_angle_gamma 90.000000
_cell_volume 1106.631138
_symmetry_space_group_name_H-M "P 21/C"
_symmetry_group_IT_number 14
_symmetry_cell_setting 'monoclinic'
loop_
_space_group_symop_operation_xyz
x,y,z
-x,1/2+y,1/2-z
-x,-y,-z
x,1/2-y,1/2+z
loop_
_atom_site_type_symbol
_atom_site_label
_atom_site_fract_x
_atom_site_fract_y
_atom_site_fract_z
Si Si1 0.744789 0.421670 0.602157
Si Si2 0.147848 0.097070 0.032893
Si Si3 0.967746 0.357720 0.027103
Si Si4 0.868771 0.991857 0.168640
Si Si5 0.055701 0.772047 0.722680
Si Si6 0.429977 0.132276 0.582194
Si Si7 0.545848 0.726756 0.879315
O O1 0.698054 0.470879 0.577245
O O2 0.969729 0.418182 0.606625
O O3 0.809768 0.396479 0.888599
O O4 0.576859 0.395891 0.342300
O O5 0.039594 0.138982 0.854114
O O6 0.188101 0.057165 0.882296
O O7 0.367191 0.109953 0.289571
O O8 0.874209 0.316565 0.844937
O O9 0.198416 0.363459 0.054446
O O10 0.000000 0.000000 0.500000
O O11 0.000000 0.000000 0.000000
O O12 0.109160 0.738641 0.540129
O O13 0.800896 0.773491 0.551692
O O14 0.518858 0.178919 0.612606
O O15 0.487560 0.756904 0.069547
#
# Coordination Sequence:
#
# PCOD9244481 Si02
#       7
#     4   4   4   4   4   4   4
#     4  10  22  41  62  90 125 166 205 257 316 373
#     4  10  22  39  64  90 125 164 208 259 312 374
#     4  10  21  38  62  86 122 160 204 259 307 372
#     4  10  20  41  65  90 127 170 206 250 322 379
#     4   9  19  32  57  86 115 158 204 250 308 368
#     4  10  23  38  62  94 121 161 214 259 307 372
#     4   9  19  36  57  85 122 164 201 253 312 370
#
# _framework density 25.302015000000001
#
# number of rings (size 3 to 8) (size 9 to 14) (size 15 to 20)
#    0.000    2.286    1.429    0.000   12.000    1.714 
#    0.000    2.143    0.000    0.000    0.000    0.000 
#    0.000    0.000    0.000    0.000    0.000    0.000 
#
# Total GULP energy -156413.279508 kJ/mol
# GULP energy per Si atom -5586.188554 kJ/mol
# Density = 2.524443 g / cm^3
# Si number density = 25.302015 Si / 1000 Ang^3
#
#
#
# Elastic Constant Matrix: (Units=GPa)
#
#
# Indices 1 2 3 4 5 6 
#
# 1 74.3729 17.8270 -1.1997 0.0000 9.5378 0.0000
# 2 17.8270 169.2680 62.9799 0.0000 14.4948 0.0000
# 3 -1.1997 62.9799 163.1458 0.0000 9.9714 0.0000
# 4 0.0000 0.0000 0.0000 43.2485 0.0000 4.3078
# 5 9.5378 14.4948 9.9714 0.0000 17.5000 0.0000
# 6 0.0000 0.0000 0.0000 4.3078 0.0000 28.4713
#
#
#
# Elastic Compliance Matrix: (Units=1/GPa)
#
#
# Indices 1 2 3 4 5 6 
#
# 1 0.014746 -0.001305 0.001075 0.000000 -0.007569 0.000000
# 2 -0.001305 0.007349 -0.002609 0.000000 -0.003889 0.000000
# 3 0.001075 -0.002609 0.007303 0.000000 -0.002586 0.000000
# 4 0.000000 0.000000 0.000000 0.023476 0.000000 -0.003552
# 5 -0.007569 -0.003889 -0.002586 0.000000 0.065963 0.000000
# 6 0.000000 0.000000 0.000000 -0.003552 0.000000 0.035661
#
#
# Mechanical properties :
#
#
# Convention : Reuss Voigt Hill
#
# Bulk Modulus (GPa) = 42.15826 62.88901 52.52364
# Shear Modulus (GPa) = 29.74744 39.65592 34.70168
#
# Velocity S-wave (km/s) = 3.43256 3.96321 3.70739
# Velocity P-wave (km/s) = 5.69282 6.77141 6.25540
#
# Compressibility (1/GPa) = 0.02372014
#
# Stress axis : x y z
#
# Youngs Moduli (GPa) = 67.81272 136.07426 136.93870
#
# Poissons Ratio (x) = 0.17755 -0.14717
# Poissons Ratio (y) = 0.08848 0.35725
# Poissons Ratio (z) = -0.07288 0.35499
#
# Static dielectric constant tensor:
#      x y z
#    x 2.084860 0.000000 -0.040780 
#    y 0.000000 2.040390 0.000000 
#    z -0.040780 0.000000 2.044930 
# 
# From -- ./inp_files/2166.got.cif
#   From: 2010.05.17/outbox.cif.g08.bks.cpg/sg14_2_cif.got.tgz:2166.got - 2010.06.03 17:49:19.
