data_PCOD9244061
_publ_section_title
;
Structure prediction by ZEFSAII (Michael W. Deem and Ramdas Pophale) SiO2 
 PCOD9244061
Probable space group: P 21/C
;
_chemical_formula_sum "Si O2"
_cell_formula_units_Z 32
_cell_length_a 5.339137
_cell_length_b 15.804860
_cell_length_c 16.369563
_cell_angle_alpha 90.000000
_cell_angle_beta 77.316585
_cell_angle_gamma 90.000000
_cell_volume 1347.627198
_symmetry_space_group_name_H-M "P 21/C"
_symmetry_group_IT_number 14
_symmetry_cell_setting 'monoclinic'
loop_
_space_group_symop_operation_xyz
x,y,z
-x,1/2+y,1/2-z
-x,-y,-z
x,1/2-y,1/2+z
loop_
_atom_site_type_symbol
_atom_site_label
_atom_site_fract_x
_atom_site_fract_y
_atom_site_fract_z
Si Si1 0.750971 0.557044 0.005619
Si Si2 0.697725 0.138594 0.811216
Si Si3 0.017436 0.119769 0.935618
Si Si4 0.629762 0.726304 0.082699
Si Si5 0.174252 0.374796 0.170582
Si Si6 0.975623 0.362297 0.616926
Si Si7 0.334812 0.007801 0.786031
Si Si8 0.504309 0.763171 0.903798
O O1 0.852487 0.614964 0.923164
O O2 0.500000 0.500000 0.000000
O O3 0.678938 0.625616 0.081200
O O4 0.000000 0.500000 0.000000
O O5 0.760758 0.113317 0.901087
O O6 0.537800 0.225237 0.836675
O O7 0.617058 0.048136 0.775369
O O8 0.949421 0.162593 0.741486
O O9 0.112087 0.217231 0.931849
O O10 0.213323 0.069324 0.864410
O O11 0.022667 0.089056 0.027844
O O12 0.511621 0.742104 0.000083
O O13 0.241698 0.464259 0.204315
O O14 0.421904 0.315436 0.158210
O O15 0.794672 0.418950 0.686896
O O16 0.775420 0.291595 0.602023
O O17 0.253668 0.328644 0.625498
#
# Coordination Sequence:
#
# PCOD9244061 Si02
#       8
#     4   4   4   4   4   4   4   4
#     4  11  27  47  74 101 131 186 235 293 336 400
#     4  10  20  39  65  93 130 179 212 274 337 407
#     4   9  19  37  62  96 130 174 216 261 330 410
#     4   9  20  41  67  95 128 171 234 271 331 409
#     4  10  25  45  65  92 135 179 223 277 350 391
#     4  11  22  39  63  99 126 170 219 272 322 402
#     4  10  23  38  61  96 139 172 210 276 347 399
#     4  10  23  40  66  88 127 172 224 267 322 405
#
# _framework density 23.745442000000001
#
# number of rings (size 3 to 8) (size 9 to 14) (size 15 to 20)
#    0.000    2.000    1.250    0.375    8.750    2.500 
#    2.250    0.000    0.000    0.000    0.000    0.000 
#    0.000    0.000    0.000    0.000    0.000    0.000 
#
# Total GULP energy -178206.077847 kJ/mol
# GULP energy per Si atom -5568.939933 kJ/mol
# Density = 2.369140 g / cm^3
# Si number density = 23.745442 Si / 1000 Ang^3
#
#
#
# Elastic Constant Matrix: (Units=GPa)
#
#
# Indices 1 2 3 4 5 6 
#
# 1 60.6850 1.8338 -3.6705 0.0000 -7.6814 0.0000
# 2 1.8338 53.6562 -4.5757 0.0000 -6.6938 0.0000
# 3 -3.6705 -4.5757 60.0080 0.0000 -13.0161 0.0000
# 4 0.0000 0.0000 0.0000 29.8287 0.0000 2.6235
# 5 -7.6814 -6.6938 -13.0161 0.0000 26.9281 0.0000
# 6 0.0000 0.0000 0.0000 2.6235 0.0000 20.3329
#
#
#
# Elastic Compliance Matrix: (Units=1/GPa)
#
#
# Indices 1 2 3 4 5 6 
#
# 1 0.017406 0.000393 0.002450 0.000000 0.006247 0.000000
# 2 0.000393 0.019672 0.002915 0.000000 0.006411 0.000000
# 3 0.002450 0.002915 0.019377 0.000000 0.010789 0.000000
# 4 0.000000 0.000000 0.000000 0.033910 0.000000 -0.004375
# 5 0.006247 0.006411 0.010789 0.000000 0.045727 0.000000
# 6 0.000000 0.000000 0.000000 -0.004375 0.000000 0.049746
#
#
# Mechanical properties :
#
#
# Convention : Reuss Voigt Hill
#
# Bulk Modulus (GPa) = 14.71241 17.94714 16.32977
# Shear Modulus (GPa) = 25.38355 27.46871 26.42613
#
# Velocity S-wave (km/s) = 3.27308 3.40487 3.33962
# Velocity P-wave (km/s) = 4.52697 4.79917 4.66505
#
# Compressibility (1/GPa) = 0.06796985
#
# Stress axis : x y z
#
# Youngs Moduli (GPa) = 57.45301 50.83343 51.60803
#
# Poissons Ratio (x) = -0.02000 -0.12642
# Poissons Ratio (y) = -0.02260 -0.15042
# Poissons Ratio (z) = -0.14074 -0.14817
#
# Static dielectric constant tensor:
#      x y z
#    x 2.073940 0.000000 -0.007660 
#    y 0.000000 2.067120 0.000000 
#    z -0.007660 0.000000 1.929740 
# 
# From -- ./inp_files/53446.got.cif
#   From: 2010.05.17/outbox.cif.g08.bks.cpg/sg14_27_cif.got.tgz:53446.got - 2010.06.03 17:49:19.
