data_PCOD9244195
_publ_section_title
;
Structure prediction by ZEFSAII (Michael W. Deem and Ramdas Pophale) SiO2 
 PCOD9244195
Probable space group: P 21/C
;
_chemical_formula_sum "Si O2"
_cell_formula_units_Z 22
_cell_length_a 8.483242
_cell_length_b 7.107881
_cell_length_c 15.694344
_cell_angle_alpha 90.000000
_cell_angle_beta 82.683243
_cell_angle_gamma 90.000000
_cell_volume 938.629802
_symmetry_space_group_name_H-M "P 21/C"
_symmetry_group_IT_number 14
_symmetry_cell_setting 'monoclinic'
loop_
_space_group_symop_operation_xyz
x,y,z
-x,1/2+y,1/2-z
-x,-y,-z
x,1/2-y,1/2+z
loop_
_atom_site_type_symbol
_atom_site_label
_atom_site_fract_x
_atom_site_fract_y
_atom_site_fract_z
Si Si1 0.768669 0.949840 0.782354
Si Si2 0.397169 0.661794 0.552883
Si Si3 0.000000 0.000000 0.500000
Si Si4 0.961658 0.872221 0.331188
Si Si5 0.851095 0.423534 0.565118
Si Si6 0.304154 0.184854 0.396427
O O1 0.694027 0.920485 0.694319
O O2 0.807690 0.744211 0.817035
O O3 0.674132 0.072687 0.856071
O O4 0.939691 0.048282 0.754295
O O5 0.500000 0.500000 0.500000
O O6 0.259782 0.691032 0.492886
O O7 0.523788 0.817463 0.571644
O O8 0.831107 0.896547 0.533242
O O9 0.943766 0.031966 0.402559
O O10 0.075764 0.727341 0.375612
O O11 0.753123 0.596402 0.611297
O O12 0.000000 0.500000 0.500000
#
# Coordination Sequence:
#
# PCOD9244195 Si02
#       6
#     4   4   2   4   4   4
#     4  11  23  39  64  97 134 171 229 280 345 406
#     4  10  22  39  61  89 130 176 217 273 348 400
#     4  10  20  40  62  92 124 172 228 268 342 410
#     4  11  22  37  64  97 125 173 227 284 328 416
#     4  11  19  39  67  91 126 181 227 271 339 410
#     4  10  22  39  64  93 133 172 221 290 338 413
#
# _framework density 23.438421000000002
#
# number of rings (size 3 to 8) (size 9 to 14) (size 15 to 20)
#    0.000    1.455    3.636    2.182    0.000    2.909 
#    0.000    5.455    0.000    0.000    0.000    0.000 
#    0.000    0.000    0.000    0.000    0.000    0.000 
#
# Total GULP energy -122505.530009 kJ/mol
# GULP energy per Si atom -5568.433182 kJ/mol
# Density = 2.338507 g / cm^3
# Si number density = 23.438421 Si / 1000 Ang^3
#
#
#
# Elastic Constant Matrix: (Units=GPa)
#
#
# Indices 1 2 3 4 5 6 
#
# 1 99.4683 9.5912 32.7735 0.0000 20.0211 0.0000
# 2 9.5912 44.6397 2.3887 0.0000 2.7658 0.0000
# 3 32.7735 2.3887 98.8412 0.0000 -5.5052 0.0000
# 4 0.0000 0.0000 0.0000 32.9020 0.0000 0.4182
# 5 20.0211 2.7658 -5.5052 0.0000 37.3577 0.0000
# 6 0.0000 0.0000 0.0000 0.4182 0.0000 48.6204
#
#
#
# Elastic Compliance Matrix: (Units=1/GPa)
#
#
# Indices 1 2 3 4 5 6 
#
# 1 0.013407 -0.002143 -0.004825 0.000000 -0.007738 0.000000
# 2 -0.002143 0.022888 0.000128 0.000000 -0.000527 0.000000
# 3 -0.004825 0.000128 0.011956 0.000000 0.004338 0.000000
# 4 0.000000 0.000000 0.000000 0.030397 0.000000 -0.000261
# 5 -0.007738 -0.000527 0.004338 0.000000 0.031593 0.000000
# 6 0.000000 0.000000 0.000000 -0.000261 0.000000 0.020570
#
#
# Mechanical properties :
#
#
# Convention : Reuss Voigt Hill
#
# Bulk Modulus (GPa) = 28.92577 36.93956 32.93266
# Shear Modulus (GPa) = 32.04854 36.98908 34.51881
#
# Velocity S-wave (km/s) = 3.70178 3.97689 3.84180
# Velocity P-wave (km/s) = 5.53524 6.07306 5.81037
#
# Compressibility (1/GPa) = 0.03457125
#
# Stress axis : x y z
#
# Youngs Moduli (GPa) = 74.58673 43.69131 83.64333
#
# Poissons Ratio (x) = 0.09363 0.40355
# Poissons Ratio (y) = 0.15984 -0.01071
# Poissons Ratio (z) = 0.35986 -0.00560
#
# Static dielectric constant tensor:
#      x y z
#    x 1.916100 0.000000 0.007220 
#    y 0.000000 2.042790 0.000000 
#    z 0.007220 0.000000 1.836340 
# 
# From -- ./inp_files/38759.got.cif
#   From: 2010.05.17/outbox.cif.g08.bks.cpg/sg14_20_cif.got.tgz:38759.got - 2010.06.03 17:49:19.
