data_PCOD9244105
_publ_section_title
;
Structure prediction by ZEFSAII (Michael W. Deem and Ramdas Pophale) SiO2 
 PCOD9244105
Probable space group: P 21/C
;
_chemical_formula_sum "Si O2"
_cell_formula_units_Z 32
_cell_length_a 6.057593
_cell_length_b 28.207382
_cell_length_c 8.575502
_cell_angle_alpha 90.000000
_cell_angle_beta 89.210865
_cell_angle_gamma 90.000000
_cell_volume 1465.147100
_symmetry_space_group_name_H-M "P 21/C"
_symmetry_group_IT_number 14
_symmetry_cell_setting 'monoclinic'
loop_
_space_group_symop_operation_xyz
x,y,z
-x,1/2+y,1/2-z
-x,-y,-z
x,1/2-y,1/2+z
loop_
_atom_site_type_symbol
_atom_site_label
_atom_site_fract_x
_atom_site_fract_y
_atom_site_fract_z
Si Si1 0.207459 0.244023 0.790255
Si Si2 0.637109 0.129644 0.974873
Si Si3 0.577386 0.881197 0.327657
Si Si4 0.114941 0.780749 0.935880
Si Si5 0.654898 0.482481 0.141877
Si Si6 0.650516 0.956975 0.939314
Si Si7 0.982937 0.927215 0.206618
Si Si8 0.489851 0.705263 0.981765
O O1 0.314379 0.216153 0.645309
O O2 0.031924 0.279688 0.716072
O O3 0.059411 0.216401 0.918795
O O4 0.409970 0.271896 0.865055
O O5 0.506245 0.146880 0.823919
O O6 0.723887 0.174648 0.064447
O O7 0.839357 0.100347 0.899746
O O8 0.477643 0.092742 0.061016
O O9 0.480199 0.934399 0.312415
O O10 0.834994 0.890088 0.303619
O O11 0.482601 0.851700 0.472999
O O12 0.264798 0.733129 0.944929
O O13 0.685460 0.525986 0.262285
O O14 0.902798 0.460415 0.163017
O O15 0.500000 0.500000 0.000000
O O16 0.840129 0.952852 0.070653
O O17 0.500000 0.000000 0.000000
#
# Coordination Sequence:
#
# PCOD9244105 Si02
#       8
#     4   4   4   4   4   4   4   4
#     4  10  23  38  63  92 126 160 217 243 324 377
#     4  10  21  36  65  92 115 160 212 250 303 370
#     4  10  21  39  62  90 118 166 206 242 314 375
#     4  11  22  42  62  93 128 164 204 266 311 369
#     4  11  24  41  58  94 125 161 205 260 318 369
#     4  11  20  41  63  91 117 161 217 248 303 378
#     4  10  20  39  68  86 125 163 209 257 305 371
#     4  11  22  42  64  89 128 166 203 265 309 374
#
# _framework density 21.840807999999999
#
# number of rings (size 3 to 8) (size 9 to 14) (size 15 to 20)
#    0.000    1.500    3.750    3.375    0.000    6.500 
#    9.000    0.000    0.000    0.000    0.000    0.000 
#    0.000    0.000    0.000    0.000    0.000    0.000 
#
# Total GULP energy -178217.922595 kJ/mol
# GULP energy per Si atom -5569.310081 kJ/mol
# Density = 2.179110 g / cm^3
# Si number density = 21.840808 Si / 1000 Ang^3
#
#
#
# Elastic Constant Matrix: (Units=GPa)
#
#
# Indices 1 2 3 4 5 6 
#
# 1 72.2459 5.2498 6.9476 0.0000 11.3241 0.0000
# 2 5.2498 55.0920 8.9906 0.0000 5.4940 0.0000
# 3 6.9476 8.9906 42.2806 0.0000 20.1312 0.0000
# 4 0.0000 0.0000 0.0000 34.2426 0.0000 8.6073
# 5 11.3241 5.4940 20.1312 0.0000 29.0183 0.0000
# 6 0.0000 0.0000 0.0000 8.6073 0.0000 27.0889
#
#
#
# Elastic Compliance Matrix: (Units=1/GPa)
#
#
# Indices 1 2 3 4 5 6 
#
# 1 0.014794 -0.000912 0.000641 0.000000 -0.006045 0.000000
# 2 -0.000912 0.018887 -0.003484 0.000000 -0.000803 0.000000
# 3 0.000641 -0.003484 0.035975 0.000000 -0.024548 0.000000
# 4 0.000000 0.000000 0.000000 0.031738 0.000000 -0.010085
# 5 -0.006045 -0.000803 -0.024548 0.000000 0.054002 0.000000
# 6 0.000000 0.000000 0.000000 -0.010085 0.000000 0.040120
#
#
# Mechanical properties :
#
#
# Convention : Reuss Voigt Hill
#
# Bulk Modulus (GPa) = 16.09075 23.55495 19.82285
# Shear Modulus (GPa) = 22.34735 27.96532 25.15633
#
# Velocity S-wave (km/s) = 3.20221 3.58217 3.39751
# Velocity P-wave (km/s) = 4.58862 5.28370 4.94838
#
# Compressibility (1/GPa) = 0.06214750
#
# Stress axis : x y z
#
# Youngs Moduli (GPa) = 67.59606 52.94655 27.79702
#
# Poissons Ratio (x) = 0.04826 -0.01783
# Poissons Ratio (y) = 0.06161 0.09684
# Poissons Ratio (z) = -0.04335 0.18446
#
# Static dielectric constant tensor:
#      x y z
#    x 1.861180 0.000000 0.003940 
#    y 0.000000 1.853270 0.000000 
#    z 0.003940 0.000000 1.927130 
# 
# From -- ./inp_files/6795.got.cif
#   From: 2010.05.17/outbox.cif.g08.bks.cpg/sg14_4_cif.got.tgz:6795.got - 2010.06.03 17:49:19.
