data_PCOD9244406
_publ_section_title
;
Structure prediction by ZEFSAII (Michael W. Deem and Ramdas Pophale) SiO2 
 PCOD9244406
Probable space group: P 21/C
;
_chemical_formula_sum "Si O2"
_cell_formula_units_Z 30
_cell_length_a 13.299547
_cell_length_b 20.392350
_cell_length_c 4.987314
_cell_angle_alpha 90.000000
_cell_angle_beta 120.883067
_cell_angle_gamma 90.000000
_cell_volume 1160.827712
_symmetry_space_group_name_H-M "P 21/C"
_symmetry_group_IT_number 14
_symmetry_cell_setting 'monoclinic'
loop_
_space_group_symop_operation_xyz
x,y,z
-x,1/2+y,1/2-z
-x,-y,-z
x,1/2-y,1/2+z
loop_
_atom_site_type_symbol
_atom_site_label
_atom_site_fract_x
_atom_site_fract_y
_atom_site_fract_z
Si Si1 0.112306 0.080419 0.183032
Si Si2 0.463184 0.334759 0.117308
Si Si3 0.795294 0.790173 0.909151
Si Si4 0.000000 0.500000 0.000000
Si Si5 0.791808 0.017967 0.055696
Si Si6 0.316393 0.786210 0.857421
Si Si7 0.634772 0.955452 0.229147
Si Si8 0.358350 0.904366 0.541335
O O1 0.119211 0.153022 0.076617
O O2 0.244585 0.062770 0.452049
O O3 0.031605 0.063831 0.319412
O O4 0.101445 0.030702 0.909382
O O5 0.543275 0.282275 0.382942
O O6 0.440293 0.392458 0.303506
O O7 0.544448 0.367368 0.001392
O O8 0.339446 0.311184 0.833616
O O9 0.811421 0.726817 0.741483
O O10 0.871486 0.462403 0.914081
O O11 0.683151 0.973033 0.000463
O O12 0.744128 0.073100 0.801159
O O13 0.268694 0.732963 0.582266
O O14 0.311051 0.856709 0.708914
O O15 0.593429 0.025418 0.287937
#
# Coordination Sequence:
#
# PCOD9244406 Si02
#       8
#     4   4   4   2   4   4   4   4
#     4   9  21  39  66  98 131 168 218 279 342 419
#     4  11  23  39  61  92 132 183 231 274 318 396
#     4  11  26  41  65  97 140 186 223 270 325 401
#     4  10  20  40  74 100 124 164 218 286 362 432
#     4  10  21  41  62 100 126 165 215 281 353 405
#     4  12  25  41  58  83 119 175 230 270 316 386
#     4   9  21  37  61  93 132 169 218 280 345 390
#     4  11  23  39  60  90 132 174 227 282 336 395
#
# _framework density 25.843630000000001
#
# number of rings (size 3 to 8) (size 9 to 14) (size 15 to 20)
#    0.000    1.600    1.333    2.400    7.467    4.267 
#    0.000    0.000    0.000    1.600    0.000    0.000 
#    0.000    0.000    0.000    0.000    0.000    0.000 
#
# Total GULP energy -167448.941685 kJ/mol
# GULP energy per Si atom -5581.631390 kJ/mol
# Density = 2.578481 g / cm^3
# Si number density = 25.843630 Si / 1000 Ang^3
#
#
#
# Elastic Constant Matrix: (Units=GPa)
#
#
# Indices 1 2 3 4 5 6 
#
# 1 70.3953 22.8496 11.5816 0.0000 -18.5574 0.0000
# 2 22.8496 83.4011 15.9726 0.0000 -5.8601 0.0000
# 3 11.5816 15.9726 101.3956 0.0000 -13.2934 0.0000
# 4 0.0000 0.0000 0.0000 56.2460 0.0000 -3.1798
# 5 -18.5574 -5.8601 -13.2934 0.0000 35.8542 0.0000
# 6 0.0000 0.0000 0.0000 -3.1798 0.0000 40.7743
#
#
#
# Elastic Compliance Matrix: (Units=1/GPa)
#
#
# Indices 1 2 3 4 5 6 
#
# 1 0.017855 -0.004248 -0.000262 0.000000 0.008450 0.000000
# 2 -0.004248 0.013438 -0.001715 0.000000 -0.000638 0.000000
# 3 -0.000262 -0.001715 0.010624 0.000000 0.003523 0.000000
# 4 0.000000 0.000000 0.000000 0.017858 0.000000 0.001393
# 5 0.008450 -0.000638 0.003523 0.000000 0.033466 0.000000
# 6 0.000000 0.000000 0.000000 0.001393 0.000000 0.024634
#
#
# Mechanical properties :
#
#
# Convention : Reuss Voigt Hill
#
# Bulk Modulus (GPa) = 33.93745 39.55549 36.74647
# Shear Modulus (GPa) = 35.67662 40.22745 37.95203
#
# Velocity S-wave (km/s) = 3.71951 3.94962 3.83629
# Velocity P-wave (km/s) = 5.62198 6.01151 5.82001
#
# Compressibility (1/GPa) = 0.02946597
#
# Stress axis : x y z
#
# Youngs Moduli (GPa) = 56.00684 74.41756 94.12277
#
# Poissons Ratio (x) = 0.31611 0.02471
# Poissons Ratio (y) = 0.23790 0.16145
# Poissons Ratio (z) = 0.01470 0.12765
#
# Static dielectric constant tensor:
#      x y z
#    x 2.074620 0.000000 0.005940 
#    y 0.000000 2.097390 0.000000 
#    z 0.005940 0.000000 2.206760 
# 
# From -- ./inp_files/3748.got.cif
#   From: 2010.05.17/outbox.cif.g08.bks.cpg/sg14_2_cif.got.tgz:3748.got - 2010.06.03 17:49:19.
