data_PCOD9244916
_publ_section_title
;
Structure prediction by ZEFSAII (Michael W. Deem and Ramdas Pophale) SiO2 
 PCOD9244916
Probable space group: P 21/C
;
_chemical_formula_sum "Si O2"
_cell_formula_units_Z 20
_cell_length_a 8.691671
_cell_length_b 12.434067
_cell_length_c 10.604352
_cell_angle_alpha 90.000000
_cell_angle_beta 56.515037
_cell_angle_gamma 90.000000
_cell_volume 955.834334
_symmetry_space_group_name_H-M "P 21/C"
_symmetry_group_IT_number 14
_symmetry_cell_setting 'monoclinic'
loop_
_space_group_symop_operation_xyz
x,y,z
-x,1/2+y,1/2-z
-x,-y,-z
x,1/2-y,1/2+z
loop_
_atom_site_type_symbol
_atom_site_label
_atom_site_fract_x
_atom_site_fract_y
_atom_site_fract_z
Si Si1 0.244642 0.305199 0.714662
Si Si2 0.835786 0.048569 0.159295
Si Si3 0.941977 0.462263 0.228680
Si Si4 0.952500 0.739012 0.948132
Si Si5 0.604167 0.083505 0.043941
O O1 0.157907 0.425781 0.757460
O O2 0.182690 0.258515 0.608968
O O3 0.464613 0.317959 0.622885
O O4 0.154868 0.244172 0.872904
O O5 0.652755 0.034928 0.159424
O O6 0.883461 0.175311 0.143036
O O7 0.873259 0.994772 0.277363
O O8 0.000000 0.000000 0.000000
O O9 0.799504 0.398364 0.386037
O O10 0.978711 0.382696 0.097751
O O11 0.500000 0.000000 0.000000
#
# Coordination Sequence:
#
# PCOD9244916 Si02
#       5
#     4   4   4   4   4
#     4  10  21  35  55  83 113 142 182 231 274 319
#     4   9  18  35  56  76 106 146 181 215 268 331
#     4   9  19  36  57  79 107 145 186 225 269 328
#     4  11  21  36  58  82 109 147 185 222 272 331
#     4   9  18  34  55  80 111 146 178 223 277 321
#
# _framework density 20.924129000000001
#
# number of rings (size 3 to 8) (size 9 to 14) (size 15 to 20)
#    0.000    2.400    0.000    4.200    0.000    1.600 
#    0.000    3.000    0.000    0.000    0.000    0.000 
#    0.000    0.000    0.000    0.000    0.000    0.000 
#
# Total GULP energy -111477.335156 kJ/mol
# GULP energy per Si atom -5573.866758 kJ/mol
# Density = 2.087650 g / cm^3
# Si number density = 20.924129 Si / 1000 Ang^3
#
#
#
# Elastic Constant Matrix: (Units=GPa)
#
#
# Indices 1 2 3 4 5 6 
#
# 1 117.1895 5.6825 21.0062 0.0000 3.9768 0.0000
# 2 5.6825 67.1017 2.0924 0.0000 3.1192 0.0000
# 3 21.0062 2.0924 56.9859 0.0000 13.0025 0.0000
# 4 0.0000 0.0000 0.0000 30.8926 0.0000 6.8030
# 5 3.9768 3.1192 13.0025 0.0000 21.2572 0.0000
# 6 0.0000 0.0000 0.0000 6.8030 0.0000 15.3999
#
#
#
# Elastic Compliance Matrix: (Units=1/GPa)
#
#
# Indices 1 2 3 4 5 6 
#
# 1 0.009172 -0.000692 -0.003472 0.000000 0.000509 0.000000
# 2 -0.000692 0.015058 0.000206 0.000000 -0.002206 0.000000
# 3 -0.003472 0.000206 0.021709 0.000000 -0.012659 0.000000
# 4 0.000000 0.000000 0.000000 0.035859 0.000000 -0.015841
# 5 0.000509 -0.002206 -0.012659 0.000000 0.055015 0.000000
# 6 0.000000 0.000000 0.000000 -0.015841 0.000000 0.071933
#
#
# Mechanical properties :
#
#
# Convention : Reuss Voigt Hill
#
# Bulk Modulus (GPa) = 26.30084 33.20438 29.75261
# Shear Modulus (GPa) = 21.80218 27.67636 24.73927
#
# Velocity S-wave (km/s) = 3.23145 3.64084 3.44224
# Velocity P-wave (km/s) = 5.14975 5.79463 5.48168
#
# Compressibility (1/GPa) = 0.03802159
#
# Stress axis : x y z
#
# Youngs Moduli (GPa) = 109.03028 66.41208 46.06409
#
# Poissons Ratio (x) = 0.04597 0.15992
# Poissons Ratio (y) = 0.07546 -0.00947
# Poissons Ratio (z) = 0.37852 -0.01365
#
# Static dielectric constant tensor:
#      x y z
#    x 1.801400 0.000000 0.018910 
#    y 0.000000 1.809090 0.000000 
#    z 0.018910 0.000000 1.775540 
# 
# From -- ./inp_files/23560.got.cif
#   From: 2010.05.17/outbox.cif.g08.bks.cpg/sg14_12_cif.got.tgz:23560.got - 2010.06.03 17:49:19.
