data_PCOD9244851
_publ_section_title
;
Structure prediction by ZEFSAII (Michael W. Deem and Ramdas Pophale) SiO2 
 PCOD9244851
Probable space group: P 21/C
;
_chemical_formula_sum "Si O2"
_cell_formula_units_Z 28
_cell_length_a 25.870193
_cell_length_b 8.514119
_cell_length_c 7.259170
_cell_angle_alpha 90.000000
_cell_angle_beta 135.632014
_cell_angle_gamma 90.000000
_cell_volume 1118.066240
_symmetry_space_group_name_H-M "P 21/C"
_symmetry_group_IT_number 14
_symmetry_cell_setting 'monoclinic'
loop_
_space_group_symop_operation_xyz
x,y,z
-x,1/2+y,1/2-z
-x,-y,-z
x,1/2-y,1/2+z
loop_
_atom_site_type_symbol
_atom_site_label
_atom_site_fract_x
_atom_site_fract_y
_atom_site_fract_z
Si Si1 0.919900 0.498469 0.530614
Si Si2 0.228926 0.631843 0.299666
Si Si3 0.395980 0.101656 0.893028
Si Si4 0.758504 0.006891 0.585531
Si Si5 0.449598 0.839333 0.765159
Si Si6 0.932004 0.347256 0.154300
Si Si7 0.378069 0.535446 0.726652
O O1 0.837340 0.566585 0.343461
O O2 0.925762 0.434525 0.334528
O O3 0.928881 0.339620 0.669161
O O4 0.989905 0.609351 0.736751
O O5 0.244104 0.819160 0.330287
O O6 0.293464 0.547952 0.577984
O O7 0.236637 0.557263 0.117115
O O8 0.144361 0.609951 0.144388
O O9 0.315134 0.099289 0.592029
O O10 0.432906 0.944717 0.900563
O O11 0.385134 0.092909 0.084836
O O12 0.465519 0.215257 0.035096
O O13 0.396299 0.692380 0.655561
O O14 0.429169 0.942129 0.534004
#
# Coordination Sequence:
#
# PCOD9244851 Si02
#       7
#     4   4   4   4   4   4   4
#     4   9  18  32  53  76 106 138 171 214 264 313
#     4   9  16  27  48  73  93 123 163 210 256 302
#     4  10  21  32  48  75 100 130 169 212 256 309
#     4   9  16  29  47  70  97 125 162 209 259 303
#     4  11  20  31  50  73 100 129 167 211 259 303
#     4   9  18  32  51  79 106 136 172 215 262 314
#     4  11  18  33  51  73 101 134 166 216 259 299
#
# _framework density 25.043239
#
# number of rings (size 3 to 8) (size 9 to 14) (size 15 to 20)
#    0.000    2.286    2.857    1.286    0.000    0.571 
#    0.000    0.000    0.000    8.571    0.000    0.000 
#    0.000    0.000    0.000    0.000    0.000    0.000 
#
# Total GULP energy -156311.231556 kJ/mol
# GULP energy per Si atom -5582.543984 kJ/mol
# Density = 2.498624 g / cm^3
# Si number density = 25.043239 Si / 1000 Ang^3
#
#
#
# Elastic Constant Matrix: (Units=GPa)
#
#
# Indices 1 2 3 4 5 6 
#
# 1 86.1408 13.2347 75.7137 0.0000 38.2520 0.0000
# 2 13.2347 27.2960 32.9420 0.0000 9.8037 0.0000
# 3 75.7137 32.9420 185.6109 0.0000 53.3114 0.0000
# 4 0.0000 0.0000 0.0000 26.1326 0.0000 2.0251
# 5 38.2520 9.8037 53.3114 0.0000 46.7590 0.0000
# 6 0.0000 0.0000 0.0000 2.0251 0.0000 9.6902
#
#
#
# Elastic Compliance Matrix: (Units=1/GPa)
#
#
# Indices 1 2 3 4 5 6 
#
# 1 0.021466 0.000383 -0.005587 0.000000 -0.011271 0.000000
# 2 0.000383 0.046636 -0.008230 0.000000 -0.000708 0.000000
# 3 -0.005587 -0.008230 0.010883 0.000000 -0.006112 0.000000
# 4 0.000000 0.000000 0.000000 0.038896 0.000000 -0.008129
# 5 -0.011271 -0.000708 -0.006112 0.000000 0.037723 0.000000
# 6 0.000000 0.000000 0.000000 -0.008129 0.000000 0.104896
#
#
# Mechanical properties :
#
#
# Convention : Reuss Voigt Hill
#
# Bulk Modulus (GPa) = 19.18773 60.31428 39.75100
# Shear Modulus (GPa) = 16.40747 28.32686 22.36717
#
# Velocity S-wave (km/s) = 2.56240 3.36686 2.99179
# Velocity P-wave (km/s) = 4.05376 6.26503 5.27653
#
# Compressibility (1/GPa) = 0.05211663
#
# Stress axis : x y z
#
# Youngs Moduli (GPa) = 46.58603 21.44267 91.88997
#
# Poissons Ratio (x) = -0.00821 0.51338
# Poissons Ratio (y) = -0.01783 0.75622
# Poissons Ratio (z) = 0.26027 0.17646
#
# Static dielectric constant tensor:
#      x y z
#    x 1.988760 0.000000 0.023870 
#    y 0.000000 1.990860 0.000000 
#    z 0.023870 0.000000 2.021090 
# 
# From -- ./inp_files/19409.got.cif
#   From: 2010.05.17/outbox.cif.g08.bks.cpg/sg14_10_cif.got.tgz:19409.got - 2010.06.03 17:49:19.
