data_PCOD9244344
_publ_section_title
;
Structure prediction by ZEFSAII (Michael W. Deem and Ramdas Pophale) SiO2 
 PCOD9244344
Probable space group: P 21/C
;
_chemical_formula_sum "Si O2"
_cell_formula_units_Z 32
_cell_length_a 7.903815
_cell_length_b 19.581487
_cell_length_c 11.264645
_cell_angle_alpha 90.000000
_cell_angle_beta 128.813510
_cell_angle_gamma 90.000000
_cell_volume 1358.449265
_symmetry_space_group_name_H-M "P 21/C"
_symmetry_group_IT_number 14
_symmetry_cell_setting 'monoclinic'
loop_
_space_group_symop_operation_xyz
x,y,z
-x,1/2+y,1/2-z
-x,-y,-z
x,1/2-y,1/2+z
loop_
_atom_site_type_symbol
_atom_site_label
_atom_site_fract_x
_atom_site_fract_y
_atom_site_fract_z
Si Si1 0.123362 0.676151 0.445305
Si Si2 0.594416 0.323008 0.675032
Si Si3 0.615596 0.171255 0.687664
Si Si4 0.586853 0.527352 0.916085
Si Si5 0.053941 0.529525 0.398278
Si Si6 0.040819 0.029344 0.655522
Si Si7 0.479413 0.469305 0.640296
Si Si8 0.127806 0.672660 0.954589
O O1 0.270258 0.677500 0.389435
O O2 0.240601 0.666956 0.626561
O O3 0.985169 0.608065 0.361074
O O4 0.023208 0.751887 0.408278
O O5 0.504138 0.246125 0.643862
O O6 0.444582 0.390000 0.597144
O O7 0.731159 0.332895 0.859820
O O8 0.459420 0.106572 0.621615
O O9 0.738105 0.168022 0.612172
O O10 0.449600 0.481657 0.765663
O O11 0.500000 0.500000 0.000000
O O12 0.841911 0.512061 0.010330
O O13 0.318823 0.523252 0.509978
O O14 0.000000 0.500000 0.500000
O O15 0.971378 0.478264 0.263271
O O16 0.031743 0.108351 0.618332
O O17 0.270781 0.992043 0.759736
#
# Coordination Sequence:
#
# PCOD9244344 Si02
#       8
#     4   4   4   4   4   4   4   4
#     4  10  21  40  68  96 134 179 226 280 338 409
#     4  10  21  39  67  97 135 177 223 283 342 403
#     4  10  20  40  67  96 134 183 225 277 341 404
#     4  12  22  40  68 100 133 178 233 278 337 408
#     4  12  25  43  68  97 135 182 232 285 346 411
#     4  12  24  39  67 103 134 180 230 284 344 404
#     4  12  24  42  65  98 138 179 229 286 346 411
#     4  10  21  40  66  98 137 178 222 281 346 405
#
# _framework density 23.556270999999999
#
# number of rings (size 3 to 8) (size 9 to 14) (size 15 to 20)
#    0.000    1.000    5.000    2.250    0.000    0.000 
#    0.000    2.500    0.000    0.000    0.000    0.000 
#    0.000    0.000    0.000    0.000    0.000    0.000 
#
# Total GULP energy -178457.676712 kJ/mol
# GULP energy per Si atom -5576.802397 kJ/mol
# Density = 2.350266 g / cm^3
# Si number density = 23.556271 Si / 1000 Ang^3
#
#
#
# Elastic Constant Matrix: (Units=GPa)
#
#
# Indices 1 2 3 4 5 6 
#
# 1 63.1930 25.5163 25.6373 0.0000 -3.6912 0.0000
# 2 25.5163 234.2421 12.9588 0.0000 5.4389 0.0000
# 3 25.6373 12.9588 100.7810 0.0000 -27.9076 0.0000
# 4 0.0000 0.0000 0.0000 35.2565 0.0000 -12.9532
# 5 -3.6912 5.4389 -27.9076 0.0000 42.7339 0.0000
# 6 0.0000 0.0000 0.0000 -12.9532 0.0000 27.2760
#
#
#
# Elastic Compliance Matrix: (Units=1/GPa)
#
#
# Indices 1 2 3 4 5 6 
#
# 1 0.018395 -0.001705 -0.004834 0.000000 -0.001351 0.000000
# 2 -0.001705 0.004501 -0.000421 0.000000 -0.000995 0.000000
# 3 -0.004834 -0.000421 0.013557 0.000000 0.008490 0.000000
# 4 0.000000 0.000000 0.000000 0.034358 0.000000 0.016317
# 5 -0.001351 -0.000995 0.008490 0.000000 0.028955 0.000000
# 6 0.000000 0.000000 0.000000 0.016317 0.000000 0.044411
#
#
# Mechanical properties :
#
#
# Convention : Reuss Voigt Hill
#
# Bulk Modulus (GPa) = 44.37766 58.49343 51.43555
# Shear Modulus (GPa) = 30.19161 43.32686 36.75923
#
# Velocity S-wave (km/s) = 3.58394 4.29335 3.95458
# Velocity P-wave (km/s) = 6.00051 7.03295 6.53714
#
# Compressibility (1/GPa) = 0.02253386
#
# Stress axis : x y z
#
# Youngs Moduli (GPa) = 54.36137 222.16406 73.76111
#
# Poissons Ratio (x) = 0.37879 0.35660
# Poissons Ratio (y) = 0.09269 0.03102
# Poissons Ratio (z) = 0.26281 0.09342
#
# Static dielectric constant tensor:
#      x y z
#    x 1.633110 0.000000 0.529640 
#    y 0.000000 1.842480 0.000000 
#    z 0.529640 0.000000 1.149700 
# 
# From -- ./inp_files/26295.got.cif
#   From: 2010.05.17/outbox.cif.g08.bks.cpg/sg14_14_cif.got.tgz:26295.got - 2010.06.03 17:49:19.
