data_PCOD9244000
_publ_section_title
;
Structure prediction by ZEFSAII (Michael W. Deem and Ramdas Pophale) SiO2 
 PCOD9244000
Probable space group: P 21/C
;
_chemical_formula_sum "Si O2"
_cell_formula_units_Z 20
_cell_length_a 7.680328
_cell_length_b 7.643592
_cell_length_c 21.535698
_cell_angle_alpha 90.000000
_cell_angle_beta 37.804357
_cell_angle_gamma 90.000000
_cell_volume 774.949513
_symmetry_space_group_name_H-M "P 21/C"
_symmetry_group_IT_number 14
_symmetry_cell_setting 'monoclinic'
loop_
_space_group_symop_operation_xyz
x,y,z
-x,1/2+y,1/2-z
-x,-y,-z
x,1/2-y,1/2+z
loop_
_atom_site_type_symbol
_atom_site_label
_atom_site_fract_x
_atom_site_fract_y
_atom_site_fract_z
Si Si1 0.500127 0.444195 0.290984
Si Si2 0.925998 0.134667 0.887365
Si Si3 0.025561 0.263737 0.679918
Si Si4 0.430664 0.762065 0.906368
Si Si5 0.949515 0.487609 0.918810
O O1 0.211208 0.363323 0.349055
O O2 0.415826 0.622430 0.349518
O O3 0.710463 0.320598 0.272424
O O4 0.711085 0.489367 0.174657
O O5 0.895945 0.340252 0.879153
O O6 0.964342 0.970068 0.832918
O O7 0.670553 0.110487 0.008595
O O8 0.245889 0.214095 0.671070
O O9 0.147524 0.171128 0.582349
O O10 0.222153 0.597940 0.976734
#
# Coordination Sequence:
#
# PCOD9244000 Si02
#       5
#     4   4   4   4   4
#     4  10  21  39  62  93 121 161 202 252 300 363
#     4  10  20  39  64  84 125 159 201 249 307 355
#     4  10  21  39  62  87 122 163 202 246 306 357
#     4  10  21  40  61  90 122 160 201 251 303 359
#     4   8  22  35  64  81 128 153 202 247 297 357
#
# _framework density 25.808136000000001
#
# number of rings (size 3 to 8) (size 9 to 14) (size 15 to 20)
#    2.400    0.000    0.000    3.000    0.000    1.600 
#    0.000    3.000    0.000    0.000    0.000    0.000 
#    0.000    0.000    0.000    0.000    0.000    0.000 
#
# Total GULP energy -111470.085743 kJ/mol
# GULP energy per Si atom -5573.504287 kJ/mol
# Density = 2.574940 g / cm^3
# Si number density = 25.808136 Si / 1000 Ang^3
#
#
#
# Elastic Constant Matrix: (Units=GPa)
#
#
# Indices 1 2 3 4 5 6 
#
# 1 31.5193 23.9717 29.3575 0.0000 -15.5759 0.0000
# 2 23.9717 130.9824 42.0204 0.0000 5.0728 0.0000
# 3 29.3575 42.0204 87.6378 0.0000 -7.1664 0.0000
# 4 0.0000 0.0000 0.0000 52.1403 0.0000 8.3216
# 5 -15.5759 5.0728 -7.1664 0.0000 50.3363 0.0000
# 6 0.0000 0.0000 0.0000 8.3216 0.0000 33.0091
#
#
#
# Elastic Compliance Matrix: (Units=1/GPa)
#
#
# Indices 1 2 3 4 5 6 
#
# 1 0.059360 -0.006593 -0.015346 0.000000 0.016848 0.000000
# 2 -0.006593 0.009875 -0.002807 0.000000 -0.003435 0.000000
# 3 -0.015346 -0.002807 0.017739 0.000000 -0.001940 0.000000
# 4 0.000000 0.000000 0.000000 0.019983 0.000000 -0.005038
# 5 0.016848 -0.003435 -0.001940 0.000000 0.025150 0.000000
# 6 0.000000 0.000000 0.000000 -0.005038 0.000000 0.031565
#
#
# Mechanical properties :
#
#
# Convention : Reuss Voigt Hill
#
# Bulk Modulus (GPa) = 26.67998 48.98207 37.83102
# Shear Modulus (GPa) = 22.15756 37.41647 29.78702
#
# Velocity S-wave (km/s) = 2.93328 3.81175 3.40100
# Velocity P-wave (km/s) = 4.67252 6.19621 5.48751
#
# Compressibility (1/GPa) = 0.03748129
#
# Stress axis : x y z
#
# Youngs Moduli (GPa) = 16.84634 101.26783 56.37450
#
# Poissons Ratio (x) = 0.66767 0.86512
# Poissons Ratio (y) = 0.11107 0.15824
# Poissons Ratio (z) = 0.25852 0.28426
#
# Static dielectric constant tensor:
#      x y z
#    x 2.021080 0.000000 0.037010 
#    y 0.000000 2.026860 0.000000 
#    z 0.037010 0.000000 1.999510 
# 
# From -- ./inp_files/67983.got.cif
#   From: 2010.05.17/outbox.cif.g08.bks.cpg/sg14_34_cif.got.tgz:67983.got - 2010.06.03 17:49:19.
