data_PCOD9244749
_publ_section_title
;
Structure prediction by ZEFSAII (Michael W. Deem and Ramdas Pophale) SiO2 
 PCOD9244749
Probable space group: P 21/C
;
_chemical_formula_sum "Si O2"
_cell_formula_units_Z 16
_cell_length_a 9.431740
_cell_length_b 4.766812
_cell_length_c 21.897595
_cell_angle_alpha 90.000000
_cell_angle_beta 144.075210
_cell_angle_gamma 90.000000
_cell_volume 577.629299
_symmetry_space_group_name_H-M "P 21/C"
_symmetry_group_IT_number 14
_symmetry_cell_setting 'monoclinic'
loop_
_space_group_symop_operation_xyz
x,y,z
-x,1/2+y,1/2-z
-x,-y,-z
x,1/2-y,1/2+z
loop_
_atom_site_type_symbol
_atom_site_label
_atom_site_fract_x
_atom_site_fract_y
_atom_site_fract_z
Si Si1 0.971903 0.040742 0.283622
Si Si2 0.549527 0.736974 0.188579
Si Si3 0.900316 0.101011 0.900166
Si Si4 0.673580 0.160206 0.014795
O O1 0.169046 0.889785 0.394459
O O2 0.974307 0.845386 0.223767
O O3 0.713011 0.016530 0.228188
O O4 0.307138 0.696726 0.144884
O O5 0.740840 0.580371 0.297686
O O6 0.458843 0.680793 0.087899
O O7 0.154090 0.083440 0.953347
O O8 0.000000 0.000000 0.000000
O O9 0.500000 0.000000 0.000000
#
# Coordination Sequence:
#
# PCOD9244749 Si02
#       4
#     4   4   4   4
#     4  11  24  43  71 107 146 194 247 310 384 451
#     4  10  21  42  66 100 143 195 244 313 369 446
#     4   9  21  41  64  95 142 191 250 299 376 447
#     4  10  20  43  69 106 146 191 253 315 379 454
#
# _framework density 27.699428999999999
#
# number of rings (size 3 to 8) (size 9 to 14) (size 15 to 20)
#    0.000    2.000    2.500    0.000    0.000    5.000 
#    0.000   13.750    0.000    0.000    0.000    0.000 
#    0.000    0.000    0.000    0.000    0.000    0.000 
#
# Total GULP energy -89191.151165 kJ/mol
# GULP energy per Si atom -5574.446948 kJ/mol
# Density = 2.763638 g / cm^3
# Si number density = 27.699429 Si / 1000 Ang^3
#
#
#
# Elastic Constant Matrix: (Units=GPa)
#
#
# Indices 1 2 3 4 5 6 
#
# 1 212.3587 20.1991 75.6698 0.0000 -36.1232 0.0000
# 2 20.1991 79.7784 36.0983 0.0000 -22.9670 0.0000
# 3 75.6698 36.0983 217.0901 0.0000 -22.5464 0.0000
# 4 0.0000 0.0000 0.0000 5.0725 0.0000 -2.7305
# 5 -36.1232 -22.9670 -22.5464 0.0000 54.3410 0.0000
# 6 0.0000 0.0000 0.0000 -2.7305 0.0000 31.7966
#
#
#
# Elastic Compliance Matrix: (Units=1/GPa)
#
#
# Indices 1 2 3 4 5 6 
#
# 1 0.005865 0.000249 -0.001745 0.000000 0.003280 0.000000
# 2 0.000249 0.015009 -0.001992 0.000000 0.005682 0.000000
# 3 -0.001745 -0.001992 0.005578 0.000000 0.000312 0.000000
# 4 0.000000 0.000000 0.000000 0.206696 0.000000 0.017750
# 5 0.003280 0.005682 0.000312 0.000000 0.023114 0.000000
# 6 0.000000 0.000000 0.000000 0.017750 0.000000 0.032974
#
#
# Mechanical properties :
#
#
# Convention : Reuss Voigt Hill
#
# Bulk Modulus (GPa) = 51.34667 85.90686 68.62676
# Shear Modulus (GPa) = 16.51771 43.39269 29.95520
#
# Velocity S-wave (km/s) = 2.44461 3.96227 3.29209
# Velocity P-wave (km/s) = 5.15223 7.21207 6.26736
#
# Compressibility (1/GPa) = 0.01947546
#
# Stress axis : x y z
#
# Youngs Moduli (GPa) = 170.49968 66.62642 179.26286
#
# Poissons Ratio (x) = -0.01658 0.31283
# Poissons Ratio (y) = -0.04244 0.35715
# Poissons Ratio (z) = 0.29754 0.13274
#
# Static dielectric constant tensor:
#      x y z
#    x 2.326210 0.000000 0.057350 
#    y 0.000000 2.232640 0.000000 
#    z 0.057350 0.000000 2.227620 
# 
# From -- ./inp_files/30940.got.cif
#   From: 2010.05.17/outbox.cif.g08.bks.cpg/sg14_16_cif.got.tgz:30940.got - 2010.06.03 17:49:19.
