data_PCOD9244525
_publ_section_title
;
Structure prediction by ZEFSAII (Michael W. Deem and Ramdas Pophale) SiO2 
 PCOD9244525
Probable space group: P 21/C
;
_chemical_formula_sum "Si O2"
_cell_formula_units_Z 32
_cell_length_a 15.593128
_cell_length_b 13.026323
_cell_length_c 13.792806
_cell_angle_alpha 90.000000
_cell_angle_beta 27.105732
_cell_angle_gamma 90.000000
_cell_volume 1276.508774
_symmetry_space_group_name_H-M "P 21/C"
_symmetry_group_IT_number 14
_symmetry_cell_setting 'monoclinic'
loop_
_space_group_symop_operation_xyz
x,y,z
-x,1/2+y,1/2-z
-x,-y,-z
x,1/2-y,1/2+z
loop_
_atom_site_type_symbol
_atom_site_label
_atom_site_fract_x
_atom_site_fract_y
_atom_site_fract_z
Si Si1 0.127656 0.943176 0.111953
Si Si2 0.470069 0.577578 0.387216
Si Si3 0.768094 0.072920 0.512685
Si Si4 0.549717 0.708914 0.699372
Si Si5 0.174462 0.359207 0.303432
Si Si6 0.498618 0.773422 0.020274
Si Si7 0.233779 0.580211 0.281307
Si Si8 0.045868 0.244456 0.240145
O O1 0.938251 0.008996 0.295345
O O2 0.286047 0.977630 0.028967
O O3 0.216536 0.936001 0.915416
O O4 0.062836 0.829434 0.212818
O O5 0.503982 0.678476 0.286127
O O6 0.556105 0.375374 0.480783
O O7 0.650969 0.505647 0.195651
O O8 0.606277 0.126318 0.609289
O O9 0.889459 0.165869 0.436127
O O10 0.517009 0.708866 0.616119
O O11 0.772578 0.691662 0.490358
O O12 0.283075 0.468106 0.189464
O O13 0.126660 0.312666 0.246573
O O14 0.973159 0.387893 0.550146
O O15 0.302542 0.270825 0.219688
O O16 0.360841 0.678985 0.140372
#
# Coordination Sequence:
#
# PCOD9244525 Si02
#       8
#     4   4   4   4   4   4   4   4
#     4  11  23  44  71 104 145 187 242 298 366 431
#     4  12  26  44  72 107 142 190 247 294 360 445
#     4  12  25  44  73 100 138 198 238 294 366 429
#     4  11  23  48  70  99 146 186 237 310 357 423
#     4   9  21  38  66 101 137 181 235 295 361 425
#     4  11  24  43  70 101 143 188 241 296 366 429
#     4  10  20  41  68 104 142 183 232 311 371 417
#     4  10  21  44  68  96 145 189 228 300 369 421
#
# _framework density 25.068375
#
# number of rings (size 3 to 8) (size 9 to 14) (size 15 to 20)
#    0.000    1.250    3.750    1.875    0.000    6.500 
#    0.000    3.125    0.000    0.000    0.000    0.000 
#    0.000    0.000    0.000    0.000    0.000    0.000 
#
# Total GULP energy -178987.062847 kJ/mol
# GULP energy per Si atom -5593.345714 kJ/mol
# Density = 2.501132 g / cm^3
# Si number density = 25.068375 Si / 1000 Ang^3
#
#
#
# Elastic Constant Matrix: (Units=GPa)
#
#
# Indices 1 2 3 4 5 6 
#
# 1 82.1280 12.1949 27.4732 0.0000 9.6262 0.0000
# 2 12.1949 95.2901 30.4353 0.0000 0.7494 0.0000
# 3 27.4732 30.4353 117.6889 0.0000 -22.5099 0.0000
# 4 0.0000 0.0000 0.0000 64.4189 0.0000 -4.1848
# 5 9.6262 0.7494 -22.5099 0.0000 27.4107 0.0000
# 6 0.0000 0.0000 0.0000 -4.1848 0.0000 26.6887
#
#
#
# Elastic Compliance Matrix: (Units=1/GPa)
#
#
# Indices 1 2 3 4 5 6 
#
# 1 0.015124 -0.000152 -0.005346 0.000000 -0.009697 0.000000
# 2 -0.000152 0.011690 -0.003605 0.000000 -0.003227 0.000000
# 3 -0.005346 -0.003605 0.013115 0.000000 0.012746 0.000000
# 4 0.000000 0.000000 0.000000 0.015683 0.000000 0.002459
# 5 -0.009697 -0.003227 0.012746 0.000000 0.050443 0.000000
# 6 0.000000 0.000000 0.000000 0.002459 0.000000 0.037855
#
#
# Mechanical properties :
#
#
# Convention : Reuss Voigt Hill
#
# Bulk Modulus (GPa) = 46.03237 48.36821 47.20029
# Shear Modulus (GPa) = 29.52348 38.70388 34.11368
#
# Velocity S-wave (km/s) = 3.43551 3.93355 3.69294
# Velocity P-wave (km/s) = 5.84291 6.32193 6.08714
#
# Compressibility (1/GPa) = 0.02172384
#
# Stress axis : x y z
#
# Youngs Moduli (GPa) = 66.12201 85.53958 76.24784
#
# Poissons Ratio (x) = 0.01298 0.40762
# Poissons Ratio (y) = 0.01003 0.27487
# Poissons Ratio (z) = 0.35348 0.30837
#
# Static dielectric constant tensor:
#      x y z
#    x 1.987280 0.000000 0.004990 
#    y 0.000000 2.035340 0.000000 
#    z 0.004990 0.000000 2.047480 
# 
# From -- ./inp_files/69961.got.cif
#   From: 2010.05.17/outbox.cif.g08.bks.cpg/sg14_35_cif.got.tgz:69961.got - 2010.06.03 17:49:19.
