data_PCOD9244194
_publ_section_title
;
Structure prediction by ZEFSAII (Michael W. Deem and Ramdas Pophale) SiO2 
 PCOD9244194
Probable space group: P 21/C
;
_chemical_formula_sum "Si O2"
_cell_formula_units_Z 28
_cell_length_a 8.095358
_cell_length_b 17.173095
_cell_length_c 15.436406
_cell_angle_alpha 90.000000
_cell_angle_beta 146.258214
_cell_angle_gamma 90.000000
_cell_volume 1192.000941
_symmetry_space_group_name_H-M "P 21/C"
_symmetry_group_IT_number 14
_symmetry_cell_setting 'monoclinic'
loop_
_space_group_symop_operation_xyz
x,y,z
-x,1/2+y,1/2-z
-x,-y,-z
x,1/2-y,1/2+z
loop_
_atom_site_type_symbol
_atom_site_label
_atom_site_fract_x
_atom_site_fract_y
_atom_site_fract_z
Si Si1 0.228954 0.454224 0.841031
Si Si2 0.310050 0.818341 0.063061
Si Si3 0.448461 0.140033 0.087205
Si Si4 0.634125 0.178290 0.547981
Si Si5 0.785589 0.576300 0.697294
Si Si6 0.806578 0.562958 0.366853
Si Si7 0.833660 0.267651 0.312492
O O1 0.925828 0.490037 0.747797
O O2 0.262531 0.473666 0.754741
O O3 0.500000 0.500000 0.000000
O O4 0.327286 0.365173 0.894390
O O5 0.319802 0.776135 0.160565
O O6 0.534568 0.891621 0.152457
O O7 0.360482 0.757988 0.005945
O O8 0.990510 0.859466 0.922137
O O9 0.359692 0.095995 0.960272
O O10 0.174619 0.204130 0.970320
O O11 0.756671 0.185136 0.235170
O O12 0.428204 0.087713 0.163953
O O13 0.929460 0.129371 0.652187
O O14 0.679997 0.179869 0.671607
O O15 0.000000 0.500000 0.500000
#
# Coordination Sequence:
#
# PCOD9244194 Si02
#       7
#     4   4   4   4   4   4   4
#     4  10  22  41  67  88 131 177 215 270 338 402
#     4  11  24  38  67  96 129 174 225 274 333 405
#     4  10  20  40  62  91 130 170 219 277 333 395
#     4  10  22  40  65  92 130 171 222 276 342 387
#     4  10  21  40  61  95 129 169 224 276 331 406
#     4  11  23  41  66  91 130 175 214 266 342 400
#     4  10  22  37  62  94 132 167 220 283 331 394
#
# _framework density 23.489913999999999
#
# number of rings (size 3 to 8) (size 9 to 14) (size 15 to 20)
#    0.000    1.714    2.857    0.857    8.000    0.571 
#    0.000    0.714    0.000    0.000    0.000    0.000 
#    0.000    0.000    0.000    0.000    0.000    0.000 
#
# Total GULP energy -156160.075080 kJ/mol
# GULP energy per Si atom -5577.145539 kJ/mol
# Density = 2.343645 g / cm^3
# Si number density = 23.489914 Si / 1000 Ang^3
#
#
#
# Elastic Constant Matrix: (Units=GPa)
#
#
# Indices 1 2 3 4 5 6 
#
# 1 80.6149 17.9020 42.7160 0.0000 -3.4111 0.0000
# 2 17.9020 76.4234 28.6075 0.0000 -6.5409 0.0000
# 3 42.7160 28.6075 117.4107 0.0000 -27.1068 0.0000
# 4 0.0000 0.0000 0.0000 44.8535 0.0000 1.4000
# 5 -3.4111 -6.5409 -27.1068 0.0000 30.7617 0.0000
# 6 0.0000 0.0000 0.0000 1.4000 0.0000 31.1043
#
#
#
# Elastic Compliance Matrix: (Units=1/GPa)
#
#
# Indices 1 2 3 4 5 6 
#
# 1 0.015982 -0.001721 -0.006366 0.000000 -0.004203 0.000000
# 2 -0.001721 0.014583 -0.002831 0.000000 0.000415 0.000000
# 3 -0.006366 -0.002831 0.014087 0.000000 0.011105 0.000000
# 4 0.000000 0.000000 0.000000 0.022326 0.000000 -0.001005
# 5 -0.004203 0.000415 0.011105 0.000000 0.041916 0.000000
# 6 0.000000 0.000000 0.000000 -0.001005 0.000000 0.032195
#
#
# Mechanical properties :
#
#
# Convention : Reuss Voigt Hill
#
# Bulk Modulus (GPa) = 43.82742 50.32220 47.07481
# Shear Modulus (GPa) = 29.32028 33.69213 31.50620
#
# Velocity S-wave (km/s) = 3.53683 3.79135 3.66630
# Velocity P-wave (km/s) = 5.94789 6.37458 6.16493
#
# Compressibility (1/GPa) = 0.02281677
#
# Stress axis : x y z
#
# Youngs Moduli (GPa) = 62.57086 68.57074 70.98840
#
# Poissons Ratio (x) = 0.11798 0.45188
# Poissons Ratio (y) = 0.10766 0.20100
# Poissons Ratio (z) = 0.39830 0.19416
#
# Static dielectric constant tensor:
#      x y z
#    x 1.955470 0.000000 0.020240 
#    y 0.000000 2.029690 0.000000 
#    z 0.020240 0.000000 1.846710 
# 
# From -- ./inp_files/25428.got.cif
#   From: 2010.05.17/outbox.cif.g08.bks.cpg/sg14_13_cif.got.tgz:25428.got - 2010.06.03 17:49:19.
