data_PCOD9244464
_publ_section_title
;
Structure prediction by ZEFSAII (Michael W. Deem and Ramdas Pophale) SiO2 
 PCOD9244464
Probable space group: P 21/C
;
_chemical_formula_sum "Si O2"
_cell_formula_units_Z 28
_cell_length_a 13.269011
_cell_length_b 7.454853
_cell_length_c 19.201123
_cell_angle_alpha 90.000000
_cell_angle_beta 32.518355
_cell_angle_gamma 90.000000
_cell_volume 1021.031411
_symmetry_space_group_name_H-M "P 21/C"
_symmetry_group_IT_number 14
_symmetry_cell_setting 'monoclinic'
loop_
_space_group_symop_operation_xyz
x,y,z
-x,1/2+y,1/2-z
-x,-y,-z
x,1/2-y,1/2+z
loop_
_atom_site_type_symbol
_atom_site_label
_atom_site_fract_x
_atom_site_fract_y
_atom_site_fract_z
Si Si1 0.642480 0.837834 0.395718
Si Si2 0.907271 0.352027 0.754424
Si Si3 0.690987 0.600112 0.499520
Si Si4 0.698861 0.224917 0.753378
Si Si5 0.156863 0.711659 0.049242
Si Si6 0.051317 0.286583 0.464928
Si Si7 0.563018 0.626774 0.791650
O O1 0.649341 0.678857 0.446827
O O2 0.579925 0.776521 0.356843
O O3 0.500000 0.000000 0.500000
O O4 0.837268 0.947118 0.277154
O O5 0.758020 0.228679 0.800631
O O6 0.902447 0.361162 0.840712
O O7 0.109136 0.298353 0.605710
O O8 0.489609 0.618856 0.652935
O O9 0.764108 0.405965 0.475880
O O10 0.894492 0.186990 0.601709
O O11 0.634401 0.425342 0.766911
O O12 0.997451 0.720847 0.084251
O O13 0.342427 0.621961 0.905919
O O14 0.000000 0.500000 0.500000
O O15 0.274207 0.282992 0.349810
#
# Coordination Sequence:
#
# PCOD9244464 Si02
#       7
#     4   4   4   4   4   4   4
#     4  11  19  41  64  87 134 172 207 262 335 385
#     4  11  22  40  64  95 124 168 220 261 327 390
#     4  12  22  36  62  96 129 161 211 270 320 385
#     4  10  22  42  63  86 126 175 211 264 327 390
#     4  12  24  37  64 101 126 159 221 270 320 380
#     4  10  23  43  66  89 127 180 217 254 325 399
#     4  10  20  41  64  87 126 173 217 264 318 392
#
# _framework density 27.423249999999999
#
# number of rings (size 3 to 8) (size 9 to 14) (size 15 to 20)
#    0.000    1.143    4.286    4.286    0.000    5.714 
#    0.000    3.571    0.000    0.000    0.000    0.000 
#    0.000    0.000    0.000    0.000    0.000    0.000 
#
# Total GULP energy -156461.840428 kJ/mol
# GULP energy per Si atom -5587.922872 kJ/mol
# Density = 2.736083 g / cm^3
# Si number density = 27.423250 Si / 1000 Ang^3
#
#
#
# Elastic Constant Matrix: (Units=GPa)
#
#
# Indices 1 2 3 4 5 6 
#
# 1 69.0482 20.4921 20.0958 0.0000 -4.6301 0.0000
# 2 20.4921 59.6161 8.0767 0.0000 -7.4667 0.0000
# 3 20.0958 8.0767 189.1427 0.0000 -28.4401 0.0000
# 4 0.0000 0.0000 0.0000 31.8266 0.0000 -7.0786
# 5 -4.6301 -7.4667 -28.4401 0.0000 43.4401 0.0000
# 6 0.0000 0.0000 0.0000 -7.0786 0.0000 29.8954
#
#
#
# Elastic Compliance Matrix: (Units=1/GPa)
#
#
# Indices 1 2 3 4 5 6 
#
# 1 0.016555 -0.005505 -0.001554 0.000000 -0.000199 0.000000
# 2 -0.005505 0.018991 0.000196 0.000000 0.002806 0.000000
# 3 -0.001554 0.000196 0.006016 0.000000 0.003807 0.000000
# 4 0.000000 0.000000 0.000000 0.033167 0.000000 0.007853
# 5 -0.000199 0.002806 0.003807 0.000000 0.025974 0.000000
# 6 0.000000 0.000000 0.000000 0.007853 0.000000 0.035309
#
#
# Mechanical properties :
#
#
# Convention : Reuss Voigt Hill
#
# Bulk Modulus (GPa) = 35.92396 46.12624 41.02510
# Shear Modulus (GPa) = 31.44313 38.97525 35.20919
#
# Velocity S-wave (km/s) = 3.38980 3.77403 3.58707
# Velocity P-wave (km/s) = 5.33379 5.98730 5.66997
#
# Compressibility (1/GPa) = 0.02783657
#
# Stress axis : x y z
#
# Youngs Moduli (GPa) = 60.40363 52.65618 166.21958
#
# Poissons Ratio (x) = 0.28987 0.25827
# Poissons Ratio (y) = 0.33252 -0.03255
# Poissons Ratio (z) = 0.09385 -0.01031
#
# Static dielectric constant tensor:
#      x y z
#    x 2.126030 0.000000 -0.002290 
#    y 0.000000 2.190160 0.000000 
#    z -0.002290 0.000000 2.289890 
# 
# From -- ./inp_files/68294.got.cif
#   From: 2010.05.17/outbox.cif.g08.bks.cpg/sg14_35_cif.got.tgz:68294.got - 2010.06.03 17:49:19.
