data_PCOD9244369
_publ_section_title
;
Structure prediction by ZEFSAII (Michael W. Deem and Ramdas Pophale) SiO2 
 PCOD9244369
Probable space group: P 21/C
;
_chemical_formula_sum "Si O2"
_cell_formula_units_Z 24
_cell_length_a 12.334462
_cell_length_b 11.336359
_cell_length_c 13.672054
_cell_angle_alpha 90.000000
_cell_angle_beta 147.453802
_cell_angle_gamma 90.000000
_cell_volume 1028.473881
_symmetry_space_group_name_H-M "P 21/C"
_symmetry_group_IT_number 14
_symmetry_cell_setting 'monoclinic'
loop_
_space_group_symop_operation_xyz
x,y,z
-x,1/2+y,1/2-z
-x,-y,-z
x,1/2-y,1/2+z
loop_
_atom_site_type_symbol
_atom_site_label
_atom_site_fract_x
_atom_site_fract_y
_atom_site_fract_z
Si Si1 0.700178 0.731851 0.610101
Si Si2 0.456949 0.533062 0.355672
Si Si3 0.676013 0.139766 0.890811
Si Si4 0.893893 0.373770 0.020015
Si Si5 0.364339 0.612845 0.872831
Si Si6 0.079704 0.470068 0.777880
O O1 0.621109 0.639168 0.469221
O O2 0.494165 0.774588 0.506056
O O3 0.787280 0.851439 0.629440
O O4 0.882844 0.682874 0.815442
O O5 0.500000 0.500000 0.500000
O O6 0.495570 0.424707 0.311162
O O7 0.231797 0.582744 0.168752
O O8 0.741706 0.276351 0.952137
O O9 0.662898 0.123019 0.764007
O O10 0.865396 0.068304 0.076046
O O11 0.919023 0.481573 0.112548
O O12 0.160979 0.578328 0.773080
O O13 0.500000 0.500000 0.000000
#
# Coordination Sequence:
#
# PCOD9244369 Si02
#       6
#     4   4   4   4   4   4
#     4  10  22  44  64 102 138 170 234 279 334 424
#     4  12  26  44  67  99 144 186 229 284 355 413
#     4  11  23  43  69 102 136 182 232 292 343 419
#     4  11  24  43  72  98 143 178 232 283 347 418
#     4  10  20  40  68  96 133 171 231 286 340 401
#     4  10  22  42  72 101 131 183 229 289 348 408
#
# _framework density 23.335546000000001
#
# number of rings (size 3 to 8) (size 9 to 14) (size 15 to 20)
#    0.000    1.333    3.333    2.500    2.333    0.667 
#    0.000    0.000    3.667    0.000    0.000    0.000 
#    0.000    0.000    0.000    0.000    0.000    0.000 
#
# Total GULP energy -133978.774611 kJ/mol
# GULP energy per Si atom -5582.448942 kJ/mol
# Density = 2.328243 g / cm^3
# Si number density = 23.335546 Si / 1000 Ang^3
#
#
#
# Elastic Constant Matrix: (Units=GPa)
#
#
# Indices 1 2 3 4 5 6 
#
# 1 41.1200 24.8326 21.7762 0.0000 -14.1472 0.0000
# 2 24.8326 102.0721 48.0762 0.0000 -4.0974 0.0000
# 3 21.7762 48.0762 178.6683 0.0000 -10.4618 0.0000
# 4 0.0000 0.0000 0.0000 52.8145 0.0000 1.3124
# 5 -14.1472 -4.0974 -10.4618 0.0000 26.9409 0.0000
# 6 0.0000 0.0000 0.0000 1.3124 0.0000 24.8670
#
#
#
# Elastic Compliance Matrix: (Units=1/GPa)
#
#
# Indices 1 2 3 4 5 6 
#
# 1 0.035219 -0.007254 -0.001353 0.000000 0.016865 0.000000
# 2 -0.007254 0.012721 -0.002710 0.000000 -0.002927 0.000000
# 3 -0.001353 -0.002710 0.006575 0.000000 0.001430 0.000000
# 4 0.000000 0.000000 0.000000 0.018959 0.000000 -0.001001
# 5 0.016865 -0.002927 0.001430 0.000000 0.046085 0.000000
# 6 0.000000 0.000000 0.000000 -0.001001 0.000000 0.040267
#
#
# Mechanical properties :
#
#
# Convention : Reuss Voigt Hill
#
# Bulk Modulus (GPa) = 31.36746 56.80337 44.08542
# Shear Modulus (GPa) = 25.89515 36.06949 30.98232
#
# Velocity S-wave (km/s) = 3.33481 3.93579 3.64770
# Velocity P-wave (km/s) = 5.31969 6.71184 6.05590
#
# Compressibility (1/GPa) = 0.03188017
#
# Stress axis : x y z
#
# Youngs Moduli (GPa) = 28.39396 78.61153 152.09364
#
# Poissons Ratio (x) = 0.57024 0.20579
# Poissons Ratio (y) = 0.20597 0.41220
# Poissons Ratio (z) = 0.03842 0.21305
#
# Static dielectric constant tensor:
#      x y z
#    x 1.935310 0.000000 0.078790 
#    y 0.000000 1.977910 0.000000 
#    z 0.078790 0.000000 1.868490 
# 
# From -- ./inp_files/47025.got.cif
#   From: 2010.05.17/outbox.cif.g08.bks.cpg/sg14_24_cif.got.tgz:47025.got - 2010.06.03 17:49:19.
