data_PCOD9244821
_publ_section_title
;
Structure prediction by ZEFSAII (Michael W. Deem and Ramdas Pophale) SiO2 
 PCOD9244821
Probable space group: P 21/C
;
_chemical_formula_sum "Si O2"
_cell_formula_units_Z 28
_cell_length_a 5.263255
_cell_length_b 21.998968
_cell_length_c 9.335987
_cell_angle_alpha 90.000000
_cell_angle_beta 77.881241
_cell_angle_gamma 90.000000
_cell_volume 1056.888173
_symmetry_space_group_name_H-M "P 21/C"
_symmetry_group_IT_number 14
_symmetry_cell_setting 'monoclinic'
loop_
_space_group_symop_operation_xyz
x,y,z
-x,1/2+y,1/2-z
-x,-y,-z
x,1/2-y,1/2+z
loop_
_atom_site_type_symbol
_atom_site_label
_atom_site_fract_x
_atom_site_fract_y
_atom_site_fract_z
Si Si1 0.948454 0.332832 0.407733
Si Si2 0.155398 0.401833 0.966959
Si Si3 0.600146 0.005748 0.655901
Si Si4 0.733329 0.355833 0.828373
Si Si5 0.810616 0.053386 0.080053
Si Si6 0.402370 0.370115 0.211025
Si Si7 0.247526 0.736900 0.840590
O O1 0.248336 0.354677 0.373684
O O2 0.662171 0.291411 0.772733
O O3 0.780292 0.393641 0.462672
O O4 0.892940 0.276741 0.521203
O O5 0.187793 0.401279 0.132957
O O6 0.936838 0.356980 0.934558
O O7 0.138946 0.466173 0.886644
O O8 0.451434 0.383771 0.890145
O O9 0.426570 0.980877 0.809950
O O10 0.500000 0.000000 0.500000
O O11 0.615901 0.077047 0.683240
O O12 0.886551 0.398243 0.695978
O O13 0.516381 0.193439 0.639712
O O14 0.000000 0.000000 0.000000
O O15 0.905536 0.304690 0.255116
#
# Coordination Sequence:
#
# PCOD9244821 Si02
#       7
#     4   4   4   4   4   4   4
#     4  11  26  46  74 104 153 204 260 334 392 478
#     4  10  23  45  76 110 150 204 257 323 398 480
#     4   9  20  44  73 114 153 201 255 325 400 488
#     4  10  24  45  73 108 155 207 260 328 391 471
#     4  10  20  45  73 115 154 198 263 333 406 472
#     4  11  24  44  75 111 150 204 260 322 401 472
#     4  11  27  46  68 109 147 204 265 318 393 476
#
# _framework density 26.492868000000001
#
# number of rings (size 3 to 8) (size 9 to 14) (size 15 to 20)
#    0.000    1.714    1.429    0.857    6.000    3.429 
#   12.857   10.000    0.000    0.000    0.000    0.000 
#    0.000    0.000    0.000    0.000    0.000    0.000 
#
# Total GULP energy -156091.099938 kJ/mol
# GULP energy per Si atom -5574.682141 kJ/mol
# Density = 2.643257 g / cm^3
# Si number density = 26.492868 Si / 1000 Ang^3
#
#
#
# Elastic Constant Matrix: (Units=GPa)
#
#
# Indices 1 2 3 4 5 6 
#
# 1 88.0346 30.2203 32.7434 0.0000 3.1539 0.0000
# 2 30.2203 226.1442 80.5454 0.0000 -13.3012 0.0000
# 3 32.7434 80.5454 142.1900 0.0000 -13.0494 0.0000
# 4 0.0000 0.0000 0.0000 69.1607 0.0000 -1.7738
# 5 3.1539 -13.3012 -13.0494 0.0000 34.4803 0.0000
# 6 0.0000 0.0000 0.0000 -1.7738 0.0000 33.0799
#
#
#
# Elastic Compliance Matrix: (Units=1/GPa)
#
#
# Indices 1 2 3 4 5 6 
#
# 1 0.012747 -0.000907 -0.002653 0.000000 -0.002520 0.000000
# 2 -0.000907 0.005636 -0.002877 0.000000 0.001169 0.000000
# 3 -0.002653 -0.002877 0.009525 0.000000 0.002738 0.000000
# 4 0.000000 0.000000 0.000000 0.014479 0.000000 0.000776
# 5 -0.002520 0.001169 0.002738 0.000000 0.030719 0.000000
# 6 0.000000 0.000000 0.000000 0.000776 0.000000 0.030272
#
#
# Mechanical properties :
#
#
# Convention : Reuss Voigt Hill
#
# Bulk Modulus (GPa) = 66.51013 82.59855 74.55434
# Shear Modulus (GPa) = 41.23246 48.20148 44.71697
#
# Velocity S-wave (km/s) = 3.94935 4.27009 4.11285
# Velocity P-wave (km/s) = 6.77908 7.45365 7.12435
#
# Compressibility (1/GPa) = 0.01503530
#
# Stress axis : x y z
#
# Youngs Moduli (GPa) = 78.44676 177.41542 104.99069
#
# Poissons Ratio (x) = 0.16087 0.27855
# Poissons Ratio (y) = 0.07113 0.30204
# Poissons Ratio (z) = 0.20813 0.51039
#
# Static dielectric constant tensor:
#      x y z
#    x 2.178980 0.000000 0.040680 
#    y 0.000000 2.166990 0.000000 
#    z 0.040680 0.000000 2.209720 
# 
# From -- ./inp_files/41915.got.cif
#   From: 2010.05.17/outbox.cif.g08.bks.cpg/sg14_21_cif.got.tgz:41915.got - 2010.06.03 17:49:19.
