data_PCOD9244456
_publ_section_title
;
Structure prediction by ZEFSAII (Michael W. Deem and Ramdas Pophale) SiO2 
 PCOD9244456
Probable space group: P 21/C
;
_chemical_formula_sum "Si O2"
_cell_formula_units_Z 32
_cell_length_a 19.159630
_cell_length_b 6.571028
_cell_length_c 17.732215
_cell_angle_alpha 90.000000
_cell_angle_beta 35.801505
_cell_angle_gamma 90.000000
_cell_volume 1305.941384
_symmetry_space_group_name_H-M "P 21/C"
_symmetry_group_IT_number 14
_symmetry_cell_setting 'monoclinic'
loop_
_space_group_symop_operation_xyz
x,y,z
-x,1/2+y,1/2-z
-x,-y,-z
x,1/2-y,1/2+z
loop_
_atom_site_type_symbol
_atom_site_label
_atom_site_fract_x
_atom_site_fract_y
_atom_site_fract_z
Si Si1 0.286445 0.468200 0.732173
Si Si2 0.635474 0.619461 0.746278
Si Si3 0.863257 0.342346 0.594896
Si Si4 0.103204 0.241286 0.145815
Si Si5 0.879417 0.362212 0.931461
Si Si6 0.314174 0.580513 0.443974
Si Si7 0.810486 0.918455 0.273452
Si Si8 0.401124 0.741233 0.021748
O O1 0.325499 0.353444 0.774243
O O2 0.179092 0.623071 0.838081
O O3 0.387666 0.607116 0.604481
O O4 0.242847 0.285960 0.716936
O O5 0.745864 0.474725 0.673120
O O6 0.607896 0.539042 0.686580
O O7 0.521699 0.615470 0.901092
O O8 0.922514 0.269844 0.464916
O O9 0.901759 0.472081 0.634389
O O10 0.109228 0.395295 0.070628
O O11 0.147711 0.357447 0.181038
O O12 0.969083 0.182154 0.283706
O O13 0.194840 0.057189 0.056408
O O14 0.744501 0.291907 0.033195
O O15 0.378066 0.624540 0.466522
O O16 0.706215 0.082955 0.375936
#
# Coordination Sequence:
#
# PCOD9244456 Si02
#       8
#     4   4   4   4   4   4   4   4
#     4  10  20  41  63  90 126 164 208 253 314 366
#     4  10  23  39  61  92 125 168 208 252 308 372
#     4   9  22  42  61  90 130 158 203 264 308 369
#     4  12  22  40  67  91 120 168 211 259 321 376
#     4  11  23  41  66  91 121 166 210 258 318 378
#     4  11  23  42  60  93 131 163 212 264 311 368
#     4  10  22  38  64  91 127 160 210 260 308 370
#     4  11  22  39  63  91 127 167 209 256 309 373
#
# _framework density 24.503398000000001
#
# number of rings (size 3 to 8) (size 9 to 14) (size 15 to 20)
#    0.000    1.500    3.750    1.125    0.000    7.000 
#    4.500    0.625    0.000    0.000    0.000    0.000 
#    0.000    0.000    0.000    0.000    0.000    0.000 
#
# Total GULP energy -178716.005261 kJ/mol
# GULP energy per Si atom -5584.875164 kJ/mol
# Density = 2.444763 g / cm^3
# Si number density = 24.503398 Si / 1000 Ang^3
#
#
#
# Elastic Constant Matrix: (Units=GPa)
#
#
# Indices 1 2 3 4 5 6 
#
# 1 39.4979 19.9072 -0.1155 0.0000 13.5176 0.0000
# 2 19.9072 107.4431 27.9916 0.0000 9.5057 0.0000
# 3 -0.1155 27.9916 92.4449 0.0000 27.9407 0.0000
# 4 0.0000 0.0000 0.0000 40.7654 0.0000 13.2190
# 5 13.5176 9.5057 27.9407 0.0000 26.1030 0.0000
# 6 0.0000 0.0000 0.0000 13.2190 0.0000 26.4679
#
#
#
# Elastic Compliance Matrix: (Units=1/GPa)
#
#
# Indices 1 2 3 4 5 6 
#
# 1 0.039382 -0.007621 0.011356 0.000000 -0.029774 0.000000
# 2 -0.007621 0.011585 -0.005078 0.000000 0.005163 0.000000
# 3 0.011356 -0.005078 0.020086 0.000000 -0.025531 0.000000
# 4 0.000000 0.000000 0.000000 0.029271 0.000000 -0.014619
# 5 -0.029774 0.005163 -0.025531 0.000000 0.079177 0.000000
# 6 0.000000 0.000000 0.000000 -0.014619 0.000000 0.045083
#
#
# Mechanical properties :
#
#
# Convention : Reuss Voigt Hill
#
# Bulk Modulus (GPa) = 14.62711 37.21695 25.92203
# Shear Modulus (GPa) = 19.99531 31.44077 25.71804
#
# Velocity S-wave (km/s) = 2.85971 3.58595 3.24322
# Velocity P-wave (km/s) = 4.10929 5.68919 4.96252
#
# Compressibility (1/GPa) = 0.06836619
#
# Stress axis : x y z
#
# Youngs Moduli (GPa) = 25.39245 86.31522 49.78699
#
# Poissons Ratio (x) = 0.65781 -0.56537
# Poissons Ratio (y) = 0.19352 0.25282
# Poissons Ratio (z) = -0.28835 0.43831
#
# Static dielectric constant tensor:
#      x y z
#    x 1.978770 0.000000 0.004780 
#    y 0.000000 1.941320 0.000000 
#    z 0.004780 0.000000 2.005710 
# 
# From -- ./inp_files/70093.got.cif
#   From: 2010.05.17/outbox.cif.g08.bks.cpg/sg14_36_cif.got.tgz:70093.got - 2010.06.03 17:49:19.
