data_PCOD9244171
_publ_section_title
;
Structure prediction by ZEFSAII (Michael W. Deem and Ramdas Pophale) SiO2 
 PCOD9244171
Probable space group: P 21/C
;
_chemical_formula_sum "Si O2"
_cell_formula_units_Z 24
_cell_length_a 9.588394
_cell_length_b 7.178328
_cell_length_c 17.835766
_cell_angle_alpha 90.000000
_cell_angle_beta 54.837464
_cell_angle_gamma 90.000000
_cell_volume 1003.598933
_symmetry_space_group_name_H-M "P 21/C"
_symmetry_group_IT_number 14
_symmetry_cell_setting 'monoclinic'
loop_
_space_group_symop_operation_xyz
x,y,z
-x,1/2+y,1/2-z
-x,-y,-z
x,1/2-y,1/2+z
loop_
_atom_site_type_symbol
_atom_site_label
_atom_site_fract_x
_atom_site_fract_y
_atom_site_fract_z
Si Si1 0.623761 0.541581 0.031695
Si Si2 0.315639 0.091664 0.063174
Si Si3 0.043502 0.892745 0.811720
Si Si4 0.670036 0.905731 0.771172
Si Si5 0.958834 0.042602 0.362498
Si Si6 0.403002 0.661574 0.233379
O O1 0.517570 0.544922 0.140004
O O2 0.500000 0.500000 0.000000
O O3 0.679941 0.754436 0.002030
O O4 0.797575 0.425437 0.966508
O O5 0.130010 0.992517 0.117219
O O6 0.314470 0.168136 0.149021
O O7 0.500000 0.000000 0.000000
O O8 0.218992 0.934406 0.799316
O O9 0.993723 0.680144 0.846363
O O10 0.082488 0.904631 0.710900
O O11 0.635891 0.130045 0.785444
O O12 0.855179 0.876150 0.675934
O O13 0.513514 0.825679 0.773726
#
# Coordination Sequence:
#
# PCOD9244171 Si02
#       6
#     4   4   4   4   4   4
#     4  11  21  34  62  88 112 143 198 234 276 337
#     4  10  20  40  61  82 110 150 193 235 276 336
#     4   9  19  34  58  82 112 144 190 229 282 335
#     4  10  23  38  59  81 120 150 187 232 291 334
#     4   9  19  36  56  84 111 150 187 234 277 341
#     4  11  22  38  56  86 117 152 184 237 285 336
#
# _framework density 23.913934999999999
#
# number of rings (size 3 to 8) (size 9 to 14) (size 15 to 20)
#    0.000    2.000    3.333    0.000    2.333    2.000 
#    0.000    0.833    0.000    0.000    0.000    0.000 
#    0.000    0.000    0.000    0.000    0.000    0.000 
#
# Total GULP energy -134009.183633 kJ/mol
# GULP energy per Si atom -5583.715985 kJ/mol
# Density = 2.385951 g / cm^3
# Si number density = 23.913935 Si / 1000 Ang^3
#
#
#
# Elastic Constant Matrix: (Units=GPa)
#
#
# Indices 1 2 3 4 5 6 
#
# 1 147.4741 2.8799 58.3895 0.0000 -47.7281 0.0000
# 2 2.8799 56.8126 21.3037 0.0000 -7.7544 0.0000
# 3 58.3895 21.3037 126.5958 0.0000 -46.7127 0.0000
# 4 0.0000 0.0000 0.0000 20.9917 0.0000 1.2805
# 5 -47.7281 -7.7544 -46.7127 0.0000 41.0881 0.0000
# 6 0.0000 0.0000 0.0000 1.2805 0.0000 24.4396
#
#
#
# Elastic Compliance Matrix: (Units=1/GPa)
#
#
# Indices 1 2 3 4 5 6 
#
# 1 0.010998 0.001411 -0.000858 0.000000 0.012067 0.000000
# 2 0.001411 0.018968 -0.003303 0.000000 0.001464 0.000000
# 3 -0.000858 -0.003303 0.014217 0.000000 0.014544 0.000000
# 4 0.000000 0.000000 0.000000 0.047791 0.000000 -0.002504
# 5 0.012067 0.001464 0.014544 0.000000 0.055166 0.000000
# 6 0.000000 0.000000 0.000000 -0.002504 0.000000 0.041048
#
#
# Mechanical properties :
#
#
# Convention : Reuss Voigt Hill
#
# Bulk Modulus (GPa) = 25.84951 55.11430 40.48190
# Shear Modulus (GPa) = 24.20356 33.85786 29.03071
#
# Velocity S-wave (km/s) = 3.18482 3.76682 3.48798
# Velocity P-wave (km/s) = 4.93528 6.48194 5.76075
#
# Compressibility (1/GPa) = 0.03868545
#
# Stress axis : x y z
#
# Youngs Moduli (GPa) = 90.92495 52.71911 70.33880
#
# Poissons Ratio (x) = -0.07439 0.06032
# Poissons Ratio (y) = -0.12830 0.23230
# Poissons Ratio (z) = 0.07797 0.17411
#
# Static dielectric constant tensor:
#      x y z
#    x 1.910250 0.000000 -0.083250 
#    y 0.000000 2.050640 0.000000 
#    z -0.083250 0.000000 1.963180 
# 
# From -- ./inp_files/54469.got.cif
#   From: 2010.05.17/outbox.cif.g08.bks.cpg/sg14_28_cif.got.tgz:54469.got - 2010.06.03 17:49:19.
