data_PCOD9244035
_publ_section_title
;
Structure prediction by ZEFSAII (Michael W. Deem and Ramdas Pophale) SiO2 
 PCOD9244035
Probable space group: P 21/C
;
_chemical_formula_sum "Si O2"
_cell_formula_units_Z 32
_cell_length_a 14.742009
_cell_length_b 6.933017
_cell_length_c 24.986737
_cell_angle_alpha 90.000000
_cell_angle_beta 29.264148
_cell_angle_gamma 90.000000
_cell_volume 1248.395691
_symmetry_space_group_name_H-M "P 21/C"
_symmetry_group_IT_number 14
_symmetry_cell_setting 'monoclinic'
loop_
_space_group_symop_operation_xyz
x,y,z
-x,1/2+y,1/2-z
-x,-y,-z
x,1/2-y,1/2+z
loop_
_atom_site_type_symbol
_atom_site_label
_atom_site_fract_x
_atom_site_fract_y
_atom_site_fract_z
Si Si1 0.092994 0.265965 0.204767
Si Si2 0.156124 0.817236 0.472882
Si Si3 0.310412 0.829111 0.582771
Si Si4 0.849215 0.726825 0.549112
Si Si5 0.440632 0.187420 0.713992
Si Si6 0.985397 0.158035 0.144754
Si Si7 0.595585 0.018925 0.363009
Si Si8 0.151737 0.091823 0.287987
O O1 0.210030 0.460953 0.138625
O O2 0.164101 0.145143 0.218994
O O3 0.093802 0.180328 0.144422
O O4 0.871724 0.298681 0.330082
O O5 0.358618 0.734265 0.376226
O O6 0.034403 0.715585 0.490109
O O7 0.037056 0.823370 0.588648
O O8 0.178247 0.042281 0.444585
O O9 0.466002 0.855459 0.457945
O O10 0.410005 0.811435 0.589537
O O11 0.679504 0.653742 0.671721
O O12 0.888140 0.632148 0.471853
O O13 0.319657 0.330676 0.738345
O O14 0.473351 0.991637 0.662129
O O15 0.818268 0.006757 0.238066
O O16 0.878982 0.362483 0.190643
#
# Coordination Sequence:
#
# PCOD9244035 Si02
#       8
#     4   4   4   4   4   4   4   4
#     4  11  19  37  64  90 123 168 206 254 319 379
#     4   9  20  40  64  87 122 166 207 264 314 373
#     4  10  21  38  60  89 123 165 207 252 313 382
#     4   9  21  41  62  90 124 165 214 252 318 376
#     4  11  21  37  70  93 123 166 212 267 313 381
#     4  10  22  40  63  85 132 169 200 269 316 378
#     4  10  22  38  59  91 125 156 206 262 317 368
#     4  10  20  39  64  93 123 166 218 254 321 385
#
# _framework density 25.632897
#
# number of rings (size 3 to 8) (size 9 to 14) (size 15 to 20)
#    0.000    2.000    2.500    1.500    1.750    1.500 
#    0.000    4.375    2.750    0.000    0.000    0.000 
#    0.000    0.000    0.000    0.000    0.000    0.000 
#
# Total GULP energy -178827.352872 kJ/mol
# GULP energy per Si atom -5588.354777 kJ/mol
# Density = 2.557456 g / cm^3
# Si number density = 25.632897 Si / 1000 Ang^3
#
#
#
# Elastic Constant Matrix: (Units=GPa)
#
#
# Indices 1 2 3 4 5 6 
#
# 1 149.1184 36.4907 88.4066 0.0000 5.1933 0.0000
# 2 36.4907 78.0899 38.8040 0.0000 -0.2704 0.0000
# 3 88.4066 38.8040 217.2955 0.0000 18.1317 0.0000
# 4 0.0000 0.0000 0.0000 29.8902 0.0000 -2.2413
# 5 5.1933 -0.2704 18.1317 0.0000 60.6869 0.0000
# 6 0.0000 0.0000 0.0000 -2.2413 0.0000 31.8380
#
#
#
# Elastic Compliance Matrix: (Units=1/GPa)
#
#
# Indices 1 2 3 4 5 6 
#
# 1 0.009337 -0.002707 -0.003331 0.000000 0.000184 0.000000
# 2 -0.002707 0.014879 -0.001621 0.000000 0.000782 0.000000
# 3 -0.003331 -0.001621 0.006382 0.000000 -0.001629 0.000000
# 4 0.000000 0.000000 0.000000 0.033633 0.000000 0.002368
# 5 0.000184 0.000782 -0.001629 0.000000 0.016952 0.000000
# 6 0.000000 0.000000 0.000000 0.002368 0.000000 0.031576
#
#
# Mechanical properties :
#
#
# Convention : Reuss Voigt Hill
#
# Bulk Modulus (GPa) = 65.44186 85.76737 75.60462
# Shear Modulus (GPa) = 37.54580 43.20319 40.37449
#
# Velocity S-wave (km/s) = 3.83136 4.10989 3.97306
# Velocity P-wave (km/s) = 6.71999 7.48693 7.11380
#
# Compressibility (1/GPa) = 0.01528074
#
# Stress axis : x y z
#
# Youngs Moduli (GPa) = 107.10385 67.20881 156.68002
#
# Poissons Ratio (x) = 0.18196 0.52183
# Poissons Ratio (y) = 0.28997 0.25395
# Poissons Ratio (z) = 0.35671 0.10893
#
# Static dielectric constant tensor:
#      x y z
#    x 2.050990 0.000000 0.003720 
#    y 0.000000 2.145450 0.000000 
#    z 0.003720 0.000000 1.990370 
# 
# From -- ./inp_files/73735.got.cif
#   From: 2010.05.17/outbox.cif.g08.bks.cpg/sg14_37_cif.got.tgz:73735.got - 2010.06.03 17:49:19.
