data_PCOD9244519
_publ_section_title
;
Structure prediction by ZEFSAII (Michael W. Deem and Ramdas Pophale) SiO2 
 PCOD9244519
Probable space group: P 21/C
;
_chemical_formula_sum "Si O2"
_cell_formula_units_Z 28
_cell_length_a 15.382309
_cell_length_b 5.227422
_cell_length_c 16.506783
_cell_angle_alpha 90.000000
_cell_angle_beta 64.670551
_cell_angle_gamma 90.000000
_cell_volume 1199.703803
_symmetry_space_group_name_H-M "P 21/C"
_symmetry_group_IT_number 14
_symmetry_cell_setting 'monoclinic'
loop_
_space_group_symop_operation_xyz
x,y,z
-x,1/2+y,1/2-z
-x,-y,-z
x,1/2-y,1/2+z
loop_
_atom_site_type_symbol
_atom_site_label
_atom_site_fract_x
_atom_site_fract_y
_atom_site_fract_z
Si Si1 0.259620 0.468869 0.110390
Si Si2 0.051846 0.651611 0.201014
Si Si3 0.727432 0.204074 0.576769
Si Si4 0.564259 0.244105 0.907674
Si Si5 0.366381 0.405077 0.483127
Si Si6 0.945433 0.249935 0.491106
Si Si7 0.561550 0.530464 0.244943
O O1 0.157483 0.551461 0.185205
O O2 0.349629 0.552992 0.129657
O O3 0.263381 0.587256 0.017557
O O4 0.279942 0.176640 0.077106
O O5 0.055539 0.738742 0.106046
O O6 0.984320 0.401382 0.236737
O O7 0.675476 0.475733 0.581240
O O8 0.835007 0.242962 0.564776
O O9 0.659813 0.027570 0.657983
O O10 0.450872 0.308040 0.942496
O O11 0.580028 0.037543 0.831131
O O12 0.578456 0.126507 0.990739
O O13 0.000000 0.500000 0.500000
O O14 0.000000 0.000000 0.500000
O O15 0.513147 0.807318 0.254612
#
# Coordination Sequence:
#
# PCOD9244519 Si02
#       7
#     4   4   4   4   4   4   4
#     4  10  23  40  71  94 133 177 235 272 347 404
#     4  11  26  46  74 104 141 179 234 301 356 409
#     4  10  24  42  68  96 134 185 225 276 344 410
#     4  10  22  37  65  99 133 174 225 279 333 404
#     4  10  20  41  67  96 129 178 228 277 333 417
#     4  11  26  46  74 103 139 186 238 290 358 430
#     4  12  26  42  63  97 140 178 220 273 336 401
#
# _framework density 23.339095
#
# number of rings (size 3 to 8) (size 9 to 14) (size 15 to 20)
#    0.000    1.429    1.429    2.143   12.000    2.286 
#    0.000    0.000    0.000    0.000    0.000    0.000 
#    0.000    0.000    0.000    0.000    0.000    0.000 
#
# Total GULP energy -156413.250902 kJ/mol
# GULP energy per Si atom -5586.187532 kJ/mol
# Density = 2.328597 g / cm^3
# Si number density = 23.339095 Si / 1000 Ang^3
#
#
#
# Elastic Constant Matrix: (Units=GPa)
#
#
# Indices 1 2 3 4 5 6 
#
# 1 137.2813 38.9267 31.8956 0.0000 -27.7699 0.0000
# 2 38.9267 101.5572 16.9828 0.0000 -15.9520 0.0000
# 3 31.8956 16.9828 81.8313 0.0000 -27.3825 0.0000
# 4 0.0000 0.0000 0.0000 37.4081 0.0000 2.1632
# 5 -27.7699 -15.9520 -27.3825 0.0000 38.1008 0.0000
# 6 0.0000 0.0000 0.0000 2.1632 0.0000 25.2944
#
#
#
# Elastic Compliance Matrix: (Units=1/GPa)
#
#
# Indices 1 2 3 4 5 6 
#
# 1 0.009306 -0.002587 -0.001558 0.000000 0.004580 0.000000
# 2 -0.002587 0.011314 -0.000508 0.000000 0.002486 0.000000
# 3 -0.001558 -0.000508 0.016434 0.000000 0.010463 0.000000
# 4 0.000000 0.000000 0.000000 0.026865 0.000000 -0.002298
# 5 0.004580 0.002486 0.010463 0.000000 0.038145 0.000000
# 6 0.000000 0.000000 0.000000 -0.002298 0.000000 0.039731
#
#
# Mechanical properties :
#
#
# Convention : Reuss Voigt Hill
#
# Bulk Modulus (GPa) = 36.03745 55.14220 45.58983
# Shear Modulus (GPa) = 31.18184 35.68498 33.43341
#
# Velocity S-wave (km/s) = 3.65915 3.91446 3.78895
# Velocity P-wave (km/s) = 5.77294 6.64142 6.22235
#
# Compressibility (1/GPa) = 0.02774891
#
# Stress axis : x y z
#
# Youngs Moduli (GPa) = 107.45336 88.38802 60.84980
#
# Poissons Ratio (x) = 0.22868 0.09479
# Poissons Ratio (y) = 0.27800 0.03089
# Poissons Ratio (z) = 0.16739 0.04486
#
# Static dielectric constant tensor:
#      x y z
#    x 1.882700 0.000000 -0.025760 
#    y 0.000000 2.008970 0.000000 
#    z -0.025760 0.000000 1.940730 
# 
# From -- ./inp_files/58404.got.cif
#   From: 2010.05.17/outbox.cif.g08.bks.cpg/sg14_30_cif.got.tgz:58404.got - 2010.06.03 17:49:19.
