data_PCOD9244660
_publ_section_title
;
Structure prediction by ZEFSAII (Michael W. Deem and Ramdas Pophale) SiO2 
 PCOD9244660
Probable space group: P 21/C
;
_chemical_formula_sum "Si O2"
_cell_formula_units_Z 30
_cell_length_a 16.223678
_cell_length_b 11.597270
_cell_length_c 10.467665
_cell_angle_alpha 90.000000
_cell_angle_beta 146.233812
_cell_angle_gamma 90.000000
_cell_volume 1094.655471
_symmetry_space_group_name_H-M "P 21/C"
_symmetry_group_IT_number 14
_symmetry_cell_setting 'monoclinic'
loop_
_space_group_symop_operation_xyz
x,y,z
-x,1/2+y,1/2-z
-x,-y,-z
x,1/2-y,1/2+z
loop_
_atom_site_type_symbol
_atom_site_label
_atom_site_fract_x
_atom_site_fract_y
_atom_site_fract_z
Si Si1 0.562667 0.156607 0.536323
Si Si2 0.109660 0.696372 0.029946
Si Si3 0.000000 0.000000 0.000000
Si Si4 0.738883 0.542917 0.349504
Si Si5 0.268010 0.478103 0.279944
Si Si6 0.779464 0.775810 0.121634
Si Si7 0.760338 0.350908 0.074750
Si Si8 0.541547 0.610271 0.689640
O O1 0.411439 0.101861 0.392550
O O2 0.598142 0.129207 0.430416
O O3 0.529358 0.291784 0.494895
O O4 0.691712 0.090993 0.780615
O O5 0.193782 0.697661 0.002744
O O6 0.950124 0.760750 0.818852
O O7 0.125983 0.561132 0.087563
O O8 0.184320 0.760532 0.245143
O O9 0.116640 0.057810 0.048439
O O10 0.141047 0.962047 0.270940
O O11 0.768591 0.612081 0.515902
O O12 0.233261 0.343892 0.261596
O O13 0.393254 0.538561 0.532271
O O14 0.352093 0.474321 0.251963
O O15 0.650522 0.685645 0.920947
#
# Coordination Sequence:
#
# PCOD9244660 Si02
#       8
#     4   4   2   4   4   4   4   4
#     4   9  19  41  70 104 146 199 262 320 391 474
#     4  12  27  48  76 114 156 214 264 336 407 479
#     4  10  20  42  68 108 144 194 264 322 398 476
#     4   9  19  38  70 108 144 196 262 323 384 480
#     4  11  26  48  75 113 157 202 271 344 400 493
#     4  11  25  46  75 109 155 208 268 330 418 483
#     4  11  25  46  75 107 157 206 267 330 401 489
#     4  10  24  49  72 111 150 207 257 331 409 491
#
# _framework density 27.405885000000001
#
# number of rings (size 3 to 8) (size 9 to 14) (size 15 to 20)
#    0.000    1.600    2.667    0.400    1.867    8.533 
#    0.000    5.333    0.000    0.000    0.000    0.000 
#    0.000    0.000    0.000    0.000    0.000    0.000 
#
# Total GULP energy -167072.199816 kJ/mol
# GULP energy per Si atom -5569.073327 kJ/mol
# Density = 2.734351 g / cm^3
# Si number density = 27.405885 Si / 1000 Ang^3
#
#
#
# Elastic Constant Matrix: (Units=GPa)
#
#
# Indices 1 2 3 4 5 6 
#
# 1 139.1115 15.9331 34.1488 0.0000 20.9354 0.0000
# 2 15.9331 90.5670 32.9903 0.0000 2.4026 0.0000
# 3 34.1488 32.9903 81.7624 0.0000 13.9719 0.0000
# 4 0.0000 0.0000 0.0000 22.1150 0.0000 -0.2876
# 5 20.9354 2.4026 13.9719 0.0000 43.4100 0.0000
# 6 0.0000 0.0000 0.0000 -0.2876 0.0000 20.5670
#
#
#
# Elastic Compliance Matrix: (Units=1/GPa)
#
#
# Indices 1 2 3 4 5 6 
#
# 1 0.008393 -0.000365 -0.002825 0.000000 -0.003118 0.000000
# 2 -0.000365 0.013003 -0.005292 0.000000 0.001160 0.000000
# 3 -0.002825 -0.005292 0.016151 0.000000 -0.003543 0.000000
# 4 0.000000 0.000000 0.000000 0.045226 0.000000 0.000633
# 5 -0.003118 0.001160 -0.003543 0.000000 0.025616 0.000000
# 6 0.000000 0.000000 0.000000 0.000633 0.000000 0.048631
#
#
# Mechanical properties :
#
#
# Convention : Reuss Voigt Hill
#
# Bulk Modulus (GPa) = 48.58512 53.06501 50.82506
# Shear Modulus (GPa) = 27.64781 32.44296 30.04538
#
# Velocity S-wave (km/s) = 3.17965 3.44437 3.31465
# Velocity P-wave (km/s) = 5.58988 5.93489 5.76496
#
# Compressibility (1/GPa) = 0.02058244
#
# Stress axis : x y z
#
# Youngs Moduli (GPa) = 119.14549 76.90680 61.91378
#
# Poissons Ratio (x) = 0.02804 0.17494
# Poissons Ratio (y) = 0.04344 0.32767
# Poissons Ratio (z) = 0.33664 0.40702
#
# Static dielectric constant tensor:
#      x y z
#    x 2.192250 0.000000 -0.057120 
#    y 0.000000 2.256430 0.000000 
#    z -0.057120 0.000000 2.184300 
# 
# From -- ./inp_files/34181.got.cif
#   From: 2010.05.17/outbox.cif.g08.bks.cpg/sg14_18_cif.got.tgz:34181.got - 2010.06.03 17:49:19.
