data_PCOD9244448
_publ_section_title
;
Structure prediction by ZEFSAII (Michael W. Deem and Ramdas Pophale) SiO2 
 PCOD9244448
Probable space group: P 21/C
;
_chemical_formula_sum "Si O2"
_cell_formula_units_Z 32
_cell_length_a 18.118683
_cell_length_b 6.625199
_cell_length_c 11.186901
_cell_angle_alpha 90.000000
_cell_angle_beta 103.671511
_cell_angle_gamma 90.000000
_cell_volume 1304.826283
_symmetry_space_group_name_H-M "P 21/C"
_symmetry_group_IT_number 14
_symmetry_cell_setting 'monoclinic'
loop_
_space_group_symop_operation_xyz
x,y,z
-x,1/2+y,1/2-z
-x,-y,-z
x,1/2-y,1/2+z
loop_
_atom_site_type_symbol
_atom_site_label
_atom_site_fract_x
_atom_site_fract_y
_atom_site_fract_z
Si Si1 0.684152 0.484411 0.912796
Si Si2 0.072984 0.041651 0.773899
Si Si3 0.199297 0.270008 0.946990
Si Si4 0.553398 0.814057 0.498670
Si Si5 0.941896 0.916669 0.881053
Si Si6 0.295594 0.877647 0.920702
Si Si7 0.561303 0.456751 0.659628
Si Si8 0.176706 0.652489 0.762232
O O1 0.636275 0.602510 0.998217
O O2 0.617221 0.451510 0.792427
O O3 0.757034 0.632572 0.921324
O O4 0.713912 0.270350 0.971335
O O5 0.116538 0.167876 0.895735
O O6 0.072658 0.181559 0.654420
O O7 0.119353 0.833647 0.776506
O O8 0.987495 0.987023 0.778017
O O9 0.190253 0.467038 0.858878
O O10 0.254086 0.089334 0.923068
O O11 0.548155 0.686022 0.617722
O O12 0.514034 0.676712 0.379828
O O13 0.500000 0.000000 0.500000
O O14 0.863342 0.039017 0.861976
O O15 0.000000 0.000000 0.000000
O O16 0.384123 0.890542 0.929433
O O17 0.256202 0.767871 0.792218
#
# Coordination Sequence:
#
# PCOD9244448 Si02
#       8
#     4   4   4   4   4   4   4   4
#     4  11  23  41  65  91 123 164 208 257 317 373
#     4  10  20  41  63  87 132 160 210 268 309 370
#     4   9  20  41  64  87 126 165 205 260 314 368
#     4  11  24  42  60  89 128 159 206 262 304 371
#     4  11  22  39  63  94 121 170 211 259 319 376
#     4  10  20  43  62  90 127 158 209 262 306 376
#     4  11  25  40  65  93 119 168 207 256 317 372
#     4   9  20  40  64  87 126 168 199 267 312 362
#
# _framework density 24.524338
#
# number of rings (size 3 to 8) (size 9 to 14) (size 15 to 20)
#    0.000    1.750    3.750    0.000    1.750    1.500 
#   13.500    0.000    0.000    0.000    0.000    0.000 
#    0.000    0.000    0.000    0.000    0.000    0.000 
#
# Total GULP energy -178408.004493 kJ/mol
# GULP energy per Si atom -5575.250140 kJ/mol
# Density = 2.446852 g / cm^3
# Si number density = 24.524338 Si / 1000 Ang^3
#
#
#
# Elastic Constant Matrix: (Units=GPa)
#
#
# Indices 1 2 3 4 5 6 
#
# 1 71.0845 35.0914 -2.9318 0.0000 20.5479 0.0000
# 2 35.0914 164.8002 47.6848 0.0000 16.0913 0.0000
# 3 -2.9318 47.6848 122.7252 0.0000 27.3814 0.0000
# 4 0.0000 0.0000 0.0000 35.9139 0.0000 30.0617
# 5 20.5479 16.0913 27.3814 0.0000 31.7975 0.0000
# 6 0.0000 0.0000 0.0000 30.0617 0.0000 52.9154
#
#
#
# Elastic Compliance Matrix: (Units=1/GPa)
#
#
# Indices 1 2 3 4 5 6 
#
# 1 0.021470 -0.004695 0.006068 0.000000 -0.016724 0.000000
# 2 -0.004695 0.007918 -0.003678 0.000000 0.002194 0.000000
# 3 0.006068 -0.003678 0.012603 0.000000 -0.012913 0.000000
# 4 0.000000 0.000000 0.000000 0.053091 0.000000 -0.030161
# 5 -0.016724 0.002194 -0.012913 0.000000 0.052265 0.000000
# 6 0.000000 0.000000 0.000000 -0.030161 0.000000 0.036033
#
#
# Mechanical properties :
#
#
# Convention : Reuss Voigt Hill
#
# Bulk Modulus (GPa) = 26.75092 57.58875 42.16983
# Shear Modulus (GPa) = 24.94395 42.70973 33.82684
#
# Velocity S-wave (km/s) = 3.19268 4.17768 3.71795
# Velocity P-wave (km/s) = 4.95202 6.84134 5.97187
#
# Compressibility (1/GPa) = 0.03738190
#
# Stress axis : x y z
#
# Youngs Moduli (GPa) = 46.57727 126.30129 79.34366
#
# Poissons Ratio (x) = 0.59292 -0.48147
# Poissons Ratio (y) = 0.21866 0.29183
# Poissons Ratio (z) = -0.28264 0.46454
#
# Static dielectric constant tensor:
#      x y z
#    x 1.957620 0.000000 -0.026440 
#    y 0.000000 1.964960 0.000000 
#    z -0.026440 0.000000 2.028550 
# 
# From -- ./inp_files/49703.got.cif
#   From: 2010.05.17/outbox.cif.g08.bks.cpg/sg14_25_cif.got.tgz:49703.got - 2010.06.03 17:49:19.
