data_PCOD9244212
_publ_section_title
;
Structure prediction by ZEFSAII (Michael W. Deem and Ramdas Pophale) SiO2 
 PCOD9244212
Probable space group: P 21/C
;
_chemical_formula_sum "Si O2"
_cell_formula_units_Z 22
_cell_length_a 22.657049
_cell_length_b 9.387482
_cell_length_c 12.420845
_cell_angle_alpha 90.000000
_cell_angle_beta 21.127957
_cell_angle_gamma 90.000000
_cell_volume 952.250115
_symmetry_space_group_name_H-M "P 21/C"
_symmetry_group_IT_number 14
_symmetry_cell_setting 'monoclinic'
loop_
_space_group_symop_operation_xyz
x,y,z
-x,1/2+y,1/2-z
-x,-y,-z
x,1/2-y,1/2+z
loop_
_atom_site_type_symbol
_atom_site_label
_atom_site_fract_x
_atom_site_fract_y
_atom_site_fract_z
Si Si1 0.518611 0.634900 0.544014
Si Si2 0.154744 0.690012 0.207442
Si Si3 0.672238 0.582289 0.707415
Si Si4 0.245703 0.130138 0.172423
Si Si5 0.869558 0.562794 0.581116
Si Si6 0.000000 0.000000 0.500000
O O1 0.500000 0.500000 0.500000
O O2 0.636672 0.751505 0.289262
O O3 0.597869 0.591435 0.523689
O O4 0.344019 0.709151 0.857057
O O5 0.146846 0.571890 0.314204
O O6 0.070593 0.833497 0.389906
O O7 0.054037 0.621382 0.279042
O O8 0.761156 0.571455 0.440282
O O9 0.786135 0.531773 0.609700
O O10 0.500000 0.500000 0.000000
O O11 0.231836 0.300168 0.199606
O O12 0.082717 0.048333 0.481480
#
# Coordination Sequence:
#
# PCOD9244212 Si02
#       6
#     4   4   4   4   4   2
#     4  11  24  40  63  92 125 172 215 259 327 396
#     4  10  20  40  63  90 126 165 215 265 321 391
#     4  11  22  37  60  90 124 162 210 267 324 384
#     4  10  22  41  60  90 128 161 213 269 319 389
#     4   9  21  39  61  87 122 167 208 263 324 382
#     4  10  22  40  66  92 124 166 208 268 324 376
#
# _framework density 23.103175
#
# number of rings (size 3 to 8) (size 9 to 14) (size 15 to 20)
#    0.000    1.818    0.000    3.273    0.000    7.273 
#    0.000   16.364    0.000    0.000    0.000    0.000 
#    0.000    0.000    0.000    0.000    0.000    0.000 
#
# Total GULP energy -122549.434431 kJ/mol
# GULP energy per Si atom -5570.428838 kJ/mol
# Density = 2.305059 g / cm^3
# Si number density = 23.103175 Si / 1000 Ang^3
#
#
#
# Elastic Constant Matrix: (Units=GPa)
#
#
# Indices 1 2 3 4 5 6 
#
# 1 158.5687 52.2658 53.9087 0.0000 -43.2865 0.0000
# 2 52.2658 129.4025 32.6185 0.0000 -8.3292 0.0000
# 3 53.9087 32.6185 89.4858 0.0000 -26.7759 0.0000
# 4 0.0000 0.0000 0.0000 40.0988 0.0000 -3.9707
# 5 -43.2865 -8.3292 -26.7759 0.0000 40.6908 0.0000
# 6 0.0000 0.0000 0.0000 -3.9707 0.0000 26.1733
#
#
#
# Elastic Compliance Matrix: (Units=1/GPa)
#
#
# Indices 1 2 3 4 5 6 
#
# 1 0.010661 -0.003069 -0.002613 0.000000 0.008994 0.000000
# 2 -0.003069 0.009397 -0.002463 0.000000 -0.002961 0.000000
# 3 -0.002613 -0.002463 0.015769 0.000000 0.007093 0.000000
# 4 0.000000 0.000000 0.000000 0.025319 0.000000 0.003841
# 5 0.008994 -0.002961 0.007093 0.000000 0.038204 0.000000
# 6 0.000000 0.000000 0.000000 0.003841 0.000000 0.038790
#
#
# Mechanical properties :
#
#
# Convention : Reuss Voigt Hill
#
# Bulk Modulus (GPa) = 51.18012 72.78257 61.98135
# Shear Modulus (GPa) = 31.06694 37.30351 34.18523
#
# Velocity S-wave (km/s) = 3.67100 4.02263 3.85083
# Velocity P-wave (km/s) = 6.33792 7.29020 6.83068
#
# Compressibility (1/GPa) = 0.01953884
#
# Stress axis : x y z
#
# Youngs Moduli (GPa) = 93.79658 106.41181 63.41473
#
# Poissons Ratio (x) = 0.32653 0.16570
# Poissons Ratio (y) = 0.28782 0.15619
# Poissons Ratio (z) = 0.24509 0.26209
#
# Static dielectric constant tensor:
#      x y z
#    x 1.903160 0.000000 -0.053330 
#    y 0.000000 2.002040 0.000000 
#    z -0.053330 0.000000 1.267430 
# 
# From -- ./inp_files/51208.got.cif
#   From: 2010.05.17/outbox.cif.g08.bks.cpg/sg14_26_cif.got.tgz:51208.got - 2010.06.03 17:49:19.
