data_PCOD9244620
_publ_section_title
;
Structure prediction by ZEFSAII (Michael W. Deem and Ramdas Pophale) SiO2 
 PCOD9244620
Probable space group: P 21/C
;
_chemical_formula_sum "Si O2"
_cell_formula_units_Z 16
_cell_length_a 4.825879
_cell_length_b 12.020912
_cell_length_c 13.336633
_cell_angle_alpha 90.000000
_cell_angle_beta 77.773106
_cell_angle_gamma 90.000000
_cell_volume 756.127997
_symmetry_space_group_name_H-M "P 21/C"
_symmetry_group_IT_number 14
_symmetry_cell_setting 'monoclinic'
loop_
_space_group_symop_operation_xyz
x,y,z
-x,1/2+y,1/2-z
-x,-y,-z
x,1/2-y,1/2+z
loop_
_atom_site_type_symbol
_atom_site_label
_atom_site_fract_x
_atom_site_fract_y
_atom_site_fract_z
Si Si1 0.482624 0.597824 0.718904
Si Si2 0.911280 0.423724 0.415776
Si Si3 0.722286 0.202415 0.380897
Si Si4 0.794964 0.948058 0.597990
O O1 0.817196 0.593588 0.677294
O O2 0.366498 0.722707 0.708400
O O3 0.369303 0.541268 0.826744
O O4 0.342454 0.532456 0.634629
O O5 0.000000 0.500000 0.500000
O O6 0.809018 0.299162 0.452939
O O7 0.446846 0.131463 0.429147
O O8 0.993342 0.124123 0.348406
O O9 0.000000 0.000000 0.500000
#
# Coordination Sequence:
#
# PCOD9244620 Si02
#       4
#     4   4   4   4
#     4  10  22  42  65  93 134 170 218 270 319 399
#     4  10  20  42  65  95 130 167 221 273 326 388
#     4  10  22  43  62  92 137 163 227 261 322 401
#     4  12  24  44  66  98 137 173 216 274 333 400
#
# _framework density 21.160440000000001
#
# number of rings (size 3 to 8) (size 9 to 14) (size 15 to 20)
#    1.500    0.000    2.500    3.000    0.000    0.000 
#   13.500    0.000    0.000    0.000    0.000    0.000 
#    0.000    0.000    0.000    0.000    0.000    0.000 
#
# Total GULP energy -89174.019931 kJ/mol
# GULP energy per Si atom -5573.376246 kJ/mol
# Density = 2.111228 g / cm^3
# Si number density = 21.160440 Si / 1000 Ang^3
#
#
#
# Elastic Constant Matrix: (Units=GPa)
#
#
# Indices 1 2 3 4 5 6 
#
# 1 137.2427 47.5532 16.8863 0.0000 -19.0017 0.0000
# 2 47.5532 111.6213 44.0627 0.0000 -18.2993 0.0000
# 3 16.8863 44.0627 57.5699 0.0000 -17.7923 0.0000
# 4 0.0000 0.0000 0.0000 16.3733 0.0000 2.6394
# 5 -19.0017 -18.2993 -17.7923 0.0000 25.1582 0.0000
# 6 0.0000 0.0000 0.0000 2.6394 0.0000 48.8151
#
#
#
# Elastic Compliance Matrix: (Units=1/GPa)
#
#
# Indices 1 2 3 4 5 6 
#
# 1 0.009105 -0.003717 0.001874 0.000000 0.005498 0.000000
# 2 -0.003717 0.014541 -0.009775 0.000000 0.000857 0.000000
# 3 0.001874 -0.009775 0.028847 0.000000 0.014707 0.000000
# 4 0.000000 0.000000 0.000000 0.061612 0.000000 -0.003331
# 5 0.005498 0.000857 0.014707 0.000000 0.054925 0.000000
# 6 0.000000 0.000000 0.000000 -0.003331 0.000000 0.020666
#
#
# Mechanical properties :
#
#
# Convention : Reuss Voigt Hill
#
# Bulk Modulus (GPa) = 34.17965 58.15982 46.16974
# Shear Modulus (GPa) = 22.45323 31.26476 26.85900
#
# Velocity S-wave (km/s) = 3.26098 3.84801 3.56659
# Velocity P-wave (km/s) = 5.51057 6.87661 6.23113
#
# Compressibility (1/GPa) = 0.02925717
#
# Stress axis : x y z
#
# Youngs Moduli (GPa) = 109.82916 68.76886 34.66561
#
# Poissons Ratio (x) = 0.25563 -0.06495
# Poissons Ratio (y) = 0.40826 0.33884
# Poissons Ratio (z) = -0.20578 0.67219
#
# Static dielectric constant tensor:
#      x y z
#    x 1.762500 0.000000 0.048500 
#    y 0.000000 1.817020 0.000000 
#    z 0.048500 0.000000 1.754430 
# 
# From -- ./inp_files/20261.got.cif
#   From: 2010.05.17/outbox.cif.g08.bks.cpg/sg14_11_cif.got.tgz:20261.got - 2010.06.03 17:49:19.
