data_PCOD9244622
_publ_section_title
;
Structure prediction by ZEFSAII (Michael W. Deem and Ramdas Pophale) SiO2 
 PCOD9244622
Probable space group: P 21/C
;
_chemical_formula_sum "Si O2"
_cell_formula_units_Z 20
_cell_length_a 7.016211
_cell_length_b 10.366381
_cell_length_c 14.017842
_cell_angle_alpha 90.000000
_cell_angle_beta 121.396762
_cell_angle_gamma 90.000000
_cell_volume 870.272622
_symmetry_space_group_name_H-M "P 21/C"
_symmetry_group_IT_number 14
_symmetry_cell_setting 'monoclinic'
loop_
_space_group_symop_operation_xyz
x,y,z
-x,1/2+y,1/2-z
-x,-y,-z
x,1/2-y,1/2+z
loop_
_atom_site_type_symbol
_atom_site_label
_atom_site_fract_x
_atom_site_fract_y
_atom_site_fract_z
Si Si1 0.206051 0.741865 0.405429
Si Si2 0.643730 0.028362 0.672356
Si Si3 0.914538 0.969908 0.083500
Si Si4 0.881226 0.788927 0.660225
Si Si5 0.188272 0.594525 0.089470
O O1 0.234563 0.588833 0.419103
O O2 0.209782 0.796814 0.513443
O O3 0.963814 0.754144 0.287402
O O4 0.360973 0.836586 0.384223
O O5 0.712965 0.908357 0.622430
O O6 0.414414 0.985666 0.659969
O O7 0.854114 0.035641 0.797140
O O8 0.802726 0.832905 0.078059
O O9 0.000000 0.000000 0.000000
O O10 0.099660 0.843722 0.663375
O O11 0.000000 0.500000 0.000000
#
# Coordination Sequence:
#
# PCOD9244622 Si02
#       5
#     4   4   4   4   4
#     4  10  21  41  65  92 131 165 217 272 316 384
#     4  10  23  43  67  96 128 173 227 260 317 398
#     4  10  20  42  65  97 134 165 211 275 331 378
#     4  10  22  42  64  95 133 165 217 273 319 385
#     4  12  23  42  70  94 129 180 221 261 321 394
#
# _framework density 22.981307000000001
#
# number of rings (size 3 to 8) (size 9 to 14) (size 15 to 20)
#    0.000    1.600    4.000    0.600    0.000    0.000 
#   18.000    1.000    0.000    0.000    0.000    0.000 
#    0.000    0.000    0.000    0.000    0.000    0.000 
#
# Total GULP energy -111745.478818 kJ/mol
# GULP energy per Si atom -5587.273941 kJ/mol
# Density = 2.292900 g / cm^3
# Si number density = 22.981307 Si / 1000 Ang^3
#
#
#
# Elastic Constant Matrix: (Units=GPa)
#
#
# Indices 1 2 3 4 5 6 
#
# 1 76.4339 43.3555 8.1718 0.0000 8.2636 0.0000
# 2 43.3555 171.5224 11.5825 0.0000 -1.7661 0.0000
# 3 8.1718 11.5825 71.9311 0.0000 -4.2763 0.0000
# 4 0.0000 0.0000 0.0000 27.6081 0.0000 -9.8774
# 5 8.2636 -1.7661 -4.2763 0.0000 26.5312 0.0000
# 6 0.0000 0.0000 0.0000 -9.8774 0.0000 15.7335
#
#
#
# Elastic Compliance Matrix: (Units=1/GPa)
#
#
# Indices 1 2 3 4 5 6 
#
# 1 0.016131 -0.004032 -0.001512 0.000000 -0.005536 0.000000
# 2 -0.004032 0.006904 -0.000557 0.000000 0.001626 0.000000
# 3 -0.001512 -0.000557 0.014327 0.000000 0.002743 0.000000
# 4 0.000000 0.000000 0.000000 0.046713 0.000000 0.029326
# 5 -0.005536 0.001626 0.002743 0.000000 0.039966 0.000000
# 6 0.000000 0.000000 0.000000 0.029326 0.000000 0.081969
#
#
# Mechanical properties :
#
#
# Convention : Reuss Voigt Hill
#
# Bulk Modulus (GPa) = 39.74867 49.56745 44.65806
# Shear Modulus (GPa) = 22.06539 31.09307 26.57923
#
# Velocity S-wave (km/s) = 3.10198 3.68227 3.40451
# Velocity P-wave (km/s) = 5.49212 6.30033 5.91006
#
# Compressibility (1/GPa) = 0.02515807
#
# Stress axis : x y z
#
# Youngs Moduli (GPa) = 61.99377 144.84970 69.79945
#
# Poissons Ratio (x) = 0.58406 0.10556
# Poissons Ratio (y) = 0.24997 0.03887
# Poissons Ratio (z) = 0.09376 0.08067
#
# Static dielectric constant tensor:
#      x y z
#    x 1.836900 0.000000 -0.003970 
#    y 0.000000 1.914840 0.000000 
#    z -0.003970 0.000000 1.905860 
# 
# From -- ./inp_files/37059.got.cif
#   From: 2010.05.17/outbox.cif.g08.bks.cpg/sg14_19_cif.got.tgz:37059.got - 2010.06.03 17:49:19.
