data_PCOD9244390
_publ_section_title
;
Structure prediction by ZEFSAII (Michael W. Deem and Ramdas Pophale) SiO2 
 PCOD9244390
Probable space group: P 21/C
;
_chemical_formula_sum "Si O2"
_cell_formula_units_Z 26
_cell_length_a 6.775814
_cell_length_b 14.859863
_cell_length_c 9.510312
_cell_angle_alpha 90.000000
_cell_angle_beta 109.710620
_cell_angle_gamma 90.000000
_cell_volume 901.465172
_symmetry_space_group_name_H-M "P 21/C"
_symmetry_group_IT_number 14
_symmetry_cell_setting 'monoclinic'
loop_
_space_group_symop_operation_xyz
x,y,z
-x,1/2+y,1/2-z
-x,-y,-z
x,1/2-y,1/2+z
loop_
_atom_site_type_symbol
_atom_site_label
_atom_site_fract_x
_atom_site_fract_y
_atom_site_fract_z
Si Si1 0.134876 0.392065 0.526813
Si Si2 0.878568 0.205169 0.760024
Si Si3 0.327785 0.315673 0.322348
Si Si4 0.061894 0.392695 0.839078
Si Si5 0.500000 0.000000 0.000000
Si Si6 0.485921 0.852659 0.532812
Si Si7 0.318429 0.989412 0.707342
O O1 0.918962 0.364940 0.396083
O O2 0.276291 0.317419 0.478115
O O3 0.122140 0.393630 0.689347
O O4 0.250741 0.479980 0.497182
O O5 0.089285 0.194360 0.711037
O O6 0.913414 0.306135 0.825262
O O7 0.676773 0.179990 0.622664
O O8 0.475073 0.230362 0.349115
O O9 0.590313 0.431409 0.641439
O O10 0.283267 0.379924 0.970409
O O11 0.930232 0.480547 0.844938
O O12 0.594446 0.915470 0.203158
O O13 0.403589 0.941197 0.591554
#
# Coordination Sequence:
#
# PCOD9244390 Si02
#       7
#     4   4   4   4   2   4   4
#     4   9  20  44  66 106 142 187 244 295 362 437
#     4   9  23  40  67 103 145 192 239 299 374 432
#     4   8  22  45  67 105 147 186 243 301 361 439
#     4  11  24  41  71 104 142 189 245 303 360 449
#     4  10  20  40  70 100 142 184 238 300 346 428
#     4  11  23  46  73 100 149 199 235 307 384 430
#     4  11  24  42  73 111 142 190 252 299 365 442
#
# _framework density 28.841934999999999
#
# number of rings (size 3 to 8) (size 9 to 14) (size 15 to 20)
#    0.923    1.231    1.538    0.000    6.462    3.077 
#    0.000    3.846    3.385    0.000    0.000    0.000 
#    0.000    0.000    0.000    0.000    0.000    0.000 
#
# Total GULP energy -144901.916674 kJ/mol
# GULP energy per Si atom -5573.150641 kJ/mol
# Density = 2.877629 g / cm^3
# Si number density = 28.841935 Si / 1000 Ang^3
#
#
#
# Elastic Constant Matrix: (Units=GPa)
#
#
# Indices 1 2 3 4 5 6 
#
# 1 96.6055 52.9263 49.8451 0.0000 8.9635 0.0000
# 2 52.9263 150.4720 20.9743 0.0000 10.4359 0.0000
# 3 49.8451 20.9743 158.3905 0.0000 27.5226 0.0000
# 4 0.0000 0.0000 0.0000 37.4756 0.0000 14.5948
# 5 8.9635 10.4359 27.5226 0.0000 66.7641 0.0000
# 6 0.0000 0.0000 0.0000 14.5948 0.0000 49.3292
#
#
#
# Elastic Compliance Matrix: (Units=1/GPa)
#
#
# Indices 1 2 3 4 5 6 
#
# 1 0.015075 -0.004749 -0.004193 0.000000 0.000447 0.000000
# 2 -0.004749 0.008301 0.000549 0.000000 -0.000886 0.000000
# 3 -0.004193 0.000549 0.008054 0.000000 -0.002843 0.000000
# 4 0.000000 0.000000 0.000000 0.030159 0.000000 -0.008923
# 5 0.000447 -0.000886 -0.002843 0.000000 0.016229 0.000000
# 6 0.000000 0.000000 0.000000 -0.008923 0.000000 0.022912
#
#
# Mechanical properties :
#
#
# Convention : Reuss Voigt Hill
#
# Bulk Modulus (GPa) = 68.28134 72.55105 70.41620
# Shear Modulus (GPa) = 40.85063 49.49527 45.17295
#
# Velocity S-wave (km/s) = 3.76754 4.14706 3.96185
# Velocity P-wave (km/s) = 6.53082 6.93831 6.73764
#
# Compressibility (1/GPa) = 0.01464529
#
# Stress axis : x y z
#
# Youngs Moduli (GPa) = 66.33470 120.46667 124.15718
#
# Poissons Ratio (x) = 0.57209 0.52057
# Poissons Ratio (y) = 0.31502 -0.06820
# Poissons Ratio (z) = 0.27813 -0.06617
#
# Static dielectric constant tensor:
#      x y z
#    x 2.397870 0.000000 0.170600 
#    y 0.000000 1.789170 0.000000 
#    z 0.170600 0.000000 1.479830 
# 
# From -- ./inp_files/26525.got.cif
#   From: 2010.05.17/outbox.cif.g08.bks.cpg/sg14_14_cif.got.tgz:26525.got - 2010.06.03 17:49:19.
