data_PCOD9244388
_publ_section_title
;
Structure prediction by ZEFSAII (Michael W. Deem and Ramdas Pophale) SiO2 
 PCOD9244388
Probable space group: P 21/C
;
_chemical_formula_sum "Si O2"
_cell_formula_units_Z 30
_cell_length_a 12.418450
_cell_length_b 12.404422
_cell_length_c 10.495426
_cell_angle_alpha 90.000000
_cell_angle_beta 121.980852
_cell_angle_gamma 90.000000
_cell_volume 1371.371562
_symmetry_space_group_name_H-M "P 21/C"
_symmetry_group_IT_number 14
_symmetry_cell_setting 'monoclinic'
loop_
_space_group_symop_operation_xyz
x,y,z
-x,1/2+y,1/2-z
-x,-y,-z
x,1/2-y,1/2+z
loop_
_atom_site_type_symbol
_atom_site_label
_atom_site_fract_x
_atom_site_fract_y
_atom_site_fract_z
Si Si1 0.546293 0.263179 0.963804
Si Si2 0.000000 0.500000 0.500000
Si Si3 0.332754 0.097841 0.435642
Si Si4 0.249266 0.950679 0.181043
Si Si5 0.481488 0.442187 0.286212
Si Si6 0.058490 0.178685 0.230112
Si Si7 0.661666 0.340003 0.777083
Si Si8 0.074885 0.765829 0.589282
O O1 0.440939 0.353764 0.913246
O O2 0.477042 0.151643 0.886434
O O3 0.633016 0.291966 0.897980
O O4 0.620414 0.244180 0.141532
O O5 0.148928 0.461237 0.566487
O O6 0.011534 0.438736 0.649758
O O7 0.394408 0.089341 0.611621
O O8 0.207271 0.169613 0.352656
O O9 0.296641 0.983701 0.350478
O O10 0.371674 0.945402 0.168789
O O11 0.144910 0.853451 0.129038
O O12 0.423170 0.554726 0.294154
O O13 0.988269 0.214558 0.314900
O O14 0.019654 0.257926 0.089396
O O15 0.812340 0.351221 0.860012
#
# Coordination Sequence:
#
# PCOD9244388 Si02
#       8
#     4   2   4   4   4   4   4   4
#     4  12  24  45  66 104 141 186 225 303 350 424
#     4   8  20  42  62  92 130 188 222 284 332 418
#     4  11  24  43  72  99 143 188 232 288 368 421
#     4  10  20  40  69  99 137 182 239 274 357 413
#     4  12  25  42  70 106 138 184 236 300 348 421
#     4  10  24  43  69  97 138 186 236 286 352 418
#     4  12  26  42  72 103 144 178 242 291 356 414
#     4  11  23  42  71 103 138 186 238 294 345 428
#
# _framework density 21.875910000000001
#
# number of rings (size 3 to 8) (size 9 to 14) (size 15 to 20)
#    0.000    1.067    4.000    1.600    7.467    0.000 
#    2.400    2.000    0.000    0.000    0.000    0.000 
#    0.000    0.000    0.000    0.000    0.000    0.000 
#
# Total GULP energy -167065.087236 kJ/mol
# GULP energy per Si atom -5568.836241 kJ/mol
# Density = 2.182612 g / cm^3
# Si number density = 21.875910 Si / 1000 Ang^3
#
#
#
# Elastic Constant Matrix: (Units=GPa)
#
#
# Indices 1 2 3 4 5 6 
#
# 1 51.1066 0.2184 53.8746 0.0000 16.4816 0.0000
# 2 0.2184 25.4019 6.8998 0.0000 -6.3205 0.0000
# 3 53.8746 6.8998 123.2757 0.0000 2.1476 0.0000
# 4 0.0000 0.0000 0.0000 22.7141 0.0000 -12.7743
# 5 16.4816 -6.3205 2.1476 0.0000 38.7616 0.0000
# 6 0.0000 0.0000 0.0000 -12.7743 0.0000 25.3485
#
#
#
# Elastic Compliance Matrix: (Units=1/GPa)
#
#
# Indices 1 2 3 4 5 6 
#
# 1 0.046901 0.000415 -0.020193 0.000000 -0.018756 0.000000
# 2 0.000415 0.041767 -0.002637 0.000000 0.006780 0.000000
# 3 -0.020193 -0.002637 0.016959 0.000000 0.007217 0.000000
# 4 0.000000 0.000000 0.000000 0.061438 0.000000 0.030962
# 5 -0.018756 0.006780 0.007217 0.000000 0.034480 0.000000
# 6 0.000000 0.000000 0.000000 0.030962 0.000000 0.055053
#
#
# Mechanical properties :
#
#
# Convention : Reuss Voigt Hill
#
# Bulk Modulus (GPa) = 16.44861 35.75220 26.10040
# Shear Modulus (GPa) = 15.54275 26.61762 21.08018
#
# Velocity S-wave (km/s) = 2.66841 3.49199 3.10760
# Velocity P-wave (km/s) = 4.12665 5.71290 4.98330
#
# Compressibility (1/GPa) = 0.06079543
#
# Stress axis : x y z
#
# Youngs Moduli (GPa) = 21.32159 23.94238 58.96657
#
# Poissons Ratio (x) = -0.00993 1.19073
# Poissons Ratio (y) = -0.00885 0.15550
# Poissons Ratio (z) = 0.43055 0.06314
#
# Static dielectric constant tensor:
#      x y z
#    x 1.665710 0.000000 -0.130320 
#    y 0.000000 1.496310 0.000000 
#    z -0.130320 0.000000 1.640980 
# 
# From -- ./inp_files/13170.got.cif
#   From: 2010.05.17/outbox.cif.g08.bks.cpg/sg14_7_cif.got.tgz:13170.got - 2010.06.03 17:49:19.
