data_PCOD9244409
_publ_section_title
;
Structure prediction by ZEFSAII (Michael W. Deem and Ramdas Pophale) SiO2 
 PCOD9244409
Probable space group: P 21/C
;
_chemical_formula_sum "Si O2"
_cell_formula_units_Z 30
_cell_length_a 26.364867
_cell_length_b 8.406605
_cell_length_c 22.617623
_cell_angle_alpha 90.000000
_cell_angle_beta 164.653258
_cell_angle_gamma 90.000000
_cell_volume 1326.726027
_symmetry_space_group_name_H-M "P 21/C"
_symmetry_group_IT_number 14
_symmetry_cell_setting 'monoclinic'
loop_
_space_group_symop_operation_xyz
x,y,z
-x,1/2+y,1/2-z
-x,-y,-z
x,1/2-y,1/2+z
loop_
_atom_site_type_symbol
_atom_site_label
_atom_site_fract_x
_atom_site_fract_y
_atom_site_fract_z
Si Si1 0.572685 0.487748 0.889721
Si Si2 0.050061 0.709087 0.661720
Si Si3 0.110121 0.802622 0.562409
Si Si4 0.193558 0.135183 0.005071
Si Si5 0.000000 0.500000 0.500000
Si Si6 0.745497 0.495642 0.674660
Si Si7 0.073221 0.730495 0.383788
Si Si8 0.540818 0.351302 0.727037
O O1 0.421205 0.393034 0.760697
O O2 0.510038 0.446972 0.752676
O O3 0.554370 0.675795 0.879301
O O4 0.785155 0.422682 0.139221
O O5 0.941382 0.631004 0.485066
O O6 0.162129 0.864348 0.765791
O O7 0.907003 0.733256 0.555467
O O8 0.138405 0.633071 0.624294
O O9 0.245481 0.926602 0.749011
O O10 0.111468 0.782142 0.493828
O O11 0.895221 0.860509 0.336769
O O12 0.127286 0.214942 0.869166
O O13 0.107554 0.956923 0.914175
O O14 0.544120 0.550989 0.422973
O O15 0.234642 0.818245 0.526588
#
# Coordination Sequence:
#
# PCOD9244409 Si02
#       8
#     4   4   4   4   2   4   4   4
#     4  11  24  40  64  95 133 171 219 271 336 384
#     4  11  22  43  65  96 127 172 214 264 329 388
#     4  10  21  41  64  94 124 174 217 270 324 392
#     4  11  25  40  65  99 129 169 216 272 324 396
#     4  10  20  40  74  86 128 174 214 268 326 388
#     4  10  23  39  65  92 127 171 220 259 328 390
#     4  11  24  40  64  95 132 165 219 271 333 386
#     4  11  23  40  61  94 132 169 220 275 327 398
#
# _framework density 22.612053
#
# number of rings (size 3 to 8) (size 9 to 14) (size 15 to 20)
#    0.000    1.333    2.667    2.400    5.600    1.600 
#    0.000    0.667    8.800    0.000    0.000    0.000 
#    0.000    0.000    0.000    0.000    0.000    0.000 
#
# Total GULP energy -167203.156630 kJ/mol
# GULP energy per Si atom -5573.438554 kJ/mol
# Density = 2.256059 g / cm^3
# Si number density = 22.612053 Si / 1000 Ang^3
#
#
#
# Elastic Constant Matrix: (Units=GPa)
#
#
# Indices 1 2 3 4 5 6 
#
# 1 -1.8221 -439.4529 422.4019 0.0000 -154.1391 0.0000
# 2 -439.4529-1994.1131 2018.7164 0.0000 -694.5737 0.0000
# 3 422.4019 2018.7164-1987.5076 0.0000 704.7063 0.0000
# 4 0.0000 0.0000 0.0000 10.6857 0.0000 0.0422
# 5 -154.1391 -694.5737 704.7063 0.0000 -217.7128 0.0000
# 6 0.0000 0.0000 0.0000 0.0422 0.0000 16.3924
#
#
#
# Elastic Compliance Matrix: (Units=1/GPa)
#
#
# Indices 1 2 3 4 5 6 
#
# 1 0.011626 0.002070 0.004650 0.000000 0.000215 0.000000
# 2 0.002070 0.023995 0.019302 0.000000 -0.015538 0.000000
# 3 0.004650 0.019302 0.019712 0.000000 -0.001066 0.000000
# 4 0.000000 0.000000 0.000000 0.093584 0.000000 -0.000241
# 5 0.000215 -0.015538 -0.001066 0.000000 0.041374 0.000000
# 6 0.000000 0.000000 0.000000 -0.000241 0.000000 0.061005
#
#
# Mechanical properties :
#
#
# Convention : Reuss Voigt Hill
#
# Bulk Modulus (GPa) = 9.31293 2.20979 5.76136
# Shear Modulus (GPa) = 21.27276 -437.13414 -207.93069
#
# Velocity S-wave (km/s) = 3.07053 -13.91901 -9.59976
# Velocity P-wave (km/s) = 4.08636 16.04179 10.96906
#
# Compressibility (1/GPa) = 0.10737759
#
# Stress axis : x y z
#
# Youngs Moduli (GPa) = 86.01429 41.67619 50.73004
#
# Poissons Ratio (x) = -0.08629 -0.23589
# Poissons Ratio (y) = -0.17809 -0.97920
# Poissons Ratio (z) = -0.39996 -0.80444
#
# Static dielectric constant tensor:
#      x y z
#    x 1.887470 0.000000 -0.024380 
#    y 0.000000 1.833570 0.000000 
#    z -0.024380 0.000000 1.830420 
# 
# From -- ./inp_files/70251.got.cif
#   From: 2010.05.17/outbox.cif.g08.bks.cpg/sg14_36_cif.got.tgz:70251.got - 2010.06.03 17:49:19.
