data_PCOD9244897
_publ_section_title
;
Structure prediction by ZEFSAII (Michael W. Deem and Ramdas Pophale) SiO2 
 PCOD9244897
Probable space group: P 21/C
;
_chemical_formula_sum "Si O2"
_cell_formula_units_Z 20
_cell_length_a 11.443054
_cell_length_b 9.193227
_cell_length_c 13.825838
_cell_angle_alpha 90.000000
_cell_angle_beta 132.419459
_cell_angle_gamma 90.000000
_cell_volume 1073.719652
_symmetry_space_group_name_H-M "P 21/C"
_symmetry_group_IT_number 14
_symmetry_cell_setting 'monoclinic'
loop_
_space_group_symop_operation_xyz
x,y,z
-x,1/2+y,1/2-z
-x,-y,-z
x,1/2-y,1/2+z
loop_
_atom_site_type_symbol
_atom_site_label
_atom_site_fract_x
_atom_site_fract_y
_atom_site_fract_z
Si Si1 0.718227 0.617966 0.885895
Si Si2 0.999732 0.776234 0.936083
Si Si3 0.510282 0.885583 0.733789
Si Si4 0.206042 0.938739 0.202445
Si Si5 0.754740 0.116529 0.555220
O O1 0.865665 0.670948 0.905325
O O2 0.602732 0.755422 0.835587
O O3 0.617201 0.485720 0.781711
O O4 0.767115 0.545648 0.015125
O O5 0.097876 0.704905 0.904811
O O6 0.915799 0.925859 0.857681
O O7 0.122314 0.818247 0.089611
O O8 0.406747 0.826269 0.585377
O O9 0.641598 0.995651 0.765991
O O10 0.249686 0.885250 0.332954
#
# Coordination Sequence:
#
# PCOD9244897 Si02
#       5
#     4   4   4   4   4
#     4   9  20  35  59  82 114 150 186 232 282 325
#     4  10  21  38  57  86 116 144 187 238 280 329
#     4   9  19  36  56  82 112 152 187 229 278 329
#     4  10  21  37  59  83 116 149 184 233 287 333
#     4  10  21  34  61  82 109 153 188 226 279 341
#
# _framework density 18.626836000000001
#
# number of rings (size 3 to 8) (size 9 to 14) (size 15 to 20)
#    1.200    1.200    0.000    2.400    2.800    0.000 
#    0.000    0.000    0.000    3.600    0.000    0.000 
#    0.000    0.000    0.000    0.000    0.000    0.000 
#
# Total GULP energy -111379.366083 kJ/mol
# GULP energy per Si atom -5568.968304 kJ/mol
# Density = 1.858444 g / cm^3
# Si number density = 18.626836 Si / 1000 Ang^3
#
#
#
# Elastic Constant Matrix: (Units=GPa)
#
#
# Indices 1 2 3 4 5 6 
#
# 1 26.9975 28.2336 13.5844 0.0000 13.3875 0.0000
# 2 28.2336 52.2479 8.0388 0.0000 2.4274 0.0000
# 3 13.5844 8.0388 36.5170 0.0000 4.6222 0.0000
# 4 0.0000 0.0000 0.0000 28.6903 0.0000 23.2258
# 5 13.3875 2.4274 4.6222 0.0000 26.0602 0.0000
# 6 0.0000 0.0000 0.0000 23.2258 0.0000 75.6403
#
#
#
# Elastic Compliance Matrix: (Units=1/GPa)
#
#
# Indices 1 2 3 4 5 6 
#
# 1 0.217611 -0.106203 -0.045700 0.000000 -0.093792 0.000000
# 2 -0.106203 0.071673 0.018075 0.000000 0.044676 0.000000
# 3 -0.045700 0.018075 0.038512 0.000000 0.014962 0.000000
# 4 0.000000 0.000000 0.000000 0.046385 0.000000 -0.014243
# 5 -0.093792 0.044676 0.014962 0.000000 0.079740 0.000000
# 6 0.000000 0.000000 0.000000 -0.014243 0.000000 0.017594
#
#
# Mechanical properties :
#
#
# Convention : Reuss Voigt Hill
#
# Bulk Modulus (GPa) = 16.62826 23.94178 20.28502
# Shear Modulus (GPa) = 6.58573 30.47188 18.52881
#
# Velocity S-wave (km/s) = 1.88236 4.04903 3.15737
# Velocity P-wave (km/s) = 3.69741 5.89413 4.91994
#
# Compressibility (1/GPa) = 0.06013860
#
# Stress axis : x y z
#
# Youngs Moduli (GPa) = 4.59536 13.95230 25.96585
#
# Poissons Ratio (x) = 1.48178 1.18664
# Poissons Ratio (y) = 0.48804 -0.46933
# Poissons Ratio (z) = 0.21001 -0.25218
#
# Static dielectric constant tensor:
#      x y z
#    x 1.618360 0.000000 0.043790 
#    y 0.000000 1.665820 0.000000 
#    z 0.043790 0.000000 1.638860 
# 
# From -- ./inp_files/28250.got.cif
#   From: 2010.05.17/outbox.cif.g08.bks.cpg/sg14_15_cif.got.tgz:28250.got - 2010.06.03 17:49:19.
