data_PCOD9244239
_publ_section_title
;
Structure prediction by ZEFSAII (Michael W. Deem and Ramdas Pophale) SiO2 
 PCOD9244239
Probable space group: P 21/C
;
_chemical_formula_sum "Si O2"
_cell_formula_units_Z 28
_cell_length_a 18.774343
_cell_length_b 8.855167
_cell_length_c 13.523979
_cell_angle_alpha 90.000000
_cell_angle_beta 150.458120
_cell_angle_gamma 90.000000
_cell_volume 1108.575865
_symmetry_space_group_name_H-M "P 21/C"
_symmetry_group_IT_number 14
_symmetry_cell_setting 'monoclinic'
loop_
_space_group_symop_operation_xyz
x,y,z
-x,1/2+y,1/2-z
-x,-y,-z
x,1/2-y,1/2+z
loop_
_atom_site_type_symbol
_atom_site_label
_atom_site_fract_x
_atom_site_fract_y
_atom_site_fract_z
Si Si1 0.088236 0.628946 0.058330
Si Si2 0.900828 0.879841 0.722884
Si Si3 0.589236 0.840260 0.588637
Si Si4 0.570287 0.259472 0.777091
Si Si5 0.322365 0.450157 0.208047
Si Si6 0.750955 0.355730 0.161312
Si Si7 0.787431 0.049179 0.925430
O O1 0.216909 0.543053 0.154154
O O2 0.140533 0.719445 0.219445
O O3 0.000000 0.500000 0.000000
O O4 0.973515 0.731770 0.857808
O O5 0.779376 0.865603 0.494239
O O6 0.829374 0.995415 0.715788
O O7 0.044241 0.956478 0.849368
O O8 0.569816 0.809947 0.447327
O O9 0.572407 0.673178 0.614888
O O10 0.735628 0.891006 0.818432
O O11 0.500000 0.000000 0.500000
O O12 0.597947 0.419543 0.757700
O O13 0.691411 0.135357 0.890641
O O14 0.602083 0.307890 0.928516
O O15 0.755981 0.353087 0.286749
#
# Coordination Sequence:
#
# PCOD9244239 Si02
#       7
#     4   4   4   4   4   4   4
#     4  11  24  36  61 100 131 160 211 266 322 397
#     4  10  23  39  65  94 129 166 205 263 341 390
#     4  10  24  40  64  89 124 174 217 264 307 385
#     4  10  21  43  62  88 121 170 218 260 311 371
#     4  11  23  39  67  92 127 169 211 269 322 382
#     4  10  22  41  62  90 132 165 203 267 323 389
#     4  10  20  40  64  91 126 163 208 258 330 377
#
# _framework density 25.257631
#
# number of rings (size 3 to 8) (size 9 to 14) (size 15 to 20)
#    0.000    1.714    2.857    2.143    8.000    1.143 
#    2.571    2.857    0.000    0.000    0.000    0.000 
#    0.000    0.000    0.000    0.000    0.000    0.000 
#
# Total GULP energy -155871.355351 kJ/mol
# GULP energy per Si atom -5566.834120 kJ/mol
# Density = 2.520014 g / cm^3
# Si number density = 25.257631 Si / 1000 Ang^3
#
#
#
# Elastic Constant Matrix: (Units=GPa)
#
#
# Indices 1 2 3 4 5 6 
#
# 1 52.1142 34.8175 17.5727 0.0000 -8.7968 0.0000
# 2 34.8175 129.6464 51.7415 0.0000 -2.5037 0.0000
# 3 17.5727 51.7415 128.2897 0.0000 -25.9784 0.0000
# 4 0.0000 0.0000 0.0000 45.1442 0.0000 -9.3664
# 5 -8.7968 -2.5037 -25.9784 0.0000 25.9630 0.0000
# 6 0.0000 0.0000 0.0000 -9.3664 0.0000 21.2115
#
#
#
# Elastic Compliance Matrix: (Units=1/GPa)
#
#
# Indices 1 2 3 4 5 6 
#
# 1 0.024994 -0.007034 0.001242 0.000000 0.009033 0.000000
# 2 -0.007034 0.011440 -0.004903 0.000000 -0.006186 0.000000
# 3 0.001242 -0.004903 0.012029 0.000000 0.011984 0.000000
# 4 0.000000 0.000000 0.000000 0.024385 0.000000 0.010768
# 5 0.009033 -0.006186 0.011984 0.000000 0.052972 0.000000
# 6 0.000000 0.000000 0.000000 0.010768 0.000000 0.051899
#
#
# Mechanical properties :
#
#
# Convention : Reuss Voigt Hill
#
# Bulk Modulus (GPa) = 36.93598 57.59041 47.26319
# Shear Modulus (GPa) = 24.02333 32.19166 28.10749
#
# Velocity S-wave (km/s) = 3.08739 3.57393 3.33953
# Velocity P-wave (km/s) = 5.23113 6.31517 5.79854
#
# Compressibility (1/GPa) = 0.02707387
#
# Stress axis : x y z
#
# Youngs Moduli (GPa) = 40.01007 87.41622 83.13328
#
# Poissons Ratio (x) = 0.61486 -0.10329
# Poissons Ratio (y) = 0.28142 0.40760
# Poissons Ratio (z) = -0.04971 0.42860
#
# Static dielectric constant tensor:
#      x y z
#    x 2.257220 0.000000 0.173530 
#    y 0.000000 1.353250 0.000000 
#    z 0.173530 0.000000 1.953460 
# 
# From -- ./inp_files/50278.got.cif
#   From: 2010.05.17/outbox.cif.g08.bks.cpg/sg14_26_cif.got.tgz:50278.got - 2010.06.03 17:49:19.
