data_PCOD9244345
_publ_section_title
;
Structure prediction by ZEFSAII (Michael W. Deem and Ramdas Pophale) SiO2 
 PCOD9244345
Probable space group: P 21/C
;
_chemical_formula_sum "Si O2"
_cell_formula_units_Z 20
_cell_length_a 6.890360
_cell_length_b 16.100979
_cell_length_c 7.530762
_cell_angle_alpha 90.000000
_cell_angle_beta 122.875784
_cell_angle_gamma 90.000000
_cell_volume 701.672596
_symmetry_space_group_name_H-M "P 21/C"
_symmetry_group_IT_number 14
_symmetry_cell_setting 'monoclinic'
loop_
_space_group_symop_operation_xyz
x,y,z
-x,1/2+y,1/2-z
-x,-y,-z
x,1/2-y,1/2+z
loop_
_atom_site_type_symbol
_atom_site_label
_atom_site_fract_x
_atom_site_fract_y
_atom_site_fract_z
Si Si1 0.978887 0.360278 0.001773
Si Si2 0.103407 0.448460 0.384134
Si Si3 0.723294 0.116775 0.062977
Si Si4 0.216610 0.186950 0.170406
Si Si5 0.423138 0.085269 0.563347
O O1 0.756259 0.339048 0.772558
O O2 0.154954 0.424037 0.991355
O O3 0.929814 0.400131 0.168430
O O4 0.149474 0.281114 0.104340
O O5 0.266447 0.373216 0.529170
O O6 0.251583 0.520325 0.368612
O O7 0.559663 0.388527 0.309157
O O8 0.961760 0.153911 0.099916
O O9 0.000000 0.000000 0.000000
O O10 0.399099 0.161248 0.410537
O O11 0.500000 0.000000 0.500000
#
# Coordination Sequence:
#
# PCOD9244345 Si02
#       5
#     4   4   4   4   4
#     4  11  24  41  68 105 140 183 236 293 353 414
#     4  10  20  40  67  97 137 182 229 285 340 421
#     4  10  22  41  68  95 136 185 234 279 351 422
#     4  10  22  43  68  97 142 181 231 297 353 414
#     4  11  23  43  71 101 141 186 234 291 354 424
#
# _framework density 28.503322000000001
#
# number of rings (size 3 to 8) (size 9 to 14) (size 15 to 20)
#    0.000    1.600    2.000    3.000    2.800    2.400 
#    0.000    0.000    0.000    0.000    0.000    0.000 
#    0.000    0.000    0.000    0.000    0.000    0.000 
#
# Total GULP energy -111566.863744 kJ/mol
# GULP energy per Si atom -5578.343187 kJ/mol
# Density = 2.843845 g / cm^3
# Si number density = 28.503322 Si / 1000 Ang^3
#
#
#
# Elastic Constant Matrix: (Units=GPa)
#
#
# Indices 1 2 3 4 5 6 
#
# 1 86.9746 23.0384 32.0119 0.0000 33.1764 0.0000
# 2 23.0384 181.2064 84.6283 0.0000 13.5876 0.0000
# 3 32.0119 84.6283 276.8107 0.0000 64.0693 0.0000
# 4 0.0000 0.0000 0.0000 45.7240 0.0000 10.2180
# 5 33.1764 13.5876 64.0693 0.0000 63.6477 0.0000
# 6 0.0000 0.0000 0.0000 10.2180 0.0000 29.8288
#
#
#
# Elastic Compliance Matrix: (Units=1/GPa)
#
#
# Indices 1 2 3 4 5 6 
#
# 1 0.014721 -0.001563 0.000618 0.000000 -0.007962 0.000000
# 2 -0.001563 0.006635 -0.002227 0.000000 0.001641 0.000000
# 3 0.000618 -0.002227 0.005458 0.000000 -0.005341 0.000000
# 4 0.000000 0.000000 0.000000 0.023683 0.000000 -0.008113
# 5 -0.007962 0.001641 -0.005341 0.000000 0.024888 0.000000
# 6 0.000000 0.000000 0.000000 -0.008113 0.000000 0.036304
#
#
# Mechanical properties :
#
#
# Convention : Reuss Voigt Hill
#
# Bulk Modulus (GPa) = 48.85301 91.59433 70.22367
# Shear Modulus (GPa) = 40.04576 54.86096 47.45336
#
# Velocity S-wave (km/s) = 3.75233 4.39192 4.08467
# Velocity P-wave (km/s) = 5.99583 7.61072 6.85102
#
# Compressibility (1/GPa) = 0.02046957
#
# Stress axis : x y z
#
# Youngs Moduli (GPa) = 67.92864 150.72681 183.20838
#
# Poissons Ratio (x) = 0.23565 -0.11330
# Poissons Ratio (y) = 0.10620 0.40805
# Poissons Ratio (z) = -0.04201 0.33571
#
# Static dielectric constant tensor:
#      x y z
#    x 2.441000 0.000000 -0.169170 
#    y 0.000000 2.324810 0.000000 
#    z -0.169170 0.000000 2.461110 
# 
# From -- ./inp_files/12572.got.cif
#   From: 2010.05.17/outbox.cif.g08.bks.cpg/sg14_7_cif.got.tgz:12572.got - 2010.06.03 17:49:19.
