data_PCOD9244864
_publ_section_title
;
Structure prediction by ZEFSAII (Michael W. Deem and Ramdas Pophale) SiO2 
 PCOD9244864
Probable space group: P 21/C
;
_chemical_formula_sum "Si O2"
_cell_formula_units_Z 28
_cell_length_a 20.442116
_cell_length_b 5.288487
_cell_length_c 23.418725
_cell_angle_alpha 90.000000
_cell_angle_beta 151.606933
_cell_angle_gamma 90.000000
_cell_volume 1203.891319
_symmetry_space_group_name_H-M "P 21/C"
_symmetry_group_IT_number 14
_symmetry_cell_setting 'monoclinic'
loop_
_space_group_symop_operation_xyz
x,y,z
-x,1/2+y,1/2-z
-x,-y,-z
x,1/2-y,1/2+z
loop_
_atom_site_type_symbol
_atom_site_label
_atom_site_fract_x
_atom_site_fract_y
_atom_site_fract_z
Si Si1 0.836647 0.724523 0.153600
Si Si2 0.015637 0.723050 0.187194
Si Si3 0.205235 0.696474 0.243678
Si Si4 0.297744 0.190744 0.253067
Si Si5 0.656855 0.284022 0.409231
Si Si6 0.626140 0.360433 0.013906
Si Si7 0.675058 0.783418 0.356377
O O1 0.919247 0.492545 0.245800
O O2 0.880694 0.708380 0.121802
O O3 0.896893 0.980743 0.224306
O O4 0.679302 0.651125 0.046186
O O5 0.046887 0.707232 0.144194
O O6 0.242015 0.422790 0.247764
O O7 0.306536 0.757669 0.375973
O O8 0.233252 0.923571 0.221566
O O9 0.462743 0.164928 0.389435
O O10 0.273222 0.255575 0.168153
O O11 0.680014 0.264095 0.495302
O O12 0.709973 0.534513 0.419427
O O13 0.491570 0.283773 0.276292
O O14 0.710695 0.045099 0.414768
#
# Coordination Sequence:
#
# PCOD9244864 Si02
#       7
#     4   4   4   4   4   4   4
#     4   9  18  32  50  70  97 129 165 209 243 286
#     4   9  18  33  49  68  97 134 170 197 236 293
#     4  11  21  33  49  75 107 138 161 194 246 312
#     4  11  22  33  50  73 107 140 164 195 242 308
#     4   9  18  31  50  68  94 126 166 213 242 278
#     4  10  21  33  51  79 106 129 161 207 261 297
#     4   9  18  33  47  67  93 132 173 199 235 284
#
# _framework density 23.257915000000001
#
# number of rings (size 3 to 8) (size 9 to 14) (size 15 to 20)
#    0.000    2.286    0.000    3.429    0.000    9.143 
#    0.000    0.000    0.000    0.000    0.000    6.000 
#    0.000    0.000    0.000    0.000    0.000    0.000 
#
# Total GULP energy -156375.124036 kJ/mol
# GULP energy per Si atom -5584.825858 kJ/mol
# Density = 2.320498 g / cm^3
# Si number density = 23.257915 Si / 1000 Ang^3
#
#
#
# Elastic Constant Matrix: (Units=GPa)
#
#
# Indices 1 2 3 4 5 6 
#
# 1 92.5041 5.4947 -8.3832 0.0000 -7.2325 0.0000
# 2 5.4947 125.6093 18.2867 0.0000 -11.9878 0.0000
# 3 -8.3832 18.2867 34.0596 0.0000 -24.3509 0.0000
# 4 0.0000 0.0000 0.0000 10.6788 0.0000 -3.2845
# 5 -7.2325 -11.9878 -24.3509 0.0000 22.8962 0.0000
# 6 0.0000 0.0000 0.0000 -3.2845 0.0000 38.7003
#
#
#
# Elastic Compliance Matrix: (Units=1/GPa)
#
#
# Indices 1 2 3 4 5 6 
#
# 1 0.017488 -0.001909 0.035740 0.000000 0.042536 0.000000
# 2 -0.001909 0.008861 -0.009771 0.000000 -0.006356 0.000000
# 3 0.035740 -0.009771 0.199548 0.000000 0.218400 0.000000
# 4 0.000000 0.000000 0.000000 0.096153 0.000000 0.008160
# 5 0.042536 -0.006356 0.218400 0.000000 0.286059 0.000000
# 6 0.000000 0.000000 0.000000 0.008160 0.000000 0.026532
#
#
# Mechanical properties :
#
#
# Convention : Reuss Voigt Hill
#
# Bulk Modulus (GPa) = 3.64939 31.44103 17.54521
# Shear Modulus (GPa) = 7.37615 30.24006 18.80811
#
# Velocity S-wave (km/s) = 1.78279 3.60975 2.84681
# Velocity P-wave (km/s) = 2.41046 5.56071 4.28554
#
# Compressibility (1/GPa) = 0.27401839
#
# Stress axis : x y z
#
# Youngs Moduli (GPa) = 57.18068 112.85870 5.01132
#
# Poissons Ratio (x) = 0.21542 -0.17911
# Poissons Ratio (y) = 0.10914 0.04897
# Poissons Ratio (z) = -2.04366 1.10275
#
# Static dielectric constant tensor:
#      x y z
#    x 1.902450 0.000000 0.016070 
#    y 0.000000 1.843900 0.000000 
#    z 0.016070 0.000000 1.907500 
# 
# From -- ./inp_files/68975.got.cif
#   From: 2010.05.17/outbox.cif.g08.bks.cpg/sg14_35_cif.got.tgz:68975.got - 2010.06.03 17:49:19.
