data_PCOD9244902
_publ_section_title
;
Structure prediction by ZEFSAII (Michael W. Deem and Ramdas Pophale) SiO2 
 PCOD9244902
Probable space group: P 21/C
;
_chemical_formula_sum "Si O2"
_cell_formula_units_Z 32
_cell_length_a 7.006259
_cell_length_b 12.913537
_cell_length_c 19.472374
_cell_angle_alpha 90.000000
_cell_angle_beta 40.690388
_cell_angle_gamma 90.000000
_cell_volume 1148.626203
_symmetry_space_group_name_H-M "P 21/C"
_symmetry_group_IT_number 14
_symmetry_cell_setting 'monoclinic'
loop_
_space_group_symop_operation_xyz
x,y,z
-x,1/2+y,1/2-z
-x,-y,-z
x,1/2-y,1/2+z
loop_
_atom_site_type_symbol
_atom_site_label
_atom_site_fract_x
_atom_site_fract_y
_atom_site_fract_z
Si Si1 0.475607 0.387315 0.424637
Si Si2 0.729220 0.843134 0.526552
Si Si3 0.694762 0.110214 0.245795
Si Si4 0.270780 0.843134 0.473447
Si Si5 0.136171 0.342496 0.801586
Si Si6 0.524393 0.112685 0.075363
Si Si7 0.305238 0.110214 0.754205
Si Si8 0.863829 0.157504 0.698415
O O1 0.308369 0.281183 0.453705
O O2 0.352467 0.500000 0.437938
O O3 0.499999 0.386683 0.500000
O O4 0.777950 0.375953 0.298447
O O5 0.445206 0.887988 0.640203
O O6 0.000000 0.875675 0.500000
O O7 0.836833 0.872125 0.421308
O O8 0.416605 0.119508 0.269603
O O9 0.860650 0.217858 0.192515
O O10 0.843507 0.000000 0.191888
O O11 0.308369 0.718817 0.453704
O O12 0.554794 0.887987 0.359797
O O13 0.163167 0.872125 0.578692
O O14 0.222050 0.375953 0.701553
O O15 0.139350 0.217858 0.807486
O O16 0.583394 0.119508 0.730397
#
# Coordination Sequence:
#
# PCOD9244902 Si02
#       8
#     4   4   4   4   4   4   4   4
#     4  10  21  35  50  71 100 132 164 198 239 289
#     4   9  19  33  51  76  98 123 162 203 244 287
#     4   9  17  30  49  75 102 125 157 202 247 288
#     4   9  19  33  51  76  98 123 162 203 244 287
#     4   9  18  31  49  72  99 130 160 198 244 285
#     4  10  21  35  50  71 100 132 164 198 239 289
#     4   9  17  30  49  75 102 125 157 202 247 288
#     4   9  18  31  49  72  99 130 160 198 244 285
#
# _framework density 27.859366999999999
#
# number of rings (size 3 to 8) (size 9 to 14) (size 15 to 20)
#    0.000    2.750    0.000    2.250    0.000    8.000 
#    0.000    0.000    0.000   12.000    0.000    0.000 
#    0.000    0.000    0.000    0.000    0.000    0.000 
#
# Total GULP energy -179157.633551 kJ/mol
# GULP energy per Si atom -5598.676048 kJ/mol
# Density = 2.779596 g / cm^3
# Si number density = 27.859367 Si / 1000 Ang^3
#
#
#
# Elastic Constant Matrix: (Units=GPa)
#
#
# Indices 1 2 3 4 5 6 
#
# 1 72.6123 4.9521 41.5031 0.0000 14.4004 0.0000
# 2 4.9521 224.2443 11.8491 0.0000 5.4849 0.0000
# 3 41.5031 11.8491 243.7451 0.0000 -6.6484 0.0000
# 4 0.0000 0.0000 0.0000 -30.4544 0.0000 3.3827
# 5 14.4004 5.4849 -6.6484 0.0000 43.3657 0.0000
# 6 0.0000 0.0000 0.0000 3.3827 0.0000 12.5953
#
#
#
# Elastic Compliance Matrix: (Units=1/GPa)
#
#
# Indices 1 2 3 4 5 6 
#
# 1 0.016679 -0.000063 -0.003000 0.000000 -0.005991 0.000000
# 2 -0.000063 0.004487 -0.000223 0.000000 -0.000581 0.000000
# 3 -0.003000 -0.000223 0.004672 0.000000 0.001741 0.000000
# 4 0.000000 0.000000 0.000000 -0.031885 0.000000 0.008563
# 5 -0.005991 -0.000581 0.001741 0.000000 0.025389 0.000000
# 6 0.000000 0.000000 0.000000 0.008563 0.000000 0.077095
#
#
# Mechanical properties :
#
#
# Convention : Reuss Voigt Hill
#
# Bulk Modulus (GPa) = 51.90984 73.02338 62.46661
# Shear Modulus (GPa) = 45.69053 37.25449 41.47251
#
# Velocity S-wave (km/s) = 4.05414 3.66079 3.86247
# Velocity P-wave (km/s) = 6.37087 6.64355 6.50864
#
# Compressibility (1/GPa) = 0.01926417
#
# Stress axis : x y z
#
# Youngs Moduli (GPa) = 59.95560 222.87521 214.04818
#
# Poissons Ratio (x) = 0.01410 0.64221
# Poissons Ratio (y) = 0.00379 0.04777
# Poissons Ratio (z) = 0.17988 0.04974
#
# Static dielectric constant tensor:
#      x y z
#    x 2.186630 0.000000 0.026950 
#    y 0.000000 2.125380 0.000000 
#    z 0.026950 0.000000 2.144700 
# 
# From -- ./inp_files/67242.got.cif
#   From: 2010.05.17/outbox.cif.g08.bks.cpg/sg14_34_cif.got.tgz:67242.got - 2010.06.03 17:49:19.
