data_PCOD9244803
_publ_section_title
;
Structure prediction by ZEFSAII (Michael W. Deem and Ramdas Pophale) SiO2 
 PCOD9244803
Probable space group: P 21/C
;
_chemical_formula_sum "Si O2"
_cell_formula_units_Z 30
_cell_length_a 14.250771
_cell_length_b 8.903736
_cell_length_c 16.773847
_cell_angle_alpha 90.000000
_cell_angle_beta 145.951843
_cell_angle_gamma 90.000000
_cell_volume 1191.641568
_symmetry_space_group_name_H-M "P 21/C"
_symmetry_group_IT_number 14
_symmetry_cell_setting 'monoclinic'
loop_
_space_group_symop_operation_xyz
x,y,z
-x,1/2+y,1/2-z
-x,-y,-z
x,1/2-y,1/2+z
loop_
_atom_site_type_symbol
_atom_site_label
_atom_site_fract_x
_atom_site_fract_y
_atom_site_fract_z
Si Si1 0.685037 0.478128 0.822783
Si Si2 0.874929 0.399196 0.675062
Si Si3 0.178051 0.037470 0.272767
Si Si4 0.022378 0.199452 0.922976
Si Si5 0.597307 0.696673 0.311411
Si Si6 0.297968 0.370035 0.334080
Si Si7 0.408873 0.694450 0.022513
Si Si8 0.000000 0.500000 0.000000
O O1 0.542061 0.355350 0.724125
O O2 0.607211 0.623901 0.808974
O O3 0.745928 0.526487 0.775109
O O4 0.869548 0.451610 0.985193
O O5 0.773649 0.537339 0.643061
O O6 0.736928 0.291137 0.537673
O O7 0.026690 0.454476 0.729131
O O8 0.948797 0.289758 0.795263
O O9 0.331024 0.944210 0.419806
O O10 0.103996 0.936256 0.150461
O O11 0.218570 0.205778 0.278222
O O12 0.017399 0.322394 0.987409
O O13 0.212602 0.148098 0.040546
O O14 0.532137 0.641901 0.179126
O O15 0.492450 0.318920 0.462132
#
# Coordination Sequence:
#
# PCOD9244803 Si02
#       8
#     4   4   4   4   4   4   4   2
#     4  10  23  44  69 100 140 186 228 288 349 425
#     4  11  23  45  73 102 141 190 241 285 358 425
#     4  11  25  43  70 107 142 188 238 292 354 422
#     4  10  23  45  70 103 141 189 236 291 356 425
#     4  10  24  45  69 105 142 181 237 286 363 419
#     4  11  22  45  71 104 143 182 240 294 349 425
#     4  10  24  44  67 104 139 185 238 297 349 420
#     4  10  20  44  70  94 140 184 232 286 352 410
#
# _framework density 25.175356000000001
#
# number of rings (size 3 to 8) (size 9 to 14) (size 15 to 20)
#    0.000    1.600    1.333    2.400    7.467    1.067 
#    7.200    3.333    0.000    0.000    0.000    0.000 
#    0.000    0.000    0.000    0.000    0.000    0.000 
#
# Total GULP energy -167396.184275 kJ/mol
# GULP energy per Si atom -5579.872809 kJ/mol
# Density = 2.511806 g / cm^3
# Si number density = 25.175356 Si / 1000 Ang^3
#
#
#
# Elastic Constant Matrix: (Units=GPa)
#
#
# Indices 1 2 3 4 5 6 
#
# 1 84.5967 43.8369 24.9606 0.0000 30.4395 0.0000
# 2 43.8369 88.4643 44.8838 0.0000 24.2592 0.0000
# 3 24.9606 44.8838 113.0939 0.0000 20.0460 0.0000
# 4 0.0000 0.0000 0.0000 20.6237 0.0000 17.9466
# 5 30.4395 24.2592 20.0460 0.0000 41.2763 0.0000
# 6 0.0000 0.0000 0.0000 17.9466 0.0000 45.5224
#
#
#
# Elastic Compliance Matrix: (Units=1/GPa)
#
#
# Indices 1 2 3 4 5 6 
#
# 1 0.018849 -0.006723 0.000297 0.000000 -0.010093 0.000000
# 2 -0.006723 0.018120 -0.005141 0.000000 -0.003195 0.000000
# 3 0.000297 -0.005141 0.011292 0.000000 -0.002682 0.000000
# 4 0.000000 0.000000 0.000000 0.073809 0.000000 -0.029098
# 5 -0.010093 -0.003195 -0.002682 0.000000 0.034850 0.000000
# 6 0.000000 0.000000 0.000000 -0.029098 0.000000 0.033439
#
#
# Mechanical properties :
#
#
# Convention : Reuss Voigt Hill
#
# Bulk Modulus (GPa) = 39.79822 57.05749 48.42786
# Shear Modulus (GPa) = 22.53582 32.98272 27.75927
#
# Velocity S-wave (km/s) = 2.99516 3.62348 3.32420
# Velocity P-wave (km/s) = 5.27295 6.34188 5.83196
#
# Compressibility (1/GPa) = 0.02512675
#
# Stress axis : x y z
#
# Youngs Moduli (GPa) = 53.05437 55.18739 88.55543
#
# Poissons Ratio (x) = 0.37103 -0.02632
# Poissons Ratio (y) = 0.35669 0.45528
# Poissons Ratio (z) = -0.01577 0.28373
#
# Static dielectric constant tensor:
#      x y z
#    x 2.002620 0.000000 -0.003750 
#    y 0.000000 2.000390 0.000000 
#    z -0.003750 0.000000 1.672950 
# 
# From -- ./inp_files/68391.got.cif
#   From: 2010.05.17/outbox.cif.g08.bks.cpg/sg14_35_cif.got.tgz:68391.got - 2010.06.03 17:49:19.
