data_PCOD9244728
_publ_section_title
;
Structure prediction by ZEFSAII (Michael W. Deem and Ramdas Pophale) SiO2 
 PCOD9244728
Probable space group: P 21/C
;
_chemical_formula_sum "Si O2"
_cell_formula_units_Z 32
_cell_length_a 11.338850
_cell_length_b 17.651683
_cell_length_c 13.667674
_cell_angle_alpha 90.000000
_cell_angle_beta 32.670058
_cell_angle_gamma 90.000000
_cell_volume 1476.668502
_symmetry_space_group_name_H-M "P 21/C"
_symmetry_group_IT_number 14
_symmetry_cell_setting 'monoclinic'
loop_
_space_group_symop_operation_xyz
x,y,z
-x,1/2+y,1/2-z
-x,-y,-z
x,1/2-y,1/2+z
loop_
_atom_site_type_symbol
_atom_site_label
_atom_site_fract_x
_atom_site_fract_y
_atom_site_fract_z
Si Si1 0.702235 0.170573 0.459674
Si Si2 0.840237 0.204295 0.012230
Si Si3 0.708831 0.768999 0.791299
Si Si4 0.378216 0.351419 0.838110
Si Si5 0.171165 0.296532 0.570377
Si Si6 0.065813 0.432817 0.313896
Si Si7 0.637223 0.504484 0.044341
Si Si8 0.207080 0.060519 0.929079
O O1 0.740781 0.222998 0.527317
O O2 0.470439 0.201103 0.580510
O O3 0.713583 0.082213 0.478902
O O4 0.910894 0.188692 0.246140
O O5 0.057675 0.237610 0.911091
O O6 0.946462 0.143026 0.862137
O O7 0.627456 0.161924 0.203467
O O8 0.623669 0.832535 0.775968
O O9 0.755882 0.799338 0.867061
O O10 0.239969 0.284783 0.983489
O O11 0.284385 0.433655 0.930567
O O12 0.281803 0.363520 0.430252
O O13 0.294356 0.451921 0.102978
O O14 0.069803 0.419734 0.428126
O O15 0.921973 0.508200 0.404635
O O16 0.392983 0.490389 0.250709
#
# Coordination Sequence:
#
# PCOD9244728 Si02
#       8
#     4   4   4   4   4   4   4   4
#     4  10  22  40  67  94 133 173 222 276 332 397
#     4  10  20  43  64  93 132 172 223 275 320 405
#     4  10  23  43  67  94 132 183 227 270 340 403
#     4  11  24  40  67  99 131 178 225 273 341 402
#     4  11  23  44  66  96 137 179 222 281 331 402
#     4  11  22  38  65  96 129 167 217 277 332 384
#     4  12  22  41  65  98 140 169 219 286 334 391
#     4  11  23  39  64  97 129 168 217 274 336 388
#
# _framework density 21.670400999999998
#
# number of rings (size 3 to 8) (size 9 to 14) (size 15 to 20)
#    0.000    1.250    2.500    4.875    0.000    3.000 
#    0.000    3.125    0.000    0.000    0.000    0.000 
#    0.000    0.000    0.000    0.000    0.000    0.000 
#
# Total GULP energy -178383.884240 kJ/mol
# GULP energy per Si atom -5574.496383 kJ/mol
# Density = 2.162108 g / cm^3
# Si number density = 21.670401 Si / 1000 Ang^3
#
#
#
# Elastic Constant Matrix: (Units=GPa)
#
#
# Indices 1 2 3 4 5 6 
#
# 1 71.5006 38.1928 28.2011 0.0000 -1.8944 0.0000
# 2 38.1928 149.8229 28.0057 0.0000 1.6084 0.0000
# 3 28.2011 28.0057 107.4443 0.0000 -10.2735 0.0000
# 4 0.0000 0.0000 0.0000 40.3931 0.0000 4.1469
# 5 -1.8944 1.6084 -10.2735 0.0000 33.3677 0.0000
# 6 0.0000 0.0000 0.0000 4.1469 0.0000 25.8219
#
#
#
# Elastic Compliance Matrix: (Units=1/GPa)
#
#
# Indices 1 2 3 4 5 6 
#
# 1 0.017414 -0.003771 -0.003582 0.000000 0.000068 0.000000
# 2 -0.003771 0.007861 -0.001150 0.000000 -0.000947 0.000000
# 3 -0.003582 -0.001150 0.010852 0.000000 0.003193 0.000000
# 4 0.000000 0.000000 0.000000 0.025172 0.000000 -0.004043
# 5 0.000068 -0.000947 0.003193 0.000000 0.031002 0.000000
# 6 0.000000 0.000000 0.000000 -0.004043 0.000000 0.039376
#
#
# Mechanical properties :
#
#
# Convention : Reuss Voigt Hill
#
# Bulk Modulus (GPa) = 52.29114 57.50744 54.89929
# Shear Modulus (GPa) = 32.24656 35.54108 33.89382
#
# Velocity S-wave (km/s) = 3.86170 4.05418 3.95911
# Velocity P-wave (km/s) = 6.63824 6.96492 6.80354
#
# Compressibility (1/GPa) = 0.01912370
#
# Stress axis : x y z
#
# Youngs Moduli (GPa) = 57.42381 127.21311 92.14680
#
# Poissons Ratio (x) = 0.47966 0.33003
# Poissons Ratio (y) = 0.21652 0.10595
# Poissons Ratio (z) = 0.20566 0.14627
#
# Static dielectric constant tensor:
#      x y z
#    x 1.860070 0.000000 -0.005950 
#    y 0.000000 1.854560 0.000000 
#    z -0.005950 0.000000 1.862140 
# 
# From -- ./inp_files/45440.got.cif
#   From: 2010.05.17/outbox.cif.g08.bks.cpg/sg14_23_cif.got.tgz:45440.got - 2010.06.03 17:49:19.
