data_PCOD9244075
_publ_section_title
;
Structure prediction by ZEFSAII (Michael W. Deem and Ramdas Pophale) SiO2 
 PCOD9244075
Probable space group: P 21/C
;
_chemical_formula_sum "Si O2"
_cell_formula_units_Z 22
_cell_length_a 12.836272
_cell_length_b 8.932649
_cell_length_c 9.260082
_cell_angle_alpha 90.000000
_cell_angle_beta 133.740349
_cell_angle_gamma 90.000000
_cell_volume 767.114340
_symmetry_space_group_name_H-M "P 21/C"
_symmetry_group_IT_number 14
_symmetry_cell_setting 'monoclinic'
loop_
_space_group_symop_operation_xyz
x,y,z
-x,1/2+y,1/2-z
-x,-y,-z
x,1/2-y,1/2+z
loop_
_atom_site_type_symbol
_atom_site_label
_atom_site_fract_x
_atom_site_fract_y
_atom_site_fract_z
Si Si1 0.224045 0.990911 0.647241
Si Si2 0.527350 0.678995 0.745251
Si Si3 0.797100 0.625202 0.589430
Si Si4 0.500000 0.000000 0.500000
Si Si5 0.041164 0.229110 0.005240
Si Si6 0.738742 0.357296 0.113428
O O1 0.377243 0.069459 0.760870
O O2 0.095928 0.110137 0.494061
O O3 0.215460 0.873149 0.509823
O O4 0.779551 0.014018 0.181701
O O5 0.452963 0.593952 0.805591
O O6 0.415521 0.770365 0.538545
O O7 0.642165 0.802388 0.910093
O O8 0.884240 0.606885 0.525881
O O9 0.892300 0.744781 0.773911
O O10 0.330456 0.010670 0.393160
O O11 0.872568 0.200793 0.831163
#
# Coordination Sequence:
#
# PCOD9244075 Si02
#       6
#     4   4   4   2   4   4
#     4   8  20  40  57  92 127 165 224 272 337 404
#     4  10  20  39  66  90 131 175 222 280 335 400
#     4   9  19  41  61  86 131 173 214 283 333 401
#     4  10  24  40  62 102 136 164 242 270 334 418
#     4   9  21  39  62  90 128 169 216 280 336 399
#     4  11  22  40  66  97 130 180 224 284 336 405
#
# _framework density 28.678906000000001
#
# number of rings (size 3 to 8) (size 9 to 14) (size 15 to 20)
#    1.091    1.455    0.000    1.091    2.545    1.455 
#    3.273    2.727    0.000    0.000    0.000    0.000 
#    0.000    0.000    0.000    0.000    0.000    0.000 
#
# Total GULP energy -122637.696458 kJ/mol
# GULP energy per Si atom -5574.440748 kJ/mol
# Density = 2.861363 g / cm^3
# Si number density = 28.678906 Si / 1000 Ang^3
#
#
#
# Elastic Constant Matrix: (Units=GPa)
#
#
# Indices 1 2 3 4 5 6 
#
# 1 114.8355 -0.0803 56.9270 0.0000 -7.4008 0.0000
# 2 -0.0803 21.5529 47.4828 0.0000 4.6712 0.0000
# 3 56.9270 47.4828 211.6061 0.0000 17.0981 0.0000
# 4 0.0000 0.0000 0.0000 54.8542 0.0000 1.4411
# 5 -7.4008 4.6712 17.0981 0.0000 48.0439 0.0000
# 6 0.0000 0.0000 0.0000 1.4411 0.0000 35.7941
#
#
#
# Elastic Compliance Matrix: (Units=1/GPa)
#
#
# Indices 1 2 3 4 5 6 
#
# 1 0.012232 0.014206 -0.006712 0.000000 0.002892 0.000000
# 2 0.014206 0.108383 -0.028281 0.000000 0.001715 0.000000
# 3 -0.006712 -0.028281 0.013116 0.000000 -0.002952 0.000000
# 4 0.000000 0.000000 0.000000 0.018249 0.000000 -0.000735
# 5 0.002892 0.001715 -0.002952 0.000000 0.022144 0.000000
# 6 0.000000 0.000000 0.000000 -0.000735 0.000000 0.027967
#
#
# Mechanical properties :
#
#
# Convention : Reuss Voigt Hill
#
# Bulk Modulus (GPa) = 10.85103 61.85040 36.35071
# Shear Modulus (GPa) = 18.22268 43.98277 31.10272
#
# Velocity S-wave (km/s) = 2.52346 3.92040 3.29677
# Velocity P-wave (km/s) = 3.50461 6.48892 5.21480
#
# Compressibility (1/GPa) = 0.09215719
#
# Stress axis : x y z
#
# Youngs Moduli (GPa) = 81.75485 9.22653 76.24329
#
# Poissons Ratio (x) = -0.13107 0.51174
# Poissons Ratio (y) = -1.16139 2.15621
# Poissons Ratio (z) = 0.54873 0.26093
#
# Static dielectric constant tensor:
#      x y z
#    x 1.734400 0.000000 0.096300 
#    y 0.000000 -0.713600 0.000000 
#    z 0.096300 0.000000 2.167370 
# 
# From -- ./inp_files/32434.got.cif
#   From: 2010.05.17/outbox.cif.g08.bks.cpg/sg14_17_cif.got.tgz:32434.got - 2010.06.03 17:49:19.
