data_PCOD9244321
_publ_section_title
;
Structure prediction by ZEFSAII (Michael W. Deem and Ramdas Pophale) SiO2 
 PCOD9244321
Probable space group: P 21/C
;
_chemical_formula_sum "Si O2"
_cell_formula_units_Z 30
_cell_length_a 14.441548
_cell_length_b 14.360158
_cell_length_c 20.279134
_cell_angle_alpha 90.000000
_cell_angle_beta 19.805599
_cell_angle_gamma 90.000000
_cell_volume 1424.964519
_symmetry_space_group_name_H-M "P 21/C"
_symmetry_group_IT_number 14
_symmetry_cell_setting 'monoclinic'
loop_
_space_group_symop_operation_xyz
x,y,z
-x,1/2+y,1/2-z
-x,-y,-z
x,1/2-y,1/2+z
loop_
_atom_site_type_symbol
_atom_site_label
_atom_site_fract_x
_atom_site_fract_y
_atom_site_fract_z
Si Si1 0.302227 0.773458 0.043587
Si Si2 0.352262 0.863387 0.867828
Si Si3 0.207092 0.960109 0.176403
Si Si4 0.745902 0.630463 0.722629
Si Si5 0.500000 0.000000 0.500000
Si Si6 0.564939 0.668832 0.695693
Si Si7 0.019906 0.396936 0.692058
Si Si8 0.178597 0.986569 0.445330
O O1 0.241410 0.851024 0.138730
O O2 0.085084 0.690005 0.194366
O O3 0.282805 0.826441 0.987386
O O4 0.600920 0.725399 0.847209
O O5 0.527450 0.779450 0.719318
O O6 0.543014 0.953485 0.744186
O O7 0.066523 0.876854 0.022336
O O8 0.107412 0.016835 0.179084
O O9 0.994016 0.980192 0.376787
O O10 0.500000 0.000000 0.000000
O O11 0.688696 0.635807 0.682900
O O12 0.592247 0.549621 0.866243
O O13 0.765708 0.067780 0.319530
O O14 0.269052 0.620285 0.890754
O O15 0.741459 0.635494 0.515925
O O16 0.000000 0.000000 0.500000
#
# Coordination Sequence:
#
# PCOD9244321 Si02
#       8
#     4   4   4   4   2   4   4   4
#     4  10  23  42  66  98 135 176 222 279 339 409
#     4  11  24  43  69  99 134 180 220 281 340 404
#     4  12  25  43  69  98 134 177 228 278 338 408
#     4  10  23  41  69  97 136 175 227 281 345 399
#     4  10  20  40  66  94 128 172 220 276 334 396
#     4  11  25  43  67  99 141 175 227 283 338 411
#     4  11  24  45  65 100 134 178 225 278 339 408
#     4  12  26  44  70  99 137 180 226 279 344 405
#
# _framework density 21.053156000000001
#
# number of rings (size 3 to 8) (size 9 to 14) (size 15 to 20)
#    0.000    1.067    0.000    7.200    7.467    3.200 
#    2.400    0.000    0.000    0.000    0.000    0.000 
#    0.000    0.000    0.000    0.000    0.000    0.000 
#
# Total GULP energy -167265.025547 kJ/mol
# GULP energy per Si atom -5575.500852 kJ/mol
# Density = 2.100524 g / cm^3
# Si number density = 21.053156 Si / 1000 Ang^3
#
#
#
# Elastic Constant Matrix: (Units=GPa)
#
#
# Indices 1 2 3 4 5 6 
#
# 1 36.6447 4.5632 28.2109 0.0000 5.7402 0.0000
# 2 4.5632 74.9372 10.1711 0.0000 3.1070 0.0000
# 3 28.2109 10.1711 98.7769 0.0000 10.9173 0.0000
# 4 0.0000 0.0000 0.0000 34.9305 0.0000 2.0958
# 5 5.7402 3.1070 10.9173 0.0000 39.2600 0.0000
# 6 0.0000 0.0000 0.0000 2.0958 0.0000 28.7992
#
#
#
# Elastic Compliance Matrix: (Units=1/GPa)
#
#
# Indices 1 2 3 4 5 6 
#
# 1 0.035242 -0.000727 -0.009726 0.000000 -0.002391 0.000000
# 2 -0.000727 0.013568 -0.001117 0.000000 -0.000657 0.000000
# 3 -0.009726 -0.001117 0.013257 0.000000 -0.002176 0.000000
# 4 0.000000 0.000000 0.000000 0.028754 0.000000 -0.002092
# 5 -0.002391 -0.000657 -0.002176 0.000000 0.026478 0.000000
# 6 0.000000 0.000000 0.000000 -0.002092 0.000000 0.034875
#
#
# Mechanical properties :
#
#
# Convention : Reuss Voigt Hill
#
# Bulk Modulus (GPa) = 25.68913 32.91656 29.30285
# Shear Modulus (GPa) = 26.55498 31.75885 29.15692
#
# Velocity S-wave (km/s) = 3.55537 3.88817 3.72549
# Velocity P-wave (km/s) = 5.39284 5.98548 5.69688
#
# Compressibility (1/GPa) = 0.03892697
#
# Stress axis : x y z
#
# Youngs Moduli (GPa) = 28.37550 73.70501 75.43110
#
# Poissons Ratio (x) = 0.05357 0.73365
# Poissons Ratio (y) = 0.02062 0.08425
# Poissons Ratio (z) = 0.27598 0.08232
#
# Static dielectric constant tensor:
#      x y z
#    x 1.737550 0.000000 0.007400 
#    y 0.000000 1.771410 0.000000 
#    z 0.007400 0.000000 1.747270 
# 
# From -- ./inp_files/68638.got.cif
#   From: 2010.05.17/outbox.cif.g08.bks.cpg/sg14_35_cif.got.tgz:68638.got - 2010.06.03 17:49:19.
