data_PCOD9244259
_publ_section_title
;
Structure prediction by ZEFSAII (Michael W. Deem and Ramdas Pophale) SiO2 
 PCOD9244259
Probable space group: P 21/C
;
_chemical_formula_sum "Si O2"
_cell_formula_units_Z 22
_cell_length_a 12.389559
_cell_length_b 4.928253
_cell_length_c 12.937096
_cell_angle_alpha 90.000000
_cell_angle_beta 76.033386
_cell_angle_gamma 90.000000
_cell_volume 766.571695
_symmetry_space_group_name_H-M "P 21/C"
_symmetry_group_IT_number 14
_symmetry_cell_setting 'monoclinic'
loop_
_space_group_symop_operation_xyz
x,y,z
-x,1/2+y,1/2-z
-x,-y,-z
x,1/2-y,1/2+z
loop_
_atom_site_type_symbol
_atom_site_label
_atom_site_fract_x
_atom_site_fract_y
_atom_site_fract_z
Si Si1 0.319698 0.459398 0.592691
Si Si2 0.060925 0.623569 0.192781
Si Si3 0.850665 0.818830 0.509098
Si Si4 0.755863 0.892655 0.215721
Si Si5 0.500000 0.000000 0.500000
Si Si6 0.356975 0.804868 0.403496
O O1 0.292614 0.373774 0.715968
O O2 0.374522 0.727195 0.526381
O O3 0.206645 0.402065 0.553964
O O4 0.406431 0.239414 0.534580
O O5 0.065330 0.497252 0.076862
O O6 0.186350 0.572407 0.207730
O O7 0.024161 0.924132 0.228583
O O8 0.755051 0.026814 0.566246
O O9 0.861440 0.664405 0.614811
O O10 0.668343 0.057448 0.166245
O O11 0.467811 0.974075 0.375631
#
# Coordination Sequence:
#
# PCOD9244259 Si02
#       6
#     4   4   4   4   2   4
#     4   9  20  40  64  90 134 175 216 281 344 409
#     4  11  27  44  69 102 138 182 234 297 352 415
#     4   9  22  40  66  95 130 178 222 279 353 410
#     4  10  23  42  66  96 132 183 226 280 355 420
#     4  10  20  40  64  96 128 174 220 286 340 406
#     4  10  21  41  67  93 131 176 226 280 346 422
#
# _framework density 28.699207999999999
#
# number of rings (size 3 to 8) (size 9 to 14) (size 15 to 20)
#    0.000    2.182    0.000    0.545   10.182    4.364 
#    9.818    0.000    0.000    0.000    0.000    0.000 
#    0.000    0.000    0.000    0.000    0.000    0.000 
#
# Total GULP energy -122607.055247 kJ/mol
# GULP energy per Si atom -5573.047966 kJ/mol
# Density = 2.863389 g / cm^3
# Si number density = 28.699208 Si / 1000 Ang^3
#
#
#
# Elastic Constant Matrix: (Units=GPa)
#
#
# Indices 1 2 3 4 5 6 
#
# 1 62.5170 4.7896 39.1460 0.0000 4.1922 0.0000
# 2 4.7896 97.0078 9.3385 0.0000 7.0660 0.0000
# 3 39.1460 9.3385 179.3013 0.0000 3.8547 0.0000
# 4 0.0000 0.0000 0.0000 44.1909 0.0000 13.0301
# 5 4.1922 7.0660 3.8547 0.0000 46.3405 0.0000
# 6 0.0000 0.0000 0.0000 13.0301 0.0000 45.5567
#
#
#
# Elastic Compliance Matrix: (Units=1/GPa)
#
#
# Indices 1 2 3 4 5 6 
#
# 1 0.018631 -0.000440 -0.004017 0.000000 -0.001284 0.000000
# 2 -0.000440 0.010481 -0.000417 0.000000 -0.001524 0.000000
# 3 -0.004017 -0.000417 0.006478 0.000000 -0.000112 0.000000
# 4 0.000000 0.000000 0.000000 0.024713 0.000000 -0.007068
# 5 -0.001284 -0.001524 -0.000112 0.000000 0.021937 0.000000
# 6 0.000000 0.000000 0.000000 -0.007068 0.000000 0.023972
#
#
# Mechanical properties :
#
#
# Convention : Reuss Voigt Hill
#
# Bulk Modulus (GPa) = 38.69553 49.48602 44.09078
# Shear Modulus (GPa) = 40.13639 46.25443 43.19541
#
# Velocity S-wave (km/s) = 3.74373 4.01895 3.88378
# Velocity P-wave (km/s) = 5.67449 6.23028 5.95887
#
# Compressibility (1/GPa) = 0.02584278
#
# Stress axis : x y z
#
# Youngs Moduli (GPa) = 53.67457 95.40806 154.36002
#
# Poissons Ratio (x) = 0.04194 0.62007
# Poissons Ratio (y) = 0.02360 0.06439
# Poissons Ratio (z) = 0.21561 0.03980
#
# Static dielectric constant tensor:
#      x y z
#    x 3.238670 0.000000 0.031600 
#    y 0.000000 2.739940 0.000000 
#    z 0.031600 0.000000 2.369250 
# 
# From -- ./inp_files/31091.got.cif
#   From: 2010.05.17/outbox.cif.g08.bks.cpg/sg14_16_cif.got.tgz:31091.got - 2010.06.03 17:49:19.
