data_PCOD9244141
_publ_section_title
;
Structure prediction by ZEFSAII (Michael W. Deem and Ramdas Pophale) SiO2 
 PCOD9244141
Probable space group: P 21/C
;
_chemical_formula_sum "Si O2"
_cell_formula_units_Z 28
_cell_length_a 5.105054
_cell_length_b 25.064037
_cell_length_c 9.545678
_cell_angle_alpha 90.000000
_cell_angle_beta 73.559612
_cell_angle_gamma 90.000000
_cell_volume 1171.463325
_symmetry_space_group_name_H-M "P 21/C"
_symmetry_group_IT_number 14
_symmetry_cell_setting 'monoclinic'
loop_
_space_group_symop_operation_xyz
x,y,z
-x,1/2+y,1/2-z
-x,-y,-z
x,1/2-y,1/2+z
loop_
_atom_site_type_symbol
_atom_site_label
_atom_site_fract_x
_atom_site_fract_y
_atom_site_fract_z
Si Si1 0.657241 0.010800 0.201387
Si Si2 0.090052 0.837858 0.964824
Si Si3 0.944069 0.715870 0.004030
Si Si4 0.835835 0.364112 0.234690
Si Si5 0.376761 0.661581 0.137604
Si Si6 0.772651 0.935300 0.917806
Si Si7 0.407739 0.417640 0.103135
O O1 0.452908 0.052588 0.162977
O O2 0.949075 0.037426 0.179293
O O3 0.553695 0.977553 0.349531
O O4 0.696565 0.966243 0.072315
O O5 0.189936 0.863224 0.095259
O O6 0.989518 0.778303 0.008331
O O7 0.849385 0.875131 0.941957
O O8 0.316105 0.663291 0.310005
O O9 0.067888 0.692943 0.840200
O O10 0.629176 0.699733 0.060988
O O11 0.109966 0.683452 0.097638
O O12 0.085826 0.403641 0.155566
O O13 0.564248 0.381340 0.195254
O O14 0.460957 0.604072 0.060216
#
# Coordination Sequence:
#
# PCOD9244141 Si02
#       7
#     4   4   4   4   4   4   4
#     4  10  20  40  58  90 125 161 207 259 303 371
#     4  12  24  42  64  98 126 161 212 268 304 367
#     4  10  24  44  61  88 130 171 201 248 317 384
#     4  10  22  37  65  91 117 167 212 242 307 371
#     4  10  25  43  64  94 129 165 206 259 316 376
#     4  10  23  34  61  94 121 158 210 262 306 353
#     4  10  20  42  64  88 125 169 202 248 315 374
#
# _framework density 23.901733
#
# number of rings (size 3 to 8) (size 9 to 14) (size 15 to 20)
#    0.000    1.714    1.429    1.714    4.000    9.143 
#    0.000    1.429    0.000    0.000    0.000    0.000 
#    0.000    0.000    0.000    0.000    0.000    0.000 
#
# Total GULP energy -156927.877987 kJ/mol
# GULP energy per Si atom -5604.567071 kJ/mol
# Density = 2.384733 g / cm^3
# Si number density = 23.901733 Si / 1000 Ang^3
#
#
#
# Elastic Constant Matrix: (Units=GPa)
#
#
# Indices 1 2 3 4 5 6 
#
# 1 57.6658 5.3807 3.0838 0.0000 -2.4038 0.0000
# 2 5.3807 72.5803 12.0887 0.0000 3.7022 0.0000
# 3 3.0838 12.0887 128.0999 0.0000 10.8160 0.0000
# 4 0.0000 0.0000 0.0000 24.8565 0.0000 1.3424
# 5 -2.4038 3.7022 10.8160 0.0000 15.6285 0.0000
# 6 0.0000 0.0000 0.0000 1.3424 0.0000 22.0063
#
#
#
# Elastic Compliance Matrix: (Units=1/GPa)
#
#
# Indices 1 2 3 4 5 6 
#
# 1 0.017646 -0.001387 -0.000585 0.000000 0.003447 0.000000
# 2 -0.001387 0.014203 -0.001067 0.000000 -0.002839 0.000000
# 3 -0.000585 -0.001067 0.008398 0.000000 -0.005649 0.000000
# 4 0.000000 0.000000 0.000000 0.040364 0.000000 -0.002462
# 5 0.003447 -0.002839 -0.005649 0.000000 0.069098 0.000000
# 6 0.000000 0.000000 0.000000 -0.002462 0.000000 0.045592
#
#
# Mechanical properties :
#
#
# Convention : Reuss Voigt Hill
#
# Bulk Modulus (GPa) = 29.26590 33.27247 31.26919
# Shear Modulus (GPa) = 23.49976 28.35113 25.92544
#
# Velocity S-wave (km/s) = 3.13898 3.44779 3.29700
# Velocity P-wave (km/s) = 5.04067 5.45898 5.25399
#
# Compressibility (1/GPa) = 0.03416946
#
# Stress axis : x y z
#
# Youngs Moduli (GPa) = 56.67114 70.40661 119.07309
#
# Poissons Ratio (x) = 0.09762 0.06966
# Poissons Ratio (y) = 0.07858 0.12708
# Poissons Ratio (z) = 0.03315 0.07514
#
# Static dielectric constant tensor:
#      x y z
#    x 1.842890 0.000000 -0.003390 
#    y 0.000000 1.901150 0.000000 
#    z -0.003390 0.000000 1.915520 
# 
# From -- ./inp_files/37993.got.cif
#   From: 2010.05.17/outbox.cif.g08.bks.cpg/sg14_19_cif.got.tgz:37993.got - 2010.06.03 17:49:19.
