data_PCOD9244494
_publ_section_title
;
Structure prediction by ZEFSAII (Michael W. Deem and Ramdas Pophale) SiO2 
 PCOD9244494
Probable space group: P 21/C
;
_chemical_formula_sum "Si O2"
_cell_formula_units_Z 20
_cell_length_a 9.659674
_cell_length_b 15.982939
_cell_length_c 9.402950
_cell_angle_alpha 90.000000
_cell_angle_beta 134.915386
_cell_angle_gamma 90.000000
_cell_volume 1028.036791
_symmetry_space_group_name_H-M "P 21/C"
_symmetry_group_IT_number 14
_symmetry_cell_setting 'monoclinic'
loop_
_space_group_symop_operation_xyz
x,y,z
-x,1/2+y,1/2-z
-x,-y,-z
x,1/2-y,1/2+z
loop_
_atom_site_type_symbol
_atom_site_label
_atom_site_fract_x
_atom_site_fract_y
_atom_site_fract_z
Si Si1 0.435602 0.086130 0.876044
Si Si2 0.833653 0.331888 0.315990
Si Si3 0.374401 0.748109 0.587557
Si Si4 0.417747 0.983997 0.285786
Si Si5 0.729753 0.847716 0.970910
O O1 0.593053 0.160753 0.972572
O O2 0.278617 0.129149 0.866955
O O3 0.500000 0.000000 0.000000
O O4 0.582318 0.942712 0.301250
O O5 0.783543 0.266264 0.403794
O O6 0.763395 0.420331 0.328499
O O7 0.055013 0.327578 0.426339
O O8 0.697154 0.313438 0.080977
O O9 0.573976 0.776866 0.810653
O O10 0.500000 0.000000 0.500000
O O11 0.344328 0.068952 0.162089
#
# Coordination Sequence:
#
# PCOD9244494 Si02
#       5
#     4   4   4   4   4
#     4   9  21  40  64  86 126 166 201 259 312 360
#     4  11  24  38  63  91 125 163 214 250 320 371
#     4  11  22  40  60  91 126 162 205 267 303 369
#     4  10  20  41  66  91 125 167 201 261 317 372
#     4  11  22  40  65  89 127 164 210 256 315 374
#
# _framework density 19.454554999999999
#
# number of rings (size 3 to 8) (size 9 to 14) (size 15 to 20)
#    0.000    1.600    4.000    0.600    2.800    0.000 
#    0.000    1.000    0.000    0.000    0.000    0.000 
#    0.000    0.000    0.000    0.000    0.000    0.000 
#
# Total GULP energy -111397.553574 kJ/mol
# GULP energy per Si atom -5569.877679 kJ/mol
# Density = 1.941028 g / cm^3
# Si number density = 19.454555 Si / 1000 Ang^3
#
#
#
# Elastic Constant Matrix: (Units=GPa)
#
#
# Indices 1 2 3 4 5 6 
#
# 1 178.1097 36.9996 37.4177 0.0000 -13.6049 0.0000
# 2 36.9996 72.4172 14.6612 0.0000 0.8229 0.0000
# 3 37.4177 14.6612 41.6701 0.0000 -15.9663 0.0000
# 4 0.0000 0.0000 0.0000 12.5204 0.0000 -4.4928
# 5 -13.6049 0.8229 -15.9663 0.0000 33.3565 0.0000
# 6 0.0000 0.0000 0.0000 -4.4928 0.0000 35.0542
#
#
#
# Elastic Compliance Matrix: (Units=1/GPa)
#
#
# Indices 1 2 3 4 5 6 
#
# 1 0.007354 -0.002647 -0.005508 0.000000 0.000428 0.000000
# 2 -0.002647 0.016165 -0.004748 0.000000 -0.003751 0.000000
# 3 -0.005508 -0.004748 0.036491 0.000000 0.015337 0.000000
# 4 0.000000 0.000000 0.000000 0.083720 0.000000 0.010730
# 5 0.000428 -0.003751 0.015337 0.000000 0.037588 0.000000
# 6 0.000000 0.000000 0.000000 0.010730 0.000000 0.029903
#
#
# Mechanical properties :
#
#
# Convention : Reuss Voigt Hill
#
# Bulk Modulus (GPa) = 29.23616 52.26154 40.74885
# Shear Modulus (GPa) = 20.12648 29.72745 24.92697
#
# Velocity S-wave (km/s) = 3.21991 3.91326 3.58340
# Velocity P-wave (km/s) = 5.37441 6.88040 6.17350
#
# Compressibility (1/GPa) = 0.03420422
#
# Stress axis : x y z
#
# Youngs Moduli (GPa) = 135.97398 61.86123 27.40385
#
# Poissons Ratio (x) = 0.16376 0.15095
# Poissons Ratio (y) = 0.35995 0.13011
# Poissons Ratio (z) = 0.74899 0.29370
#
# Static dielectric constant tensor:
#      x y z
#    x 1.687770 0.000000 -0.034010 
#    y 0.000000 1.722810 0.000000 
#    z -0.034010 0.000000 1.688160 
# 
# From -- ./inp_files/9262.got.cif
#   From: 2010.05.17/outbox.cif.g08.bks.cpg/sg14_5_cif.got.tgz:9262.got - 2010.06.03 17:49:19.
