data_PCOD9244320
_publ_section_title
;
Structure prediction by ZEFSAII (Michael W. Deem and Ramdas Pophale) SiO2 
 PCOD9244320
Probable space group: P 21/C
;
_chemical_formula_sum "Si O2"
_cell_formula_units_Z 24
_cell_length_a 14.881342
_cell_length_b 5.088228
_cell_length_c 16.215037
_cell_angle_alpha 90.000000
_cell_angle_beta 57.653156
_cell_angle_gamma 90.000000
_cell_volume 1037.273289
_symmetry_space_group_name_H-M "P 21/C"
_symmetry_group_IT_number 14
_symmetry_cell_setting 'monoclinic'
loop_
_space_group_symop_operation_xyz
x,y,z
-x,1/2+y,1/2-z
-x,-y,-z
x,1/2-y,1/2+z
loop_
_atom_site_type_symbol
_atom_site_label
_atom_site_fract_x
_atom_site_fract_y
_atom_site_fract_z
Si Si1 0.314341 0.274801 0.953515
Si Si2 0.249670 0.914978 0.652507
Si Si3 0.095076 0.010088 0.855769
Si Si4 0.868522 0.369382 0.416246
Si Si5 0.153710 0.498874 0.927793
Si Si6 0.524590 0.248284 0.931038
O O1 0.275137 0.423656 0.891002
O O2 0.440211 0.230035 0.898109
O O3 0.288262 0.434649 0.051016
O O4 0.235129 0.024663 0.998593
O O5 0.164026 0.708356 0.659527
O O6 0.350102 0.777351 0.646306
O O7 0.184904 0.095655 0.746448
O O8 0.095828 0.236389 0.925091
O O9 0.980198 0.985629 0.870311
O O10 0.134219 0.736731 0.875297
O O11 0.884280 0.110583 0.465090
O O12 0.500000 0.500000 0.000000
O O13 0.500000 0.000000 0.000000
#
# Coordination Sequence:
#
# PCOD9244320 Si02
#       6
#     4   4   4   4   4   4
#     4  10  22  42  69  93 123 174 226 267 322 398
#     4  10  25  40  65 101 132 165 220 284 338 381
#     4  12  27  39  65  96 140 169 212 278 338 386
#     4  11  23  41  68  94 131 177 226 263 327 406
#     4  11  25  44  62  94 130 184 218 257 327 411
#     4  10  20  40  66  94 124 165 217 271 321 388
#
# _framework density 23.137585999999999
#
# number of rings (size 3 to 8) (size 9 to 14) (size 15 to 20)
#    0.000    1.333    3.333    1.000    9.333    0.000 
#    0.000    1.667    0.000    0.000    0.000    0.000 
#    0.000    0.000    0.000    0.000    0.000    0.000 
#
# Total GULP energy -134014.932548 kJ/mol
# GULP energy per Si atom -5583.955523 kJ/mol
# Density = 2.308492 g / cm^3
# Si number density = 23.137586 Si / 1000 Ang^3
#
#
#
# Elastic Constant Matrix: (Units=GPa)
#
#
# Indices 1 2 3 4 5 6 
#
# 1 243.2528 43.3793 34.7993 0.0000 -12.2270 0.0000
# 2 43.3793 112.1100 2.6400 0.0000 -1.8950 0.0000
# 3 34.7993 2.6400 42.4639 0.0000 -11.9695 0.0000
# 4 0.0000 0.0000 0.0000 16.5447 0.0000 7.5454
# 5 -12.2270 -1.8950 -11.9695 0.0000 16.7673 0.0000
# 6 0.0000 0.0000 0.0000 7.5454 0.0000 33.0109
#
#
#
# Elastic Compliance Matrix: (Units=1/GPa)
#
#
# Indices 1 2 3 4 5 6 
#
# 1 0.005018 -0.001840 -0.003787 0.000000 0.000748 0.000000
# 2 -0.001840 0.009615 0.001049 0.000000 0.000494 0.000000
# 3 -0.003787 0.001049 0.032353 0.000000 0.020452 0.000000
# 4 0.000000 0.000000 0.000000 0.067476 0.000000 -0.015423
# 5 0.000748 0.000494 0.020452 0.000000 0.074841 0.000000
# 6 0.000000 0.000000 0.000000 -0.015423 0.000000 0.033818
#
#
# Mechanical properties :
#
#
# Convention : Reuss Voigt Hill
#
# Bulk Modulus (GPa) = 26.43361 62.16266 44.29814
# Shear Modulus (GPa) = 20.41742 34.39846 27.40794
#
# Velocity S-wave (km/s) = 2.97380 3.85995 3.44548
# Velocity P-wave (km/s) = 4.82086 6.84035 5.91739
#
# Compressibility (1/GPa) = 0.03783062
#
# Stress axis : x y z
#
# Youngs Moduli (GPa) = 199.26279 103.99973 30.90908
#
# Poissons Ratio (x) = 0.19136 0.11707
# Poissons Ratio (y) = 0.36664 -0.03243
# Poissons Ratio (z) = 0.75470 -0.10913
#
# Static dielectric constant tensor:
#      x y z
#    x 1.934250 0.000000 -0.022870 
#    y 0.000000 1.925830 0.000000 
#    z -0.022870 0.000000 1.969980 
# 
# From -- ./inp_files/56539.got.cif
#   From: 2010.05.17/outbox.cif.g08.bks.cpg/sg14_29_cif.got.tgz:56539.got - 2010.06.03 17:49:19.
