data_PCOD9244697
_publ_section_title
;
Structure prediction by ZEFSAII (Michael W. Deem and Ramdas Pophale) SiO2 
 PCOD9244697
Probable space group: P 21/C
;
_chemical_formula_sum "Si O2"
_cell_formula_units_Z 28
_cell_length_a 19.678133
_cell_length_b 5.069131
_cell_length_c 14.501932
_cell_angle_alpha 90.000000
_cell_angle_beta 132.193653
_cell_angle_gamma 90.000000
_cell_volume 1071.742757
_symmetry_space_group_name_H-M "P 21/C"
_symmetry_group_IT_number 14
_symmetry_cell_setting 'monoclinic'
loop_
_space_group_symop_operation_xyz
x,y,z
-x,1/2+y,1/2-z
-x,-y,-z
x,1/2-y,1/2+z
loop_
_atom_site_type_symbol
_atom_site_label
_atom_site_fract_x
_atom_site_fract_y
_atom_site_fract_z
Si Si1 0.719842 0.275444 0.974047
Si Si2 0.918987 0.791258 0.773665
Si Si3 0.196097 0.514476 0.607398
Si Si4 0.527646 0.476382 0.325857
Si Si5 0.770976 0.112882 0.205557
Si Si6 0.036219 0.299640 0.901531
Si Si7 0.354664 0.124597 0.764915
O O1 0.800501 0.135820 0.991214
O O2 0.634693 0.084075 0.921284
O O3 0.682980 0.484316 0.864676
O O4 0.756900 0.323291 0.109995
O O5 0.825598 0.640879 0.717772
O O6 0.926082 0.795113 0.668984
O O7 0.995468 0.585613 0.880490
O O8 0.957080 0.078210 0.835789
O O9 0.180286 0.738357 0.666478
O O10 0.120304 0.290398 0.541294
O O11 0.298442 0.396907 0.715397
O O12 0.509212 0.783278 0.289937
O O13 0.463615 0.378048 0.351049
O O14 0.677923 0.020313 0.172337
#
# Coordination Sequence:
#
# PCOD9244697 Si02
#       7
#     4   4   4   4   4   4   4
#     4  10  22  43  68  93 134 183 216 278 337 397
#     4  10  23  42  64  97 127 175 223 277 335 400
#     4  11  23  42  65  97 132 175 222 276 332 404
#     4  10  20  42  70  97 133 182 227 269 338 398
#     4  11  25  41  65 101 134 170 227 274 338 400
#     4  10  23  41  68  91 130 175 226 273 333 403
#     4  10  24  41  67  99 134 173 227 276 332 408
#
# _framework density 26.125672999999999
#
# number of rings (size 3 to 8) (size 9 to 14) (size 15 to 20)
#    0.000    1.714    2.857    0.000    6.000    4.000 
#    0.000    0.714    0.000    0.000    0.000    0.000 
#    0.000    0.000    0.000    0.000    0.000    0.000 
#
# Total GULP energy -156681.143168 kJ/mol
# GULP energy per Si atom -5595.755113 kJ/mol
# Density = 2.606621 g / cm^3
# Si number density = 26.125673 Si / 1000 Ang^3
#
#
#
# Elastic Constant Matrix: (Units=GPa)
#
#
# Indices 1 2 3 4 5 6 
#
# 1 189.0481 28.6651 26.0113 0.0000 -18.2173 0.0000
# 2 28.6651 86.3031 14.4837 0.0000 -14.9101 0.0000
# 3 26.0113 14.4837 68.1032 0.0000 -16.4537 0.0000
# 4 0.0000 0.0000 0.0000 23.4245 0.0000 0.7713
# 5 -18.2173 -14.9101 -16.4537 0.0000 35.6942 0.0000
# 6 0.0000 0.0000 0.0000 0.7713 0.0000 40.0741
#
#
#
# Elastic Compliance Matrix: (Units=1/GPa)
#
#
# Indices 1 2 3 4 5 6 
#
# 1 0.005878 -0.001400 -0.001535 0.000000 0.001708 0.000000
# 2 -0.001400 0.012973 -0.001224 0.000000 0.004140 0.000000
# 3 -0.001535 -0.001224 0.017124 0.000000 0.006599 0.000000
# 4 0.000000 0.000000 0.000000 0.042718 0.000000 -0.000822
# 5 0.001708 0.004140 0.006599 0.000000 0.033659 0.000000
# 6 0.000000 0.000000 0.000000 -0.000822 0.000000 0.024970
#
#
# Mechanical properties :
#
#
# Convention : Reuss Voigt Hill
#
# Bulk Modulus (GPa) = 36.15584 53.53049 44.84317
# Shear Modulus (GPa) = 32.28794 38.12484 35.20639
#
# Velocity S-wave (km/s) = 3.51931 3.82420 3.67492
# Velocity P-wave (km/s) = 5.51210 6.32720 5.93367
#
# Compressibility (1/GPa) = 0.02765805
#
# Stress axis : x y z
#
# Youngs Moduli (GPa) = 170.13760 77.08504 58.39613
#
# Poissons Ratio (x) = 0.10789 0.08962
# Poissons Ratio (y) = 0.23813 0.07148
# Poissons Ratio (z) = 0.26110 0.09436
#
# Static dielectric constant tensor:
#      x y z
#    x 2.067440 0.000000 0.021030 
#    y 0.000000 2.060710 0.000000 
#    z 0.021030 0.000000 2.044470 
# 
# From -- ./inp_files/48036.got.cif
#   From: 2010.05.17/outbox.cif.g08.bks.cpg/sg14_25_cif.got.tgz:48036.got - 2010.06.03 17:49:19.
