data_PCOD9244888
_publ_section_title
;
Structure prediction by ZEFSAII (Michael W. Deem and Ramdas Pophale) SiO2 
 PCOD9244888
Probable space group: P 21/C
;
_chemical_formula_sum "Si O2"
_cell_formula_units_Z 20
_cell_length_a 8.967930
_cell_length_b 14.198835
_cell_length_c 8.349957
_cell_angle_alpha 90.000000
_cell_angle_beta 133.575847
_cell_angle_gamma 90.000000
_cell_volume 770.273709
_symmetry_space_group_name_H-M "P 21/C"
_symmetry_group_IT_number 14
_symmetry_cell_setting 'monoclinic'
loop_
_space_group_symop_operation_xyz
x,y,z
-x,1/2+y,1/2-z
-x,-y,-z
x,1/2-y,1/2+z
loop_
_atom_site_type_symbol
_atom_site_label
_atom_site_fract_x
_atom_site_fract_y
_atom_site_fract_z
Si Si1 0.700787 0.234759 0.193502
Si Si2 0.255406 0.473721 0.518453
Si Si3 0.907938 0.372688 0.118584
Si Si4 0.838380 0.567175 0.204340
Si Si5 0.456940 0.135719 0.756346
O O1 0.864622 0.283727 0.198349
O O2 0.813041 0.154015 0.378986
O O3 0.606746 0.313210 0.239389
O O4 0.508524 0.194293 0.952115
O O5 0.254211 0.418477 0.687244
O O6 0.463564 0.529705 0.649614
O O7 0.144398 0.408297 0.303730
O O8 0.083191 0.557578 0.405978
O O9 0.788919 0.459973 0.112535
O O10 0.754382 0.630338 0.999081
#
# Coordination Sequence:
#
# PCOD9244888 Si02
#       5
#     4   4   4   4   4
#     4  10  21  34  56  85 113 142 169 246 277 302
#     4   9  18  36  61  80 102 151 189 213 262 343
#     4   9  19  37  57  78 112 140 187 217 279 317
#     4   9  18  35  61  79 103 148 189 211 259 349
#     4  11  20  37  60  76 114 145 183 222 278 315
#
# _framework density 25.964796
#
# number of rings (size 3 to 8) (size 9 to 14) (size 15 to 20)
#    1.200    1.200    2.000    0.600    0.000    1.600 
#    0.000    8.000    0.000    0.000    0.000    0.000 
#    0.000    0.000    0.000    0.000    0.000    0.000 
#
# Total GULP energy -111706.369452 kJ/mol
# GULP energy per Si atom -5585.318473 kJ/mol
# Density = 2.590570 g / cm^3
# Si number density = 25.964796 Si / 1000 Ang^3
#
#
#
# Elastic Constant Matrix: (Units=GPa)
#
#
# Indices 1 2 3 4 5 6 
#
# 1 29.0864 9.1092 22.2821 0.0000 2.8529 0.0000
# 2 9.1092 63.9338 63.0897 0.0000 1.5177 0.0000
# 3 22.2821 63.0897 187.9977 0.0000 -12.3423 0.0000
# 4 0.0000 0.0000 0.0000 48.4758 0.0000 -1.7882
# 5 2.8529 1.5177 -12.3423 0.0000 33.0913 0.0000
# 6 0.0000 0.0000 0.0000 -1.7882 0.0000 24.4610
#
#
#
# Elastic Compliance Matrix: (Units=1/GPa)
#
#
# Indices 1 2 3 4 5 6 
#
# 1 0.038684 -0.000810 -0.004643 0.000000 -0.005030 0.000000
# 2 -0.000810 0.023958 -0.008213 0.000000 -0.004092 0.000000
# 3 -0.004643 -0.008213 0.008894 0.000000 0.004094 0.000000
# 4 0.000000 0.000000 0.000000 0.020685 0.000000 0.001512
# 5 -0.005030 -0.004092 0.004094 0.000000 0.032368 0.000000
# 6 0.000000 0.000000 0.000000 0.001512 0.000000 0.040992
#
#
# Mechanical properties :
#
#
# Convention : Reuss Voigt Hill
#
# Bulk Modulus (GPa) = 22.62216 52.21996 37.42106
# Shear Modulus (GPa) = 24.07915 33.64140 28.86027
#
# Velocity S-wave (km/s) = 3.04859 3.60342 3.33756
# Velocity P-wave (km/s) = 4.59602 6.12114 5.41257
#
# Compressibility (1/GPa) = 0.04420444
#
# Stress axis : x y z
#
# Youngs Moduli (GPa) = 25.85016 41.73980 112.43033
#
# Poissons Ratio (x) = 0.03382 0.52205
# Poissons Ratio (y) = 0.02095 0.92335
# Poissons Ratio (z) = 0.12003 0.34279
#
# Static dielectric constant tensor:
#      x y z
#    x 2.078340 0.000000 -0.002820 
#    y 0.000000 2.013720 0.000000 
#    z -0.002820 0.000000 2.001940 
# 
# From -- ./inp_files/8830.got.cif
#   From: 2010.05.17/outbox.cif.g08.bks.cpg/sg14_5_cif.got.tgz:8830.got - 2010.06.03 17:49:19.
