data_PCOD9244088
_publ_section_title
;
Structure prediction by ZEFSAII (Michael W. Deem and Ramdas Pophale) SiO2 
 PCOD9244088
Probable space group: P 21/C
;
_chemical_formula_sum "Si O2"
_cell_formula_units_Z 24
_cell_length_a 9.661933
_cell_length_b 12.730470
_cell_length_c 14.599594
_cell_angle_alpha 90.000000
_cell_angle_beta 30.526757
_cell_angle_gamma 90.000000
_cell_volume 912.141551
_symmetry_space_group_name_H-M "P 21/C"
_symmetry_group_IT_number 14
_symmetry_cell_setting 'monoclinic'
loop_
_space_group_symop_operation_xyz
x,y,z
-x,1/2+y,1/2-z
-x,-y,-z
x,1/2-y,1/2+z
loop_
_atom_site_type_symbol
_atom_site_label
_atom_site_fract_x
_atom_site_fract_y
_atom_site_fract_z
Si Si1 0.210550 0.250606 0.022382
Si Si2 0.329879 0.689694 0.865910
Si Si3 0.193243 0.562820 0.249932
Si Si4 0.231303 0.881229 0.026715
Si Si5 0.537878 0.714867 0.937685
Si Si6 0.352059 0.458760 0.854498
O O1 0.511396 0.215436 0.816778
O O2 0.228405 0.265577 0.121657
O O3 0.172548 0.361601 0.992990
O O4 0.011131 0.157692 0.110123
O O5 0.215091 0.572743 0.933791
O O6 0.149525 0.786710 0.003113
O O7 0.558137 0.697289 0.817635
O O8 0.007362 0.464844 0.327202
O O9 0.376560 0.613012 0.065728
O O10 0.391940 0.538272 0.220536
O O11 0.348689 0.819821 0.047371
O O12 0.494765 0.935655 0.828317
#
# Coordination Sequence:
#
# PCOD9244088 Si02
#       6
#     4   4   4   4   4   4
#     4  10  21  38  61  92 124 159 209 248 307 365
#     4   9  20  40  59  88 120 165 201 252 304 357
#     4  11  21  37  66  90 119 164 208 252 296 368
#     4   9  20  38  58  90 121 156 204 249 303 357
#     4   9  23  39  57  95 125 157 201 258 303 360
#     4  10  20  39  67  86 122 163 211 248 301 367
#
# _framework density 26.311706000000001
#
# number of rings (size 3 to 8) (size 9 to 14) (size 15 to 20)
#    1.000    1.333    1.667    0.500    0.000    6.000 
#    0.000    0.000    0.000    4.000    0.000    0.000 
#    0.000    0.000    0.000    0.000    0.000    0.000 
#
# Total GULP energy -134254.133964 kJ/mol
# GULP energy per Si atom -5593.922249 kJ/mol
# Density = 2.625182 g / cm^3
# Si number density = 26.311706 Si / 1000 Ang^3
#
#
#
# Elastic Constant Matrix: (Units=GPa)
#
#
# Indices 1 2 3 4 5 6 
#
# 1 114.2966 37.7844 29.4800 0.0000 3.8778 0.0000
# 2 37.7844 164.1890 -0.0056 0.0000 -14.4654 0.0000
# 3 29.4800 -0.0056 59.8441 0.0000 2.4556 0.0000
# 4 0.0000 0.0000 0.0000 43.0690 0.0000 -7.6696
# 5 3.8778 -14.4654 2.4556 0.0000 34.7654 0.0000
# 6 0.0000 0.0000 0.0000 -7.6696 0.0000 32.0610
#
#
#
# Elastic Compliance Matrix: (Units=1/GPa)
#
#
# Indices 1 2 3 4 5 6 
#
# 1 0.011111 -0.002733 -0.005392 0.000000 -0.001996 0.000000
# 2 -0.002733 0.006995 0.001219 0.000000 0.003129 0.000000
# 3 -0.005392 0.001219 0.019377 0.000000 -0.000260 0.000000
# 4 0.000000 0.000000 0.000000 0.024252 0.000000 0.005801
# 5 -0.001996 0.003129 -0.000260 0.000000 0.030307 0.000000
# 6 0.000000 0.000000 0.000000 0.005801 0.000000 0.032578
#
#
# Mechanical properties :
#
#
# Convention : Reuss Voigt Hill
#
# Bulk Modulus (GPa) = 42.24625 52.53860 47.39243
# Shear Modulus (GPa) = 34.17094 40.05049 37.11072
#
# Velocity S-wave (km/s) = 3.60765 3.90571 3.75964
# Velocity P-wave (km/s) = 5.78312 6.35221 6.07433
#
# Compressibility (1/GPa) = 0.02367074
#
# Stress axis : x y z
#
# Youngs Moduli (GPa) = 90.00077 142.95480 51.60775
#
# Poissons Ratio (x) = 0.39069 0.27826
# Poissons Ratio (y) = 0.24597 -0.06289
# Poissons Ratio (z) = 0.48527 -0.17420
#
# Static dielectric constant tensor:
#      x y z
#    x 2.013070 0.000000 -0.002690 
#    y 0.000000 2.085400 0.000000 
#    z -0.002690 0.000000 2.102010 
# 
# From -- ./inp_files/57391.got.cif
#   From: 2010.05.17/outbox.cif.g08.bks.cpg/sg14_29_cif.got.tgz:57391.got - 2010.06.03 17:49:19.
