data_PCOD9244705
_publ_section_title
;
Structure prediction by ZEFSAII (Michael W. Deem and Ramdas Pophale) SiO2 
 PCOD9244705
Probable space group: P 21/C
;
_chemical_formula_sum "Si O2"
_cell_formula_units_Z 30
_cell_length_a 12.307204
_cell_length_b 8.209738
_cell_length_c 28.618101
_cell_angle_alpha 90.000000
_cell_angle_beta 24.888306
_cell_angle_gamma 90.000000
_cell_volume 1216.907423
_symmetry_space_group_name_H-M "P 21/C"
_symmetry_group_IT_number 14
_symmetry_cell_setting 'monoclinic'
loop_
_space_group_symop_operation_xyz
x,y,z
-x,1/2+y,1/2-z
-x,-y,-z
x,1/2-y,1/2+z
loop_
_atom_site_type_symbol
_atom_site_label
_atom_site_fract_x
_atom_site_fract_y
_atom_site_fract_z
Si Si1 0.673917 0.880070 0.462459
Si Si2 0.586050 0.053622 0.167812
Si Si3 0.588183 0.191287 0.074117
Si Si4 0.012118 0.108715 0.386810
Si Si5 0.000000 0.000000 0.500000
Si Si6 0.296722 0.537179 0.186401
Si Si7 0.265764 0.069439 0.121764
Si Si8 0.438725 0.673597 0.225717
O O1 0.479104 0.848620 0.582264
O O2 0.759568 0.743823 0.393348
O O3 0.500000 0.000000 0.500000
O O4 0.920228 0.968354 0.388270
O O5 0.719883 0.110127 0.068232
O O6 0.697975 0.125878 0.171910
O O7 0.311896 0.143511 0.267013
O O8 0.524969 0.862610 0.193887
O O9 0.446703 0.365959 0.134245
O O10 0.380177 0.080455 0.129191
O O11 0.832640 0.236702 0.946325
O O12 0.963679 0.046914 0.458418
O O13 0.700045 0.932015 0.620252
O O14 0.272698 0.625196 0.245722
O O15 0.019760 0.498706 0.271595
O O16 0.500000 0.000000 0.000000
#
# Coordination Sequence:
#
# PCOD9244705 Si02
#       8
#     4   4   4   4   2   4   4   4
#     4  11  22  43  68  95 132 190 235 282 368 424
#     4  11  26  42  75 101 141 180 242 286 367 423
#     4  11  25  46  68 102 139 192 235 303 362 422
#     4  10  22  43  72  92 139 184 232 290 353 428
#     4  10  20  42  72  98 136 178 234 284 358 410
#     4  11  25  45  71  93 146 186 235 292 367 421
#     4  12  29  41  67 105 138 179 244 300 350 431
#     4  11  23  47  70 107 135 191 229 299 349 435
#
# _framework density 24.652657000000001
#
# number of rings (size 3 to 8) (size 9 to 14) (size 15 to 20)
#    0.000    1.067    5.333    1.600    9.333    0.000 
#    0.000    2.667    0.000    0.000    0.000    0.000 
#    0.000    0.000    0.000    0.000    0.000    0.000 
#
# Total GULP energy -167279.827072 kJ/mol
# GULP energy per Si atom -5575.994236 kJ/mol
# Density = 2.459655 g / cm^3
# Si number density = 24.652657 Si / 1000 Ang^3
#
#
#
# Elastic Constant Matrix: (Units=GPa)
#
#
# Indices 1 2 3 4 5 6 
#
# 1 113.6994 13.2658 -2.9063 0.0000 11.6708 0.0000
# 2 13.2658 44.6987 -0.3556 0.0000 9.0225 0.0000
# 3 -2.9063 -0.3556 57.9424 0.0000 -11.5745 0.0000
# 4 0.0000 0.0000 0.0000 21.6710 0.0000 9.3039
# 5 11.6708 9.0225 -11.5745 0.0000 38.2316 0.0000
# 6 0.0000 0.0000 0.0000 9.3039 0.0000 30.5877
#
#
#
# Elastic Compliance Matrix: (Units=1/GPa)
#
#
# Indices 1 2 3 4 5 6 
#
# 1 0.009299 -0.002296 -0.000007 0.000000 -0.002299 0.000000
# 2 -0.002296 0.024115 -0.001026 0.000000 -0.005301 0.000000
# 3 -0.000007 -0.001026 0.018414 0.000000 0.005819 0.000000
# 4 0.000000 0.000000 0.000000 0.053076 0.000000 -0.016144
# 5 -0.002299 -0.005301 0.005819 0.000000 0.029871 0.000000
# 6 0.000000 0.000000 0.000000 -0.016144 0.000000 0.037603
#
#
# Mechanical properties :
#
#
# Convention : Reuss Voigt Hill
#
# Bulk Modulus (GPa) = 22.13818 26.26094 24.19956
# Shear Modulus (GPa) = 25.76090 31.85384 28.80737
#
# Velocity S-wave (km/s) = 3.23608 3.59849 3.42209
# Velocity P-wave (km/s) = 4.79192 5.28592 5.04497
#
# Compressibility (1/GPa) = 0.04517083
#
# Stress axis : x y z
#
# Youngs Moduli (GPa) = 107.54111 41.46766 54.30569
#
# Poissons Ratio (x) = 0.09520 0.00037
# Poissons Ratio (y) = 0.24689 0.05572
# Poissons Ratio (z) = 0.00074 0.04255
#
# Static dielectric constant tensor:
#      x y z
#    x 2.051000 0.000000 0.100750 
#    y 0.000000 1.903890 0.000000 
#    z 0.100750 0.000000 2.131370 
# 
# From -- ./inp_files/79955.got.cif
#   From: 2010.05.17/outbox.cif.g08.bks.cpg/sg14_40_cif.got.tgz:79955.got - 2010.06.03 17:49:19.
