data_PCOD9244734
_publ_section_title
;
Structure prediction by ZEFSAII (Michael W. Deem and Ramdas Pophale) SiO2 
 PCOD9244734
Probable space group: P 21/C
;
_chemical_formula_sum "Si O2"
_cell_formula_units_Z 32
_cell_length_a 11.939784
_cell_length_b 17.073459
_cell_length_c 17.180591
_cell_angle_alpha 90.000000
_cell_angle_beta 21.422981
_cell_angle_gamma 90.000000
_cell_volume 1279.223836
_symmetry_space_group_name_H-M "P 21/C"
_symmetry_group_IT_number 14
_symmetry_cell_setting 'monoclinic'
loop_
_space_group_symop_operation_xyz
x,y,z
-x,1/2+y,1/2-z
-x,-y,-z
x,1/2-y,1/2+z
loop_
_atom_site_type_symbol
_atom_site_label
_atom_site_fract_x
_atom_site_fract_y
_atom_site_fract_z
Si Si1 0.212013 0.555080 0.277863
Si Si2 0.616702 0.901617 0.780649
Si Si3 0.709101 0.877613 0.556382
Si Si4 0.451910 0.101111 0.600898
Si Si5 0.033865 0.470972 0.800593
Si Si6 0.304280 0.757967 0.053759
Si Si7 0.617802 0.566365 0.585452
Si Si8 0.613972 0.724002 0.515940
O O1 0.388469 0.579111 0.240735
O O2 0.183409 0.461471 0.282400
O O3 0.872173 0.584844 0.485539
O O4 0.415840 0.588562 0.072958
O O5 0.753630 0.858640 0.617476
O O6 0.812575 0.922126 0.729921
O O7 0.351283 0.841005 0.980620
O O8 0.571811 0.989309 0.773177
O O9 0.665177 0.799741 0.535257
O O10 0.975079 0.938073 0.358355
O O11 0.706028 0.064037 0.492471
O O12 0.437711 0.191643 0.631893
O O13 0.226924 0.462502 0.596719
O O14 0.972282 0.717222 0.254941
O O15 0.379957 0.769054 0.096036
O O16 0.495475 0.650783 0.642162
#
# Coordination Sequence:
#
# PCOD9244734 Si02
#       8
#     4   4   4   4   4   4   4   4
#     4   9  18  38  62  90 117 166 214 259 322 380
#     4  12  26  40  62 102 135 171 211 277 336 394
#     4  11  24  42  65  92 136 175 210 265 347 388
#     4   9  17  35  67  88 116 159 219 269 300 383
#     4  10  20  43  65  92 125 171 224 263 323 394
#     4  12  23  42  67  98 130 168 233 270 321 389
#     4  11  22  41  67  94 126 166 231 273 311 386
#     4  12  24  43  68  96 129 174 223 274 318 395
#
# _framework density 25.015169
#
# number of rings (size 3 to 8) (size 9 to 14) (size 15 to 20)
#    0.000    1.250    5.000    2.250    3.500    0.500 
#    4.500    3.750    0.000    0.000    0.000    0.000 
#    0.000    0.000    0.000    0.000    0.000    0.000 
#
# Total GULP energy -178721.065709 kJ/mol
# GULP energy per Si atom -5585.033303 kJ/mol
# Density = 2.495823 g / cm^3
# Si number density = 25.015169 Si / 1000 Ang^3
#
#
#
# Elastic Constant Matrix: (Units=GPa)
#
#
# Indices 1 2 3 4 5 6 
#
# 1 82.1352 5.0404 17.6394 0.0000 -14.1310 0.0000
# 2 5.0404 134.7528 5.9538 0.0000 12.0326 0.0000
# 3 17.6394 5.9538 34.6312 0.0000 -0.9875 0.0000
# 4 0.0000 0.0000 0.0000 21.6397 0.0000 -8.8997
# 5 -14.1310 12.0326 -0.9875 0.0000 22.3371 0.0000
# 6 0.0000 0.0000 0.0000 -8.8997 0.0000 30.3664
#
#
#
# Elastic Compliance Matrix: (Units=1/GPa)
#
#
# Indices 1 2 3 4 5 6 
#
# 1 0.015596 -0.001161 -0.007454 0.000000 0.010162 0.000000
# 2 -0.001161 0.007957 -0.000921 0.000000 -0.005062 0.000000
# 3 -0.007454 -0.000921 0.032752 0.000000 -0.002772 0.000000
# 4 0.000000 0.000000 0.000000 0.052545 0.000000 0.015400
# 5 0.010162 -0.005062 -0.002772 0.000000 0.053802 0.000000
# 6 0.000000 0.000000 0.000000 0.015400 0.000000 0.037444
#
#
# Mechanical properties :
#
#
# Convention : Reuss Voigt Hill
#
# Bulk Modulus (GPa) = 26.85881 34.30961 30.58421
# Shear Modulus (GPa) = 21.59096 29.72768 25.65932
#
# Velocity S-wave (km/s) = 2.94107 3.45104 3.20621
# Velocity P-wave (km/s) = 4.72160 5.44287 5.09501
#
# Compressibility (1/GPa) = 0.03723174
#
# Stress axis : x y z
#
# Youngs Moduli (GPa) = 64.12099 125.67382 30.53273
#
# Poissons Ratio (x) = 0.14596 0.22759
# Poissons Ratio (y) = 0.07447 0.02811
# Poissons Ratio (z) = 0.47797 0.11572
#
# Static dielectric constant tensor:
#      x y z
#    x 1.933150 0.000000 0.018990 
#    y 0.000000 2.074830 0.000000 
#    z 0.018990 0.000000 2.105210 
# 
# From -- ./inp_files/58098.got.cif
#   From: 2010.05.17/outbox.cif.g08.bks.cpg/sg14_30_cif.got.tgz:58098.got - 2010.06.03 17:49:19.
