data_PCOD9244614
_publ_section_title
;
Structure prediction by ZEFSAII (Michael W. Deem and Ramdas Pophale) SiO2 
 PCOD9244614
Probable space group: P 21/C
;
_chemical_formula_sum "Si O2"
_cell_formula_units_Z 24
_cell_length_a 5.182521
_cell_length_b 15.544136
_cell_length_c 13.010346
_cell_angle_alpha 90.000000
_cell_angle_beta 101.141666
_cell_angle_gamma 90.000000
_cell_volume 1028.331111
_symmetry_space_group_name_H-M "P 21/C"
_symmetry_group_IT_number 14
_symmetry_cell_setting 'monoclinic'
loop_
_space_group_symop_operation_xyz
x,y,z
-x,1/2+y,1/2-z
-x,-y,-z
x,1/2-y,1/2+z
loop_
_atom_site_type_symbol
_atom_site_label
_atom_site_fract_x
_atom_site_fract_y
_atom_site_fract_z
Si Si1 0.068970 0.125078 0.725885
Si Si2 0.220480 0.895955 0.009856
Si Si3 0.670046 0.999962 0.658476
Si Si4 0.252490 0.290756 0.423073
Si Si5 0.543760 0.023831 0.163185
Si Si6 0.789405 0.894918 0.488001
O O1 0.131566 0.207236 0.798664
O O2 0.281159 0.055367 0.781453
O O3 0.051172 0.131746 0.601625
O O4 0.800493 0.077684 0.731517
O O5 0.458536 0.831087 0.053681
O O6 0.307519 0.984781 0.074594
O O7 0.951362 0.850846 0.026484
O O8 0.267988 0.918489 0.893457
O O9 0.565550 0.936463 0.738975
O O10 0.443203 0.048098 0.578324
O O11 0.867126 0.953970 0.592493
O O12 0.280009 0.195832 0.468517
#
# Coordination Sequence:
#
# PCOD9244614 Si02
#       6
#     4   4   4   4   4   4
#     4  10  21  40  64  90 127 167 217 272 325 387
#     4  10  22  39  65  96 133 166 210 268 334 386
#     4  10  20  42  65  91 125 177 227 264 316 404
#     4  11  24  42  63  96 133 168 210 278 336 385
#     4   9  20  37  65  95 124 170 217 264 322 394
#     4  10  24  40  62  92 127 174 219 268 329 391
#
# _framework density 23.338788000000001
#
# number of rings (size 3 to 8) (size 9 to 14) (size 15 to 20)
#    0.000    2.000    1.667    0.500    4.667    3.333 
#    0.000    0.000    0.000    0.000    0.000    0.000 
#    0.000    0.000    0.000    0.000    0.000    0.000 
#
# Total GULP energy -133704.446589 kJ/mol
# GULP energy per Si atom -5571.018608 kJ/mol
# Density = 2.328567 g / cm^3
# Si number density = 23.338788 Si / 1000 Ang^3
#
#
#
# Elastic Constant Matrix: (Units=GPa)
#
#
# Indices 1 2 3 4 5 6 
#
# 1 56.0576 -13.5560 11.3808 0.0000 -12.3578 0.0000
# 2 -13.5560 45.2658 30.6448 0.0000 -10.1691 0.0000
# 3 11.3808 30.6448 129.7584 0.0000 -26.6898 0.0000
# 4 0.0000 0.0000 0.0000 -8.8212 0.0000 -54.7057
# 5 -12.3578 -10.1691 -26.6898 0.0000 26.1497 0.0000
# 6 0.0000 0.0000 0.0000 -54.7057 0.0000 -33.1680
#
#
#
# Elastic Compliance Matrix: (Units=1/GPa)
#
#
# Indices 1 2 3 4 5 6 
#
# 1 0.024153 0.011730 -0.002029 0.000000 0.013905 0.000000
# 2 0.011730 0.032503 -0.006284 0.000000 0.011769 0.000000
# 3 -0.002029 -0.006284 0.010972 0.000000 0.007796 0.000000
# 4 0.000000 0.000000 0.000000 0.012284 0.000000 -0.020260
# 5 0.013905 0.011769 0.007796 0.000000 0.057347 0.000000
# 6 0.000000 0.000000 0.000000 -0.020260 0.000000 0.003267
#
#
# Mechanical properties :
#
#
# Convention : Reuss Voigt Hill
#
# Bulk Modulus (GPa) = 13.42948 32.00235 22.71591
# Shear Modulus (GPa) = 31.54340 10.33958 20.94149
#
# Velocity S-wave (km/s) = 3.68032 2.10709 2.99872
# Velocity P-wave (km/s) = 4.88122 4.43414 4.66304
#
# Compressibility (1/GPa) = 0.07446304
#
# Stress axis : x y z
#
# Youngs Moduli (GPa) = 41.40333 30.76632 91.13835
#
# Poissons Ratio (x) = -0.36090 0.18488
# Poissons Ratio (y) = -0.48567 0.57273
# Poissons Ratio (z) = 0.08399 0.19334
#
# Static dielectric constant tensor:
#      x y z
#    x 1.912550 0.000000 -0.070910 
#    y 0.000000 1.860850 0.000000 
#    z -0.070910 0.000000 2.032560 
# 
# From -- ./inp_files/21150.got.cif
#   From: 2010.05.17/outbox.cif.g08.bks.cpg/sg14_11_cif.got.tgz:21150.got - 2010.06.03 17:49:19.
