data_PCOD9244661
_publ_section_title
;
Structure prediction by ZEFSAII (Michael W. Deem and Ramdas Pophale) SiO2 
 PCOD9244661
Probable space group: P 21/C
;
_chemical_formula_sum "Si O2"
_cell_formula_units_Z 16
_cell_length_a 11.624919
_cell_length_b 4.908332
_cell_length_c 13.255715
_cell_angle_alpha 90.000000
_cell_angle_beta 51.240366
_cell_angle_gamma 90.000000
_cell_volume 589.791739
_symmetry_space_group_name_H-M "P 21/C"
_symmetry_group_IT_number 14
_symmetry_cell_setting 'monoclinic'
loop_
_space_group_symop_operation_xyz
x,y,z
-x,1/2+y,1/2-z
-x,-y,-z
x,1/2-y,1/2+z
loop_
_atom_site_type_symbol
_atom_site_label
_atom_site_fract_x
_atom_site_fract_y
_atom_site_fract_z
Si Si1 0.368974 0.982515 0.490844
Si Si2 0.128413 0.186308 0.885132
Si Si3 0.244775 0.021592 0.147339
Si Si4 0.314003 0.839330 0.313504
O O1 0.242738 0.774236 0.599616
O O2 0.414082 0.884711 0.355048
O O3 0.500000 0.000000 0.500000
O O4 0.304476 0.284035 0.528902
O O5 0.118084 0.311669 0.776960
O O6 0.172806 0.463719 0.918534
O O7 0.260961 0.964598 0.819330
O O8 0.000000 0.000000 0.000000
O O9 0.354842 0.970727 0.183145
#
# Coordination Sequence:
#
# PCOD9244661 Si02
#       4
#     4   4   4   4
#     4  12  24  40  65  94 130 170 212 260 318 379
#     4  10  20  42  68  87 126 169 204 265 326 366
#     4  10  22  41  62  93 131 160 218 262 305 390
#     4  10  22  40  65  90 131 162 212 264 313 385
#
# _framework density 27.128219000000001
#
# number of rings (size 3 to 8) (size 9 to 14) (size 15 to 20)
#    1.500    0.000    2.500    3.000    0.000    2.000 
#    0.000    5.000    0.000    0.000    0.000    0.000 
#    0.000    0.000    0.000    0.000    0.000    0.000 
#
# Total GULP energy -89177.052399 kJ/mol
# GULP energy per Si atom -5573.565775 kJ/mol
# Density = 2.706647 g / cm^3
# Si number density = 27.128219 Si / 1000 Ang^3
#
#
#
# Elastic Constant Matrix: (Units=GPa)
#
#
# Indices 1 2 3 4 5 6 
#
# 1 52.2835 28.0331 18.2201 0.0000 -8.7511 0.0000
# 2 28.0331 188.2244 41.0339 0.0000 -12.4217 0.0000
# 3 18.2201 41.0339 117.0743 0.0000 16.6401 0.0000
# 4 0.0000 0.0000 0.0000 63.7409 0.0000 -2.1493
# 5 -8.7511 -12.4217 16.6401 0.0000 47.7607 0.0000
# 6 0.0000 0.0000 0.0000 -2.1493 0.0000 21.6968
#
#
#
# Elastic Compliance Matrix: (Units=1/GPa)
#
#
# Indices 1 2 3 4 5 6 
#
# 1 0.022291 -0.002288 -0.003328 0.000000 0.004649 0.000000
# 2 -0.002288 0.006241 -0.002107 0.000000 0.001938 0.000000
# 3 -0.003328 -0.002107 0.010482 0.000000 -0.004810 0.000000
# 4 0.000000 0.000000 0.000000 0.015741 0.000000 0.001559
# 5 0.004649 0.001938 -0.004810 0.000000 0.023969 0.000000
# 6 0.000000 0.000000 0.000000 0.001559 0.000000 0.046244
#
#
# Mechanical properties :
#
#
# Convention : Reuss Voigt Hill
#
# Bulk Modulus (GPa) = 42.42979 59.12848 50.77914
# Shear Modulus (GPa) = 33.72261 44.65937 39.19099
#
# Velocity S-wave (km/s) = 3.52956 4.06178 3.80499
# Velocity P-wave (km/s) = 5.68197 6.62123 6.16950
#
# Compressibility (1/GPa) = 0.02356834
#
# Stress axis : x y z
#
# Youngs Moduli (GPa) = 44.86129 160.23894 95.40588
#
# Poissons Ratio (x) = 0.36655 0.31752
# Poissons Ratio (y) = 0.10262 0.20100
# Poissons Ratio (z) = 0.14930 0.33759
#
# Static dielectric constant tensor:
#      x y z
#    x 2.273500 0.000000 -0.069150 
#    y 0.000000 2.035440 0.000000 
#    z -0.069150 0.000000 2.209750 
# 
# From -- ./inp_files/27261.got.cif
#   From: 2010.05.17/outbox.cif.g08.bks.cpg/sg14_14_cif.got.tgz:27261.got - 2010.06.03 17:49:19.
