data_PCOD9244367
_publ_section_title
;
Structure prediction by ZEFSAII (Michael W. Deem and Ramdas Pophale) SiO2 
 PCOD9244367
Probable space group: P 21/C
;
_chemical_formula_sum "Si O2"
_cell_formula_units_Z 32
_cell_length_a 9.240456
_cell_length_b 11.229553
_cell_length_c 14.352104
_cell_angle_alpha 90.000000
_cell_angle_beta 95.742144
_cell_angle_gamma 90.000000
_cell_volume 1481.790400
_symmetry_space_group_name_H-M "P 21/C"
_symmetry_group_IT_number 14
_symmetry_cell_setting 'monoclinic'
loop_
_space_group_symop_operation_xyz
x,y,z
-x,1/2+y,1/2-z
-x,-y,-z
x,1/2-y,1/2+z
loop_
_atom_site_type_symbol
_atom_site_label
_atom_site_fract_x
_atom_site_fract_y
_atom_site_fract_z
Si Si1 0.609363 0.053712 0.305371
Si Si2 0.827051 0.878157 0.279992
Si Si3 0.476455 0.640543 0.026404
Si Si4 0.785420 0.724381 0.576936
Si Si5 0.706008 0.458947 0.222403
Si Si6 0.770457 0.853590 0.870972
Si Si7 0.431783 0.726678 0.338429
Si Si8 0.946867 0.531779 0.100850
O O1 0.637599 0.135618 0.395852
O O2 0.644799 0.109444 0.207822
O O3 0.679693 0.925774 0.318056
O O4 0.436975 0.037909 0.302746
O O5 0.799683 0.854601 0.170155
O O6 0.864084 0.750956 0.327989
O O7 0.933374 0.983379 0.318906
O O8 0.628642 0.708063 0.059903
O O9 0.500000 0.500000 0.000000
O O10 0.411214 0.718189 0.938399
O O11 0.802582 0.650578 0.482628
O O12 0.903917 0.829742 0.594676
O O13 0.784006 0.523051 0.315041
O O14 0.636824 0.329276 0.231967
O O15 0.805362 0.468017 0.136971
O O16 0.601998 0.810475 0.848095
O O17 0.000000 0.500000 0.000000
#
# Coordination Sequence:
#
# PCOD9244367 Si02
#       8
#     4   4   4   4   4   4   4   4
#     4  11  22  39  64  98 131 168 213 271 325 395
#     4  12  24  40  69  97 130 168 224 261 331 392
#     4  11  19  35  67  94 127 163 221 257 316 382
#     4  11  22  44  64  96 134 176 214 273 329 395
#     4  11  21  41  67  90 134 169 214 268 327 385
#     4  10  20  40  68  96 127 178 214 261 336 394
#     4  10  21  36  63 100 128 164 216 269 324 385
#     4  12  25  39  66  96 123 174 225 268 315 392
#
# _framework density 21.595497999999999
#
# number of rings (size 3 to 8) (size 9 to 14) (size 15 to 20)
#    0.000    1.000    6.250    1.500    1.750    1.000 
#    2.250    2.500    0.000    0.000    0.000    0.000 
#    0.000    0.000    0.000    0.000    0.000    0.000 
#
# Total GULP energy -178202.952876 kJ/mol
# GULP energy per Si atom -5568.842277 kJ/mol
# Density = 2.154635 g / cm^3
# Si number density = 21.595498 Si / 1000 Ang^3
#
#
#
# Elastic Constant Matrix: (Units=GPa)
#
#
# Indices 1 2 3 4 5 6 
#
# 1 45.2400 8.7839 43.3815 0.0000 -0.2629 0.0000
# 2 8.7839 45.4496 54.9752 0.0000 8.9645 0.0000
# 3 43.3815 54.9752 143.7595 0.0000 2.2952 0.0000
# 4 0.0000 0.0000 0.0000 42.9250 0.0000 -1.3925
# 5 -0.2629 8.9645 2.2952 0.0000 27.9163 0.0000
# 6 0.0000 0.0000 0.0000 -1.3925 0.0000 11.7034
#
#
#
# Elastic Compliance Matrix: (Units=1/GPa)
#
#
# Indices 1 2 3 4 5 6 
#
# 1 0.033842 0.011538 -0.014590 0.000000 -0.002187 0.000000
# 2 0.011538 0.049222 -0.022083 0.000000 -0.013882 0.000000
# 3 -0.014590 -0.022083 0.019718 0.000000 0.005333 0.000000
# 4 0.000000 0.000000 0.000000 0.023387 0.000000 0.002783
# 5 -0.002187 -0.013882 0.005333 0.000000 0.039820 0.000000
# 6 0.000000 0.000000 0.000000 0.002783 0.000000 0.085777
#
#
# Mechanical properties :
#
#
# Convention : Reuss Voigt Hill
#
# Bulk Modulus (GPa) = 19.04291 49.85891 34.45091
# Shear Modulus (GPa) = 15.64753 24.99616 20.32184
#
# Velocity S-wave (km/s) = 2.69471 3.40585 3.07094
# Velocity P-wave (km/s) = 4.30338 6.21323 5.34431
#
# Compressibility (1/GPa) = 0.05251299
#
# Stress axis : x y z
#
# Youngs Moduli (GPa) = 29.54942 20.31607 50.71389
#
# Poissons Ratio (x) = -0.23441 0.73990
# Poissons Ratio (y) = -0.34095 1.11993
# Poissons Ratio (z) = 0.43112 0.44865
#
# Static dielectric constant tensor:
#      x y z
#    x 1.878820 0.000000 0.020050 
#    y 0.000000 1.778870 0.000000 
#    z 0.020050 0.000000 1.882070 
# 
# From -- ./inp_files/40091.got.cif
#   From: 2010.05.17/outbox.cif.g08.bks.cpg/sg14_21_cif.got.tgz:40091.got - 2010.06.03 17:49:19.
