data_PCOD9244503
_publ_section_title
;
Structure prediction by ZEFSAII (Michael W. Deem and Ramdas Pophale) SiO2 
 PCOD9244503
Probable space group: P 21/C
;
_chemical_formula_sum "Si O2"
_cell_formula_units_Z 28
_cell_length_a 4.827832
_cell_length_b 26.094873
_cell_length_c 9.416910
_cell_angle_alpha 90.000000
_cell_angle_beta 99.242600
_cell_angle_gamma 90.000000
_cell_volume 1170.955637
_symmetry_space_group_name_H-M "P 21/C"
_symmetry_group_IT_number 14
_symmetry_cell_setting 'monoclinic'
loop_
_space_group_symop_operation_xyz
x,y,z
-x,1/2+y,1/2-z
-x,-y,-z
x,1/2-y,1/2+z
loop_
_atom_site_type_symbol
_atom_site_label
_atom_site_fract_x
_atom_site_fract_y
_atom_site_fract_z
Si Si1 0.317476 0.937368 0.507908
Si Si2 0.968417 0.343962 0.873807
Si Si3 0.965015 0.252479 0.068171
Si Si4 0.711559 0.184435 0.806056
Si Si5 0.244463 0.118756 0.869975
Si Si6 0.238885 0.469623 0.169817
Si Si7 0.613133 0.662949 0.319839
O O1 0.174780 0.884081 0.532499
O O2 0.600039 0.938226 0.441544
O O3 0.091128 0.966489 0.389625
O O4 0.335974 0.972215 0.651328
O O5 0.078472 0.295658 0.970133
O O6 0.706226 0.328770 0.751347
O O7 0.217470 0.363835 0.794956
O O8 0.762223 0.218279 0.951492
O O9 0.214403 0.215722 0.142111
O O10 0.802471 0.282120 0.179105
O O11 0.404792 0.160241 0.783849
O O12 0.921937 0.136032 0.836698
O O13 0.292177 0.061872 0.816655
O O14 0.358282 0.129639 0.036251
#
# Coordination Sequence:
#
# PCOD9244503 Si02
#       7
#     4   4   4   4   4   4   4
#     4  10  22  39  67  99 123 162 211 267 323 374
#     4  12  24  42  66  89 133 167 216 262 329 373
#     4  11  24  43  60  91 124 171 210 268 311 376
#     4  11  25  38  64  88 125 162 219 250 324 372
#     4  11  23  41  62  89 126 167 208 256 322 375
#     4  10  20  41  66  96 128 158 213 268 316 385
#     4  11  26  42  59  92 128 171 212 265 309 401
#
# _framework density 23.912091
#
# number of rings (size 3 to 8) (size 9 to 14) (size 15 to 20)
#    0.000    1.143    1.429    5.143    2.000    3.429 
#    0.000    1.429    0.000    0.000    0.000    0.000 
#    0.000    0.000    0.000    0.000    0.000    0.000 
#
# Total GULP energy -156822.000042 kJ/mol
# GULP energy per Si atom -5600.785716 kJ/mol
# Density = 2.385767 g / cm^3
# Si number density = 23.912091 Si / 1000 Ang^3
#
#
#
# Elastic Constant Matrix: (Units=GPa)
#
#
# Indices 1 2 3 4 5 6 
#
# 1 99.4135 -16.1450 7.6319 0.0000 -0.0513 0.0000
# 2 -16.1450 30.4960 -18.3913 0.0000 5.3078 0.0000
# 3 7.6319 -18.3913 57.1519 0.0000 -0.6580 0.0000
# 4 0.0000 0.0000 0.0000 23.9350 0.0000 -8.3913
# 5 -0.0513 5.3078 -0.6580 0.0000 21.3013 0.0000
# 6 0.0000 0.0000 0.0000 -8.3913 0.0000 28.2005
#
#
#
# Elastic Compliance Matrix: (Units=1/GPa)
#
#
# Indices 1 2 3 4 5 6 
#
# 1 0.011067 0.006490 0.000592 0.000000 -0.001572 0.000000
# 2 0.006490 0.046617 0.014006 0.000000 -0.011168 0.000000
# 3 0.000592 0.014006 0.021893 0.000000 -0.002812 0.000000
# 4 0.000000 0.000000 0.000000 0.046646 0.000000 0.013880
# 5 -0.001572 -0.011168 -0.002812 0.000000 0.049637 0.000000
# 6 0.000000 0.000000 0.000000 0.013880 0.000000 0.039591
#
#
# Mechanical properties :
#
#
# Convention : Reuss Voigt Hill
#
# Bulk Modulus (GPa) = 8.21330 14.80585 11.50958
# Shear Modulus (GPa) = 23.37993 28.95175 26.16584
#
# Velocity S-wave (km/s) = 3.13028 3.48337 3.31154
# Velocity P-wave (km/s) = 4.06290 4.73114 4.40970
#
# Compressibility (1/GPa) = 0.12175369
#
# Stress axis : x y z
#
# Youngs Moduli (GPa) = 90.36159 21.45122 45.67698
#
# Poissons Ratio (x) = -0.13921 -0.02706
# Poissons Ratio (y) = -0.58643 -0.63976
# Poissons Ratio (z) = -0.05354 -0.30045
#
# Static dielectric constant tensor:
#      x y z
#    x 1.860880 0.000000 -0.011960 
#    y 0.000000 1.938020 0.000000 
#    z -0.011960 0.000000 1.930570 
# 
# From -- ./inp_files/6690.got.cif
#   From: 2010.05.17/outbox.cif.g08.bks.cpg/sg14_4_cif.got.tgz:6690.got - 2010.06.03 17:49:19.
