data_PCOD9244687
_publ_section_title
;
Structure prediction by ZEFSAII (Michael W. Deem and Ramdas Pophale) SiO2 
 PCOD9244687
Probable space group: P 21/C
;
_chemical_formula_sum "Si O2"
_cell_formula_units_Z 26
_cell_length_a 11.395010
_cell_length_b 8.560017
_cell_length_c 23.732860
_cell_angle_alpha 90.000000
_cell_angle_beta 156.019045
_cell_angle_gamma 90.000000
_cell_volume 940.867214
_symmetry_space_group_name_H-M "P 21/C"
_symmetry_group_IT_number 14
_symmetry_cell_setting 'monoclinic'
loop_
_space_group_symop_operation_xyz
x,y,z
-x,1/2+y,1/2-z
-x,-y,-z
x,1/2-y,1/2+z
loop_
_atom_site_type_symbol
_atom_site_label
_atom_site_fract_x
_atom_site_fract_y
_atom_site_fract_z
Si Si1 0.297362 0.667435 0.030939
Si Si2 0.949900 0.828799 0.157356
Si Si3 0.897203 0.467251 0.164741
Si Si4 0.295521 0.988959 0.215057
Si Si5 0.501345 0.178801 0.214804
Si Si6 0.000000 0.000000 0.500000
Si Si7 0.522177 0.491829 0.408965
O O1 0.301816 0.614259 0.968199
O O2 0.589829 0.613051 0.189887
O O3 0.055642 0.575753 0.960085
O O4 0.266413 0.853130 0.016791
O O5 0.907751 0.651061 0.156357
O O6 0.087442 0.870003 0.156299
O O7 0.143045 0.912027 0.289363
O O8 0.644452 0.912571 0.015064
O O9 0.222601 0.412851 0.293354
O O10 0.564075 0.865477 0.317527
O O11 0.256209 0.082908 0.140682
O O12 0.783101 0.142083 0.376288
O O13 0.520529 0.109615 0.161224
#
# Coordination Sequence:
#
# PCOD9244687 Si02
#       7
#     4   4   4   4   4   2   4
#     4  11  25  43  78 105 150 198 245 308 370 433
#     4  12  28  48  76 107 149 201 247 306 374 438
#     4  12  27  51  73 107 154 193 253 311 359 452
#     4  11  25  45  73 113 142 197 243 301 377 438
#     4  11  22  44  73 106 149 186 245 308 364 442
#     4  10  20  42  70 106 146 190 232 308 366 432
#     4  12  26  47  78 111 145 196 250 308 372 447
#
# _framework density 27.634081999999999
#
# number of rings (size 3 to 8) (size 9 to 14) (size 15 to 20)
#    0.000    0.615    3.077    4.154    4.308    4.923 
#    0.000    0.000    0.000    0.000    0.000    0.000 
#    0.000    0.000    0.000    0.000    0.000    0.000 
#
# Total GULP energy -145372.959170 kJ/mol
# GULP energy per Si atom -5591.267660 kJ/mol
# Density = 2.757119 g / cm^3
# Si number density = 27.634082 Si / 1000 Ang^3
#
#
#
# Elastic Constant Matrix: (Units=GPa)
#
#
# Indices 1 2 3 4 5 6 
#
# 1 88.5449 18.9447 -2.0271 0.0000 -14.9307 0.0000
# 2 18.9447 196.4335 6.1150 0.0000 -28.7161 0.0000
# 3 -2.0271 6.1150 88.5674 0.0000 -26.4023 0.0000
# 4 0.0000 0.0000 0.0000 32.3422 0.0000 -10.5155
# 5 -14.9307 -28.7161 -26.4023 0.0000 49.4620 0.0000
# 6 0.0000 0.0000 0.0000 -10.5155 0.0000 38.2973
#
#
#
# Elastic Compliance Matrix: (Units=1/GPa)
#
#
# Indices 1 2 3 4 5 6 
#
# 1 0.012160 -0.000615 0.001556 0.000000 0.004144 0.000000
# 2 -0.000615 0.005630 0.000614 0.000000 0.003410 0.000000
# 3 0.001556 0.000614 0.013712 0.000000 0.008146 0.000000
# 4 0.000000 0.000000 0.000000 0.033950 0.000000 0.009322
# 5 0.004144 0.003410 0.008146 0.000000 0.027796 0.000000
# 6 0.000000 0.000000 0.000000 0.009322 0.000000 0.028671
#
#
# Mechanical properties :
#
#
# Convention : Reuss Voigt Hill
#
# Bulk Modulus (GPa) = 28.89271 46.62344 37.75807
# Shear Modulus (GPa) = 38.35916 47.38786 42.87351
#
# Velocity S-wave (km/s) = 3.72978 4.14555 3.94315
# Velocity P-wave (km/s) = 5.38762 6.31050 5.86724
#
# Compressibility (1/GPa) = 0.03461081
#
# Stress axis : x y z
#
# Youngs Moduli (GPa) = 82.23852 177.63391 72.92715
#
# Poissons Ratio (x) = 0.10931 -0.11348
# Poissons Ratio (y) = 0.05061 -0.04477
# Poissons Ratio (z) = -0.12797 -0.10904
#
# Static dielectric constant tensor:
#      x y z
#    x 2.166570 0.000000 0.063220 
#    y 0.000000 2.034420 0.000000 
#    z 0.063220 0.000000 1.909550 
# 
# From -- ./inp_files/73183.got.cif
#   From: 2010.05.17/outbox.cif.g08.bks.cpg/sg14_37_cif.got.tgz:73183.got - 2010.06.03 17:49:19.
