data_PCOD9244784
_publ_section_title
;
Structure prediction by ZEFSAII (Michael W. Deem and Ramdas Pophale) SiO2 
 PCOD9244784
Probable space group: P 21/C
;
_chemical_formula_sum "Si O2"
_cell_formula_units_Z 26
_cell_length_a 21.967720
_cell_length_b 4.859644
_cell_length_c 24.957265
_cell_angle_alpha 90.000000
_cell_angle_beta 157.936040
_cell_angle_gamma 90.000000
_cell_volume 1000.828965
_symmetry_space_group_name_H-M "P 21/C"
_symmetry_group_IT_number 14
_symmetry_cell_setting 'monoclinic'
loop_
_space_group_symop_operation_xyz
x,y,z
-x,1/2+y,1/2-z
-x,-y,-z
x,1/2-y,1/2+z
loop_
_atom_site_type_symbol
_atom_site_label
_atom_site_fract_x
_atom_site_fract_y
_atom_site_fract_z
Si Si1 0.500000 0.500000 0.000000
Si Si2 0.116361 0.939155 0.918694
Si Si3 0.908304 0.031961 0.260510
Si Si4 0.640222 0.687947 0.466067
Si Si5 0.160390 0.779548 0.684702
Si Si6 0.858382 0.123390 0.940379
Si Si7 0.546513 0.789686 0.655187
O O1 0.336396 0.673921 0.846548
O O2 0.483104 0.305831 0.932360
O O3 0.038085 0.656251 0.834490
O O4 0.254304 0.090199 0.998004
O O5 0.966798 0.155625 0.800578
O O6 0.178206 0.838290 0.026899
O O7 0.742207 0.919894 0.100620
O O8 0.896112 0.007398 0.315223
O O9 0.589160 0.002354 0.430097
O O10 0.480133 0.504290 0.339856
O O11 0.153809 0.852215 0.616334
O O12 0.030659 0.531988 0.580801
O O13 0.719627 0.911861 0.809247
#
# Coordination Sequence:
#
# PCOD9244784 Si02
#       7
#     2   4   4   4   4   4   4
#     4  10  20  44  68 102 130 176 216 292 324 402
#     4  11  24  41  68  94 140 172 228 270 343 396
#     4  11  22  41  67 100 130 178 221 287 330 399
#     4  12  24  42  66 101 131 181 221 281 326 407
#     4   9  19  41  70  97 137 170 233 272 344 393
#     4   9  22  42  64 100 133 184 212 279 332 410
#     4  11  25  42  68  97 139 170 228 268 343 391
#
# _framework density 25.978466000000001
#
# number of rings (size 3 to 8) (size 9 to 14) (size 15 to 20)
#    0.000    1.538    1.538    2.769    2.154    4.923 
#    0.000    0.000    0.000    0.000    0.000    0.000 
#    0.000    0.000    0.000    0.000    0.000    0.000 
#
# Total GULP energy -144937.075601 kJ/mol
# GULP energy per Si atom -5574.502908 kJ/mol
# Density = 2.591934 g / cm^3
# Si number density = 25.978466 Si / 1000 Ang^3
#
#
#
# Elastic Constant Matrix: (Units=GPa)
#
#
# Indices 1 2 3 4 5 6 
#
# 1 97.5628 20.5137 20.9311 0.0000 -8.1632 0.0000
# 2 20.5137 80.5481 19.9757 0.0000 7.1964 0.0000
# 3 20.9311 19.9757 113.2487 0.0000 -5.0714 0.0000
# 4 0.0000 0.0000 0.0000 28.2213 0.0000 19.1454
# 5 -8.1632 7.1964 -5.0714 0.0000 41.1491 0.0000
# 6 0.0000 0.0000 0.0000 19.1454 0.0000 31.6442
#
#
#
# Elastic Compliance Matrix: (Units=1/GPa)
#
#
# Indices 1 2 3 4 5 6 
#
# 1 0.011363 -0.002750 -0.001501 0.000000 0.002550 0.000000
# 2 -0.002750 0.013924 -0.002093 0.000000 -0.003238 0.000000
# 3 -0.001501 -0.002093 0.009532 0.000000 0.001243 0.000000
# 4 0.000000 0.000000 0.000000 0.060104 0.000000 -0.036364
# 5 0.002550 -0.003238 0.001243 0.000000 0.025527 0.000000
# 6 0.000000 0.000000 0.000000 -0.036364 0.000000 0.053603
#
#
# Mechanical properties :
#
#
# Convention : Reuss Voigt Hill
#
# Bulk Modulus (GPa) = 45.18245 46.02228 45.60237
# Shear Modulus (GPa) = 25.75763 35.53218 30.64490
#
# Velocity S-wave (km/s) = 3.15222 3.70233 3.43830
# Velocity P-wave (km/s) = 5.53884 6.00253 5.77534
#
# Compressibility (1/GPa) = 0.02213249
#
# Stress axis : x y z
#
# Youngs Moduli (GPa) = 88.00229 71.82088 104.90588
#
# Poissons Ratio (x) = 0.19748 0.15747
# Poissons Ratio (y) = 0.24197 0.21954
# Poissons Ratio (z) = 0.13209 0.15030
#
# Static dielectric constant tensor:
#      x y z
#    x 2.132100 0.000000 0.019440 
#    y 0.000000 2.032520 0.000000 
#    z 0.019440 0.000000 2.069350 
# 
# From -- ./inp_files/75133.got.cif
#   From: 2010.05.17/outbox.cif.g08.bks.cpg/sg14_38_cif.got.tgz:75133.got - 2010.06.03 17:49:19.
