data_PCOD9244989
_publ_section_title
;
Structure prediction by ZEFSAII (Michael W. Deem and Ramdas Pophale) SiO2 
 PCOD9244989
Probable space group: P 21/C
;
_chemical_formula_sum "Si O2"
_cell_formula_units_Z 32
_cell_length_a 27.888769
_cell_length_b 4.906403
_cell_length_c 17.673261
_cell_angle_alpha 90.000000
_cell_angle_beta 30.694162
_cell_angle_gamma 90.000000
_cell_volume 1234.431437
_symmetry_space_group_name_H-M "P 21/C"
_symmetry_group_IT_number 14
_symmetry_cell_setting 'monoclinic'
loop_
_space_group_symop_operation_xyz
x,y,z
-x,1/2+y,1/2-z
-x,-y,-z
x,1/2-y,1/2+z
loop_
_atom_site_type_symbol
_atom_site_label
_atom_site_fract_x
_atom_site_fract_y
_atom_site_fract_z
Si Si1 0.044784 0.211903 0.338772
Si Si2 0.786530 0.920963 0.180267
Si Si3 0.123779 0.507997 0.592016
Si Si4 0.371939 0.622563 0.926244
Si Si5 0.884631 0.264773 0.673848
Si Si6 0.668467 0.080429 0.800964
Si Si7 0.564164 0.880369 0.074396
Si Si8 0.244493 0.012830 0.467532
O O1 0.068693 0.520656 0.330476
O O2 0.951437 0.162445 0.513862
O O3 0.040467 0.115058 0.257074
O O4 0.124754 0.010996 0.265771
O O5 0.811815 0.051777 0.225987
O O6 0.702068 0.110385 0.264052
O O7 0.750573 0.612336 0.226324
O O8 0.872154 0.952988 0.003539
O O9 0.208991 0.317712 0.506717
O O10 0.159076 0.813516 0.559298
O O11 0.397989 0.419008 0.958839
O O12 0.460212 0.598708 0.748949
O O13 0.281751 0.555326 0.999335
O O14 0.372067 0.921931 0.960327
O O15 0.673683 0.023701 0.705308
O O16 0.578538 0.987690 0.970247
#
# Coordination Sequence:
#
# PCOD9244989 Si02
#       8
#     4   4   4   4   4   4   4   4
#     4  10  21  37  56  80 109 140 177 220 265 317
#     4  10  21  37  55  80 110 140 179 223 266 318
#     4  10  21  37  55  80 110 140 179 223 266 318
#     4  10  21  36  54  79 109 140 179 224 268 320
#     4  10  21  37  56  80 109 140 177 220 265 317
#     4  10  21  36  55  79 108 141 179 222 267 319
#     4  10  21  36  54  79 109 140 179 224 268 320
#     4  10  21  36  55  79 108 141 179 222 267 319
#
# _framework density 25.922865000000002
#
# number of rings (size 3 to 8) (size 9 to 14) (size 15 to 20)
#    0.000    2.000    0.000    3.000    0.000    6.500 
#    0.000    7.500    0.000    9.000    0.000    0.000 
#    0.000    0.000    0.000    0.000    0.000    0.000 
#
# Total GULP energy -178987.882720 kJ/mol
# GULP energy per Si atom -5593.371335 kJ/mol
# Density = 2.586386 g / cm^3
# Si number density = 25.922865 Si / 1000 Ang^3
#
#
#
# Elastic Constant Matrix: (Units=GPa)
#
#
# Indices 1 2 3 4 5 6 
#
# 1 85.4417 5.4128 20.8807 0.0000 16.3177 0.0000
# 2 5.4128 86.1628 19.0947 0.0000 9.4970 0.0000
# 3 20.8807 19.0947 137.3733 0.0000 53.0205 0.0000
# 4 0.0000 0.0000 0.0000 38.2897 0.0000 13.0377
# 5 16.3177 9.4970 53.0205 0.0000 46.3517 0.0000
# 6 0.0000 0.0000 0.0000 13.0377 0.0000 22.0565
#
#
#
# Elastic Compliance Matrix: (Units=1/GPa)
#
#
# Indices 1 2 3 4 5 6 
#
# 1 0.012564 -0.000276 -0.000333 0.000000 -0.003985 0.000000
# 2 -0.000276 0.012006 -0.001280 0.000000 -0.000898 0.000000
# 3 -0.000333 -0.001280 0.013181 0.000000 -0.014697 0.000000
# 4 0.000000 0.000000 0.000000 0.032698 0.000000 -0.019328
# 5 -0.003985 -0.000898 -0.014697 0.000000 0.039973 0.000000
# 6 0.000000 0.000000 0.000000 -0.019328 0.000000 0.056763
#
#
# Mechanical properties :
#
#
# Convention : Reuss Voigt Hill
#
# Bulk Modulus (GPa) = 29.43626 44.41713 36.92670
# Shear Modulus (GPa) = 27.42925 38.91220 33.17072
#
# Velocity S-wave (km/s) = 3.25639 3.87858 3.58102
# Velocity P-wave (km/s) = 5.05161 6.10159 5.60125
#
# Compressibility (1/GPa) = 0.03397170
#
# Stress axis : x y z
#
# Youngs Moduli (GPa) = 79.59296 83.29168 75.86917
#
# Poissons Ratio (x) = 0.02300 0.02528
# Poissons Ratio (y) = 0.02198 0.09712
# Poissons Ratio (z) = 0.02652 0.10662
#
# Static dielectric constant tensor:
#      x y z
#    x 2.034230 0.000000 -0.001910 
#    y 0.000000 1.918580 0.000000 
#    z -0.001910 0.000000 2.176580 
# 
# From -- ./inp_files/62450.got.cif
#   From: 2010.05.17/outbox.cif.g08.bks.cpg/sg14_32_cif.got.tgz:62450.got - 2010.06.03 17:49:19.
