data_PCOD9244984
_publ_section_title
;
Structure prediction by ZEFSAII (Michael W. Deem and Ramdas Pophale) SiO2 
 PCOD9244984
Probable space group: P 21/C
;
_chemical_formula_sum "Si O2"
_cell_formula_units_Z 32
_cell_length_a 19.440263
_cell_length_b 17.447996
_cell_length_c 5.085372
_cell_angle_alpha 90.000000
_cell_angle_beta 98.071799
_cell_angle_gamma 90.000000
_cell_volume 1707.836763
_symmetry_space_group_name_H-M "P 21/C"
_symmetry_group_IT_number 14
_symmetry_cell_setting 'monoclinic'
loop_
_space_group_symop_operation_xyz
x,y,z
-x,1/2+y,1/2-z
-x,-y,-z
x,1/2-y,1/2+z
loop_
_atom_site_type_symbol
_atom_site_label
_atom_site_fract_x
_atom_site_fract_y
_atom_site_fract_z
Si Si1 0.324607 0.301087 0.067309
Si Si2 0.837899 0.799480 0.480433
Si Si3 0.582011 0.948887 0.301083
Si Si4 0.669087 0.300835 0.203665
Si Si5 0.420579 0.552697 0.685941
Si Si6 0.046281 0.908907 0.278112
Si Si7 0.832092 0.300079 0.328188
Si Si8 0.041562 0.407951 0.766459
O O1 0.337868 0.234288 0.287693
O O2 0.370738 0.374168 0.159159
O O3 0.242920 0.321921 0.038380
O O4 0.849271 0.770642 0.190383
O O5 0.890172 0.864676 0.601214
O O6 0.502031 0.926979 0.195926
O O7 0.583602 0.991574 0.580736
O O8 0.604209 0.009936 0.090780
O O9 0.655886 0.233024 0.407465
O O10 0.623010 0.373110 0.257940
O O11 0.750884 0.321540 0.263169
O O12 0.116202 0.866807 0.230273
O O13 0.018598 0.890020 0.553067
O O14 0.054110 0.000763 0.271055
O O15 0.987051 0.886123 0.035050
O O16 0.844172 0.269124 0.627956
#
# Coordination Sequence:
#
# PCOD9244984 Si02
#       8
#     4   4   4   4   4   4   4   4
#     4  10  21  37  56  81 112 144 182 226 271 324
#     4  10  21  36  54  78 106 137 176 219 262 314
#     4  10  21  37  57  83 113 144 182 225 268 321
#     4  10  21  37  56  81 112 144 182 226 271 324
#     4  10  21  37  57  83 113 144 182 225 268 321
#     4  10  21  36  53  76 105 136 174 219 265 316
#     4  10  21  36  54  78 106 137 176 219 262 314
#     4  10  21  36  53  76 105 136 174 219 265 316
#
# _framework density 18.737152999999999
#
# number of rings (size 3 to 8) (size 9 to 14) (size 15 to 20)
#    0.000    2.000    0.000    3.000    0.000    5.000 
#    0.000    3.750    0.000    0.000    0.000    0.000 
#    0.000    0.000    0.000    0.000    0.000    0.000 
#
# Total GULP energy -178713.735634 kJ/mol
# GULP energy per Si atom -5584.804239 kJ/mol
# Density = 1.869451 g / cm^3
# Si number density = 18.737153 Si / 1000 Ang^3
#
#
#
# Elastic Constant Matrix: (Units=GPa)
#
#
# Indices 1 2 3 4 5 6 
#
# 1 86.8382 65.3398 8.8065 0.0000 -3.5414 0.0000
# 2 65.3398 58.2206 -5.0488 0.0000 -2.0485 0.0000
# 3 8.8065 -5.0488 57.1924 0.0000 -6.8553 0.0000
# 4 0.0000 0.0000 0.0000 29.6893 0.0000 0.3195
# 5 -3.5414 -2.0485 -6.8553 0.0000 20.0000 0.0000
# 6 0.0000 0.0000 0.0000 0.3195 0.0000 54.9923
#
#
#
# Elastic Compliance Matrix: (Units=1/GPa)
#
#
# Indices 1 2 3 4 5 6 
#
# 1 0.102020 -0.116887 -0.026381 0.000000 -0.002950 0.000000
# 2 -0.116887 0.151340 0.032052 0.000000 0.005790 0.000000
# 3 -0.026381 0.032052 0.025247 0.000000 0.007266 0.000000
# 4 0.000000 0.000000 0.000000 0.033684 0.000000 -0.000196
# 5 -0.002950 0.005790 0.007266 0.000000 0.052561 0.000000
# 6 0.000000 0.000000 0.000000 -0.000196 0.000000 0.018186
#
#
# Mechanical properties :
#
#
# Convention : Reuss Voigt Hill
#
# Bulk Modulus (GPa) = 17.80146 37.82735 27.81440
# Shear Modulus (GPa) = 8.01031 29.81321 18.91176
#
# Velocity S-wave (km/s) = 2.06987 3.99322 3.18042
# Velocity P-wave (km/s) = 3.90304 6.44153 5.32574
#
# Compressibility (1/GPa) = 0.05617517
#
# Stress axis : x y z
#
# Youngs Moduli (GPa) = 9.80197 6.60766 39.60796
#
# Poissons Ratio (x) = 0.77235 1.04491
# Poissons Ratio (y) = 1.14572 -1.26953
# Poissons Ratio (z) = 0.25859 -0.21179
#
# Static dielectric constant tensor:
#      x y z
#    x 1.628700 0.000000 -0.001790 
#    y 0.000000 1.606620 0.000000 
#    z -0.001790 0.000000 1.643740 
# 
# From -- ./inp_files/4151.got.cif
#   From: 2010.05.17/outbox.cif.g08.bks.cpg/sg14_3_cif.got.tgz:4151.got - 2010.06.03 17:49:19.
