data_PCOD9244578
_publ_section_title
;
Structure prediction by ZEFSAII (Michael W. Deem and Ramdas Pophale) SiO2 
 PCOD9244578
Probable space group: P 21/C
;
_chemical_formula_sum "Si O2"
_cell_formula_units_Z 32
_cell_length_a 12.603365
_cell_length_b 14.086625
_cell_length_c 9.366332
_cell_angle_alpha 90.000000
_cell_angle_beta 67.954368
_cell_angle_gamma 90.000000
_cell_volume 1541.306354
_symmetry_space_group_name_H-M "P 21/C"
_symmetry_group_IT_number 14
_symmetry_cell_setting 'monoclinic'
loop_
_space_group_symop_operation_xyz
x,y,z
-x,1/2+y,1/2-z
-x,-y,-z
x,1/2-y,1/2+z
loop_
_atom_site_type_symbol
_atom_site_label
_atom_site_fract_x
_atom_site_fract_y
_atom_site_fract_z
Si Si1 0.388991 0.135979 0.292994
Si Si2 0.026668 0.519496 0.320790
Si Si3 0.375355 0.468631 0.518390
Si Si4 0.253162 0.079737 0.610914
Si Si5 0.413700 0.155949 0.725581
Si Si6 0.171387 0.801880 0.819699
Si Si7 0.172307 0.615126 0.639848
Si Si8 0.406781 0.602422 0.108743
O O1 0.355705 0.109736 0.150097
O O2 0.277348 0.108868 0.438935
O O3 0.427779 0.243699 0.291903
O O4 0.499367 0.086569 0.313448
O O5 0.129906 0.454090 0.215190
O O6 0.078948 0.626688 0.289423
O O7 0.000000 0.500000 0.500000
O O8 0.915852 0.473693 0.301773
O O9 0.500000 0.500000 0.500000
O O10 0.380714 0.419889 0.362412
O O11 0.292799 0.559446 0.570977
O O12 0.301621 0.163508 0.683195
O O13 0.340899 0.993849 0.602084
O O14 0.521663 0.136716 0.566556
O O15 0.157983 0.693567 0.771990
O O16 0.301792 0.830311 0.709214
O O17 0.159308 0.827409 0.994916
#
# Coordination Sequence:
#
# PCOD9244578 Si02
#       8
#     4   4   4   4   4   4   4   4
#     4  11  23  37  56  96 130 170 212 266 324 393
#     4   9  20  45  69  90 123 171 224 275 323 393
#     4  12  24  39  62  99 136 171 214 276 335 390
#     4  10  20  42  62  84 122 173 214 259 331 381
#     4  11  22  37  60  93 131 173 212 260 327 396
#     4  10  23  43  68  98 127 178 222 271 338 391
#     4  11  25  44  69  98 132 170 224 277 333 398
#     4  10  21  39  62  85 128 175 215 257 320 398
#
# _framework density 20.761610000000001
#
# number of rings (size 3 to 8) (size 9 to 14) (size 15 to 20)
#    0.000    1.500    0.000    7.500    5.250    2.000 
#    9.000    1.250    0.000    0.000    0.000    0.000 
#    0.000    0.000    0.000    0.000    0.000    0.000 
#
# Total GULP energy -178346.661585 kJ/mol
# GULP energy per Si atom -5573.333175 kJ/mol
# Density = 2.071436 g / cm^3
# Si number density = 20.761610 Si / 1000 Ang^3
#
#
#
# Elastic Constant Matrix: (Units=GPa)
#
#
# Indices 1 2 3 4 5 6 
#
# 1 70.5522 31.2366 17.0916 0.0000 -16.3104 0.0000
# 2 31.2366 85.2989 31.1452 0.0000 -3.7105 0.0000
# 3 17.0916 31.1452 93.5695 0.0000 -7.6574 0.0000
# 4 0.0000 0.0000 0.0000 31.5233 0.0000 10.5935
# 5 -16.3104 -3.7105 -7.6574 0.0000 26.2534 0.0000
# 6 0.0000 0.0000 0.0000 10.5935 0.0000 10.1992
#
#
#
# Elastic Compliance Matrix: (Units=1/GPa)
#
#
# Indices 1 2 3 4 5 6 
#
# 1 0.019805 -0.006578 -0.000509 0.000000 0.011226 0.000000
# 2 -0.006578 0.015540 -0.004227 0.000000 -0.003123 0.000000
# 3 -0.000509 -0.004227 0.012409 0.000000 0.002705 0.000000
# 4 0.000000 0.000000 0.000000 0.048732 0.000000 -0.050616
# 5 0.011226 -0.003123 0.002705 0.000000 0.045412 0.000000
# 6 0.000000 0.000000 0.000000 -0.050616 0.000000 0.150620
#
#
# Mechanical properties :
#
#
# Convention : Reuss Voigt Hill
#
# Bulk Modulus (GPa) = 39.80089 45.37417 42.58753
# Shear Modulus (GPa) = 15.45491 24.92498 20.18995
#
# Velocity S-wave (km/s) = 2.73133 3.46863 3.12182
# Velocity P-wave (km/s) = 5.39990 6.15988 5.79237
#
# Compressibility (1/GPa) = 0.02512507
#
# Stress axis : x y z
#
# Youngs Moduli (GPa) = 50.49208 64.35063 80.58988
#
# Poissons Ratio (x) = 0.42332 0.04104
# Poissons Ratio (y) = 0.33216 0.34062
# Poissons Ratio (z) = 0.02572 0.27198
#
# Static dielectric constant tensor:
#      x y z
#    x 1.830010 0.000000 0.298040 
#    y 0.000000 1.527430 0.000000 
#    z 0.298040 0.000000 2.804890 
# 
# From -- ./inp_files/13275.got.cif
#   From: 2010.05.17/outbox.cif.g08.bks.cpg/sg14_7_cif.got.tgz:13275.got - 2010.06.03 17:49:19.
