data_PCOD9244556
_publ_section_title
;
Structure prediction by ZEFSAII (Michael W. Deem and Ramdas Pophale) SiO2 
 PCOD9244556
Probable space group: P 21/C
;
_chemical_formula_sum "Si O2"
_cell_formula_units_Z 16
_cell_length_a 20.260710
_cell_length_b 5.194732
_cell_length_c 20.391243
_cell_angle_alpha 90.000000
_cell_angle_beta 20.060499
_cell_angle_gamma 90.000000
_cell_volume 736.158023
_symmetry_space_group_name_H-M "P 21/C"
_symmetry_group_IT_number 14
_symmetry_cell_setting 'monoclinic'
loop_
_space_group_symop_operation_xyz
x,y,z
-x,1/2+y,1/2-z
-x,-y,-z
x,1/2-y,1/2+z
loop_
_atom_site_type_symbol
_atom_site_label
_atom_site_fract_x
_atom_site_fract_y
_atom_site_fract_z
Si Si1 0.803776 0.717346 0.852661
Si Si2 0.171376 0.898892 0.451183
Si Si3 0.544754 0.249877 0.915440
Si Si4 0.158380 0.404913 0.535307
O O1 0.803720 0.829311 0.925726
O O2 0.941926 0.880004 0.674926
O O3 0.926902 0.452147 0.743008
O O4 0.597079 0.719234 0.014064
O O5 0.246845 0.800085 0.311359
O O6 0.239797 0.684084 0.440276
O O7 0.229241 0.183375 0.419870
O O8 0.500000 0.500000 0.000000
O O9 0.500000 0.000000 0.000000
#
# Coordination Sequence:
#
# PCOD9244556 Si02
#       4
#     4   4   4   4
#     4  10  23  42  70  93 134 156 215 271 321 393
#     4  10  22  42  64  98 123 167 211 266 328 367
#     4  12  29  43  61  94 132 179 218 253 312 390
#     4  10  20  41  70  99 120 161 208 273 340 358
#
# _framework density 21.734463000000002
#
# number of rings (size 3 to 8) (size 9 to 14) (size 15 to 20)
#    1.500    0.000    2.500    1.500    3.500    4.000 
#    0.000    0.000    0.000    0.000    0.000    0.000 
#    0.000    0.000    0.000    0.000    0.000    0.000 
#
# Total GULP energy -89164.487310 kJ/mol
# GULP energy per Si atom -5572.780457 kJ/mol
# Density = 2.168499 g / cm^3
# Si number density = 21.734463 Si / 1000 Ang^3
#
#
#
# Elastic Constant Matrix: (Units=GPa)
#
#
# Indices 1 2 3 4 5 6 
#
# 1 -23.1637 6.7370 15.0350 0.0000 -10.6628 0.0000
# 2 6.7370 126.7197 -5.1235 0.0000 6.8200 0.0000
# 3 15.0350 -5.1235 49.8165 0.0000 23.4597 0.0000
# 4 0.0000 0.0000 0.0000 24.3557 0.0000 10.6632
# 5 -10.6628 6.8200 23.4597 0.0000 31.5878 0.0000
# 6 0.0000 0.0000 0.0000 10.6632 0.0000 24.2144
#
#
#
# Elastic Compliance Matrix: (Units=1/GPa)
#
#
# Indices 1 2 3 4 5 6 
#
# 1 -0.022127 0.002948 0.016606 0.000000 -0.020439 0.000000
# 2 0.002948 0.007801 0.000365 0.000000 -0.000960 0.000000
# 3 0.016606 0.000365 0.019218 0.000000 -0.008746 0.000000
# 4 0.000000 0.000000 0.000000 0.050865 0.000000 -0.022399
# 5 -0.020439 -0.000960 -0.008746 0.000000 0.031461 0.000000
# 6 0.000000 0.000000 0.000000 -0.022399 0.000000 0.051161
#
#
# Mechanical properties :
#
#
# Convention : Reuss Voigt Hill
#
# Bulk Modulus (GPa) = 22.35624 20.74105 21.54864
# Shear Modulus (GPa) = 44.07117 25.14650 34.60884
#
# Velocity S-wave (km/s) = 4.50789 3.40514 3.99475
# Velocity P-wave (km/s) = 6.11582 5.00236 5.58690
#
# Compressibility (1/GPa) = 0.04473024
#
# Stress axis : x y z
#
# Youngs Moduli (GPa) = -45.19445 128.18627 52.03427
#
# Poissons Ratio (x) = -0.37786 -0.86409
# Poissons Ratio (y) = 0.13322 -0.01899
# Poissons Ratio (z) = 0.75051 -0.04677
#
# Static dielectric constant tensor:
#      x y z
#    x 1.746950 0.000000 -0.001770 
#    y 0.000000 1.879430 0.000000 
#    z -0.001770 0.000000 1.864240 
# 
# From -- ./inp_files/59845.got.cif
#   From: 2010.05.17/outbox.cif.g08.bks.cpg/sg14_30_cif.got.tgz:59845.got - 2010.06.03 17:49:19.
