data_PCOD9244249
_publ_section_title
;
Structure prediction by ZEFSAII (Michael W. Deem and Ramdas Pophale) SiO2 
 PCOD9244249
Probable space group: P 21/C
;
_chemical_formula_sum "Si O2"
_cell_formula_units_Z 22
_cell_length_a 6.858046
_cell_length_b 7.367804
_cell_length_c 21.109630
_cell_angle_alpha 90.000000
_cell_angle_beta 55.821998
_cell_angle_gamma 90.000000
_cell_volume 882.429810
_symmetry_space_group_name_H-M "P 21/C"
_symmetry_group_IT_number 14
_symmetry_cell_setting 'monoclinic'
loop_
_space_group_symop_operation_xyz
x,y,z
-x,1/2+y,1/2-z
-x,-y,-z
x,1/2-y,1/2+z
loop_
_atom_site_type_symbol
_atom_site_label
_atom_site_fract_x
_atom_site_fract_y
_atom_site_fract_z
Si Si1 0.774095 0.777588 0.997285
Si Si2 0.941332 0.628011 0.598030
Si Si3 0.738231 0.251917 0.854713
Si Si4 0.581667 0.524869 0.284188
Si Si5 0.000000 0.000000 0.500000
Si Si6 0.512697 0.422529 0.156251
O O1 0.903351 0.737766 0.044367
O O2 0.499196 0.791433 0.060254
O O3 0.876349 0.593209 0.952682
O O4 0.883951 0.963235 0.952838
O O5 0.686741 0.542997 0.654591
O O6 0.042539 0.723622 0.640391
O O7 0.687217 0.446449 0.834676
O O8 0.740187 0.109113 0.796629
O O9 0.606074 0.510062 0.204775
O O10 0.588091 0.726228 0.309727
O O11 0.270001 0.916850 0.431064
#
# Coordination Sequence:
#
# PCOD9244249 Si02
#       6
#     4   4   4   4   2   4
#     4   9  19  37  65  89 135 172 214 276 343 400
#     4  10  20  40  64  93 128 176 222 274 342 406
#     4  10  22  40  64  98 131 174 232 277 336 418
#     4  11  22  43  66  91 136 180 222 290 345 407
#     4  10  20  40  66  94 128 182 224 272 344 416
#     4  11  22  43  68  97 136 181 230 284 349 414
#
# _framework density 24.931159999999998
#
# number of rings (size 3 to 8) (size 9 to 14) (size 15 to 20)
#    0.000    1.818    3.636    0.545    0.000    0.000 
#    6.545    1.818    0.000    0.000    0.000    0.000 
#    0.000    0.000    0.000    0.000    0.000    0.000 
#
# Total GULP energy -122906.624266 kJ/mol
# GULP energy per Si atom -5586.664739 kJ/mol
# Density = 2.487442 g / cm^3
# Si number density = 24.931160 Si / 1000 Ang^3
#
#
#
# Elastic Constant Matrix: (Units=GPa)
#
#
# Indices 1 2 3 4 5 6 
#
# 1 115.4688 52.7258 31.6613 0.0000 23.7844 0.0000
# 2 52.7258 140.2907 44.4425 0.0000 8.8871 0.0000
# 3 31.6613 44.4425 67.9442 0.0000 -1.7459 0.0000
# 4 0.0000 0.0000 0.0000 35.8467 0.0000 -1.9944
# 5 23.7844 8.8871 -1.7459 0.0000 36.8712 0.0000
# 6 0.0000 0.0000 0.0000 -1.9944 0.0000 15.0939
#
#
#
# Elastic Compliance Matrix: (Units=1/GPa)
#
#
# Indices 1 2 3 4 5 6 
#
# 1 0.012759 -0.002977 -0.004196 0.000000 -0.007711 0.000000
# 2 -0.002977 0.009912 -0.005114 0.000000 -0.000711 0.000000
# 3 -0.004196 -0.005114 0.020144 0.000000 0.004893 0.000000
# 4 0.000000 0.000000 0.000000 0.028103 0.000000 0.003713
# 5 -0.007711 -0.000711 0.004893 0.000000 0.032499 0.000000
# 6 0.000000 0.000000 0.000000 0.003713 0.000000 0.066743
#
#
# Mechanical properties :
#
#
# Convention : Reuss Voigt Hill
#
# Bulk Modulus (GPa) = 54.82580 64.59588 59.71084
# Shear Modulus (GPa) = 24.89841 30.55397 27.72619
#
# Velocity S-wave (km/s) = 3.16363 3.50456 3.33845
# Velocity P-wave (km/s) = 5.94839 6.50706 6.23399
#
# Compressibility (1/GPa) = 0.01823959
#
# Stress axis : x y z
#
# Youngs Moduli (GPa) = 78.37688 100.88477 49.64146
#
# Poissons Ratio (x) = 0.30038 0.20830
# Poissons Ratio (y) = 0.23336 0.25389
# Poissons Ratio (z) = 0.32888 0.51597
#
# Static dielectric constant tensor:
#      x y z
#    x 1.973750 0.000000 0.029350 
#    y 0.000000 2.119320 0.000000 
#    z 0.029350 0.000000 2.045540 
# 
# From -- ./inp_files/63024.got.cif
#   From: 2010.05.17/outbox.cif.g08.bks.cpg/sg14_32_cif.got.tgz:63024.got - 2010.06.03 17:49:19.
