data_PCOD9244646
_publ_section_title
;
Structure prediction by ZEFSAII (Michael W. Deem and Ramdas Pophale) SiO2 
 PCOD9244646
Probable space group: P 21/C
;
_chemical_formula_sum "Si O2"
_cell_formula_units_Z 32
_cell_length_a 14.476736
_cell_length_b 7.677099
_cell_length_c 22.494307
_cell_angle_alpha 90.000000
_cell_angle_beta 151.103589
_cell_angle_gamma 90.000000
_cell_volume 1208.069985
_symmetry_space_group_name_H-M "P 21/C"
_symmetry_group_IT_number 14
_symmetry_cell_setting 'monoclinic'
loop_
_space_group_symop_operation_xyz
x,y,z
-x,1/2+y,1/2-z
-x,-y,-z
x,1/2-y,1/2+z
loop_
_atom_site_type_symbol
_atom_site_label
_atom_site_fract_x
_atom_site_fract_y
_atom_site_fract_z
Si Si1 0.250931 0.651961 0.910417
Si Si2 0.090878 0.369432 0.737757
Si Si3 0.799839 0.360228 0.911795
Si Si4 0.065703 0.553168 0.136869
Si Si5 0.397381 0.240714 0.696232
Si Si6 0.423258 0.801864 0.889731
Si Si7 0.393744 0.418805 0.816751
Si Si8 0.799902 0.665884 0.537037
O O1 0.044472 0.725157 0.810753
O O2 0.360965 0.763965 0.921977
O O3 0.212305 0.469812 0.856299
O O4 0.390930 0.635296 0.044870
O O5 0.945639 0.508215 0.626358
O O6 0.247181 0.323279 0.777435
O O7 0.909514 0.339160 0.911446
O O8 0.627470 0.228827 0.823438
O O9 0.693175 0.549222 0.848262
O O10 0.951828 0.383925 0.050251
O O11 0.277288 0.555279 0.282180
O O12 0.932598 0.662199 0.106625
O O13 0.350598 0.361004 0.726103
O O14 0.320124 0.323176 0.591671
O O15 0.384313 0.622645 0.830111
O O16 0.641526 0.847459 0.999314
#
# Coordination Sequence:
#
# PCOD9244646 Si02
#       8
#     4   4   4   4   4   4   4   4
#     4  11  27  46  76 101 145 183 243 301 345 428
#     4  11  26  49  70 108 135 188 246 287 366 423
#     4  10  23  41  67 103 143 188 237 276 359 420
#     4  10  20  42  67 101 133 186 240 282 335 435
#     4  11  24  43  70 102 151 180 231 295 354 433
#     4  11  22  45  75  98 140 191 236 287 363 417
#     4  11  25  46  69 104 144 186 234 293 358 418
#     4  11  23  42  73 104 137 188 235 283 364 424
#
# _framework density 26.488533
#
# number of rings (size 3 to 8) (size 9 to 14) (size 15 to 20)
#    0.000    1.250    3.750    3.000    5.250    2.000 
#   11.250    0.000    0.000    0.000    0.000    0.000 
#    0.000    0.000    0.000    0.000    0.000    0.000 
#
# Total GULP energy -179559.509172 kJ/mol
# GULP energy per Si atom -5611.234662 kJ/mol
# Density = 2.642824 g / cm^3
# Si number density = 26.488533 Si / 1000 Ang^3
#
#
#
# Elastic Constant Matrix: (Units=GPa)
#
#
# Indices 1 2 3 4 5 6 
#
# 1 137.3314 16.6323 23.1293 0.0000 23.1746 0.0000
# 2 16.6323 74.7855 26.3135 0.0000 -4.6429 0.0000
# 3 23.1293 26.3135 120.2414 0.0000 21.3429 0.0000
# 4 0.0000 0.0000 0.0000 48.1085 0.0000 3.7971
# 5 23.1746 -4.6429 21.3429 0.0000 55.5301 0.0000
# 6 0.0000 0.0000 0.0000 3.7971 0.0000 29.9985
#
#
#
# Elastic Compliance Matrix: (Units=1/GPa)
#
#
# Indices 1 2 3 4 5 6 
#
# 1 0.008162 -0.001818 -0.000580 0.000000 -0.003336 0.000000
# 2 -0.001818 0.015253 -0.003594 0.000000 0.003416 0.000000
# 3 -0.000580 -0.003594 0.009901 0.000000 -0.003864 0.000000
# 4 0.000000 0.000000 0.000000 0.020996 0.000000 -0.002658
# 5 -0.003336 0.003416 -0.003864 0.000000 0.021171 0.000000
# 6 0.000000 0.000000 0.000000 -0.002658 0.000000 0.033671
#
#
# Mechanical properties :
#
#
# Convention : Reuss Voigt Hill
#
# Bulk Modulus (GPa) = 46.88207 51.61205 49.24706
# Shear Modulus (GPa) = 38.98643 44.47965 41.73304
#
# Velocity S-wave (km/s) = 3.84060 4.10225 3.97358
# Velocity P-wave (km/s) = 6.11591 6.47804 6.29958
#
# Compressibility (1/GPa) = 0.02133012
#
# Stress axis : x y z
#
# Youngs Moduli (GPa) = 122.51238 65.56208 101.00400
#
# Poissons Ratio (x) = 0.11921 0.05860
# Poissons Ratio (y) = 0.22276 0.36305
# Poissons Ratio (z) = 0.07107 0.23566
#
# Static dielectric constant tensor:
#      x y z
#    x 2.054370 0.000000 -0.014030 
#    y 0.000000 2.100840 0.000000 
#    z -0.014030 0.000000 2.027010 
# 
# From -- ./inp_files/73873.got.cif
#   From: 2010.05.17/outbox.cif.g08.bks.cpg/sg14_37_cif.got.tgz:73873.got - 2010.06.03 17:49:19.
