data_PCOD9244273
_publ_section_title
;
Structure prediction by ZEFSAII (Michael W. Deem and Ramdas Pophale) SiO2 
 PCOD9244273
Probable space group: P 21/C
;
_chemical_formula_sum "Si O2"
_cell_formula_units_Z 20
_cell_length_a 8.123940
_cell_length_b 7.145576
_cell_length_c 25.394254
_cell_angle_alpha 90.000000
_cell_angle_beta 149.539576
_cell_angle_gamma 90.000000
_cell_volume 747.306250
_symmetry_space_group_name_H-M "P 21/C"
_symmetry_group_IT_number 14
_symmetry_cell_setting 'monoclinic'
loop_
_space_group_symop_operation_xyz
x,y,z
-x,1/2+y,1/2-z
-x,-y,-z
x,1/2-y,1/2+z
loop_
_atom_site_type_symbol
_atom_site_label
_atom_site_fract_x
_atom_site_fract_y
_atom_site_fract_z
Si Si1 0.288113 0.112924 0.739178
Si Si2 0.412456 0.205077 0.882783
Si Si3 0.342724 0.399656 0.083211
Si Si4 0.148418 0.380943 0.614070
Si Si5 0.233137 0.160744 0.439584
O O1 0.227548 0.103884 0.784618
O O2 0.166471 0.299855 0.677745
O O3 0.672449 0.078658 0.838840
O O4 0.102455 0.950712 0.656655
O O5 0.433991 0.420527 0.867372
O O6 0.257976 0.197498 0.898047
O O7 0.784306 0.135730 0.992356
O O8 0.371967 0.257366 0.139543
O O9 0.320729 0.283722 0.022764
O O10 0.000000 0.500000 0.000000
O O11 0.500000 0.000000 0.500000
#
# Coordination Sequence:
#
# PCOD9244273 Si02
#       5
#     4   4   4   4   4
#     4  12  23  39  70  99 127 176 225 267 331 397
#     4  10  22  41  64  92 135 166 218 279 324 390
#     4   9  17  38  64  88 125 174 209 263 323 385
#     4  11  23  40  66  97 129 171 223 273 323 400
#     4  10  20  40  65  88 130 175 214 260 335 388
#
# _framework density 26.762788
#
# number of rings (size 3 to 8) (size 9 to 14) (size 15 to 20)
#    0.000    1.600    6.000    1.800    2.800    3.200 
#    0.000    1.000    0.000    0.000    0.000    0.000 
#    0.000    0.000    0.000    0.000    0.000    0.000 
#
# Total GULP energy -111962.753275 kJ/mol
# GULP energy per Si atom -5598.137664 kJ/mol
# Density = 2.670187 g / cm^3
# Si number density = 26.762788 Si / 1000 Ang^3
#
#
#
# Elastic Constant Matrix: (Units=GPa)
#
#
# Indices 1 2 3 4 5 6 
#
# 1 84.2692 9.0436 31.4155 0.0000 -25.5997 0.0000
# 2 9.0436 75.4805 19.0454 0.0000 4.2281 0.0000
# 3 31.4155 19.0454 112.4289 0.0000 -25.1787 0.0000
# 4 0.0000 0.0000 0.0000 35.7847 0.0000 -4.2906
# 5 -25.5997 4.2281 -25.1787 0.0000 51.8500 0.0000
# 6 0.0000 0.0000 0.0000 -4.2906 0.0000 38.6427
#
#
#
# Elastic Compliance Matrix: (Units=1/GPa)
#
#
# Indices 1 2 3 4 5 6 
#
# 1 0.014856 -0.001499 -0.002499 0.000000 0.006243 0.000000
# 2 -0.001499 0.014297 -0.002726 0.000000 -0.003230 0.000000
# 3 -0.002499 -0.002726 0.011027 0.000000 0.004343 0.000000
# 4 0.000000 0.000000 0.000000 0.028322 0.000000 0.003145
# 5 0.006243 -0.003230 0.004343 0.000000 0.024742 0.000000
# 6 0.000000 0.000000 0.000000 0.003145 0.000000 0.026227
#
#
# Mechanical properties :
#
#
# Convention : Reuss Voigt Hill
#
# Bulk Modulus (GPa) = 37.40926 43.46530 40.43728
# Shear Modulus (GPa) = 35.25341 39.43375 37.34358
#
# Velocity S-wave (km/s) = 3.63334 3.84272 3.73950
# Velocity P-wave (km/s) = 5.62227 5.99708 5.81270
#
# Compressibility (1/GPa) = 0.02673135
#
# Stress axis : x y z
#
# Youngs Moduli (GPa) = 67.31338 69.94512 90.68367
#
# Poissons Ratio (x) = 0.10486 0.22661
# Poissons Ratio (y) = 0.10091 0.24724
# Poissons Ratio (z) = 0.16821 0.19069
#
# Static dielectric constant tensor:
#      x y z
#    x 2.141910 0.000000 0.042350 
#    y 0.000000 2.175200 0.000000 
#    z 0.042350 0.000000 2.057750 
# 
# From -- ./inp_files/23035.got.cif
#   From: 2010.05.17/outbox.cif.g08.bks.cpg/sg14_12_cif.got.tgz:23035.got - 2010.06.03 17:49:19.
