data_PCOD9244942
_publ_section_title
;
Structure prediction by ZEFSAII (Michael W. Deem and Ramdas Pophale) SiO2 
 PCOD9244942
Probable space group: P 21/C
;
_chemical_formula_sum "Si O2"
_cell_formula_units_Z 28
_cell_length_a 5.142254
_cell_length_b 22.879482
_cell_length_c 12.144555
_cell_angle_alpha 90.000000
_cell_angle_beta 115.629662
_cell_angle_gamma 90.000000
_cell_volume 1288.247829
_symmetry_space_group_name_H-M "P 21/C"
_symmetry_group_IT_number 14
_symmetry_cell_setting 'monoclinic'
loop_
_space_group_symop_operation_xyz
x,y,z
-x,1/2+y,1/2-z
-x,-y,-z
x,1/2-y,1/2+z
loop_
_atom_site_type_symbol
_atom_site_label
_atom_site_fract_x
_atom_site_fract_y
_atom_site_fract_z
Si Si1 0.849122 0.700039 0.999334
Si Si2 0.644552 0.679097 0.392201
Si Si3 0.332360 0.515351 0.580890
Si Si4 0.311945 0.850881 0.049169
Si Si5 0.493607 0.776926 0.638463
Si Si6 0.253931 0.425133 0.980716
Si Si7 0.388333 0.963217 0.653795
O O1 0.183950 0.705527 0.030014
O O2 0.671615 0.751020 0.911128
O O3 0.775492 0.712768 0.114701
O O4 0.735955 0.636103 0.956281
O O5 0.446006 0.653037 0.450919
O O6 0.525159 0.679445 0.247592
O O7 0.967425 0.655989 0.471645
O O8 0.500000 0.500000 0.500000
O O9 0.370451 0.585008 0.608936
O O10 0.448154 0.477037 0.703787
O O11 0.000000 0.500000 0.500000
O O12 0.444111 0.794099 0.137383
O O13 0.444413 0.425374 0.906099
O O14 0.927050 0.437539 0.883880
O O15 0.347064 0.475652 0.080955
#
# Coordination Sequence:
#
# PCOD9244942 Si02
#       7
#     4   4   4   4   4   4   4
#     4  10  21  35  58  88 111 147 195 232 291 352
#     4  10  21  38  59  86 118 153 189 235 295 352
#     4  12  26  42  62  89 121 166 206 239 298 359
#     4  10  23  40  57  87 120 150 196 240 283 350
#     4  10  21  37  58  86 115 150 188 234 295 344
#     4  10  21  40  62  88 118 152 200 254 296 342
#     4  10  23  40  60  88 119 156 202 246 296 345
#
# _framework density 21.734949
#
# number of rings (size 3 to 8) (size 9 to 14) (size 15 to 20)
#    0.000    1.714    0.000    3.429    2.000    6.857 
#    0.000    0.000    0.000    0.000    0.000    0.000 
#    0.000    0.000    0.000    0.000    0.000    0.000 
#
# Total GULP energy -156383.681604 kJ/mol
# GULP energy per Si atom -5585.131486 kJ/mol
# Density = 2.168548 g / cm^3
# Si number density = 21.734949 Si / 1000 Ang^3
#
#
#
# Elastic Constant Matrix: (Units=GPa)
#
#
# Indices 1 2 3 4 5 6 
#
# 1 93.8505 -7.3151 17.2950 0.0000 -4.2046 0.0000
# 2 -7.3151 72.3416 -29.6574 0.0000 2.5861 0.0000
# 3 17.2950 -29.6574 46.4099 0.0000 3.3332 0.0000
# 4 0.0000 0.0000 0.0000 11.9277 0.0000 -5.2979
# 5 -4.2046 2.5861 3.3332 0.0000 10.6348 0.0000
# 6 0.0000 0.0000 0.0000 -5.2979 0.0000 24.7268
#
#
#
# Elastic Compliance Matrix: (Units=1/GPa)
#
#
# Indices 1 2 3 4 5 6 
#
# 1 0.011933 -0.001445 -0.005867 0.000000 0.006908 0.000000
# 2 -0.001445 0.019687 0.013815 0.000000 -0.009689 0.000000
# 3 -0.005867 0.013815 0.033729 0.000000 -0.016251 0.000000
# 4 0.000000 0.000000 0.000000 0.092656 0.000000 0.019852
# 5 0.006908 -0.009689 -0.016251 0.000000 0.104212 0.000000
# 6 0.000000 0.000000 0.000000 0.019852 0.000000 0.044695
#
#
# Mechanical properties :
#
#
# Convention : Reuss Voigt Hill
#
# Bulk Modulus (GPa) = 12.76234 19.24968 16.00601
# Shear Modulus (GPa) = 15.62378 24.94317 20.28347
#
# Velocity S-wave (km/s) = 2.68401 3.39131 3.05818
# Velocity P-wave (km/s) = 3.93571 4.92041 4.45535
#
# Compressibility (1/GPa) = 0.07835556
#
# Stress axis : x y z
#
# Youngs Moduli (GPa) = 83.79959 50.79413 29.64802
#
# Poissons Ratio (x) = 0.07342 0.17394
# Poissons Ratio (y) = 0.12113 -0.40960
# Poissons Ratio (z) = 0.49164 -0.70174
#
# Static dielectric constant tensor:
#      x y z
#    x 1.741750 0.000000 -0.040020 
#    y 0.000000 1.842270 0.000000 
#    z -0.040020 0.000000 1.808640 
# 
# From -- ./inp_files/21877.got.cif
#   From: 2010.05.17/outbox.cif.g08.bks.cpg/sg14_11_cif.got.tgz:21877.got - 2010.06.03 17:49:19.
