data_PCOD9244576
_publ_section_title
;
Structure prediction by ZEFSAII (Michael W. Deem and Ramdas Pophale) SiO2 
 PCOD9244576
Probable space group: P 21/C
;
_chemical_formula_sum "Si O2"
_cell_formula_units_Z 32
_cell_length_a 8.523677
_cell_length_b 12.040784
_cell_length_c 13.373335
_cell_angle_alpha 90.000000
_cell_angle_beta 99.403336
_cell_angle_gamma 90.000000
_cell_volume 1354.085673
_symmetry_space_group_name_H-M "P 21/C"
_symmetry_group_IT_number 14
_symmetry_cell_setting 'monoclinic'
loop_
_space_group_symop_operation_xyz
x,y,z
-x,1/2+y,1/2-z
-x,-y,-z
x,1/2-y,1/2+z
loop_
_atom_site_type_symbol
_atom_site_label
_atom_site_fract_x
_atom_site_fract_y
_atom_site_fract_z
Si Si1 0.139251 0.861491 0.743717
Si Si2 0.714794 0.907493 0.184313
Si Si3 0.604098 0.102752 0.373573
Si Si4 0.612533 0.001293 0.788981
Si Si5 0.596958 0.868274 0.463645
Si Si6 0.978714 0.804410 0.361199
Si Si7 0.839393 0.513292 0.135767
Si Si8 0.241358 0.153928 0.040505
O O1 0.238260 0.843598 0.652571
O O2 0.110700 0.757086 0.809207
O O3 0.231478 0.963648 0.804382
O O4 0.965690 0.907980 0.701762
O O5 0.830352 0.842379 0.274170
O O6 0.524093 0.914432 0.185432
O O7 0.752325 0.865551 0.077020
O O8 0.470313 0.107282 0.273649
O O9 0.554507 0.136291 0.479334
O O10 0.606162 0.967844 0.385762
O O11 0.715970 0.954755 0.891724
O O12 0.728507 0.038837 0.711299
O O13 0.626266 0.748108 0.425182
O O14 0.735558 0.910108 0.552963
O O15 0.915125 0.716747 0.435447
O O16 0.059943 0.917261 0.408356
#
# Coordination Sequence:
#
# PCOD9244576 Si02
#       8
#     4   4   4   4   4   4   4   4
#     4  10  20  42  61  92 132 169 208 260 329 383
#     4  10  24  42  65  93 133 167 215 272 317 379
#     4   9  21  41  62  89 136 162 210 283 314 370
#     4  10  21  43  63  90 129 173 208 268 321 374
#     4  10  21  40  64 100 122 164 226 266 319 381
#     4  11  24  42  65  96 126 179 213 259 328 389
#     4  10  21  40  68  91 134 164 212 273 316 375
#     4  12  23  38  71  93 126 176 220 257 326 394
#
# _framework density 23.632183000000001
#
# number of rings (size 3 to 8) (size 9 to 14) (size 15 to 20)
#    0.000    1.750    1.250    3.375    1.750    4.500 
#   15.750    0.000    0.000    0.000    0.000    0.000 
#    0.000    0.000    0.000    0.000    0.000    0.000 
#
# Total GULP energy -178703.413581 kJ/mol
# GULP energy per Si atom -5584.481674 kJ/mol
# Density = 2.357839 g / cm^3
# Si number density = 23.632183 Si / 1000 Ang^3
#
#
#
# Elastic Constant Matrix: (Units=GPa)
#
#
# Indices 1 2 3 4 5 6 
#
# 1 94.7571 16.6160 33.6877 0.0000 -31.6002 0.0000
# 2 16.6160 58.0318 13.1108 0.0000 -14.1311 0.0000
# 3 33.6877 13.1108 94.8974 0.0000 -23.2544 0.0000
# 4 0.0000 0.0000 0.0000 24.7767 0.0000 -15.2770
# 5 -31.6002 -14.1311 -23.2544 0.0000 37.8470 0.0000
# 6 0.0000 0.0000 0.0000 -15.2770 0.0000 13.8464
#
#
#
# Elastic Compliance Matrix: (Units=1/GPa)
#
#
# Indices 1 2 3 4 5 6 
#
# 1 0.015259 -0.001172 -0.002637 0.000000 0.010682 0.000000
# 2 -0.001172 0.019133 -0.000844 0.000000 0.005647 0.000000
# 3 -0.002637 -0.000844 0.012919 0.000000 0.005421 0.000000
# 4 0.000000 0.000000 0.000000 0.126245 0.000000 0.139289
# 5 0.010682 0.005647 0.005421 0.000000 0.040781 0.000000
# 6 0.000000 0.000000 0.000000 0.139289 0.000000 0.225902
#
#
# Mechanical properties :
#
#
# Convention : Reuss Voigt Hill
#
# Bulk Modulus (GPa) = 26.31205 41.61282 33.96244
# Shear Modulus (GPa) = 10.81756 27.57879 19.19818
#
# Velocity S-wave (km/s) = 2.14182 3.41985 2.85331
# Velocity P-wave (km/s) = 4.15629 5.76546 5.02570
#
# Compressibility (1/GPa) = 0.03800539
#
# Stress axis : x y z
#
# Youngs Moduli (GPa) = 65.53617 52.26532 77.40671
#
# Poissons Ratio (x) = 0.06125 0.20413
# Poissons Ratio (y) = 0.07681 0.06530
# Poissons Ratio (z) = 0.17283 0.04409
#
# Static dielectric constant tensor:
#      x y z
#    x 1.986190 0.000000 -0.006360 
#    y 0.000000 1.860810 0.000000 
#    z -0.006360 0.000000 1.956270 
# 
# From -- ./inp_files/40089.got.cif
#   From: 2010.05.17/outbox.cif.g08.bks.cpg/sg14_21_cif.got.tgz:40089.got - 2010.06.03 17:49:19.
