data_PCOD9244397
_publ_section_title
;
Structure prediction by ZEFSAII (Michael W. Deem and Ramdas Pophale) SiO2 
 PCOD9244397
Probable space group: P 21/C
;
_chemical_formula_sum "Si O2"
_cell_formula_units_Z 28
_cell_length_a 8.022157
_cell_length_b 12.261667
_cell_length_c 18.029153
_cell_angle_alpha 90.000000
_cell_angle_beta 133.262001
_cell_angle_gamma 90.000000
_cell_volume 1291.466178
_symmetry_space_group_name_H-M "P 21/C"
_symmetry_group_IT_number 14
_symmetry_cell_setting 'monoclinic'
loop_
_space_group_symop_operation_xyz
x,y,z
-x,1/2+y,1/2-z
-x,-y,-z
x,1/2-y,1/2+z
loop_
_atom_site_type_symbol
_atom_site_label
_atom_site_fract_x
_atom_site_fract_y
_atom_site_fract_z
Si Si1 0.660126 0.963355 0.453554
Si Si2 0.914773 0.279615 0.638898
Si Si3 0.428062 0.279798 0.517857
Si Si4 0.401619 0.604868 0.282055
Si Si5 0.731562 0.961717 0.752273
Si Si6 0.890776 0.574700 0.863112
Si Si7 0.080814 0.801816 0.192936
O O1 0.592797 0.846361 0.464357
O O2 0.770876 0.945579 0.405647
O O3 0.436202 0.036111 0.370006
O O4 0.856710 0.021973 0.559955
O O5 0.651780 0.291920 0.534164
O O6 0.069136 0.202220 0.635388
O O7 0.908342 0.217488 0.715661
O O8 0.039548 0.393578 0.689813
O O9 0.488556 0.353636 0.608132
O O10 0.182009 0.309003 0.410681
O O11 0.593066 0.590202 0.278077
O O12 0.215753 0.697150 0.201453
O O13 0.264475 0.490429 0.243072
O O14 0.790229 0.087062 0.787113
#
# Coordination Sequence:
#
# PCOD9244397 Si02
#       7
#     4   4   4   4   4   4   4
#     4  10  20  40  70  94 119 164 230 267 311 369
#     4  11  26  40  63  95 136 167 211 262 328 384
#     4  11  23  41  63  93 131 171 210 264 318 389
#     4  10  22  43  67  90 128 163 218 275 314 369
#     4  11  24  43  65  95 129 169 213 268 321 381
#     4  10  22  40  67  97 121 169 216 273 317 379
#     4  11  25  43  64  96 130 169 214 262 325 386
#
# _framework density 21.680785
#
# number of rings (size 3 to 8) (size 9 to 14) (size 15 to 20)
#    0.000    1.429    4.286    0.857    8.000    1.714 
#    0.000    0.000    0.000    0.000    0.000    0.000 
#    0.000    0.000    0.000    0.000    0.000    0.000 
#
# Total GULP energy -156540.881067 kJ/mol
# GULP energy per Si atom -5590.745752 kJ/mol
# Density = 2.163144 g / cm^3
# Si number density = 21.680785 Si / 1000 Ang^3
#
#
#
# Elastic Constant Matrix: (Units=GPa)
#
#
# Indices 1 2 3 4 5 6 
#
# 1 55.3689 15.6633 12.6764 0.0000 21.7091 0.0000
# 2 15.6633 52.0609 1.6755 0.0000 16.0148 0.0000
# 3 12.6764 1.6755 93.1594 0.0000 36.7813 0.0000
# 4 0.0000 0.0000 0.0000 19.9505 0.0000 10.8666
# 5 21.7091 16.0148 36.7813 0.0000 36.5878 0.0000
# 6 0.0000 0.0000 0.0000 10.8666 0.0000 33.1530
#
#
#
# Elastic Compliance Matrix: (Units=1/GPa)
#
#
# Indices 1 2 3 4 5 6 
#
# 1 0.024602 -0.002268 0.003423 0.000000 -0.017046 0.000000
# 2 -0.002268 0.024394 0.005893 0.000000 -0.015256 0.000000
# 3 0.003423 0.005893 0.019869 0.000000 -0.024585 0.000000
# 4 0.000000 0.000000 0.000000 0.061017 0.000000 -0.020000
# 5 -0.017046 -0.015256 -0.024585 0.000000 0.068838 0.000000
# 6 0.000000 0.000000 0.000000 -0.020000 0.000000 0.036719
#
#
# Mechanical properties :
#
#
# Convention : Reuss Voigt Hill
#
# Bulk Modulus (GPa) = 12.05379 28.95773 20.50576
# Shear Modulus (GPa) = 20.08054 29.30987 24.69520
#
# Velocity S-wave (km/s) = 3.04664 3.68078 3.37862
# Velocity P-wave (km/s) = 4.23648 5.60800 4.96978
#
# Compressibility (1/GPa) = 0.08296145
#
# Stress axis : x y z
#
# Youngs Moduli (GPa) = 40.64695 40.99351 50.32937
#
# Poissons Ratio (x) = 0.09299 -0.17229
# Poissons Ratio (y) = 0.09221 -0.29661
# Poissons Ratio (z) = -0.13914 -0.24159
#
# Static dielectric constant tensor:
#      x y z
#    x 1.810490 0.000000 0.013270 
#    y 0.000000 1.770990 0.000000 
#    z 0.013270 0.000000 1.796010 
# 
# From -- ./inp_files/65527.got.cif
#   From: 2010.05.17/outbox.cif.g08.bks.cpg/sg14_33_cif.got.tgz:65527.got - 2010.06.03 17:49:19.
