data_PCOD9244094
_publ_section_title
;
Structure prediction by ZEFSAII (Michael W. Deem and Ramdas Pophale) SiO2 
 PCOD9244094
Probable space group: P 21/C
;
_chemical_formula_sum "Si O2"
_cell_formula_units_Z 24
_cell_length_a 26.075259
_cell_length_b 5.661778
_cell_length_c 15.549077
_cell_angle_alpha 90.000000
_cell_angle_beta 153.774980
_cell_angle_gamma 90.000000
_cell_volume 1014.396520
_symmetry_space_group_name_H-M "P 21/C"
_symmetry_group_IT_number 14
_symmetry_cell_setting 'monoclinic'
loop_
_space_group_symop_operation_xyz
x,y,z
-x,1/2+y,1/2-z
-x,-y,-z
x,1/2-y,1/2+z
loop_
_atom_site_type_symbol
_atom_site_label
_atom_site_fract_x
_atom_site_fract_y
_atom_site_fract_z
Si Si1 0.570226 0.306776 0.052523
Si Si2 0.429757 0.550299 0.133899
Si Si3 0.342109 0.009508 0.678184
Si Si4 0.087698 0.804535 0.670430
Si Si5 0.850975 0.602154 0.584064
Si Si6 0.932702 0.092529 0.031779
O O1 0.660462 0.192588 0.254027
O O2 0.500000 0.500000 0.000000
O O3 0.612746 0.414280 0.027322
O O4 0.473116 0.112573 0.881416
O O5 0.492991 0.289848 0.230703
O O6 0.335074 0.549837 0.067131
O O7 0.248063 0.202916 0.560055
O O8 0.134547 0.696146 0.651816
O O9 0.012953 0.612097 0.610638
O O10 0.166117 0.927415 0.860660
O O11 0.000000 0.000000 0.500000
O O12 0.859424 0.500154 0.501291
O O13 0.976927 0.719222 0.792259
#
# Coordination Sequence:
#
# PCOD9244094 Si02
#       6
#     4   4   4   4   4   4
#     4  10  20  42  67  95 139 178 231 301 367 430
#     4  10  20  40  71  96 140 188 234 299 370 427
#     4  10  23  39  68 102 134 185 241 294 360 449
#     4   9  20  39  64  91 131 184 229 288 348 418
#     4  11  21  40  68 100 137 185 239 288 365 433
#     4  10  20  39  67  92 137 186 227 297 356 410
#
# _framework density 23.659388
#
# number of rings (size 3 to 8) (size 9 to 14) (size 15 to 20)
#    0.000    2.000    3.333    0.000    0.000    1.333 
#    0.000    6.667    7.333    0.000    0.000    0.000 
#    0.000    0.000    0.000    0.000    0.000    0.000 
#
# Total GULP energy -134130.629805 kJ/mol
# GULP energy per Si atom -5588.776242 kJ/mol
# Density = 2.360554 g / cm^3
# Si number density = 23.659388 Si / 1000 Ang^3
#
#
#
# Elastic Constant Matrix: (Units=GPa)
#
#
# Indices 1 2 3 4 5 6 
#
# 1 220.0484 67.6740 67.0267 0.0000 -47.7510 0.0000
# 2 67.6740 105.7059 35.9980 0.0000 -18.7120 0.0000
# 3 67.0267 35.9980 103.0319 0.0000 -35.9540 0.0000
# 4 0.0000 0.0000 0.0000 59.0359 0.0000 -3.2428
# 5 -47.7510 -18.7120 -35.9540 0.0000 47.3000 0.0000
# 6 0.0000 0.0000 0.0000 -3.2428 0.0000 49.2989
#
#
#
# Elastic Compliance Matrix: (Units=1/GPa)
#
#
# Indices 1 2 3 4 5 6 
#
# 1 0.007041 -0.003056 -0.001979 0.000000 0.004395 0.000000
# 2 -0.003056 0.012191 -0.002266 0.000000 0.000015 0.000000
# 3 -0.001979 -0.002266 0.014665 0.000000 0.008253 0.000000
# 4 0.000000 0.000000 0.000000 0.017000 0.000000 0.001118
# 5 0.004395 0.000015 0.008253 0.000000 0.031857 0.000000
# 6 0.000000 0.000000 0.000000 0.001118 0.000000 0.020358
#
#
# Mechanical properties :
#
#
# Convention : Reuss Voigt Hill
#
# Bulk Modulus (GPa) = 51.82780 85.57594 68.70187
# Shear Modulus (GPa) = 40.27541 48.33281 44.30411
#
# Velocity S-wave (km/s) = 4.13037 4.52470 4.33203
# Velocity P-wave (km/s) = 6.68580 7.97156 7.35682
#
# Compressibility (1/GPa) = 0.01929466
#
# Stress axis : x y z
#
# Youngs Moduli (GPa) = 142.03231 82.02836 68.19028
#
# Poissons Ratio (x) = 0.25064 0.13496
# Poissons Ratio (y) = 0.43399 0.15453
# Poissons Ratio (z) = 0.28110 0.18589
#
# Static dielectric constant tensor:
#      x y z
#    x 1.592400 0.000000 -0.157060 
#    y 0.000000 1.895730 0.000000 
#    z -0.157060 0.000000 1.904920 
# 
# From -- ./inp_files/51737.got.cif
#   From: 2010.05.17/outbox.cif.g08.bks.cpg/sg14_26_cif.got.tgz:51737.got - 2010.06.03 17:49:19.
