data_PCOD9244310
_publ_section_title
;
Structure prediction by ZEFSAII (Michael W. Deem and Ramdas Pophale) SiO2 
 PCOD9244310
Probable space group: P 21/C
;
_chemical_formula_sum "Si O2"
_cell_formula_units_Z 26
_cell_length_a 25.400076
_cell_length_b 6.385770
_cell_length_c 17.646695
_cell_angle_alpha 90.000000
_cell_angle_beta 153.785198
_cell_angle_gamma 90.000000
_cell_volume 1264.375505
_symmetry_space_group_name_H-M "P 21/C"
_symmetry_group_IT_number 14
_symmetry_cell_setting 'monoclinic'
loop_
_space_group_symop_operation_xyz
x,y,z
-x,1/2+y,1/2-z
-x,-y,-z
x,1/2-y,1/2+z
loop_
_atom_site_type_symbol
_atom_site_label
_atom_site_fract_x
_atom_site_fract_y
_atom_site_fract_z
Si Si1 0.287104 0.835027 0.633511
Si Si2 0.500000 0.500000 0.000000
Si Si3 0.128201 0.057372 0.978946
Si Si4 0.685151 0.806200 0.027317
Si Si5 0.530417 0.446252 0.205441
Si Si6 0.691243 0.851542 0.205413
Si Si7 0.884843 0.852306 0.679153
O O1 0.221946 0.624039 0.577997
O O2 0.399193 0.764826 0.728596
O O3 0.325655 0.956629 0.759050
O O4 0.198299 0.976647 0.470253
O O5 0.475204 0.421663 0.879151
O O6 0.414729 0.314462 0.922514
O O7 0.093304 0.173468 0.855808
O O8 0.191915 0.224943 0.115261
O O9 0.010573 0.954709 0.861812
O O10 0.599190 0.606577 0.929862
O O11 0.613436 0.946208 0.874961
O O12 0.700985 0.910623 0.130037
O O13 0.809673 0.740314 0.151084
#
# Coordination Sequence:
#
# PCOD9244310 Si02
#       7
#     4   2   4   4   4   4   4
#     4  11  21  41  68  93 121 179 214 262 311 397
#     4  10  20  40  66  90 128 168 214 254 306 420
#     4  11  21  41  66  93 125 175 223 262 308 400
#     4  11  24  41  61 101 133 165 209 279 327 383
#     4  11  22  40  65  95 131 166 215 265 329 384
#     4  10  24  41  63  98 134 167 217 263 333 378
#     4  11  22  40  69  93 126 167 228 263 322 376
#
# _framework density 20.563510999999998
#
# number of rings (size 3 to 8) (size 9 to 14) (size 15 to 20)
#    0.000    1.231    4.615    1.846    0.000    4.308 
#    2.769    0.769    0.000    0.000    0.000    0.000 
#    0.000    0.000    0.000    0.000    0.000    0.000 
#
# Total GULP energy -144838.800672 kJ/mol
# GULP energy per Si atom -5570.723103 kJ/mol
# Density = 2.051671 g / cm^3
# Si number density = 20.563511 Si / 1000 Ang^3
#
#
#
# Elastic Constant Matrix: (Units=GPa)
#
#
# Indices 1 2 3 4 5 6 
#
# 1 120.5526 24.6871 33.7556 0.0000 -17.5560 0.0000
# 2 24.6871 30.2080 8.2839 0.0000 -6.4147 0.0000
# 3 33.7556 8.2839 56.3597 0.0000 -1.0189 0.0000
# 4 0.0000 0.0000 0.0000 29.7739 0.0000 1.8819
# 5 -17.5560 -6.4147 -1.0189 0.0000 46.3516 0.0000
# 6 0.0000 0.0000 0.0000 1.8819 0.0000 31.9698
#
#
#
# Elastic Compliance Matrix: (Units=1/GPa)
#
#
# Indices 1 2 3 4 5 6 
#
# 1 0.011999 -0.007433 -0.006033 0.000000 0.003384 0.000000
# 2 -0.007433 0.040137 -0.001398 0.000000 0.002708 0.000000
# 3 -0.006033 -0.001398 0.021526 0.000000 -0.002005 0.000000
# 4 0.000000 0.000000 0.000000 0.033712 0.000000 -0.001984
# 5 0.003384 0.002708 -0.002005 0.000000 0.023186 0.000000
# 6 0.000000 0.000000 0.000000 -0.001984 0.000000 0.031396
#
#
# Mechanical properties :
#
#
# Convention : Reuss Voigt Hill
#
# Bulk Modulus (GPa) = 22.76208 37.84150 30.30179
# Shear Modulus (GPa) = 24.23288 30.97866 27.60577
#
# Velocity S-wave (km/s) = 3.43657 3.88556 3.66794
# Velocity P-wave (km/s) = 5.18072 6.21066 5.71892
#
# Compressibility (1/GPa) = 0.04393272
#
# Stress axis : x y z
#
# Youngs Moduli (GPa) = 83.33741 24.91450 46.45582
#
# Poissons Ratio (x) = 0.18520 0.28027
# Poissons Ratio (y) = 0.61948 0.06496
# Poissons Ratio (z) = 0.50278 0.03484
#
# Static dielectric constant tensor:
#      x y z
#    x 1.702390 0.000000 -0.011280 
#    y 0.000000 1.718760 0.000000 
#    z -0.011280 0.000000 1.769880 
# 
# From -- ./inp_files/61626.got.cif
#   From: 2010.05.17/outbox.cif.g08.bks.cpg/sg14_31_cif.got.tgz:61626.got - 2010.06.03 17:49:19.
