data_PCOD9244937
_publ_section_title
;
Structure prediction by ZEFSAII (Michael W. Deem and Ramdas Pophale) SiO2 
 PCOD9244937
Probable space group: P 21/C
;
_chemical_formula_sum "Si O2"
_cell_formula_units_Z 20
_cell_length_a 11.845895
_cell_length_b 11.653135
_cell_length_c 9.622540
_cell_angle_alpha 90.000000
_cell_angle_beta 140.256892
_cell_angle_gamma 90.000000
_cell_volume 849.252206
_symmetry_space_group_name_H-M "P 21/C"
_symmetry_group_IT_number 14
_symmetry_cell_setting 'monoclinic'
loop_
_space_group_symop_operation_xyz
x,y,z
-x,1/2+y,1/2-z
-x,-y,-z
x,1/2-y,1/2+z
loop_
_atom_site_type_symbol
_atom_site_label
_atom_site_fract_x
_atom_site_fract_y
_atom_site_fract_z
Si Si1 0.887047 0.607820 0.451883
Si Si2 0.621221 0.557586 0.995598
Si Si3 0.212059 0.677978 0.898168
Si Si4 0.644347 0.512065 0.466247
Si Si5 0.344669 0.666684 0.309591
O O1 0.775513 0.561580 0.476869
O O2 0.000000 0.500000 0.500000
O O3 0.026061 0.697272 0.646583
O O4 0.751701 0.643134 0.200805
O O5 0.488377 0.576156 0.741969
O O6 0.500000 0.500000 0.000000
O O7 0.747428 0.456993 0.057304
O O8 0.356861 0.732964 0.933521
O O9 0.230227 0.715069 0.073692
O O10 0.523283 0.613662 0.414387
O O11 0.731266 0.439847 0.672526
#
# Coordination Sequence:
#
# PCOD9244937 Si02
#       5
#     4   4   4   4   4
#     4   9  18  34  62  90 117 153 201 247 310 368
#     4   8  16  33  60  83 111 154 194 241 299 363
#     4  10  21  35  57  89 117 155 200 252 306 349
#     4   9  19  39  62  88 119 167 201 241 309 371
#     4  10  22  37  62  86 121 162 203 253 299 360
#
# _framework density 23.550129999999999
#
# number of rings (size 3 to 8) (size 9 to 14) (size 15 to 20)
#    0.000    2.800    0.000    0.000    8.400    0.800 
#    0.000    6.000    4.400    0.000    0.000    0.000 
#    0.000    0.000    0.000    0.000    0.000    0.000 
#
# Total GULP energy -111454.276471 kJ/mol
# GULP energy per Si atom -5572.713824 kJ/mol
# Density = 2.349653 g / cm^3
# Si number density = 23.550130 Si / 1000 Ang^3
#
#
#
# Elastic Constant Matrix: (Units=GPa)
#
#
# Indices 1 2 3 4 5 6 
#
# 1 129.7782 22.5897 38.1031 0.0000 -21.6076 0.0000
# 2 22.5897 40.3503 37.0847 0.0000 -7.9557 0.0000
# 3 38.1031 37.0847 115.3561 0.0000 -25.6649 0.0000
# 4 0.0000 0.0000 0.0000 13.2847 0.0000 1.8788
# 5 -21.6076 -7.9557 -25.6649 0.0000 36.9738 0.0000
# 6 0.0000 0.0000 0.0000 1.8788 0.0000 22.6194
#
#
#
# Elastic Compliance Matrix: (Units=1/GPa)
#
#
# Indices 1 2 3 4 5 6 
#
# 1 0.009274 -0.003414 -0.001092 0.000000 0.003927 0.000000
# 2 -0.003414 0.036436 -0.010981 0.000000 -0.001778 0.000000
# 3 -0.001092 -0.010981 0.014064 0.000000 0.006761 0.000000
# 4 0.000000 0.000000 0.000000 0.076170 0.000000 -0.006327
# 5 0.003927 -0.001778 0.006761 0.000000 0.033652 0.000000
# 6 0.000000 0.000000 0.000000 -0.006327 0.000000 0.044735
#
#
# Mechanical properties :
#
#
# Convention : Reuss Voigt Hill
#
# Bulk Modulus (GPa) = 34.72259 53.44886 44.08572
# Shear Modulus (GPa) = 19.61500 27.08936 23.35218
#
# Velocity S-wave (km/s) = 2.88914 3.39526 3.15238
# Velocity P-wave (km/s) = 5.08976 6.17377 5.65779
#
# Compressibility (1/GPa) = 0.02879970
#
# Stress axis : x y z
#
# Youngs Moduli (GPa) = 107.82574 27.44504 71.10293
#
# Poissons Ratio (x) = 0.09370 0.07765
# Poissons Ratio (y) = 0.36813 0.78081
# Poissons Ratio (z) = 0.11775 0.30138
#
# Static dielectric constant tensor:
#      x y z
#    x 1.862850 0.000000 -0.017920 
#    y 0.000000 1.933580 0.000000 
#    z -0.017920 0.000000 2.029000 
# 
# From -- ./inp_files/32270.got.cif
#   From: 2010.05.17/outbox.cif.g08.bks.cpg/sg14_17_cif.got.tgz:32270.got - 2010.06.03 17:49:19.
