data_PCOD9244069
_publ_section_title
;
Structure prediction by ZEFSAII (Michael W. Deem and Ramdas Pophale) SiO2 
 PCOD9244069
Probable space group: P 21/C
;
_chemical_formula_sum "Si O2"
_cell_formula_units_Z 32
_cell_length_a 19.964115
_cell_length_b 9.083529
_cell_length_c 8.768264
_cell_angle_alpha 90.000000
_cell_angle_beta 135.831293
_cell_angle_gamma 90.000000
_cell_volume 1107.923768
_symmetry_space_group_name_H-M "P 21/C"
_symmetry_group_IT_number 14
_symmetry_cell_setting 'monoclinic'
loop_
_space_group_symop_operation_xyz
x,y,z
-x,1/2+y,1/2-z
-x,-y,-z
x,1/2-y,1/2+z
loop_
_atom_site_type_symbol
_atom_site_label
_atom_site_fract_x
_atom_site_fract_y
_atom_site_fract_z
Si Si1 0.579343 0.162824 0.747455
Si Si2 0.449056 0.333154 0.294752
Si Si3 0.904030 0.913937 0.781275
Si Si4 0.253017 0.627264 0.948350
Si Si5 0.850482 0.290162 0.493670
Si Si6 0.036869 0.368450 0.952484
Si Si7 0.255903 0.057480 0.041830
Si Si8 0.684724 0.663136 0.667748
O O1 0.509722 0.229382 0.506384
O O2 0.522355 0.091234 0.796697
O O3 0.647447 0.041410 0.782683
O O4 0.645009 0.299022 0.920858
O O5 0.378277 0.415948 0.299473
O O6 0.385648 0.241935 0.070538
O O7 0.169281 0.785300 0.216680
O O8 0.912856 0.749344 0.856644
O O9 0.908790 0.928459 0.607221
O O10 0.000000 0.000000 0.000000
O O11 0.203273 0.469638 0.847847
O O12 0.230448 0.681039 0.078941
O O13 0.955894 0.272356 0.728463
O O14 0.823510 0.452797 0.513308
O O15 0.000000 0.500000 0.000000
O O16 0.265194 0.206441 0.153752
O O17 0.252224 0.074937 0.852543
#
# Coordination Sequence:
#
# PCOD9244069 Si02
#       8
#     4   4   4   4   4   4   4   4
#     4  10  20  39  66 104 132 180 243 304 362 439
#     4   9  19  37  68  98 133 178 248 299 366 433
#     4  12  24  46  76 111 146 191 246 306 363 445
#     4  11  24  43  73 105 146 183 242 306 375 433
#     4  11  23  44  71  99 139 187 236 311 365 441
#     4  12  26  46  75 110 145 191 249 299 369 450
#     4  10  22  41  63  94 140 186 240 299 377 437
#     4   9  20  40  62  95 137 189 236 300 362 450
#
# _framework density 28.882852
#
# number of rings (size 3 to 8) (size 9 to 14) (size 15 to 20)
#    0.000    1.500    2.500    2.250    1.750    5.000 
#    2.250   11.250    0.000    0.000    0.000    0.000 
#    0.000    0.000    0.000    0.000    0.000    0.000 
#
# Total GULP energy -179089.398639 kJ/mol
# GULP energy per Si atom -5596.543707 kJ/mol
# Density = 2.881711 g / cm^3
# Si number density = 28.882852 Si / 1000 Ang^3
#
#
#
# Elastic Constant Matrix: (Units=GPa)
#
#
# Indices 1 2 3 4 5 6 
#
# 1 106.4737 9.9298 29.5033 0.0000 -25.5322 0.0000
# 2 9.9298 121.5906 34.4784 0.0000 -1.5273 0.0000
# 3 29.5033 34.4784 184.2810 0.0000 -7.2320 0.0000
# 4 0.0000 0.0000 0.0000 52.7249 0.0000 -8.1892
# 5 -25.5322 -1.5273 -7.2320 0.0000 50.9356 0.0000
# 6 0.0000 0.0000 0.0000 -8.1892 0.0000 48.2100
#
#
#
# Elastic Compliance Matrix: (Units=1/GPa)
#
#
# Indices 1 2 3 4 5 6 
#
# 1 0.011129 -0.000418 -0.001493 0.000000 0.005354 0.000000
# 2 -0.000418 0.008701 -0.001568 0.000000 -0.000171 0.000000
# 3 -0.001493 -0.001568 0.005961 0.000000 0.000051 0.000000
# 4 0.000000 0.000000 0.000000 0.019480 0.000000 0.003309
# 5 0.005354 -0.000171 0.000051 0.000000 0.022318 0.000000
# 6 0.000000 0.000000 0.000000 0.003309 0.000000 0.021305
#
#
# Mechanical properties :
#
#
# Convention : Reuss Voigt Hill
#
# Bulk Modulus (GPa) = 53.10101 62.24093 57.67097
# Shear Modulus (GPa) = 48.95748 52.93633 50.94690
#
# Velocity S-wave (km/s) = 4.12155 4.28576 4.20446
# Velocity P-wave (km/s) = 6.40893 6.78871 6.60155
#
# Compressibility (1/GPa) = 0.01883203
#
# Stress axis : x y z
#
# Youngs Moduli (GPa) = 89.85844 114.93132 167.76040
#
# Poissons Ratio (x) = 0.04806 0.25052
# Poissons Ratio (y) = 0.03757 0.26299
# Poissons Ratio (z) = 0.13419 0.18018
#
# Static dielectric constant tensor:
#      x y z
#    x 2.289590 0.000000 0.119310 
#    y 0.000000 2.337520 0.000000 
#    z 0.119310 0.000000 2.229070 
# 
# From -- ./inp_files/19487.got.cif
#   From: 2010.05.17/outbox.cif.g08.bks.cpg/sg14_10_cif.got.tgz:19487.got - 2010.06.03 17:49:19.
