data_PCOD9244217
_publ_section_title
;
Structure prediction by ZEFSAII (Michael W. Deem and Ramdas Pophale) SiO2 
 PCOD9244217
Probable space group: P 21/C
;
_chemical_formula_sum "Si O2"
_cell_formula_units_Z 24
_cell_length_a 24.327045
_cell_length_b 11.350992
_cell_length_c 13.537402
_cell_angle_alpha 90.000000
_cell_angle_beta 164.342649
_cell_angle_gamma 90.000000
_cell_volume 1008.870169
_symmetry_space_group_name_H-M "P 21/C"
_symmetry_group_IT_number 14
_symmetry_cell_setting 'monoclinic'
loop_
_space_group_symop_operation_xyz
x,y,z
-x,1/2+y,1/2-z
-x,-y,-z
x,1/2-y,1/2+z
loop_
_atom_site_type_symbol
_atom_site_label
_atom_site_fract_x
_atom_site_fract_y
_atom_site_fract_z
Si Si1 0.922818 0.791301 0.539536
Si Si2 0.783499 0.313393 0.286191
Si Si3 0.222414 0.444576 0.366737
Si Si4 0.419042 0.273557 0.295852
Si Si5 0.679848 0.315234 0.408163
Si Si6 0.807991 0.553465 0.227786
O O1 0.774709 0.892427 0.239615
O O2 0.852067 0.664514 0.376544
O O3 0.997351 0.802120 0.780701
O O4 0.134376 0.813779 0.847065
O O5 0.739542 0.446694 0.178273
O O6 0.608684 0.262783 0.054171
O O7 0.765619 0.240555 0.155479
O O8 0.259341 0.331027 0.498207
O O9 0.372625 0.549760 0.657453
O O10 0.000000 0.500000 0.000000
O O11 0.499481 0.259981 0.546486
O O12 0.336928 0.394818 0.108957
O O13 0.000000 0.500000 0.500000
#
# Coordination Sequence:
#
# PCOD9244217 Si02
#       6
#     4   4   4   4   4   4
#     4   9  21  42  62  98 126 166 226 263 315 402
#     4  11  24  40  65  95 130 172 213 268 328 379
#     4   9  19  39  65  86 125 167 208 269 315 375
#     4  10  24  43  61  97 130 163 226 266 324 400
#     4  10  20  40  63  93 128 170 210 264 327 381
#     4  11  23  47  67  91 134 176 221 270 332 389
#
# _framework density 23.788986999999999
#
# number of rings (size 3 to 8) (size 9 to 14) (size 15 to 20)
#    0.000    2.000    1.667    0.500    4.667    0.667 
#    6.000    0.000    0.000    0.000    0.000    0.000 
#    0.000    0.000    0.000    0.000    0.000    0.000 
#
# Total GULP energy -134107.477652 kJ/mol
# GULP energy per Si atom -5587.811569 kJ/mol
# Density = 2.373484 g / cm^3
# Si number density = 23.788987 Si / 1000 Ang^3
#
#
#
# Elastic Constant Matrix: (Units=GPa)
#
#
# Indices 1 2 3 4 5 6 
#
# 1 84.0866 22.7378 8.8981 0.0000 -12.3192 0.0000
# 2 22.7378 107.3798 28.0298 0.0000 -23.6474 0.0000
# 3 8.8981 28.0298 149.6172 0.0000 -66.0487 0.0000
# 4 0.0000 0.0000 0.0000 36.2747 0.0000 8.2364
# 5 -12.3192 -23.6474 -66.0487 0.0000 64.2269 0.0000
# 6 0.0000 0.0000 0.0000 8.2364 0.0000 26.8369
#
#
#
# Elastic Compliance Matrix: (Units=1/GPa)
#
#
# Indices 1 2 3 4 5 6 
#
# 1 0.012800 -0.002388 0.000699 0.000000 0.002295 0.000000
# 2 -0.002388 0.010597 -0.000592 0.000000 0.002835 0.000000
# 3 0.000699 -0.000592 0.012300 0.000000 0.012565 0.000000
# 4 0.000000 0.000000 0.000000 0.029632 0.000000 -0.009094
# 5 0.002295 0.002835 0.012565 0.000000 0.029975 0.000000
# 6 0.000000 0.000000 0.000000 -0.009094 0.000000 0.040053
#
#
# Mechanical properties :
#
#
# Convention : Reuss Voigt Hill
#
# Bulk Modulus (GPa) = 32.11573 51.15724 41.63649
# Shear Modulus (GPa) = 33.26740 44.22890 38.74815
#
# Velocity S-wave (km/s) = 3.74363 4.31654 4.04025
# Velocity P-wave (km/s) = 5.67590 6.81136 6.26939
#
# Compressibility (1/GPa) = 0.03113739
#
# Stress axis : x y z
#
# Youngs Moduli (GPa) = 78.12264 94.36499 81.30221
#
# Poissons Ratio (x) = 0.22530 -0.05685
# Poissons Ratio (y) = 0.18652 0.04810
# Poissons Ratio (z) = -0.05463 0.05583
#
# Static dielectric constant tensor:
#      x y z
#    x 1.922160 0.000000 0.028480 
#    y 0.000000 1.893860 0.000000 
#    z 0.028480 0.000000 1.989120 
# 
# From -- ./inp_files/35947.got.cif
#   From: 2010.05.17/outbox.cif.g08.bks.cpg/sg14_18_cif.got.tgz:35947.got - 2010.06.03 17:49:19.
