data_PCOD9244202
_publ_section_title
;
Structure prediction by ZEFSAII (Michael W. Deem and Ramdas Pophale) SiO2 
 PCOD9244202
Probable space group: P 21/C
;
_chemical_formula_sum "Si O2"
_cell_formula_units_Z 20
_cell_length_a 15.098690
_cell_length_b 11.381507
_cell_length_c 5.269885
_cell_angle_alpha 90.000000
_cell_angle_beta 121.847103
_cell_angle_gamma 90.000000
_cell_volume 769.276911
_symmetry_space_group_name_H-M "P 21/C"
_symmetry_group_IT_number 14
_symmetry_cell_setting 'monoclinic'
loop_
_space_group_symop_operation_xyz
x,y,z
-x,1/2+y,1/2-z
-x,-y,-z
x,1/2-y,1/2+z
loop_
_atom_site_type_symbol
_atom_site_label
_atom_site_fract_x
_atom_site_fract_y
_atom_site_fract_z
Si Si1 0.313245 0.681109 0.712384
Si Si2 0.443945 0.131834 0.472825
Si Si3 0.996260 0.828007 0.207695
Si Si4 0.169306 0.494242 0.771405
Si Si5 0.645560 0.890208 0.160754
O O1 0.290282 0.716241 0.386889
O O2 0.242089 0.577029 0.710291
O O3 0.438580 0.665479 0.917293
O O4 0.377070 0.251508 0.401637
O O5 0.572779 0.928974 0.283862
O O6 0.391613 0.062050 0.164141
O O7 0.003040 0.771108 0.496225
O O8 0.087103 0.922144 0.289478
O O9 0.890575 0.899973 0.992774
O O10 0.240164 0.425654 0.081629
#
# Coordination Sequence:
#
# PCOD9244202 Si02
#       5
#     4   4   4   4   4
#     4  12  23  44  68 100 150 189 230 285 340 411
#     4  10  20  40  62  97 143 185 216 277 334 389
#     4  11  28  53  74 102 142 175 232 312 357 416
#     4  11  28  44  78 108 130 190 242 281 361 423
#     4  10  21  38  64  97 136 181 230 267 334 409
#
# _framework density 25.998438
#
# number of rings (size 3 to 8) (size 9 to 14) (size 15 to 20)
#    0.000    1.200    4.000    1.200    5.600    9.600 
#    0.000    0.000    0.000    0.000    0.000    0.000 
#    0.000    0.000    0.000    0.000    0.000    0.000 
#
# Total GULP energy -112141.809707 kJ/mol
# GULP energy per Si atom -5607.090485 kJ/mol
# Density = 2.593926 g / cm^3
# Si number density = 25.998438 Si / 1000 Ang^3
#
#
#
# Elastic Constant Matrix: (Units=GPa)
#
#
# Indices 1 2 3 4 5 6 
#
# 1 93.6029 24.0590 47.6029 0.0000 1.2844 0.0000
# 2 24.0590 88.8963 19.3524 0.0000 24.3961 0.0000
# 3 47.6029 19.3524 103.4760 0.0000 -20.7446 0.0000
# 4 0.0000 0.0000 0.0000 46.3892 0.0000 7.5175
# 5 1.2844 24.3961 -20.7446 0.0000 51.8716 0.0000
# 6 0.0000 0.0000 0.0000 7.5175 0.0000 43.0132
#
#
#
# Elastic Compliance Matrix: (Units=1/GPa)
#
#
# Indices 1 2 3 4 5 6 
#
# 1 0.014677 -0.001872 -0.006847 0.000000 -0.002221 0.000000
# 2 -0.001872 0.014833 -0.003590 0.000000 -0.008366 0.000000
# 3 -0.006847 -0.003590 0.015066 0.000000 0.007883 0.000000
# 4 0.000000 0.000000 0.000000 0.022185 0.000000 -0.003877
# 5 -0.002221 -0.008366 0.007883 0.000000 0.026421 0.000000
# 6 0.000000 0.000000 0.000000 -0.003877 0.000000 0.023926
#
#
# Mechanical properties :
#
#
# Convention : Reuss Voigt Hill
#
# Bulk Modulus (GPa) = 50.10647 52.00042 51.05345
# Shear Modulus (GPa) = 33.69730 41.25219 37.47474
#
# Velocity S-wave (km/s) = 3.60408 3.98768 3.80073
# Velocity P-wave (km/s) = 6.05260 6.42238 6.24023
#
# Compressibility (1/GPa) = 0.01995750
#
# Stress axis : x y z
#
# Youngs Moduli (GPa) = 68.13192 67.41694 66.37480
#
# Poissons Ratio (x) = 0.12621 0.45449
# Poissons Ratio (y) = 0.12755 0.23829
# Poissons Ratio (z) = 0.46653 0.24203
#
# Static dielectric constant tensor:
#      x y z
#    x 2.014190 0.000000 -0.023830 
#    y 0.000000 2.186640 0.000000 
#    z -0.023830 0.000000 2.056420 
# 
# From -- ./inp_files/4072.got.cif
#   From: 2010.05.17/outbox.cif.g08.bks.cpg/sg14_3_cif.got.tgz:4072.got - 2010.06.03 17:49:19.
