data_PCOD9244669
_publ_section_title
;
Structure prediction by ZEFSAII (Michael W. Deem and Ramdas Pophale) SiO2 
 PCOD9244669
Probable space group: P 21/C
;
_chemical_formula_sum "Si O2"
_cell_formula_units_Z 30
_cell_length_a 13.689306
_cell_length_b 16.514994
_cell_length_c 11.280033
_cell_angle_alpha 90.000000
_cell_angle_beta 29.461319
_cell_angle_gamma 90.000000
_cell_volume 1254.268205
_symmetry_space_group_name_H-M "P 21/C"
_symmetry_group_IT_number 14
_symmetry_cell_setting 'monoclinic'
loop_
_space_group_symop_operation_xyz
x,y,z
-x,1/2+y,1/2-z
-x,-y,-z
x,1/2-y,1/2+z
loop_
_atom_site_type_symbol
_atom_site_label
_atom_site_fract_x
_atom_site_fract_y
_atom_site_fract_z
Si Si1 0.197804 0.629646 0.426508
Si Si2 0.368223 0.071488 0.271942
Si Si3 0.223089 0.187120 0.631081
Si Si4 0.529842 0.634445 0.905308
Si Si5 0.265621 0.018055 0.995256
Si Si6 0.000000 0.000000 0.500000
Si Si7 0.574146 0.275119 0.197802
Si Si8 0.718486 0.401733 0.228610
O O1 0.142251 0.548373 0.552664
O O2 0.331794 0.689389 0.365469
O O3 0.008144 0.683715 0.598485
O O4 0.331286 0.599419 0.175314
O O5 0.263726 0.135652 0.467028
O O6 0.232249 0.998790 0.359209
O O7 0.527159 0.022757 0.182653
O O8 0.508351 0.102952 0.017757
O O9 0.326917 0.149833 0.636614
O O10 0.345660 0.269377 0.482890
O O11 0.654788 0.585602 0.677692
O O12 0.440924 0.710238 0.925885
O O13 0.140845 0.039732 0.241215
O O14 0.896039 0.096266 0.633726
O O15 0.695582 0.344375 0.140206
#
# Coordination Sequence:
#
# PCOD9244669 Si02
#       8
#     4   4   4   4   4   2   4   4
#     4  11  26  45  67 103 140 188 231 291 357 432
#     4  10  20  42  68  94 133 183 232 291 349 413
#     4  11  26  44  69 101 140 192 229 293 364 425
#     4  11  25  45  71 102 139 188 234 295 361 426
#     4  11  21  44  70 102 139 178 237 292 351 417
#     4  10  24  38  72 108 130 180 242 302 344 418
#     4  11  25  45  68  99 144 185 232 292 360 434
#     4  10  22  41  68 101 133 183 240 295 352 415
#
# _framework density 23.918327999999999
#
# number of rings (size 3 to 8) (size 9 to 14) (size 15 to 20)
#    0.000    1.333    4.000    1.200    3.733    3.733 
#    0.000    0.000    0.000    0.000    0.000    0.000 
#    0.000    0.000    0.000    0.000    0.000    0.000 
#
# Total GULP energy -167091.501055 kJ/mol
# GULP energy per Si atom -5569.716702 kJ/mol
# Density = 2.386389 g / cm^3
# Si number density = 23.918328 Si / 1000 Ang^3
#
#
#
# Elastic Constant Matrix: (Units=GPa)
#
#
# Indices 1 2 3 4 5 6 
#
# 1 79.0540 25.1097 46.4794 0.0000 2.1969 0.0000
# 2 25.1097 72.2967 28.1547 0.0000 13.0638 0.0000
# 3 46.4794 28.1547 125.3861 0.0000 6.8318 0.0000
# 4 0.0000 0.0000 0.0000 31.8811 0.0000 -0.8703
# 5 2.1969 13.0638 6.8318 0.0000 41.2820 0.0000
# 6 0.0000 0.0000 0.0000 -0.8703 0.0000 -13.9699
#
#
#
# Elastic Compliance Matrix: (Units=1/GPa)
#
#
# Indices 1 2 3 4 5 6 
#
# 1 0.017139 -0.004035 -0.005517 0.000000 0.001278 0.000000
# 2 -0.004035 0.016893 -0.002036 0.000000 -0.004794 0.000000
# 3 -0.005517 -0.002036 0.010521 0.000000 -0.000803 0.000000
# 4 0.000000 0.000000 0.000000 0.031313 0.000000 -0.001951
# 5 0.001278 -0.004794 -0.000803 0.000000 0.025806 0.000000
# 6 0.000000 0.000000 0.000000 -0.001951 0.000000 -0.071461
#
#
# Mechanical properties :
#
#
# Convention : Reuss Voigt Hill
#
# Bulk Modulus (GPa) = 46.77954 52.91383 49.84669
# Shear Modulus (GPa) = 82.62623 23.63817 53.13220
#
# Velocity S-wave (km/s) = 5.88389 3.14711 4.71829
# Velocity P-wave (km/s) = 8.10930 5.94782 7.11116
#
# Compressibility (1/GPa) = 0.02137687
#
# Stress axis : x y z
#
# Youngs Moduli (GPa) = 58.34497 59.19765 95.04424
#
# Poissons Ratio (x) = 0.23887 0.52436
# Poissons Ratio (y) = 0.23543 0.19352
# Poissons Ratio (z) = 0.32189 0.12053
#
# Static dielectric constant tensor:
#      x y z
#    x 2.222830 0.000000 -0.130470 
#    y 0.000000 2.026140 0.000000 
#    z -0.130470 0.000000 1.984320 
# 
# From -- ./inp_files/32974.got.cif
#   From: 2010.05.17/outbox.cif.g08.bks.cpg/sg14_17_cif.got.tgz:32974.got - 2010.06.03 17:49:19.
