data_PCOD9244347
_publ_section_title
;
Structure prediction by ZEFSAII (Michael W. Deem and Ramdas Pophale) SiO2 
 PCOD9244347
Probable space group: P 21/C
;
_chemical_formula_sum "Si O2"
_cell_formula_units_Z 24
_cell_length_a 15.023408
_cell_length_b 6.690235
_cell_length_c 16.726369
_cell_angle_alpha 90.000000
_cell_angle_beta 35.993687
_cell_angle_gamma 90.000000
_cell_volume 988.016787
_symmetry_space_group_name_H-M "P 21/C"
_symmetry_group_IT_number 14
_symmetry_cell_setting 'monoclinic'
loop_
_space_group_symop_operation_xyz
x,y,z
-x,1/2+y,1/2-z
-x,-y,-z
x,1/2-y,1/2+z
loop_
_atom_site_type_symbol
_atom_site_label
_atom_site_fract_x
_atom_site_fract_y
_atom_site_fract_z
Si Si1 0.657770 0.556038 0.718537
Si Si2 0.023676 0.461054 0.814139
Si Si3 0.806638 0.205078 0.232671
Si Si4 0.053916 0.272907 0.939790
Si Si5 0.387412 0.486659 0.006577
Si Si6 0.789255 0.806571 0.959966
O O1 0.695990 0.348671 0.738520
O O2 0.771215 0.713869 0.679166
O O3 0.481787 0.591996 0.866592
O O4 0.707244 0.576694 0.591060
O O5 0.165936 0.574989 0.753058
O O6 0.002267 0.266727 0.885153
O O7 0.081923 0.418244 0.683675
O O8 0.876444 0.602868 0.924696
O O9 0.757833 0.087704 0.347149
O O10 0.964604 0.152857 0.073996
O O11 0.000000 0.500000 0.000000
O O12 0.500000 0.500000 0.000000
O O13 0.335964 0.273391 0.011382
#
# Coordination Sequence:
#
# PCOD9244347 Si02
#       6
#     4   4   4   4   4   4
#     4  11  23  43  70  96 139 179 227 289 344 411
#     4  11  24  40  67 103 135 171 233 292 344 410
#     4  10  21  42  70  95 128 186 222 281 350 411
#     4  10  20  40  67  98 127 176 229 275 344 413
#     4  10  24  47  64  92 141 185 221 273 351 412
#     4  12  25  41  66 104 138 178 232 292 342 407
#
# _framework density 24.291087000000001
#
# number of rings (size 3 to 8) (size 9 to 14) (size 15 to 20)
#    0.000    1.333    3.333    3.500    2.333    1.333 
#    6.000   13.333    0.000    0.000    0.000    0.000 
#    0.000    0.000    0.000    0.000    0.000    0.000 
#
# Total GULP energy -133652.407194 kJ/mol
# GULP energy per Si atom -5568.850300 kJ/mol
# Density = 2.423580 g / cm^3
# Si number density = 24.291087 Si / 1000 Ang^3
#
#
#
# Elastic Constant Matrix: (Units=GPa)
#
#
# Indices 1 2 3 4 5 6 
#
# 1 83.0127 26.6507 29.1414 0.0000 11.4911 0.0000
# 2 26.6507 48.1362 33.9209 0.0000 -1.4477 0.0000
# 3 29.1414 33.9209 209.0957 0.0000 27.0251 0.0000
# 4 0.0000 0.0000 0.0000 28.2606 0.0000 13.7467
# 5 11.4911 -1.4477 27.0251 0.0000 38.6296 0.0000
# 6 0.0000 0.0000 0.0000 13.7467 0.0000 49.2802
#
#
#
# Elastic Compliance Matrix: (Units=1/GPa)
#
#
# Indices 1 2 3 4 5 6 
#
# 1 0.015545 -0.008658 -0.000135 0.000000 -0.004855 0.000000
# 2 -0.008658 0.028823 -0.004333 0.000000 0.006687 0.000000
# 3 -0.000135 -0.004333 0.006069 0.000000 -0.004368 0.000000
# 4 0.000000 0.000000 0.000000 0.040940 0.000000 -0.011420
# 5 -0.004855 0.006687 -0.004368 0.000000 0.030637 0.000000
# 6 0.000000 0.000000 0.000000 -0.011420 0.000000 0.023478
#
#
# Mechanical properties :
#
#
# Convention : Reuss Voigt Hill
#
# Bulk Modulus (GPa) = 41.34802 57.74117 49.54459
# Shear Modulus (GPa) = 27.80789 39.93620 33.87204
#
# Velocity S-wave (km/s) = 3.38713 4.05911 3.73825
# Velocity P-wave (km/s) = 5.68820 6.76688 6.25085
#
# Compressibility (1/GPa) = 0.02418496
#
# Stress axis : x y z
#
# Youngs Moduli (GPa) = 64.32905 34.69498 164.77646
#
# Poissons Ratio (x) = 0.30038 0.02217
# Poissons Ratio (y) = 0.55694 0.71406
# Poissons Ratio (z) = 0.00865 0.15035
#
# Static dielectric constant tensor:
#      x y z
#    x 2.090480 0.000000 -0.003330 
#    y 0.000000 2.093440 0.000000 
#    z -0.003330 0.000000 2.043930 
# 
# From -- ./inp_files/60109.got.cif
#   From: 2010.05.17/outbox.cif.g08.bks.cpg/sg14_31_cif.got.tgz:60109.got - 2010.06.03 17:49:19.
