data_PCOD9244793
_publ_section_title
;
Structure prediction by ZEFSAII (Michael W. Deem and Ramdas Pophale) SiO2 
 PCOD9244793
Probable space group: P 21/C
;
_chemical_formula_sum "Si O2"
_cell_formula_units_Z 20
_cell_length_a 30.038532
_cell_length_b 7.148504
_cell_length_c 24.446969
_cell_angle_alpha 90.000000
_cell_angle_beta 170.272077
_cell_angle_gamma 90.000000
_cell_volume 887.008595
_symmetry_space_group_name_H-M "P 21/C"
_symmetry_group_IT_number 14
_symmetry_cell_setting 'monoclinic'
loop_
_space_group_symop_operation_xyz
x,y,z
-x,1/2+y,1/2-z
-x,-y,-z
x,1/2-y,1/2+z
loop_
_atom_site_type_symbol
_atom_site_label
_atom_site_fract_x
_atom_site_fract_y
_atom_site_fract_z
Si Si1 0.356692 0.614965 0.587394
Si Si2 0.151698 0.399965 0.233309
Si Si3 0.824358 0.057031 0.839252
Si Si4 0.919630 0.994989 0.743655
Si Si5 0.391372 0.898208 0.245986
O O1 0.235960 0.531149 0.385789
O O2 0.213118 0.806148 0.431996
O O3 0.362962 0.503575 0.652561
O O4 0.668241 0.633323 0.953451
O O5 0.406900 0.279113 0.519715
O O6 0.000000 0.500000 0.000000
O O7 0.919944 0.261007 0.972154
O O8 0.538638 0.025509 0.469520
O O9 0.000000 0.000000 0.000000
O O10 0.912999 0.947063 0.999860
O O11 0.101915 0.887137 0.921297
#
# Coordination Sequence:
#
# PCOD9244793 Si02
#       5
#     4   4   4   4   4
#     4  12  24  46  71 104 144 189 232 307 353 424
#     4  11  24  45  70 101 141 189 235 290 362 426
#     4  10  20  44  68  96 143 186 227 292 358 414
#     4  12  24  45  73 101 144 183 245 289 365 418
#     4  11  25  45  72 103 138 191 239 294 353 430
#
# _framework density 22.547695000000001
#
# number of rings (size 3 to 8) (size 9 to 14) (size 15 to 20)
#    0.000    0.800    6.000    3.000    0.000    3.200 
#    0.000    2.000    0.000    0.000    0.000    0.000 
#    0.000    0.000    0.000    0.000    0.000    0.000 
#
# Total GULP energy -111380.086090 kJ/mol
# GULP energy per Si atom -5569.004305 kJ/mol
# Density = 2.249637 g / cm^3
# Si number density = 22.547695 Si / 1000 Ang^3
#
#
#
# Elastic Constant Matrix: (Units=GPa)
#
#
# Indices 1 2 3 4 5 6 
#
# 1 122.4831 19.5124 100.0428 0.0000 -17.5637 0.0000
# 2 19.5124 63.8601 38.9886 0.0000 -9.2876 0.0000
# 3 100.0428 38.9886 130.8246 0.0000 -13.1886 0.0000
# 4 0.0000 0.0000 0.0000 29.1423 0.0000 -7.4397
# 5 -17.5637 -9.2876 -13.1886 0.0000 64.6574 0.0000
# 6 0.0000 0.0000 0.0000 -7.4397 0.0000 29.2916
#
#
#
# Elastic Compliance Matrix: (Units=1/GPa)
#
#
# Indices 1 2 3 4 5 6 
#
# 1 0.023371 0.004935 -0.019023 0.000000 0.003177 0.000000
# 2 0.004935 0.020352 -0.009607 0.000000 0.002304 0.000000
# 3 -0.019023 -0.009607 0.024906 0.000000 -0.001467 0.000000
# 4 0.000000 0.000000 0.000000 0.036694 0.000000 0.009320
# 5 0.003177 0.002304 -0.001467 0.000000 0.016361 0.000000
# 6 0.000000 0.000000 0.000000 0.009320 0.000000 0.036507
#
#
# Mechanical properties :
#
#
# Convention : Reuss Voigt Hill
#
# Bulk Modulus (GPa) = 47.08126 70.47283 58.77705
# Shear Modulus (GPa) = 23.51181 35.19320 29.35251
#
# Velocity S-wave (km/s) = 3.23268 3.95502 3.61196
# Velocity P-wave (km/s) = 5.90421 7.22351 6.59693
#
# Compressibility (1/GPa) = 0.02123987
#
# Stress axis : x y z
#
# Youngs Moduli (GPa) = 42.78734 49.13581 40.15124
#
# Poissons Ratio (x) = -0.24249 0.76379
# Poissons Ratio (y) = -0.21116 0.38572
# Poissons Ratio (z) = 0.81393 0.47204
#
# Static dielectric constant tensor:
#      x y z
#    x 1.877690 0.000000 -0.052930 
#    y 0.000000 2.020160 0.000000 
#    z -0.052930 0.000000 1.925350 
# 
# From -- ./inp_files/75292.got.cif
#   From: 2010.05.17/outbox.cif.g08.bks.cpg/sg14_38_cif.got.tgz:75292.got - 2010.06.03 17:49:19.
