data_PCOD9244862
_publ_section_title
;
Structure prediction by ZEFSAII (Michael W. Deem and Ramdas Pophale) SiO2 
 PCOD9244862
Probable space group: P 21/C
;
_chemical_formula_sum "Si O2"
_cell_formula_units_Z 20
_cell_length_a 5.354111
_cell_length_b 7.527471
_cell_length_c 22.401027
_cell_angle_alpha 90.000000
_cell_angle_beta 66.587666
_cell_angle_gamma 90.000000
_cell_volume 828.496169
_symmetry_space_group_name_H-M "P 21/C"
_symmetry_group_IT_number 14
_symmetry_cell_setting 'monoclinic'
loop_
_space_group_symop_operation_xyz
x,y,z
-x,1/2+y,1/2-z
-x,-y,-z
x,1/2-y,1/2+z
loop_
_atom_site_type_symbol
_atom_site_label
_atom_site_fract_x
_atom_site_fract_y
_atom_site_fract_z
Si Si1 0.543621 0.617142 0.811362
Si Si2 0.755513 0.232101 0.486991
Si Si3 0.236366 0.967393 0.827890
Si Si4 0.645387 0.629924 0.072991
Si Si5 0.632595 0.921763 0.888015
O O1 0.313653 0.758573 0.813535
O O2 0.726576 0.564197 0.738343
O O3 0.418725 0.445857 0.855483
O O4 0.692522 0.733106 0.848128
O O5 0.609153 0.215901 0.436917
O O6 0.587913 0.375460 0.540913
O O7 0.079799 0.243966 0.455292
O O8 0.704954 0.047353 0.527719
O O9 0.470787 0.029149 0.852035
O O10 0.929063 0.982169 0.879757
#
# Coordination Sequence:
#
# PCOD9244862 Si02
#       5
#     4   4   4   4   4
#     4   9  22  33  51  77 103 133 166 201 247 300
#     4   9  16  28  44  73  99 121 151 212 255 282
#     4  10  21  33  51  71 108 131 168 200 242 300
#     4   9  17  25  48  68 103 118 158 201 258 282
#     4   9  20  31  51  74 105 127 167 201 255 292
#
# _framework density 24.140122000000002
#
# number of rings (size 3 to 8) (size 9 to 14) (size 15 to 20)
#    1.200    1.600    0.000    1.200   11.200    0.000 
#    0.000    0.000    0.000    0.000    0.000    8.400 
#    0.000    0.000    0.000    0.000    0.000    0.000 
#
# Total GULP energy -111711.857761 kJ/mol
# GULP energy per Si atom -5585.592888 kJ/mol
# Density = 2.408518 g / cm^3
# Si number density = 24.140122 Si / 1000 Ang^3
#
#
#
# Elastic Constant Matrix: (Units=GPa)
#
#
# Indices 1 2 3 4 5 6 
#
# 1 124.3637 35.1750 28.8432 0.0000 -21.4338 0.0000
# 2 35.1750 82.5379 39.1338 0.0000 -4.5412 0.0000
# 3 28.8432 39.1338 43.2709 0.0000 -0.4445 0.0000
# 4 0.0000 0.0000 0.0000 42.5056 0.0000 2.3252
# 5 -21.4338 -4.5412 -0.4445 0.0000 37.5066 0.0000
# 6 0.0000 0.0000 0.0000 2.3252 0.0000 34.1654
#
#
#
# Elastic Compliance Matrix: (Units=1/GPa)
#
#
# Indices 1 2 3 4 5 6 
#
# 1 0.010841 -0.001569 -0.005746 0.000000 0.005937 0.000000
# 2 -0.001569 0.021645 -0.018515 0.000000 0.001505 0.000000
# 3 -0.005746 -0.018515 0.043634 0.000000 -0.005008 0.000000
# 4 0.000000 0.000000 0.000000 0.023614 0.000000 -0.001607
# 5 0.005937 0.001505 -0.005008 0.000000 0.030178 0.000000
# 6 0.000000 0.000000 0.000000 -0.001607 0.000000 0.029379
#
#
# Mechanical properties :
#
#
# Convention : Reuss Voigt Hill
#
# Bulk Modulus (GPa) = 40.88295 50.71960 45.80127
# Shear Modulus (GPa) = 22.82032 32.63689 27.72861
#
# Velocity S-wave (km/s) = 3.07795 3.68091 3.39285
# Velocity P-wave (km/s) = 5.44097 6.25473 5.86199
#
# Compressibility (1/GPa) = 0.02446007
#
# Stress axis : x y z
#
# Youngs Moduli (GPa) = 92.24592 46.19923 22.91812
#
# Poissons Ratio (x) = 0.07248 0.13169
# Poissons Ratio (y) = 0.14471 0.42432
# Poissons Ratio (z) = 0.53007 0.85536
#
# Static dielectric constant tensor:
#      x y z
#    x 1.866330 0.000000 0.043430 
#    y 0.000000 2.055750 0.000000 
#    z 0.043430 0.000000 1.885330 
# 
# From -- ./inp_files/52806.got.cif
#   From: 2010.05.17/outbox.cif.g08.bks.cpg/sg14_27_cif.got.tgz:52806.got - 2010.06.03 17:49:19.
