data_PCOD9244538
_publ_section_title
;
Structure prediction by ZEFSAII (Michael W. Deem and Ramdas Pophale) SiO2 
 PCOD9244538
Probable space group: P 21/C
;
_chemical_formula_sum "Si O2"
_cell_formula_units_Z 16
_cell_length_a 8.358678
_cell_length_b 5.265656
_cell_length_c 20.842172
_cell_angle_alpha 90.000000
_cell_angle_beta 44.227456
_cell_angle_gamma 90.000000
_cell_volume 639.856519
_symmetry_space_group_name_H-M "P 21/C"
_symmetry_group_IT_number 14
_symmetry_cell_setting 'monoclinic'
loop_
_space_group_symop_operation_xyz
x,y,z
-x,1/2+y,1/2-z
-x,-y,-z
x,1/2-y,1/2+z
loop_
_atom_site_type_symbol
_atom_site_label
_atom_site_fract_x
_atom_site_fract_y
_atom_site_fract_z
Si Si1 0.747450 0.819948 0.260625
Si Si2 0.496767 0.251332 0.044067
Si Si3 0.738686 0.156172 0.154952
Si Si4 0.997327 0.334329 0.923497
O O1 0.708081 0.771000 0.346012
O O2 0.521026 0.700807 0.291303
O O3 0.969046 0.697945 0.163719
O O4 0.744988 0.103837 0.230779
O O5 0.500000 0.500000 0.000000
O O6 0.736669 0.272506 0.013402
O O7 0.500000 0.000000 0.000000
O O8 0.905618 0.388758 0.089902
O O9 0.837739 0.890773 0.099797
#
# Coordination Sequence:
#
# PCOD9244538 Si02
#       4
#     4   4   4   4
#     4  10  23  42  71  93 137 155 222 268 327 394
#     4  12  29  43  63  97 134 180 221 258 316 393
#     4  10  20  41  69 100 120 164 210 272 341 362
#     4  10  22  42  66  98 125 169 211 269 332 369
#
# _framework density 25.005606
#
# number of rings (size 3 to 8) (size 9 to 14) (size 15 to 20)
#    1.500    0.000    2.500    1.500    3.500    4.000 
#    0.000    0.000    0.000    0.000    0.000    0.000 
#    0.000    0.000    0.000    0.000    0.000    0.000 
#
# Total GULP energy -89403.611077 kJ/mol
# GULP energy per Si atom -5587.725692 kJ/mol
# Density = 2.494869 g / cm^3
# Si number density = 25.005606 Si / 1000 Ang^3
#
#
#
# Elastic Constant Matrix: (Units=GPa)
#
#
# Indices 1 2 3 4 5 6 
#
# 1 50.7487 27.8065 2.0854 0.0000 -2.6289 0.0000
# 2 27.8065 180.5798 13.4089 0.0000 8.7484 0.0000
# 3 2.0854 13.4089 127.3657 0.0000 19.9178 0.0000
# 4 0.0000 0.0000 0.0000 40.0486 0.0000 -2.9863
# 5 -2.6289 8.7484 19.9178 0.0000 47.6344 0.0000
# 6 0.0000 0.0000 0.0000 -2.9863 0.0000 40.6385
#
#
#
# Elastic Compliance Matrix: (Units=1/GPa)
#
#
# Indices 1 2 3 4 5 6 
#
# 1 0.021688 -0.003412 -0.000301 0.000000 0.001949 0.000000
# 2 -0.003412 0.006149 -0.000412 0.000000 -0.001145 0.000000
# 3 -0.000301 -0.000412 0.008443 0.000000 -0.003471 0.000000
# 4 0.000000 0.000000 0.000000 0.025107 0.000000 0.001845
# 5 0.001949 -0.001145 -0.003471 0.000000 0.022762 0.000000
# 6 0.000000 0.000000 0.000000 0.001845 0.000000 0.024743
#
#
# Mechanical properties :
#
#
# Convention : Reuss Voigt Hill
#
# Bulk Modulus (GPa) = 35.67652 49.47732 42.57692
# Shear Modulus (GPa) = 39.53048 46.69055 43.11051
#
# Velocity S-wave (km/s) = 3.98032 4.32580 4.15665
# Velocity P-wave (km/s) = 5.95167 6.69175 6.33253
#
# Compressibility (1/GPa) = 0.02802964
#
# Stress axis : x y z
#
# Youngs Moduli (GPa) = 46.10930 162.62373 118.44753
#
# Poissons Ratio (x) = 0.55482 0.03562
# Poissons Ratio (y) = 0.15731 0.04885
# Poissons Ratio (z) = 0.01387 0.06707
#
# Static dielectric constant tensor:
#      x y z
#    x 1.987710 0.000000 0.127860 
#    y 0.000000 1.936530 0.000000 
#    z 0.127860 0.000000 2.079720 
# 
# From -- ./inp_files/59793.got.cif
#   From: 2010.05.17/outbox.cif.g08.bks.cpg/sg14_30_cif.got.tgz:59793.got - 2010.06.03 17:49:19.
