data_PCOD9244994
_publ_section_title
;
Structure prediction by ZEFSAII (Michael W. Deem and Ramdas Pophale) SiO2 
 PCOD9244994
Probable space group: P 21/C
;
_chemical_formula_sum "Si O2"
_cell_formula_units_Z 26
_cell_length_a 18.861886
_cell_length_b 6.137970
_cell_length_c 9.122740
_cell_angle_alpha 90.000000
_cell_angle_beta 66.382030
_cell_angle_gamma 90.000000
_cell_volume 967.705162
_symmetry_space_group_name_H-M "P 21/C"
_symmetry_group_IT_number 14
_symmetry_cell_setting 'monoclinic'
loop_
_space_group_symop_operation_xyz
x,y,z
-x,1/2+y,1/2-z
-x,-y,-z
x,1/2-y,1/2+z
loop_
_atom_site_type_symbol
_atom_site_label
_atom_site_fract_x
_atom_site_fract_y
_atom_site_fract_z
Si Si1 0.705420 0.031278 0.137069
Si Si2 0.111283 0.491874 0.156949
Si Si3 0.000000 0.500000 0.500000
Si Si4 0.851006 0.261104 0.128332
Si Si5 0.589523 0.523898 0.114120
Si Si6 0.261439 0.242759 0.627778
Si Si7 0.443856 0.746714 0.616802
O O1 0.730110 0.815799 0.209211
O O2 0.765259 0.212399 0.144426
O O3 0.619382 0.092251 0.255743
O O4 0.715205 0.973957 0.958911
O O5 0.030154 0.449920 0.302687
O O6 0.142419 0.721105 0.203207
O O7 0.175202 0.316833 0.150087
O O8 0.113266 0.527676 0.980381
O O9 0.088431 0.570107 0.464881
O O10 0.578628 0.483430 0.295028
O O11 0.529591 0.698067 0.100593
O O12 0.676046 0.580895 0.998345
O O13 0.565150 0.305835 0.044857
#
# Coordination Sequence:
#
# PCOD9244994 Si02
#       7
#     4   4   2   4   4   4   4
#     4  10  21  36  54  80 112 141 179 223 264 317
#     4   9  19  37  56  78 107 139 178 219 265 319
#     4   8  20  36  54  82 110 132 174 234 256 324
#     4   9  19  37  56  78 107 139 178 219 265 319
#     4  10  21  36  55  81 110 143 181 223 264 314
#     4  10  21  36  54  80 112 141 179 223 264 317
#     4  10  21  36  55  81 110 143 181 223 264 314
#
# _framework density 26.867687
#
# number of rings (size 3 to 8) (size 9 to 14) (size 15 to 20)
#    0.923    1.538    0.000    1.846    0.000    4.308 
#    0.000    0.769    0.000    0.000    0.000    0.000 
#    0.000    0.000    0.000    0.000    0.000    0.000 
#
# Total GULP energy -144767.697269 kJ/mol
# GULP energy per Si atom -5567.988357 kJ/mol
# Density = 2.680654 g / cm^3
# Si number density = 26.867687 Si / 1000 Ang^3
#
#
#
# Elastic Constant Matrix: (Units=GPa)
#
#
# Indices 1 2 3 4 5 6 
#
# 1 67.5610 20.7651 25.6248 0.0000 -11.7111 0.0000
# 2 20.7651 28.1300 28.3039 0.0000 -4.8701 0.0000
# 3 25.6248 28.3039 103.3042 0.0000 -10.1413 0.0000
# 4 0.0000 0.0000 0.0000 46.9534 0.0000 17.7675
# 5 -11.7111 -4.8701 -10.1413 0.0000 36.5893 0.0000
# 6 0.0000 0.0000 0.0000 17.7675 0.0000 6.6423
#
#
#
# Elastic Compliance Matrix: (Units=1/GPa)
#
#
# Indices 1 2 3 4 5 6 
#
# 1 0.019912 -0.012982 -0.000952 0.000000 0.004381 0.000000
# 2 -0.012982 0.057841 -0.012623 0.000000 0.000045 0.000000
# 3 -0.000952 -0.012623 0.013549 0.000000 0.001770 0.000000
# 4 0.000000 0.000000 0.000000 -1.746953 0.000000 4.672887
# 5 0.004381 0.000045 0.001770 0.000000 0.029229 0.000000
# 6 0.000000 0.000000 0.000000 4.672887 0.000000-12.348855
#
#
# Mechanical properties :
#
#
# Convention : Reuss Voigt Hill
#
# Bulk Modulus (GPa) = 26.18668 38.70920 32.44794
# Shear Modulus (GPa) = -0.35947 26.32377 12.98215
#
# Velocity S-wave (km/s) = -0.36617 3.13350 2.20054
# Velocity P-wave (km/s) = 3.09660 5.24694 4.30809
#
# Compressibility (1/GPa) = 0.03818736
#
# Stress axis : x y z
#
# Youngs Moduli (GPa) = 50.22055 17.28865 73.80804
#
# Poissons Ratio (x) = 0.22444 0.07028
# Poissons Ratio (y) = 0.65197 0.93168
# Poissons Ratio (z) = 0.04782 0.21824
#
# Static dielectric constant tensor:
#      x y z
#    x 1.996920 0.000000 0.065380 
#    y 0.000000 2.165060 0.000000 
#    z 0.065380 0.000000 2.097320 
# 
# From -- ./inp_files/18505.got.cif
#   From: 2010.05.17/outbox.cif.g08.bks.cpg/sg14_10_cif.got.tgz:18505.got - 2010.06.03 17:49:19.
