data_PCOD9244100
_publ_section_title
;
Structure prediction by ZEFSAII (Michael W. Deem and Ramdas Pophale) SiO2 
 PCOD9244100
Probable space group: P 21/C
;
_chemical_formula_sum "Si O2"
_cell_formula_units_Z 28
_cell_length_a 5.690746
_cell_length_b 12.880773
_cell_length_c 21.444919
_cell_angle_alpha 90.000000
_cell_angle_beta 60.087971
_cell_angle_gamma 90.000000
_cell_volume 1362.543795
_symmetry_space_group_name_H-M "P 21/C"
_symmetry_group_IT_number 14
_symmetry_cell_setting 'monoclinic'
loop_
_space_group_symop_operation_xyz
x,y,z
-x,1/2+y,1/2-z
-x,-y,-z
x,1/2-y,1/2+z
loop_
_atom_site_type_symbol
_atom_site_label
_atom_site_fract_x
_atom_site_fract_y
_atom_site_fract_z
Si Si1 0.581348 0.968252 0.419264
Si Si2 0.863587 0.421740 0.567601
Si Si3 0.266546 0.356216 0.886977
Si Si4 0.216086 0.026973 0.144506
Si Si5 0.267105 0.777066 0.486160
Si Si6 0.030737 0.405913 0.802884
Si Si7 0.339984 0.790335 0.113270
O O1 0.493167 0.849176 0.424733
O O2 0.500000 0.000000 0.500000
O O3 0.409080 0.048114 0.401034
O O4 0.883008 0.997795 0.357555
O O5 0.537540 0.444266 0.607476
O O6 0.869957 0.303801 0.542140
O O7 0.000000 0.500000 0.500000
O O8 0.037415 0.436094 0.608393
O O9 0.385708 0.243400 0.888533
O O10 0.289088 0.378700 0.810832
O O11 0.964097 0.351303 0.954372
O O12 0.081456 0.069210 0.225247
O O13 0.221794 0.901909 0.142850
O O14 0.378733 0.720045 0.533487
O O15 0.853642 0.302214 0.837118
#
# Coordination Sequence:
#
# PCOD9244100 Si02
#       7
#     4   4   4   4   4   4   4
#     4  11  20  38  66 102 135 177 235 289 342 412
#     4  12  27  47  73 103 135 185 240 290 348 424
#     4  10  20  39  67  96 137 179 229 282 354 416
#     4  12  28  48  71 101 146 182 232 297 352 428
#     4  11  22  38  68 103 131 177 233 294 344 409
#     4  10  25  43  65 101 138 186 233 282 361 426
#     4  10  22  42  71  92 138 183 227 284 362 412
#
# _framework density 20.549799
#
# number of rings (size 3 to 8) (size 9 to 14) (size 15 to 20)
#    0.000    1.143    5.714    1.714    8.000    1.143 
#    2.571    0.000    0.000    0.000    0.000    0.000 
#    0.000    0.000    0.000    0.000    0.000    0.000 
#
# Total GULP energy -156114.881515 kJ/mol
# GULP energy per Si atom -5575.531483 kJ/mol
# Density = 2.050303 g / cm^3
# Si number density = 20.549799 Si / 1000 Ang^3
#
#
#
# Elastic Constant Matrix: (Units=GPa)
#
#
# Indices 1 2 3 4 5 6 
#
# 1 106.1674 35.9838 63.3707 0.0000 27.6710 0.0000
# 2 35.9838 116.8666 51.9225 0.0000 14.7128 0.0000
# 3 63.3707 51.9225 127.6898 0.0000 31.2764 0.0000
# 4 0.0000 0.0000 0.0000 25.9903 0.0000 -2.1283
# 5 27.6710 14.7128 31.2764 0.0000 36.5338 0.0000
# 6 0.0000 0.0000 0.0000 -2.1283 0.0000 37.5300
#
#
#
# Elastic Compliance Matrix: (Units=1/GPa)
#
#
# Indices 1 2 3 4 5 6 
#
# 1 0.014559 -0.001428 -0.005169 0.000000 -0.006027 0.000000
# 2 -0.001428 0.010599 -0.003569 0.000000 -0.000132 0.000000
# 3 -0.005169 -0.003569 0.013333 0.000000 -0.006062 0.000000
# 4 0.000000 0.000000 0.000000 0.038655 0.000000 0.002192
# 5 -0.006027 -0.000132 -0.006062 0.000000 0.037180 0.000000
# 6 0.000000 0.000000 0.000000 0.002192 0.000000 0.026770
#
#
# Mechanical properties :
#
#
# Convention : Reuss Voigt Hill
#
# Bulk Modulus (GPa) = 55.06638 72.58641 63.82640
# Shear Modulus (GPa) = 29.85456 33.30728 31.58092
#
# Velocity S-wave (km/s) = 3.81568 4.03029 3.92446
# Velocity P-wave (km/s) = 6.80201 7.55358 7.18762
#
# Compressibility (1/GPa) = 0.01815990
#
# Stress axis : x y z
#
# Youngs Moduli (GPa) = 68.68603 94.35251 75.00395
#
# Poissons Ratio (x) = 0.13470 0.38766
# Poissons Ratio (y) = 0.09806 0.26768
# Poissons Ratio (z) = 0.35501 0.33674
#
# Static dielectric constant tensor:
#      x y z
#    x 1.927890 0.000000 -0.018800 
#    y 0.000000 1.753220 0.000000 
#    z -0.018800 0.000000 1.731120 
# 
# From -- ./inp_files/63493.got.cif
#   From: 2010.05.17/outbox.cif.g08.bks.cpg/sg14_32_cif.got.tgz:63493.got - 2010.06.03 17:49:19.
