data_PCOD9244595
_publ_section_title
;
Structure prediction by ZEFSAII (Michael W. Deem and Ramdas Pophale) SiO2 
 PCOD9244595
Probable space group: P 21/C
;
_chemical_formula_sum "Si O2"
_cell_formula_units_Z 32
_cell_length_a 10.350172
_cell_length_b 8.993101
_cell_length_c 26.759084
_cell_angle_alpha 90.000000
_cell_angle_beta 34.479825
_cell_angle_gamma 90.000000
_cell_volume 1410.047420
_symmetry_space_group_name_H-M "P 21/C"
_symmetry_group_IT_number 14
_symmetry_cell_setting 'monoclinic'
loop_
_space_group_symop_operation_xyz
x,y,z
-x,1/2+y,1/2-z
-x,-y,-z
x,1/2-y,1/2+z
loop_
_atom_site_type_symbol
_atom_site_label
_atom_site_fract_x
_atom_site_fract_y
_atom_site_fract_z
Si Si1 0.762228 0.089356 0.695030
Si Si2 0.835737 0.684484 0.007322
Si Si3 0.762711 0.943600 0.966588
Si Si4 0.472318 0.743255 0.479915
Si Si5 0.942094 0.384490 0.829192
Si Si6 0.357119 0.305961 0.825230
Si Si7 0.395295 0.004097 0.634156
Si Si8 0.817174 0.895343 0.207547
O O1 0.592888 0.222536 0.764500
O O2 0.938754 0.140052 0.595272
O O3 0.619553 0.953389 0.715975
O O4 0.908620 0.015772 0.693511
O O5 0.812421 0.666092 0.074162
O O6 0.623499 0.590163 0.053155
O O7 0.795197 0.857008 0.007404
O O8 0.621577 0.834403 0.975237
O O9 0.998561 0.980684 0.864117
O O10 0.640807 0.102008 0.011368
O O11 0.278198 0.846868 0.566322
O O12 0.599639 0.849039 0.401160
O O13 0.834302 0.420597 0.810015
O O14 0.078162 0.230766 0.789300
O O15 0.240061 0.189817 0.824620
O O16 0.388408 0.040120 0.694856
#
# Coordination Sequence:
#
# PCOD9244595 Si02
#       8
#     4   4   4   4   4   4   4   4
#     4  11  25  48  70  97 138 176 227 289 332 406
#     4  12  25  43  75  98 130 185 230 276 351 402
#     4  10  23  41  67  99 140 180 216 282 343 413
#     4  10  20  42  64 100 143 170 218 277 351 420
#     4  10  21  43  67 100 135 174 220 282 352 406
#     4  11  27  49  66  98 136 184 239 281 328 409
#     4  12  23  40  72 104 132 178 227 282 349 420
#     4  10  26  43  63  97 144 176 228 288 334 396
#
# _framework density 22.694271000000001
#
# number of rings (size 3 to 8) (size 9 to 14) (size 15 to 20)
#    0.000    1.250    2.500    2.250    5.250    3.500 
#    0.000    0.000    0.000    0.000    0.000    0.000 
#    0.000    0.000    0.000    0.000    0.000    0.000 
#
# Total GULP energy -178904.092864 kJ/mol
# GULP energy per Si atom -5590.752902 kJ/mol
# Density = 2.264262 g / cm^3
# Si number density = 22.694271 Si / 1000 Ang^3
#
#
#
# Elastic Constant Matrix: (Units=GPa)
#
#
# Indices 1 2 3 4 5 6 
#
# 1 51.2189 13.7639 -11.6002 0.0000 -3.1980 0.0000
# 2 13.7639 56.9564 10.6436 0.0000 -0.9671 0.0000
# 3 -11.6002 10.6436 55.7436 0.0000 -5.4865 0.0000
# 4 0.0000 0.0000 0.0000 24.5580 0.0000 -9.5995
# 5 -3.1980 -0.9671 -5.4865 0.0000 25.5957 0.0000
# 6 0.0000 0.0000 0.0000 -9.5995 0.0000 35.3500
#
#
#
# Elastic Compliance Matrix: (Units=1/GPa)
#
#
# Indices 1 2 3 4 5 6 
#
# 1 0.023043 -0.006710 0.006471 0.000000 0.004013 0.000000
# 2 -0.006710 0.020161 -0.005367 0.000000 -0.001227 0.000000
# 3 0.006471 -0.005367 0.020809 0.000000 0.005066 0.000000
# 4 0.000000 0.000000 0.000000 0.045555 0.000000 0.012371
# 5 0.004013 -0.001227 0.005066 0.000000 0.040610 0.000000
# 6 0.000000 0.000000 0.000000 0.012371 0.000000 0.031648
#
#
# Mechanical properties :
#
#
# Convention : Reuss Voigt Hill
#
# Bulk Modulus (GPa) = 18.93810 21.05930 19.99870
# Shear Modulus (GPa) = 23.73741 27.17484 25.45612
#
# Velocity S-wave (km/s) = 3.23765 3.46415 3.35281
# Velocity P-wave (km/s) = 4.72646 5.02992 4.88055
#
# Compressibility (1/GPa) = 0.05280361
#
# Stress axis : x y z
#
# Youngs Moduli (GPa) = 43.39645 49.60128 48.05544
#
# Poissons Ratio (x) = 0.33281 -0.31099
# Poissons Ratio (y) = 0.29118 0.25789
# Poissons Ratio (z) = -0.28084 0.26619
#
# Static dielectric constant tensor:
#      x y z
#    x 1.898360 0.000000 -0.038830 
#    y 0.000000 1.823220 0.000000 
#    z -0.038830 0.000000 1.806530 
# 
# From -- ./inp_files/79945.got.cif
#   From: 2010.05.17/outbox.cif.g08.bks.cpg/sg14_40_cif.got.tgz:79945.got - 2010.06.03 17:49:19.
