data_PCOD9244465
_publ_section_title
;
Structure prediction by ZEFSAII (Michael W. Deem and Ramdas Pophale) SiO2 
 PCOD9244465
Probable space group: P 21/C
;
_chemical_formula_sum "Si O2"
_cell_formula_units_Z 20
_cell_length_a 7.880182
_cell_length_b 9.172894
_cell_length_c 25.239233
_cell_angle_alpha 90.000000
_cell_angle_beta 151.583198
_cell_angle_gamma 90.000000
_cell_volume 868.196812
_symmetry_space_group_name_H-M "P 21/C"
_symmetry_group_IT_number 14
_symmetry_cell_setting 'monoclinic'
loop_
_space_group_symop_operation_xyz
x,y,z
-x,1/2+y,1/2-z
-x,-y,-z
x,1/2-y,1/2+z
loop_
_atom_site_type_symbol
_atom_site_label
_atom_site_fract_x
_atom_site_fract_y
_atom_site_fract_z
Si Si1 0.338567 0.782217 0.094624
Si Si2 0.261953 0.594897 0.976515
Si Si3 0.488716 0.383287 0.635777
Si Si4 0.191165 0.668722 0.161519
Si Si5 0.447249 0.658942 0.461136
O O1 0.416297 0.737038 0.176016
O O2 0.495991 0.942218 0.128452
O O3 0.425630 0.653948 0.076622
O O4 0.911012 0.816182 0.973859
O O5 0.193297 0.745966 0.928067
O O6 0.930490 0.489548 0.893780
O O7 0.500000 0.500000 0.000000
O O8 0.648918 0.348316 0.736581
O O9 0.671446 0.326413 0.632346
O O10 0.839966 0.768795 0.071215
O O11 0.500000 0.500000 0.500000
#
# Coordination Sequence:
#
# PCOD9244465 Si02
#       5
#     4   4   4   4   4
#     4  10  21  41  62  88 129 161 200 266 307 363
#     4  10  21  40  62  89 126 160 199 262 314 364
#     4  10  22  39  63  92 122 164 211 249 312 374
#     4  10  23  38  62  95 119 167 214 250 311 378
#     4  10  20  41  64  87 131 162 201 262 314 369
#
# _framework density 23.036252999999999
#
# number of rings (size 3 to 8) (size 9 to 14) (size 15 to 20)
#    0.000    2.000    2.000    0.600    2.800    1.600 
#    0.000    0.000    0.000    0.000    0.000    0.000 
#    0.000    0.000    0.000    0.000    0.000    0.000 
#
# Total GULP energy -111640.551052 kJ/mol
# GULP energy per Si atom -5582.027553 kJ/mol
# Density = 2.298382 g / cm^3
# Si number density = 23.036253 Si / 1000 Ang^3
#
#
#
# Elastic Constant Matrix: (Units=GPa)
#
#
# Indices 1 2 3 4 5 6 
#
# 1 66.0591 14.8108 26.4636 0.0000 -33.8756 0.0000
# 2 14.8108 103.5918 20.6256 0.0000 -9.3441 0.0000
# 3 26.4636 20.6256 117.6874 0.0000 -38.9008 0.0000
# 4 0.0000 0.0000 0.0000 20.0873 0.0000 -21.3839
# 5 -33.8756 -9.3441 -38.9008 0.0000 39.7868 0.0000
# 6 0.0000 0.0000 0.0000 -21.3839 0.0000 31.6104
#
#
#
# Elastic Compliance Matrix: (Units=1/GPa)
#
#
# Indices 1 2 3 4 5 6 
#
# 1 0.027741 -0.002174 0.002632 0.000000 0.025683 0.000000
# 2 -0.002174 0.010196 -0.001652 0.000000 -0.001072 0.000000
# 3 0.002632 -0.001652 0.013013 0.000000 0.014576 0.000000
# 4 0.000000 0.000000 0.000000 0.177887 0.000000 0.120337
# 5 0.025683 -0.001072 0.014576 0.000000 0.061001 0.000000
# 6 0.000000 0.000000 0.000000 0.120337 0.000000 0.113041
#
#
# Mechanical properties :
#
#
# Convention : Reuss Voigt Hill
#
# Bulk Modulus (GPa) = 20.59207 45.68204 33.13706
# Shear Modulus (GPa) = 11.86370 33.32614 22.59492
#
# Velocity S-wave (km/s) = 2.27183 3.80765 3.13524
# Velocity P-wave (km/s) = 3.97995 6.26135 5.24617
#
# Compressibility (1/GPa) = 0.04856238
#
# Stress axis : x y z
#
# Youngs Moduli (GPa) = 36.04770 98.07389 76.84723
#
# Poissons Ratio (x) = 0.21318 -0.20228
# Poissons Ratio (y) = 0.07836 0.12699
# Poissons Ratio (z) = -0.09489 0.16206
#
# Static dielectric constant tensor:
#      x y z
#    x 1.895820 0.000000 0.031860 
#    y 0.000000 3.881790 0.000000 
#    z 0.031860 0.000000 1.843810 
# 
# From -- ./inp_files/23006.got.cif
#   From: 2010.05.17/outbox.cif.g08.bks.cpg/sg14_12_cif.got.tgz:23006.got - 2010.06.03 17:49:19.
