data_PCOD9244014
_publ_section_title
;
Structure prediction by ZEFSAII (Michael W. Deem and Ramdas Pophale) SiO2 
 PCOD9244014
Probable space group: P 21/C
;
_chemical_formula_sum "Si O2"
_cell_formula_units_Z 26
_cell_length_a 7.805094
_cell_length_b 15.941172
_cell_length_c 13.020561
_cell_angle_alpha 90.000000
_cell_angle_beta 47.564587
_cell_angle_gamma 90.000000
_cell_volume 1195.658234
_symmetry_space_group_name_H-M "P 21/C"
_symmetry_group_IT_number 14
_symmetry_cell_setting 'monoclinic'
loop_
_space_group_symop_operation_xyz
x,y,z
-x,1/2+y,1/2-z
-x,-y,-z
x,1/2-y,1/2+z
loop_
_atom_site_type_symbol
_atom_site_label
_atom_site_fract_x
_atom_site_fract_y
_atom_site_fract_z
Si Si1 0.493549 0.811576 0.952269
Si Si2 0.660963 0.132228 0.424420
Si Si3 0.000000 0.000000 0.000000
Si Si4 0.934690 0.619328 0.393018
Si Si5 0.824489 0.449355 0.329245
Si Si6 0.778640 0.968024 0.484477
Si Si7 0.543332 0.946915 0.783670
O O1 0.430740 0.715195 0.984983
O O2 0.280536 0.867172 0.080066
O O3 0.712312 0.835162 0.936894
O O4 0.541956 0.850405 0.820821
O O5 0.449801 0.080491 0.461913
O O6 0.846724 0.150928 0.259461
O O7 0.776911 0.065846 0.454399
O O8 0.710322 0.020025 0.142922
O O9 0.948855 0.895091 0.007471
O O10 0.923358 0.514200 0.377425
O O11 0.627077 0.501712 0.350064
O O12 0.015534 0.430193 0.166556
O O13 0.744670 0.960376 0.619032
#
# Coordination Sequence:
#
# PCOD9244014 Si02
#       7
#     4   4   2   4   4   4   4
#     4  11  22  40  64  93 125 162 210 263 303 364
#     4  10  23  39  63  91 128 164 209 253 317 369
#     4  12  18  36  66  88 118 160 210 254 294 376
#     4  10  20  39  64  90 120 167 207 250 314 375
#     4  10  20  39  66  88 121 165 201 253 318 374
#     4  10  22  41  64  88 127 171 201 252 320 379
#     4  11  21  39  65  92 122 160 217 253 306 373
#
# _framework density 21.745346000000001
#
# number of rings (size 3 to 8) (size 9 to 14) (size 15 to 20)
#    0.000    1.538    4.615    1.385    2.154    0.000 
#    2.769    0.000    6.769    0.000    0.000    0.000 
#    0.000    0.000    0.000    0.000    0.000    0.000 
#
# Total GULP energy -144740.663192 kJ/mol
# GULP energy per Si atom -5566.948584 kJ/mol
# Density = 2.169585 g / cm^3
# Si number density = 21.745346 Si / 1000 Ang^3
#
#
#
# Elastic Constant Matrix: (Units=GPa)
#
#
# Indices 1 2 3 4 5 6 
#
# 1 73.2159 5.1407 5.7547 0.0000 -18.4248 0.0000
# 2 5.1407 68.9390 7.4473 0.0000 6.4086 0.0000
# 3 5.7547 7.4473 117.2992 0.0000 -0.8377 0.0000
# 4 0.0000 0.0000 0.0000 23.4472 0.0000 2.9540
# 5 -18.4248 6.4086 -0.8377 0.0000 37.7969 0.0000
# 6 0.0000 0.0000 0.0000 2.9540 0.0000 3.1586
#
#
#
# Elastic Compliance Matrix: (Units=1/GPa)
#
#
# Indices 1 2 3 4 5 6 
#
# 1 0.015858 -0.001864 -0.000602 0.000000 0.008033 0.000000
# 2 -0.001864 0.015064 -0.000890 0.000000 -0.003483 0.000000
# 3 -0.000602 -0.000890 0.008612 0.000000 0.000048 0.000000
# 4 0.000000 0.000000 0.000000 0.048345 0.000000 -0.045213
# 5 0.008033 -0.003483 0.000048 0.000000 0.030965 0.000000
# 6 0.000000 0.000000 0.000000 -0.045213 0.000000 0.358883
#
#
# Mechanical properties :
#
#
# Convention : Reuss Voigt Hill
#
# Bulk Modulus (GPa) = 30.46792 32.90438 31.68615
# Shear Modulus (GPa) = 10.09326 28.95463 19.52395
#
# Velocity S-wave (km/s) = 2.15677 3.65298 2.99966
# Velocity P-wave (km/s) = 4.49932 5.74081 5.15755
#
# Compressibility (1/GPa) = 0.03282141
#
# Stress axis : x y z
#
# Youngs Moduli (GPa) = 63.05977 66.38133 116.12252
#
# Poissons Ratio (x) = 0.12375 0.06994
# Poissons Ratio (y) = 0.11756 0.10333
# Poissons Ratio (z) = 0.03798 0.05907
#
# Static dielectric constant tensor:
#      x y z
#    x -4.380310 0.000000 -2.797290 
#    y 0.000000 1.542660 0.000000 
#    z -2.797290 0.000000 0.565390 
# 
# From -- ./inp_files/41342.got.cif
#   From: 2010.05.17/outbox.cif.g08.bks.cpg/sg14_21_cif.got.tgz:41342.got - 2010.06.03 17:49:19.
