data_PCOD9244674
_publ_section_title
;
Structure prediction by ZEFSAII (Michael W. Deem and Ramdas Pophale) SiO2 
 PCOD9244674
Probable space group: P 21/C
;
_chemical_formula_sum "Si O2"
_cell_formula_units_Z 20
_cell_length_a 5.516909
_cell_length_b 9.263209
_cell_length_c 13.670414
_cell_angle_alpha 90.000000
_cell_angle_beta 88.752233
_cell_angle_gamma 90.000000
_cell_volume 698.451021
_symmetry_space_group_name_H-M "P 21/C"
_symmetry_group_IT_number 14
_symmetry_cell_setting 'monoclinic'
loop_
_space_group_symop_operation_xyz
x,y,z
-x,1/2+y,1/2-z
-x,-y,-z
x,1/2-y,1/2+z
loop_
_atom_site_type_symbol
_atom_site_label
_atom_site_fract_x
_atom_site_fract_y
_atom_site_fract_z
Si Si1 0.714134 0.693146 0.025619
Si Si2 0.226802 0.852679 0.001818
Si Si3 0.045967 0.615873 0.302951
Si Si4 0.426585 0.675388 0.694528
Si Si5 0.789643 0.906807 0.338693
O O1 0.474117 0.766297 0.976307
O O2 0.749042 0.556262 0.952485
O O3 0.985851 0.759219 0.023339
O O4 0.620219 0.721133 0.135922
O O5 0.159115 0.941745 0.905278
O O6 0.301699 0.915486 0.107096
O O7 0.243410 0.717846 0.248064
O O8 0.005683 0.496034 0.220487
O O9 0.851178 0.736549 0.333585
O O10 0.559047 0.577959 0.771806
#
# Coordination Sequence:
#
# PCOD9244674 Si02
#       5
#     4   4   4   4   4
#     4   9  20  41  65  98 139 172 229 280 343 402
#     4   9  20  41  65  98 139 172 229 280 343 402
#     4  11  24  44  68 101 139 181 229 284 346 413
#     4  10  20  42  68  98 132 186 222 290 334 414
#     4  11  24  44  68 101 139 181 229 284 346 413
#
# _framework density 28.634795
#
# number of rings (size 3 to 8) (size 9 to 14) (size 15 to 20)
#    1.200    0.800    2.000    1.200    0.000    3.200 
#    0.000   10.000    0.000    0.000    0.000    0.000 
#    0.000    0.000    0.000    0.000    0.000    0.000 
#
# Total GULP energy -111632.569673 kJ/mol
# GULP energy per Si atom -5581.628484 kJ/mol
# Density = 2.856962 g / cm^3
# Si number density = 28.634795 Si / 1000 Ang^3
#
#
#
# Elastic Constant Matrix: (Units=GPa)
#
#
# Indices 1 2 3 4 5 6 
#
# 1 175.3273 35.3085 49.1461 0.0000 -13.1529 0.0000
# 2 35.3085 102.2496 17.8716 0.0000 12.5950 0.0000
# 3 49.1461 17.8716 81.4050 0.0000 -24.6233 0.0000
# 4 0.0000 0.0000 0.0000 31.6377 0.0000 -3.2097
# 5 -13.1529 12.5950 -24.6233 0.0000 51.3642 0.0000
# 6 0.0000 0.0000 0.0000 -3.2097 0.0000 40.6399
#
#
#
# Elastic Compliance Matrix: (Units=1/GPa)
#
#
# Indices 1 2 3 4 5 6 
#
# 1 0.007176 -0.001879 -0.003771 0.000000 0.000490 0.000000
# 2 -0.001879 0.011487 -0.002789 0.000000 -0.004635 0.000000
# 3 -0.003771 -0.002789 0.017647 0.000000 0.008178 0.000000
# 4 0.000000 0.000000 0.000000 0.031863 0.000000 0.002517
# 5 0.000490 -0.004635 0.008178 0.000000 0.024651 0.000000
# 6 0.000000 0.000000 0.000000 0.002517 0.000000 0.024805
#
#
# Mechanical properties :
#
#
# Convention : Reuss Voigt Hill
#
# Bulk Modulus (GPa) = 51.46562 62.62602 57.04582
# Shear Modulus (GPa) = 35.46410 41.83874 38.65142
#
# Velocity S-wave (km/s) = 3.52305 3.82660 3.67796
# Velocity P-wave (km/s) = 5.87888 6.43754 6.16454
#
# Compressibility (1/GPa) = 0.01943045
#
# Stress axis : x y z
#
# Youngs Moduli (GPa) = 139.35282 87.05155 56.66597
#
# Poissons Ratio (x) = 0.16359 0.21371
# Poissons Ratio (y) = 0.26187 0.15807
# Poissons Ratio (z) = 0.52556 0.24283
#
# Static dielectric constant tensor:
#      x y z
#    x 2.214570 0.000000 -0.027180 
#    y 0.000000 2.344270 0.000000 
#    z -0.027180 0.000000 2.308230 
# 
# From -- ./inp_files/36963.got.cif
#   From: 2010.05.17/outbox.cif.g08.bks.cpg/sg14_19_cif.got.tgz:36963.got - 2010.06.03 17:49:19.
