data_PCOD9244224
_publ_section_title
;
Structure prediction by ZEFSAII (Michael W. Deem and Ramdas Pophale) SiO2 
 PCOD9244224
Probable space group: P 21/C
;
_chemical_formula_sum "Si O2"
_cell_formula_units_Z 28
_cell_length_a 24.932722
_cell_length_b 10.851383
_cell_length_c 13.704861
_cell_angle_alpha 90.000000
_cell_angle_beta 158.324096
_cell_angle_gamma 90.000000
_cell_volume 1369.539458
_symmetry_space_group_name_H-M "P 21/C"
_symmetry_group_IT_number 14
_symmetry_cell_setting 'monoclinic'
loop_
_space_group_symop_operation_xyz
x,y,z
-x,1/2+y,1/2-z
-x,-y,-z
x,1/2-y,1/2+z
loop_
_atom_site_type_symbol
_atom_site_label
_atom_site_fract_x
_atom_site_fract_y
_atom_site_fract_z
Si Si1 0.041307 0.777254 0.472858
Si Si2 0.567662 0.627839 0.073591
Si Si3 0.761751 0.610463 0.583295
Si Si4 0.758057 0.673446 0.209298
Si Si5 0.907397 0.175504 0.654630
Si Si6 0.865070 0.953477 0.707721
Si Si7 0.736006 0.323652 0.499782
O O1 0.094233 0.836219 0.463225
O O2 0.179038 0.747246 0.773598
O O3 0.930977 0.862434 0.347262
O O4 0.940312 0.659903 0.278024
O O5 0.427813 0.707922 0.806870
O O6 0.500000 0.500000 0.000000
O O7 0.670598 0.665294 0.337351
O O8 0.662620 0.620675 0.135762
O O9 0.721311 0.687626 0.611345
O O10 0.737833 0.464241 0.541584
O O11 0.753678 0.595130 0.101035
O O12 0.925334 0.673776 0.527896
O O13 0.832367 0.300343 0.566254
O O14 0.824947 0.062168 0.567134
O O15 0.000000 0.000000 0.000000
#
# Coordination Sequence:
#
# PCOD9244224 Si02
#       7
#     4   4   4   4   4   4   4
#     4  11  21  35  65  91 120 164 211 263 312 371
#     4  10  23  42  63  93 126 173 210 254 328 386
#     4  10  21  40  63  90 124 168 210 255 319 386
#     4  10  20  40  64  85 127 171 201 257 318 381
#     4  11  22  36  63  95 123 165 210 268 307 380
#     4   9  19  37  58  91 120 161 208 256 320 363
#     4  11  23  39  57  99 123 154 221 266 307 374
#
# _framework density 20.44483
#
# number of rings (size 3 to 8) (size 9 to 14) (size 15 to 20)
#    0.000    1.714    5.714    0.429    2.000    2.286 
#    5.143    0.000    0.000    4.286    0.000    0.000 
#    0.000    0.000    0.000    0.000    0.000    0.000 
#
# Total GULP energy -155987.817840 kJ/mol
# GULP energy per Si atom -5570.993494 kJ/mol
# Density = 2.039830 g / cm^3
# Si number density = 20.444830 Si / 1000 Ang^3
#
#
#
# Elastic Constant Matrix: (Units=GPa)
#
#
# Indices 1 2 3 4 5 6 
#
# 1 115.2158 17.0693 28.0062 0.0000 10.4520 0.0000
# 2 17.0693 59.8063 -1.5914 0.0000 7.2550 0.0000
# 3 28.0062 -1.5914 95.5006 0.0000 2.0046 0.0000
# 4 0.0000 0.0000 0.0000 16.4143 0.0000 -0.8872
# 5 10.4520 7.2550 2.0046 0.0000 27.9110 0.0000
# 6 0.0000 0.0000 0.0000 -0.8872 0.0000 26.0424
#
#
#
# Elastic Compliance Matrix: (Units=1/GPa)
#
#
# Indices 1 2 3 4 5 6 
#
# 1 0.010035 -0.002593 -0.002926 0.000000 -0.002874 0.000000
# 2 -0.002593 0.017949 0.001139 0.000000 -0.003776 0.000000
# 3 -0.002926 0.001139 0.011348 0.000000 -0.000015 0.000000
# 4 0.000000 0.000000 0.000000 0.061035 0.000000 0.002079
# 5 -0.002874 -0.003776 -0.000015 0.000000 0.037887 0.000000
# 6 0.000000 0.000000 0.000000 0.002079 0.000000 0.038470
#
#
# Mechanical properties :
#
#
# Convention : Reuss Voigt Hill
#
# Bulk Modulus (GPa) = 32.70929 39.72123 36.21526
# Shear Modulus (GPa) = 25.55238 29.20944 27.38091
#
# Velocity S-wave (km/s) = 3.53912 3.78391 3.66356
# Velocity P-wave (km/s) = 5.72136 6.20978 5.97057
#
# Compressibility (1/GPa) = 0.03057235
#
# Stress axis : x y z
#
# Youngs Moduli (GPa) = 99.64626 55.71262 88.11760
#
# Poissons Ratio (x) = 0.14449 0.25782
# Poissons Ratio (y) = 0.25843 -0.10036
# Poissons Ratio (z) = 0.29155 -0.06345
#
# Static dielectric constant tensor:
#      x y z
#    x 1.749270 0.000000 -0.009270 
#    y 0.000000 1.836580 0.000000 
#    z -0.009270 0.000000 1.741670 
# 
# From -- ./inp_files/51998.got.cif
#   From: 2010.05.17/outbox.cif.g08.bks.cpg/sg14_26_cif.got.tgz:51998.got - 2010.06.03 17:49:19.
