data_PCOD9244563
_publ_section_title
;
Structure prediction by ZEFSAII (Michael W. Deem and Ramdas Pophale) SiO2 
 PCOD9244563
Probable space group: P 21/C
;
_chemical_formula_sum "Si O2"
_cell_formula_units_Z 24
_cell_length_a 5.166226
_cell_length_b 8.117648
_cell_length_c 20.558297
_cell_angle_alpha 90.000000
_cell_angle_beta 87.174951
_cell_angle_gamma 90.000000
_cell_volume 861.117919
_symmetry_space_group_name_H-M "P 21/C"
_symmetry_group_IT_number 14
_symmetry_cell_setting 'monoclinic'
loop_
_space_group_symop_operation_xyz
x,y,z
-x,1/2+y,1/2-z
-x,-y,-z
x,1/2-y,1/2+z
loop_
_atom_site_type_symbol
_atom_site_label
_atom_site_fract_x
_atom_site_fract_y
_atom_site_fract_z
Si Si1 0.686752 0.398072 0.673946
Si Si2 0.493318 0.764167 0.025159
Si Si3 0.220975 0.056220 0.573322
Si Si4 0.182299 0.523577 0.607077
Si Si5 0.146207 0.327904 0.863412
Si Si6 0.483896 0.553437 0.793257
O O1 0.415672 0.438111 0.642299
O O2 0.686917 0.527515 0.733134
O O3 0.677618 0.219898 0.706505
O O4 0.925432 0.416430 0.621881
O O5 0.314719 0.601021 0.029825
O O6 0.295325 0.916831 0.035677
O O7 0.658523 0.763399 0.089823
O O8 0.698839 0.720139 0.966289
O O9 0.370699 0.055044 0.639668
O O10 0.937636 0.995680 0.597467
O O11 0.091638 0.701214 0.639759
O O12 0.288933 0.397510 0.798664
#
# Coordination Sequence:
#
# PCOD9244563 Si02
#       6
#     4   4   4   4   4   4
#     4  12  28  45  71  97 143 183 237 287 352 419
#     4   9  18  40  69 106 136 184 225 290 340 424
#     4   9  20  37  69 105 141 175 237 282 347 414
#     4  11  24  45  71 101 135 184 228 286 348 416
#     4  10  20  41  74 103 138 180 234 283 350 414
#     4  11  27  44  68 104 137 188 232 296 346 420
#
# _framework density 27.870746
#
# number of rings (size 3 to 8) (size 9 to 14) (size 15 to 20)
#    0.000    1.667    1.667    1.500    9.333    1.333 
#    0.000    1.667    0.000    0.000    0.000    0.000 
#    0.000    0.000    0.000    0.000    0.000    0.000 
#
# Total GULP energy -134356.435002 kJ/mol
# GULP energy per Si atom -5598.184792 kJ/mol
# Density = 2.780731 g / cm^3
# Si number density = 27.870746 Si / 1000 Ang^3
#
#
#
# Elastic Constant Matrix: (Units=GPa)
#
#
# Indices 1 2 3 4 5 6 
#
# 1 124.8504 18.8854 38.0171 0.0000 -27.7677 0.0000
# 2 18.8854 119.0147 25.1581 0.0000 -10.4738 0.0000
# 3 38.0171 25.1581 98.5809 0.0000 -37.9684 0.0000
# 4 0.0000 0.0000 0.0000 38.6359 0.0000 -12.0975
# 5 -27.7677 -10.4738 -37.9684 0.0000 47.0603 0.0000
# 6 0.0000 0.0000 0.0000 -12.0975 0.0000 33.5499
#
#
#
# Elastic Compliance Matrix: (Units=1/GPa)
#
#
# Indices 1 2 3 4 5 6 
#
# 1 0.009599 -0.000756 -0.002020 0.000000 0.003866 0.000000
# 2 -0.000756 0.008942 -0.002025 0.000000 -0.000090 0.000000
# 3 -0.002020 -0.002025 0.015679 0.000000 0.011008 0.000000
# 4 0.000000 0.000000 0.000000 0.029177 0.000000 0.010521
# 5 0.003866 -0.000090 0.011008 0.000000 0.032391 0.000000
# 6 0.000000 0.000000 0.000000 0.010521 0.000000 0.033600
#
#
# Mechanical properties :
#
#
# Convention : Reuss Voigt Hill
#
# Bulk Modulus (GPa) = 40.61973 56.28523 48.45248
# Shear Modulus (GPa) = 33.96815 41.20825 37.58820
#
# Velocity S-wave (km/s) = 3.49488 3.84936 3.67640
# Velocity P-wave (km/s) = 5.55802 6.32422 5.95346
#
# Compressibility (1/GPa) = 0.02461858
#
# Stress axis : x y z
#
# Youngs Moduli (GPa) = 104.17990 111.82581 63.77841
#
# Poissons Ratio (x) = 0.08454 0.12882
# Poissons Ratio (y) = 0.07876 0.12916
# Poissons Ratio (z) = 0.21043 0.22647
#
# Static dielectric constant tensor:
#      x y z
#    x 2.127430 0.000000 -0.024470 
#    y 0.000000 2.244910 0.000000 
#    z -0.024470 0.000000 2.155310 
# 
# From -- ./inp_files/70983.got.cif
#   From: 2010.05.17/outbox.cif.g08.bks.cpg/sg14_36_cif.got.tgz:70983.got - 2010.06.03 17:49:19.
