data_PCOD9244246
_publ_section_title
;
Structure prediction by ZEFSAII (Michael W. Deem and Ramdas Pophale) SiO2 
 PCOD9244246
Probable space group: P 21/C
;
_chemical_formula_sum "Si O2"
_cell_formula_units_Z 26
_cell_length_a 4.954298
_cell_length_b 20.812010
_cell_length_c 9.500658
_cell_angle_alpha 90.000000
_cell_angle_beta 103.038407
_cell_angle_gamma 90.000000
_cell_volume 954.347315
_symmetry_space_group_name_H-M "P 21/C"
_symmetry_group_IT_number 14
_symmetry_cell_setting 'monoclinic'
loop_
_space_group_symop_operation_xyz
x,y,z
-x,1/2+y,1/2-z
-x,-y,-z
x,1/2-y,1/2+z
loop_
_atom_site_type_symbol
_atom_site_label
_atom_site_fract_x
_atom_site_fract_y
_atom_site_fract_z
Si Si1 0.000000 0.500000 0.000000
Si Si2 0.968061 0.443861 0.709071
Si Si3 0.612559 0.110475 0.520010
Si Si4 0.135102 0.265730 0.597640
Si Si5 0.140393 0.687431 0.178998
Si Si6 0.628222 0.901936 0.964713
Si Si7 0.793359 0.633216 0.793115
O O1 0.990146 0.500636 0.173879
O O2 0.719842 0.454284 0.961830
O O3 0.672262 0.427726 0.607704
O O4 0.022851 0.379179 0.808392
O O5 0.172453 0.446987 0.602361
O O6 0.346946 0.099264 0.587246
O O7 0.609917 0.163060 0.392667
O O8 0.875023 0.133475 0.646651
O O9 0.025574 0.235905 0.440081
O O10 0.874256 0.282606 0.667562
O O11 0.303331 0.329964 0.583683
O O12 0.296403 0.207877 0.694859
O O13 0.690058 0.896399 0.136742
#
# Coordination Sequence:
#
# PCOD9244246 Si02
#       7
#     2   4   4   4   4   4   4
#     4  10  24  50  70  98 124 182 224 304 328 400
#     4  10  24  42  69  93 132 168 235 273 335 391
#     4  10  24  42  69  93 132 168 235 273 335 391
#     4  10  20  40  64  92 138 180 214 262 334 392
#     4   9  20  39  60  96 122 175 214 266 318 402
#     4  11  23  43  63 100 137 176 216 278 327 412
#     4  11  23  43  63 100 137 176 216 278 327 412
#
# _framework density 27.243749999999999
#
# number of rings (size 3 to 8) (size 9 to 14) (size 15 to 20)
#    0.000    1.846    1.538    0.923    0.000   19.692 
#   11.077    4.615    0.000    0.000    0.000    0.000 
#    0.000    0.000    0.000    0.000    0.000    0.000 
#
# Total GULP energy -145130.257644 kJ/mol
# GULP energy per Si atom -5581.932986 kJ/mol
# Density = 2.718174 g / cm^3
# Si number density = 27.243750 Si / 1000 Ang^3
#
#
#
# Elastic Constant Matrix: (Units=GPa)
#
#
# Indices 1 2 3 4 5 6 
#
# 1 121.0026 -9.6693 46.4477 0.0000 -5.8693 0.0000
# 2 -9.6693 83.0286 21.4326 0.0000 0.8551 0.0000
# 3 46.4477 21.4326 185.9761 0.0000 -6.1447 0.0000
# 4 0.0000 0.0000 0.0000 65.1177 0.0000 -7.6132
# 5 -5.8693 0.8551 -6.1447 0.0000 45.6664 0.0000
# 6 0.0000 0.0000 0.0000 -7.6132 0.0000 27.5472
#
#
#
# Elastic Compliance Matrix: (Units=1/GPa)
#
#
# Indices 1 2 3 4 5 6 
#
# 1 0.009413 0.001739 -0.002524 0.000000 0.000838 0.000000
# 2 0.001739 0.012743 -0.001912 0.000000 -0.000272 0.000000
# 3 -0.002524 -0.001912 0.006246 0.000000 0.000552 0.000000
# 4 0.000000 0.000000 0.000000 0.015870 0.000000 0.004386
# 5 0.000838 -0.000272 0.000552 0.000000 0.022085 0.000000
# 6 0.000000 0.000000 0.000000 0.004386 0.000000 0.037513
#
#
# Mechanical properties :
#
#
# Convention : Reuss Voigt Hill
#
# Bulk Modulus (GPa) = 43.46233 56.26992 49.86612
# Shear Modulus (GPa) = 42.76005 49.78600 46.27303
#
# Velocity S-wave (km/s) = 3.96604 4.27948 4.12574
# Velocity P-wave (km/s) = 6.07950 6.71697 6.40617
#
# Compressibility (1/GPa) = 0.02300843
#
# Stress axis : x y z
#
# Youngs Moduli (GPa) = 106.24116 78.47525 160.10631
#
# Poissons Ratio (x) = -0.13646 0.40403
# Poissons Ratio (y) = -0.18475 0.30610
# Poissons Ratio (z) = 0.26810 0.15003
#
# Static dielectric constant tensor:
#      x y z
#    x 2.131600 0.000000 0.022780 
#    y 0.000000 2.248780 0.000000 
#    z 0.022780 0.000000 2.073400 
# 
# From -- ./inp_files/6297.got.cif
#   From: 2010.05.17/outbox.cif.g08.bks.cpg/sg14_4_cif.got.tgz:6297.got - 2010.06.03 17:49:19.
