data_PCOD9244572
_publ_section_title
;
Structure prediction by ZEFSAII (Michael W. Deem and Ramdas Pophale) SiO2 
 PCOD9244572
Probable space group: P 21/C
;
_chemical_formula_sum "Si O2"
_cell_formula_units_Z 24
_cell_length_a 9.474026
_cell_length_b 13.465586
_cell_length_c 13.930546
_cell_angle_alpha 90.000000
_cell_angle_beta 41.913800
_cell_angle_gamma 90.000000
_cell_volume 1187.167798
_symmetry_space_group_name_H-M "P 21/C"
_symmetry_group_IT_number 14
_symmetry_cell_setting 'monoclinic'
loop_
_space_group_symop_operation_xyz
x,y,z
-x,1/2+y,1/2-z
-x,-y,-z
x,1/2-y,1/2+z
loop_
_atom_site_type_symbol
_atom_site_label
_atom_site_fract_x
_atom_site_fract_y
_atom_site_fract_z
Si Si1 0.993896 0.067655 0.410683
Si Si2 0.738637 0.463877 0.862391
Si Si3 0.217622 0.744184 0.391509
Si Si4 0.589498 0.690119 0.334230
Si Si5 0.241313 0.774833 0.158722
Si Si6 0.087324 0.136958 0.829635
O O1 0.883186 0.010463 0.380603
O O2 0.848292 0.162963 0.508541
O O3 0.226328 0.108918 0.267491
O O4 0.000000 0.000000 0.500000
O O5 0.750893 0.345328 0.848945
O O6 0.843488 0.524361 0.722182
O O7 0.500000 0.500000 0.000000
O O8 0.432965 0.695469 0.321961
O O9 0.224278 0.788161 0.281456
O O10 0.037583 0.663607 0.509612
O O11 0.449860 0.682186 0.501072
O O12 0.704612 0.795995 0.277806
O O13 0.055331 0.821528 0.187380
#
# Coordination Sequence:
#
# PCOD9244572 Si02
#       6
#     4   4   4   4   4   4
#     4  11  23  41  66  94 125 171 218 261 319 389
#     4  12  22  39  67  93 122 170 220 259 323 385
#     4  10  22  40  60  92 128 167 208 262 330 368
#     4  10  20  42  61  87 130 161 208 265 315 386
#     4  11  22  40  66  91 127 171 207 268 326 370
#     4  10  21  41  61  90 128 162 213 267 314 387
#
# _framework density 20.216180000000001
#
# number of rings (size 3 to 8) (size 9 to 14) (size 15 to 20)
#    0.000    1.333    6.667    1.000    2.333    3.333 
#    0.000    7.500    0.000    0.000    0.000    0.000 
#    0.000    0.000    0.000    0.000    0.000    0.000 
#
# Total GULP energy -133877.861652 kJ/mol
# GULP energy per Si atom -5578.244236 kJ/mol
# Density = 2.017017 g / cm^3
# Si number density = 20.216180 Si / 1000 Ang^3
#
#
#
# Elastic Constant Matrix: (Units=GPa)
#
#
# Indices 1 2 3 4 5 6 
#
# 1 26.2716 -15.1598 19.7732 0.0000 4.9645 0.0000
# 2 -15.1598 71.2086 15.9298 0.0000 -3.6249 0.0000
# 3 19.7732 15.9298 74.1455 0.0000 7.1480 0.0000
# 4 0.0000 0.0000 0.0000 33.5097 0.0000 7.3647
# 5 4.9645 -3.6249 7.1480 0.0000 37.2497 0.0000
# 6 0.0000 0.0000 0.0000 7.3647 0.0000 26.9589
#
#
#
# Elastic Compliance Matrix: (Units=1/GPa)
#
#
# Indices 1 2 3 4 5 6 
#
# 1 0.065051 0.018408 -0.021029 0.000000 -0.002843 0.000000
# 2 0.018408 0.020122 -0.009358 0.000000 0.001300 0.000000
# 3 -0.021029 -0.009358 0.021317 0.000000 -0.002199 0.000000
# 4 0.000000 0.000000 0.000000 0.031748 0.000000 -0.008673
# 5 -0.002843 0.001300 -0.002199 0.000000 0.027773 0.000000
# 6 0.000000 0.000000 0.000000 -0.008673 0.000000 0.039463
#
#
# Mechanical properties :
#
#
# Convention : Reuss Voigt Hill
#
# Bulk Modulus (GPa) = 12.11624 23.63467 17.87545
# Shear Modulus (GPa) = 19.45971 29.61580 24.53776
#
# Velocity S-wave (km/s) = 3.10592 3.83163 3.48770
# Velocity P-wave (km/s) = 4.34380 5.59388 5.00800
#
# Compressibility (1/GPa) = 0.08253389
#
# Stress axis : x y z
#
# Youngs Moduli (GPa) = 15.37266 49.69738 46.91021
#
# Poissons Ratio (x) = -0.91484 0.98646
# Poissons Ratio (y) = -0.28298 0.43897
# Poissons Ratio (z) = 0.32327 0.46505
#
# Static dielectric constant tensor:
#      x y z
#    x 1.750460 0.000000 0.027430 
#    y 0.000000 1.739110 0.000000 
#    z 0.027430 0.000000 1.733200 
# 
# From -- ./inp_files/35364.got.cif
#   From: 2010.05.17/outbox.cif.g08.bks.cpg/sg14_18_cif.got.tgz:35364.got - 2010.06.03 17:49:19.
