data_PCOD9244720
_publ_section_title
;
Structure prediction by ZEFSAII (Michael W. Deem and Ramdas Pophale) SiO2 
 PCOD9244720
Probable space group: P 21/C
;
_chemical_formula_sum "Si O2"
_cell_formula_units_Z 20
_cell_length_a 7.059814
_cell_length_b 20.523298
_cell_length_c 7.736974
_cell_angle_alpha 90.000000
_cell_angle_beta 113.436166
_cell_angle_gamma 90.000000
_cell_volume 1028.535768
_symmetry_space_group_name_H-M "P 21/C"
_symmetry_group_IT_number 14
_symmetry_cell_setting 'monoclinic'
loop_
_space_group_symop_operation_xyz
x,y,z
-x,1/2+y,1/2-z
-x,-y,-z
x,1/2-y,1/2+z
loop_
_atom_site_type_symbol
_atom_site_label
_atom_site_fract_x
_atom_site_fract_y
_atom_site_fract_z
Si Si1 0.254830 0.829306 0.140861
Si Si2 0.897874 0.569600 0.430119
Si Si3 0.043083 0.934673 0.619898
Si Si4 0.745501 0.317328 0.962468
Si Si5 0.535266 0.108367 0.097502
O O1 0.319101 0.826208 0.363396
O O2 0.054473 0.874851 0.050211
O O3 0.199022 0.757227 0.053290
O O4 0.425097 0.859793 0.074117
O O5 0.881904 0.575789 0.216099
O O6 0.000000 0.500000 0.500000
O O7 0.682080 0.576127 0.448075
O O8 0.073551 0.869782 0.515235
O O9 0.269630 0.938814 0.793323
O O10 0.000000 0.000000 0.500000
O O11 0.570860 0.336971 0.759470
#
# Coordination Sequence:
#
# PCOD9244720 Si02
#       5
#     4   4   4   4   4
#     4  11  20  43  63  89 129 165 209 268 315 370
#     4  11  23  42  63  93 131 168 211 259 317 380
#     4   9  20  40  62  93 128 162 210 261 310 369
#     4  10  20  43  63  89 130 162 212 269 305 381
#     4   9  23  41  63  91 124 165 213 255 316 375
#
# _framework density 19.445118000000001
#
# number of rings (size 3 to 8) (size 9 to 14) (size 15 to 20)
#    1.200    0.800    2.000    1.200    0.000    4.000 
#   14.400    0.000    0.000    0.000    0.000    0.000 
#    0.000    0.000    0.000    0.000    0.000    0.000 
#
# Total GULP energy -111467.653660 kJ/mol
# GULP energy per Si atom -5573.382683 kJ/mol
# Density = 1.940086 g / cm^3
# Si number density = 19.445118 Si / 1000 Ang^3
#
#
#
# Elastic Constant Matrix: (Units=GPa)
#
#
# Indices 1 2 3 4 5 6 
#
# 1 111.3014 57.3581 40.0207 0.0000 -27.1586 0.0000
# 2 57.3581 138.4155 29.8243 0.0000 -5.2780 0.0000
# 3 40.0207 29.8243 88.9441 0.0000 -45.4694 0.0000
# 4 0.0000 0.0000 0.0000 33.4513 0.0000 -8.1585
# 5 -27.1586 -5.2780 -45.4694 0.0000 36.7926 0.0000
# 6 0.0000 0.0000 0.0000 -8.1585 0.0000 28.7000
#
#
#
# Elastic Compliance Matrix: (Units=1/GPa)
#
#
# Indices 1 2 3 4 5 6 
#
# 1 0.014233 -0.005745 0.001281 0.000000 0.011265 0.000000
# 2 -0.005745 0.010578 -0.006393 0.000000 -0.010624 0.000000
# 3 0.001281 -0.006393 0.034829 0.000000 0.043070 0.000000
# 4 0.000000 0.000000 0.000000 0.032121 0.000000 0.009131
# 5 0.011265 -0.010624 0.043070 0.000000 0.087199 0.000000
# 6 0.000000 0.000000 0.000000 0.009131 0.000000 0.037439
#
#
# Mechanical properties :
#
#
# Convention : Reuss Voigt Hill
#
# Bulk Modulus (GPa) = 26.36712 65.89636 46.13174
# Shear Modulus (GPa) = 19.93993 33.88598 26.91296
#
# Velocity S-wave (km/s) = 3.20573 4.17903 3.72431
# Velocity P-wave (km/s) = 5.22413 7.56622 6.50151
#
# Compressibility (1/GPa) = 0.03792602
#
# Stress axis : x y z
#
# Youngs Moduli (GPa) = 70.25789 94.54029 28.71209
#
# Poissons Ratio (x) = 0.54309 -0.03678
# Poissons Ratio (y) = 0.40360 0.18355
# Poissons Ratio (z) = -0.08999 0.60439
#
# Static dielectric constant tensor:
#      x y z
#    x 1.669910 0.000000 -0.006110 
#    y 0.000000 1.677850 0.000000 
#    z -0.006110 0.000000 1.736010 
# 
# From -- ./inp_files/6014.got.cif
#   From: 2010.05.17/outbox.cif.g08.bks.cpg/sg14_4_cif.got.tgz:6014.got - 2010.06.03 17:49:19.
