data_PCOD9244400
_publ_section_title
;
Structure prediction by ZEFSAII (Michael W. Deem and Ramdas Pophale) SiO2 
 PCOD9244400
Probable space group: P 21/C
;
_chemical_formula_sum "Si O2"
_cell_formula_units_Z 32
_cell_length_a 17.605879
_cell_length_b 10.980605
_cell_length_c 11.209795
_cell_angle_alpha 90.000000
_cell_angle_beta 140.385118
_cell_angle_gamma 90.000000
_cell_volume 1381.803781
_symmetry_space_group_name_H-M "P 21/C"
_symmetry_group_IT_number 14
_symmetry_cell_setting 'monoclinic'
loop_
_space_group_symop_operation_xyz
x,y,z
-x,1/2+y,1/2-z
-x,-y,-z
x,1/2-y,1/2+z
loop_
_atom_site_type_symbol
_atom_site_label
_atom_site_fract_x
_atom_site_fract_y
_atom_site_fract_z
Si Si1 0.200583 0.155913 0.920733
Si Si2 0.397072 0.603151 0.594137
Si Si3 0.155077 0.915738 0.953933
Si Si4 0.220200 0.527687 0.786424
Si Si5 0.375769 0.319022 0.843511
Si Si6 0.459708 0.869545 0.633168
Si Si7 0.898789 0.587845 0.152331
Si Si8 0.286263 0.054777 0.780308
O O1 0.150445 0.287525 0.853909
O O2 0.212940 0.095904 0.808057
O O3 0.128110 0.060975 0.911165
O O4 0.321028 0.167553 0.143317
O O5 0.275025 0.610127 0.524955
O O6 0.468072 0.729641 0.689822
O O7 0.476223 0.487182 0.730839
O O8 0.356824 0.564203 0.410744
O O9 0.027077 0.870608 0.757511
O O10 0.178792 0.896577 0.121489
O O11 0.295535 0.407416 0.828780
O O12 0.113643 0.498800 0.747946
O O13 0.320282 0.602447 0.976416
O O14 0.507498 0.363882 0.969854
O O15 0.366956 0.176205 0.860508
O O16 0.805586 0.543034 0.939208
#
# Coordination Sequence:
#
# PCOD9244400 Si02
#       8
#     4   4   4   4   4   4   4   4
#     4   9  19  39  63  97 127 176 225 273 343 413
#     4  11  27  46  69 106 137 183 231 289 355 414
#     4  10  23  46  66  97 138 178 230 282 347 413
#     4  11  23  43  67 102 131 181 236 273 344 413
#     4  10  20  40  71  94 131 183 226 275 341 418
#     4  12  26  43  72 102 141 181 226 293 349 410
#     4  11  23  40  71 100 133 182 226 290 337 413
#     4  10  21  42  68  99 135 170 238 280 339 415
#
# _framework density 23.158135999999999
#
# number of rings (size 3 to 8) (size 9 to 14) (size 15 to 20)
#    0.000    1.500    5.000    0.750    5.250    3.500 
#    6.750    0.000    0.000    0.000    0.000    0.000 
#    0.000    0.000    0.000    0.000    0.000    0.000 
#
# Total GULP energy -178267.459343 kJ/mol
# GULP energy per Si atom -5570.858104 kJ/mol
# Density = 2.310543 g / cm^3
# Si number density = 23.158136 Si / 1000 Ang^3
#
#
#
# Elastic Constant Matrix: (Units=GPa)
#
#
# Indices 1 2 3 4 5 6 
#
# 1 72.4399 27.6853 26.5640 0.0000 3.4305 0.0000
# 2 27.6853 86.4639 28.1278 0.0000 -3.2829 0.0000
# 3 26.5640 28.1278 46.2419 0.0000 4.2568 0.0000
# 4 0.0000 0.0000 0.0000 5.5869 0.0000 -16.0428
# 5 3.4305 -3.2829 4.2568 0.0000 23.9203 0.0000
# 6 0.0000 0.0000 0.0000 -16.0428 0.0000 0.2398
#
#
#
# Elastic Compliance Matrix: (Units=1/GPa)
#
#
# Indices 1 2 3 4 5 6 
#
# 1 0.018150 -0.003147 -0.008370 0.000000 -0.001545 0.000000
# 2 -0.003147 0.015276 -0.007847 0.000000 0.003944 0.000000
# 3 -0.008370 -0.007847 0.031715 0.000000 -0.005520 0.000000
# 4 0.000000 0.000000 0.000000 -0.000937 0.000000 -0.062659
# 5 -0.001545 0.003944 -0.005520 0.000000 0.043551 0.000000
# 6 0.000000 0.000000 0.000000 -0.062659 0.000000 -0.021821
#
#
# Mechanical properties :
#
#
# Convention : Reuss Voigt Hill
#
# Bulk Modulus (GPa) = 37.86089 41.09998 39.48044
# Shear Modulus (GPa) = 37.46301 14.13397 25.79849
#
# Velocity S-wave (km/s) = 4.02643 2.47315 3.34131
# Velocity P-wave (km/s) = 6.16446 5.09327 5.65429
#
# Compressibility (1/GPa) = 0.02641248
#
# Stress axis : x y z
#
# Youngs Moduli (GPa) = 55.09714 65.46315 31.53120
#
# Poissons Ratio (x) = 0.20604 0.26390
# Poissons Ratio (y) = 0.17341 0.24742
# Poissons Ratio (z) = 0.46114 0.51368
#
# Static dielectric constant tensor:
#      x y z
#    x 2.391350 0.000000 0.535480 
#    y 0.000000 1.886010 0.000000 
#    z 0.535480 0.000000 2.552120 
# 
# From -- ./inp_files/33954.got.cif
#   From: 2010.05.17/outbox.cif.g08.bks.cpg/sg14_17_cif.got.tgz:33954.got - 2010.06.03 17:49:19.
