data_PCOD9244064
_publ_section_title
;
Structure prediction by ZEFSAII (Michael W. Deem and Ramdas Pophale) SiO2 
 PCOD9244064
Probable space group: P 21/C
;
_chemical_formula_sum "Si O2"
_cell_formula_units_Z 26
_cell_length_a 10.822018
_cell_length_b 9.060266
_cell_length_c 14.118456
_cell_angle_alpha 90.000000
_cell_angle_beta 132.460900
_cell_angle_gamma 90.000000
_cell_volume 1021.265542
_symmetry_space_group_name_H-M "P 21/C"
_symmetry_group_IT_number 14
_symmetry_cell_setting 'monoclinic'
loop_
_space_group_symop_operation_xyz
x,y,z
-x,1/2+y,1/2-z
-x,-y,-z
x,1/2-y,1/2+z
loop_
_atom_site_type_symbol
_atom_site_label
_atom_site_fract_x
_atom_site_fract_y
_atom_site_fract_z
Si Si1 0.686719 0.092945 0.773541
Si Si2 0.500000 0.000000 0.500000
Si Si3 0.014975 0.410111 0.624493
Si Si4 0.839396 0.597137 0.085780
Si Si5 0.435850 0.588622 0.261064
Si Si6 0.274200 0.083696 0.958110
Si Si7 0.860769 0.590967 0.827616
O O1 0.621270 0.097325 0.632001
O O2 0.640715 0.249893 0.794207
O O3 0.879156 0.042209 0.868638
O O4 0.582184 0.958667 0.765660
O O5 0.340897 0.022825 0.492619
O O6 0.083372 0.401989 0.768125
O O7 0.068635 0.251989 0.612800
O O8 0.821451 0.448541 0.541077
O O9 0.803186 0.765512 0.040209
O O10 0.980983 0.517564 0.098180
O O11 0.532540 0.583642 0.412478
O O12 0.287241 0.470077 0.183796
O O13 0.226369 0.091571 0.822690
#
# Coordination Sequence:
#
# PCOD9244064 Si02
#       7
#     4   2   4   4   4   4   4
#     4  11  24  43  66  94 134 174 214 275 324 388
#     4  10  20  42  70  94 122 174 220 262 322 396
#     4   9  20  39  62  93 131 168 215 267 322 384
#     4   9  18  37  65  93 127 167 218 259 317 386
#     4  12  24  42  64  96 135 168 220 272 329 385
#     4  10  20  39  65  97 126 173 217 266 323 392
#     4  10  21  40  63 100 133 169 214 270 326 392
#
# _framework density 25.458607000000001
#
# number of rings (size 3 to 8) (size 9 to 14) (size 15 to 20)
#    0.000    1.846    1.538    2.308    0.000    4.308 
#   13.846    0.769    0.000    0.000    0.000    0.000 
#    0.000    0.000    0.000    0.000    0.000    0.000 
#
# Total GULP energy -145010.723960 kJ/mol
# GULP energy per Si atom -5577.335537 kJ/mol
# Density = 2.540066 g / cm^3
# Si number density = 25.458607 Si / 1000 Ang^3
#
#
#
# Elastic Constant Matrix: (Units=GPa)
#
#
# Indices 1 2 3 4 5 6 
#
# 1 96.5271 39.5370 7.7231 0.0000 23.3585 0.0000
# 2 39.5370 134.8073 25.1462 0.0000 24.0754 0.0000
# 3 7.7231 25.1462 125.8021 0.0000 21.6728 0.0000
# 4 0.0000 0.0000 0.0000 28.2123 0.0000 6.0406
# 5 23.3585 24.0754 21.6728 0.0000 51.2570 0.0000
# 6 0.0000 0.0000 0.0000 6.0406 0.0000 34.7751
#
#
#
# Elastic Compliance Matrix: (Units=1/GPa)
#
#
# Indices 1 2 3 4 5 6 
#
# 1 0.012658 -0.003003 0.000619 0.000000 -0.004620 0.000000
# 2 -0.003003 0.008937 -0.001202 0.000000 -0.002321 0.000000
# 3 0.000619 -0.001202 0.008739 0.000000 -0.003413 0.000000
# 4 0.000000 0.000000 0.000000 0.036815 0.000000 -0.006395
# 5 -0.004620 -0.002321 -0.003413 0.000000 0.024148 0.000000
# 6 0.000000 0.000000 0.000000 -0.006395 0.000000 0.029867
#
#
# Mechanical properties :
#
#
# Convention : Reuss Voigt Hill
#
# Bulk Modulus (GPa) = 43.17296 55.77210 49.47253
# Shear Modulus (GPa) = 36.74911 41.83089 39.29000
#
# Velocity S-wave (km/s) = 3.80344 4.05791 3.93273
# Velocity P-wave (km/s) = 6.02355 6.62646 6.33219
#
# Compressibility (1/GPa) = 0.02316264
#
# Stress axis : x y z
#
# Youngs Moduli (GPa) = 79.00056 111.88826 114.42680
#
# Poissons Ratio (x) = 0.33598 -0.07083
# Poissons Ratio (y) = 0.23723 0.13757
# Poissons Ratio (z) = -0.04890 0.13452
#
# Static dielectric constant tensor:
#      x y z
#    x 1.979980 0.000000 -0.095640 
#    y 0.000000 1.931730 0.000000 
#    z -0.095640 0.000000 2.048970 
# 
# From -- ./inp_files/62225.got.cif
#   From: 2010.05.17/outbox.cif.g08.bks.cpg/sg14_32_cif.got.tgz:62225.got - 2010.06.03 17:49:19.
