data_PCOD9244255
_publ_section_title
;
Structure prediction by ZEFSAII (Michael W. Deem and Ramdas Pophale) SiO2 
 PCOD9244255
Probable space group: P 21/C
;
_chemical_formula_sum "Si O2"
_cell_formula_units_Z 26
_cell_length_a 12.666559
_cell_length_b 8.750316
_cell_length_c 10.393558
_cell_angle_alpha 90.000000
_cell_angle_beta 85.231437
_cell_angle_gamma 90.000000
_cell_volume 1147.997034
_symmetry_space_group_name_H-M "P 21/C"
_symmetry_group_IT_number 14
_symmetry_cell_setting 'monoclinic'
loop_
_space_group_symop_operation_xyz
x,y,z
-x,1/2+y,1/2-z
-x,-y,-z
x,1/2-y,1/2+z
loop_
_atom_site_type_symbol
_atom_site_label
_atom_site_fract_x
_atom_site_fract_y
_atom_site_fract_z
Si Si1 0.938180 0.585457 0.394055
Si Si2 0.733942 0.451725 0.383951
Si Si3 0.626311 0.512334 0.138050
Si Si4 0.260195 0.603816 0.130068
Si Si5 0.535721 0.198807 0.237138
Si Si6 0.500000 0.500000 0.500000
Si Si7 0.037297 0.442004 0.135970
O O1 0.814671 0.567438 0.439694
O O2 0.966838 0.760314 0.372931
O O3 0.000000 0.500000 0.500000
O O4 0.962380 0.501731 0.257130
O O5 0.715285 0.509601 0.239676
O O6 0.778254 0.278752 0.386111
O O7 0.622613 0.440708 0.466422
O O8 0.551064 0.373827 0.196527
O O9 0.552899 0.664454 0.143851
O O10 0.677599 0.464799 0.998922
O O11 0.351856 0.628251 0.228987
O O12 0.155980 0.501676 0.159482
O O13 0.486815 0.115907 0.121242
O O14 0.000000 0.500000 0.000000
#
# Coordination Sequence:
#
# PCOD9244255 Si02
#       7
#     4   4   4   4   4   2   4
#     4  12  27  48  77 108 144 192 248 306 373 445
#     4  10  22  40  67  97 135 189 229 295 355 425
#     4  10  21  40  60  95 135 184 229 287 344 420
#     4  11  22  40  66  97 139 180 241 290 362 421
#     4  10  22  38  62  92 131 181 228 277 347 406
#     4  10  20  40  64  94 138 178 230 276 350 422
#     4  12  27  49  73 110 145 192 245 311 371 443
#
# _framework density 22.648143999999998
#
# number of rings (size 3 to 8) (size 9 to 14) (size 15 to 20)
#    0.000    1.231    1.538    4.154    2.154    3.692 
#    8.308    0.000    0.000    0.000    0.000    0.000 
#    0.000    0.000    0.000    0.000    0.000    0.000 
#
# Total GULP energy -144876.136250 kJ/mol
# GULP energy per Si atom -5572.159087 kJ/mol
# Density = 2.259660 g / cm^3
# Si number density = 22.648144 Si / 1000 Ang^3
#
#
#
# Elastic Constant Matrix: (Units=GPa)
#
#
# Indices 1 2 3 4 5 6 
#
# 1 36.1622 25.9378 -1.4637 0.0000 -15.8866 0.0000
# 2 25.9378 86.7986 8.2418 0.0000 -2.5813 0.0000
# 3 -1.4637 8.2418 54.3881 0.0000 -6.8249 0.0000
# 4 0.0000 0.0000 0.0000 27.7837 0.0000 -0.2378
# 5 -15.8866 -2.5813 -6.8249 0.0000 30.3615 0.0000
# 6 0.0000 0.0000 0.0000 -0.2378 0.0000 42.0904
#
#
#
# Elastic Compliance Matrix: (Units=1/GPa)
#
#
# Indices 1 2 3 4 5 6 
#
# 1 0.050325 -0.014907 0.006955 0.000000 0.026629 0.000000
# 2 -0.014907 0.016116 -0.003756 0.000000 -0.007274 0.000000
# 3 0.006955 -0.003756 0.020127 0.000000 0.007844 0.000000
# 4 0.000000 0.000000 0.000000 0.035994 0.000000 0.000203
# 5 0.026629 -0.007274 0.007844 0.000000 0.048015 0.000000
# 6 0.000000 0.000000 0.000000 0.000203 0.000000 0.023760
#
#
# Mechanical properties :
#
#
# Convention : Reuss Voigt Hill
#
# Bulk Modulus (GPa) = 15.83495 26.97564 21.40529
# Shear Modulus (GPa) = 20.93771 29.68931 25.31351
#
# Velocity S-wave (km/s) = 3.04382 3.62455 3.34681
# Velocity P-wave (km/s) = 4.40000 5.42707 4.94030
#
# Compressibility (1/GPa) = 0.06315145
#
# Stress axis : x y z
#
# Youngs Moduli (GPa) = 19.87074 62.05063 49.68437
#
# Poissons Ratio (x) = 0.92499 -0.34554
# Poissons Ratio (y) = 0.29621 0.18662
# Poissons Ratio (z) = -0.13820 0.23307
#
# Static dielectric constant tensor:
#      x y z
#    x 1.854040 0.000000 0.033730 
#    y 0.000000 1.845560 0.000000 
#    z 0.033730 0.000000 1.895230 
# 
# From -- ./inp_files/28136.got.cif
#   From: 2010.05.17/outbox.cif.g08.bks.cpg/sg14_15_cif.got.tgz:28136.got - 2010.06.03 17:49:19.
