data_PCOD9244812
_publ_section_title
;
Structure prediction by ZEFSAII (Michael W. Deem and Ramdas Pophale) SiO2 
 PCOD9244812
Probable space group: P 21/C
;
_chemical_formula_sum "Si O2"
_cell_formula_units_Z 28
_cell_length_a 9.218515
_cell_length_b 9.152291
_cell_length_c 23.151832
_cell_angle_alpha 90.000000
_cell_angle_beta 141.045424
_cell_angle_gamma 90.000000
_cell_volume 1228.068024
_symmetry_space_group_name_H-M "P 21/C"
_symmetry_group_IT_number 14
_symmetry_cell_setting 'monoclinic'
loop_
_space_group_symop_operation_xyz
x,y,z
-x,1/2+y,1/2-z
-x,-y,-z
x,1/2-y,1/2+z
loop_
_atom_site_type_symbol
_atom_site_label
_atom_site_fract_x
_atom_site_fract_y
_atom_site_fract_z
Si Si1 0.723663 0.413199 0.442776
Si Si2 0.622183 0.400788 0.598306
Si Si3 0.851758 0.197800 0.284976
Si Si4 0.669614 0.633518 0.031793
Si Si5 0.964057 0.520011 0.355527
Si Si6 0.082383 0.337437 0.017196
Si Si7 0.597280 0.858164 0.806938
O O1 0.501375 0.451222 0.415412
O O2 0.913787 0.487471 0.543701
O O3 0.859423 0.266977 0.464365
O O4 0.652892 0.501131 0.363991
O O5 0.707461 0.320713 0.682299
O O6 0.465468 0.288033 0.513075
O O7 0.844357 0.426034 0.628669
O O8 0.677236 0.144863 0.281108
O O9 0.102207 0.125384 0.357708
O O10 0.890608 0.364216 0.311510
O O11 0.794851 0.649100 0.007554
O O12 0.500000 0.500000 0.000000
O O13 0.740454 0.621798 0.292970
O O14 0.000000 0.500000 0.000000
O O15 0.283095 0.276778 0.122297
#
# Coordination Sequence:
#
# PCOD9244812 Si02
#       7
#     4   4   4   4   4   4   4
#     4  10  20  44  73 100 133 189 237 297 359 445
#     4  11  25  44  69 104 139 191 247 292 366 452
#     4  11  24  45  67  98 138 186 237 300 352 433
#     4  12  27  45  69  99 152 184 233 309 373 419
#     4  11  22  41  73  98 133 183 240 291 362 435
#     4  11  23  41  70 106 142 181 239 302 364 431
#     4  10  22  44  72  97 141 180 245 295 357 449
#
# _framework density 22.800039999999999
#
# number of rings (size 3 to 8) (size 9 to 14) (size 15 to 20)
#    0.000    1.143    4.286    3.000    6.000    1.143 
#    0.000    1.429    3.143    0.000    0.000    0.000 
#    0.000    0.000    0.000    0.000    0.000    0.000 
#
# Total GULP energy -155987.404120 kJ/mol
# GULP energy per Si atom -5570.978719 kJ/mol
# Density = 2.274815 g / cm^3
# Si number density = 22.800040 Si / 1000 Ang^3
#
#
#
# Elastic Constant Matrix: (Units=GPa)
#
#
# Indices 1 2 3 4 5 6 
#
# 1 169.2765 80.3166 40.9382 0.0000 48.4377 0.0000
# 2 80.3166 131.3045 38.6808 0.0000 19.3197 0.0000
# 3 40.9382 38.6808 91.8871 0.0000 27.6997 0.0000
# 4 0.0000 0.0000 0.0000 15.1657 0.0000 7.6802
# 5 48.4377 19.3197 27.6997 0.0000 44.9862 0.0000
# 6 0.0000 0.0000 0.0000 7.6802 0.0000 41.3044
#
#
#
# Elastic Compliance Matrix: (Units=1/GPa)
#
#
# Indices 1 2 3 4 5 6 
#
# 1 0.011328 -0.005547 0.000303 0.000000 -0.010001 0.000000
# 2 -0.005547 0.011533 -0.003304 0.000000 0.003054 0.000000
# 3 0.000303 -0.003304 0.014501 0.000000 -0.007836 0.000000
# 4 0.000000 0.000000 0.000000 0.072793 0.000000 -0.013535
# 5 -0.010001 0.003054 -0.007836 0.000000 0.036511 0.000000
# 6 0.000000 0.000000 0.000000 -0.013535 0.000000 0.026727
#
#
# Mechanical properties :
#
#
# Convention : Reuss Voigt Hill
#
# Bulk Modulus (GPa) = 49.34413 79.14880 64.24647
# Shear Modulus (GPa) = 25.34931 35.79343 30.57137
#
# Velocity S-wave (km/s) = 3.33800 3.96648 3.66573
# Velocity P-wave (km/s) = 6.04528 7.46773 6.79383
#
# Compressibility (1/GPa) = 0.02026583
#
# Stress axis : x y z
#
# Youngs Moduli (GPa) = 88.27825 86.70959 68.96039
#
# Poissons Ratio (x) = 0.48095 -0.02090
# Poissons Ratio (y) = 0.48965 0.22786
# Poissons Ratio (z) = -0.02675 0.28651
#
# Static dielectric constant tensor:
#      x y z
#    x 3.037820 0.000000 -0.155150 
#    y 0.000000 1.896110 0.000000 
#    z -0.155150 0.000000 1.960350 
# 
# From -- ./inp_files/76491.got.cif
#   From: 2010.05.17/outbox.cif.g08.bks.cpg/sg14_39_cif.got.tgz:76491.got - 2010.06.03 17:49:19.
