data_PCOD9244253
_publ_section_title
;
Structure prediction by ZEFSAII (Michael W. Deem and Ramdas Pophale) SiO2 
 PCOD9244253
Probable space group: P 21/C
;
_chemical_formula_sum "Si O2"
_cell_formula_units_Z 28
_cell_length_a 28.757907
_cell_length_b 11.149880
_cell_length_c 22.660564
_cell_angle_alpha 90.000000
_cell_angle_beta 169.979488
_cell_angle_gamma 90.000000
_cell_volume 1264.297422
_symmetry_space_group_name_H-M "P 21/C"
_symmetry_group_IT_number 14
_symmetry_cell_setting 'monoclinic'
loop_
_space_group_symop_operation_xyz
x,y,z
-x,1/2+y,1/2-z
-x,-y,-z
x,1/2-y,1/2+z
loop_
_atom_site_type_symbol
_atom_site_label
_atom_site_fract_x
_atom_site_fract_y
_atom_site_fract_z
Si Si1 0.621260 0.171280 0.282857
Si Si2 0.640152 0.214833 0.544674
Si Si3 0.252173 0.972284 0.774025
Si Si4 0.132003 0.810546 0.521055
Si Si5 0.802770 0.658076 0.195622
Si Si6 0.599429 0.629492 0.144292
Si Si7 0.792646 0.397798 0.123812
O O1 0.877033 0.188838 0.560656
O O2 0.680946 0.103375 0.418206
O O3 0.455545 0.289951 0.093763
O O4 0.438580 0.086181 0.013826
O O5 0.617203 0.352969 0.534737
O O6 0.434869 0.140871 0.328114
O O7 0.635634 0.192468 0.470099
O O8 0.937314 0.169656 0.937005
O O9 0.171292 0.934402 0.606524
O O10 0.000000 0.000000 0.500000
O O11 0.888013 0.745809 0.248764
O O12 0.391012 0.726826 0.858793
O O13 0.776290 0.526214 0.135684
O O14 0.900155 0.643942 0.498519
O O15 0.500000 0.500000 0.000000
#
# Coordination Sequence:
#
# PCOD9244253 Si02
#       7
#     4   4   4   4   4   4   4
#     4  12  25  40  63  95 131 167 203 263 334 362
#     4  10  22  40  70  88 122 168 214 265 302 382
#     4  10  20  44  65  91 122 168 218 249 301 387
#     4  10  22  42  68  88 123 168 220 258 301 390
#     4  10  22  43  65  91 123 163 216 255 314 384
#     4  10  20  40  64  94 118 164 222 255 307 379
#     4  12  25  39  64  97 131 162 208 272 325 367
#
# _framework density 22.146687
#
# number of rings (size 3 to 8) (size 9 to 14) (size 15 to 20)
#    0.000    1.714    5.714    1.714    4.000    1.143 
#    2.571    0.000    0.000    0.000    0.000    0.000 
#    0.000    0.000    0.000    0.000    0.000    0.000 
#
# Total GULP energy -156443.489974 kJ/mol
# GULP energy per Si atom -5587.267499 kJ/mol
# Density = 2.209628 g / cm^3
# Si number density = 22.146687 Si / 1000 Ang^3
#
#
#
# Elastic Constant Matrix: (Units=GPa)
#
#
# Indices 1 2 3 4 5 6 
#
# 1 164.4288 28.5465 28.0647 0.0000 30.2513 0.0000
# 2 28.5465 45.9398 11.6221 0.0000 -0.1389 0.0000
# 3 28.0647 11.6221 50.8705 0.0000 3.7203 0.0000
# 4 0.0000 0.0000 0.0000 9.9903 0.0000 16.4793
# 5 30.2513 -0.1389 3.7203 0.0000 31.4125 0.0000
# 6 0.0000 0.0000 0.0000 16.4793 0.0000 26.9836
#
#
#
# Elastic Compliance Matrix: (Units=1/GPa)
#
#
# Indices 1 2 3 4 5 6 
#
# 1 0.008997 -0.004790 -0.003262 0.000000 -0.008299 0.000000
# 2 -0.004790 0.025670 -0.003599 0.000000 0.005153 0.000000
# 3 -0.003262 -0.003599 0.022244 0.000000 0.000491 0.000000
# 4 0.000000 0.000000 0.000000-13.542277 0.000000 8.270456
# 5 -0.008299 0.005153 0.000491 0.000000 0.039792 0.000000
# 6 0.000000 0.000000 0.000000 8.270456 0.000000 -5.013822
#
#
# Mechanical properties :
#
#
# Convention : Reuss Voigt Hill
#
# Bulk Modulus (GPa) = 29.75456 44.18954 36.97205
# Shear Modulus (GPa) = -0.27137 26.54434 13.13648
#
# Velocity S-wave (km/s) = -0.35043 3.46579 2.43813
# Velocity P-wave (km/s) = 3.64701 6.00100 4.96552
#
# Compressibility (1/GPa) = 0.03360829
#
# Stress axis : x y z
#
# Youngs Moduli (GPa) = 111.14819 38.95546 44.95656
#
# Poissons Ratio (x) = 0.18661 0.14665
# Poissons Ratio (y) = 0.53245 0.16179
# Poissons Ratio (z) = 0.36258 0.14019
#
# Static dielectric constant tensor:
#      x y z
#    x 1.905920 0.000000 -0.002890 
#    y 0.000000 2.063300 0.000000 
#    z -0.002890 0.000000 1.827910 
# 
# From -- ./inp_files/75313.got.cif
#   From: 2010.05.17/outbox.cif.g08.bks.cpg/sg14_38_cif.got.tgz:75313.got - 2010.06.03 17:49:19.
