data_PCOD9244623
_publ_section_title
;
Structure prediction by ZEFSAII (Michael W. Deem and Ramdas Pophale) SiO2 
 PCOD9244623
Probable space group: P 21/C
;
_chemical_formula_sum "Si O2"
_cell_formula_units_Z 26
_cell_length_a 8.742263
_cell_length_b 7.587083
_cell_length_c 20.451919
_cell_angle_alpha 90.000000
_cell_angle_beta 54.575475
_cell_angle_gamma 90.000000
_cell_volume 1105.417409
_symmetry_space_group_name_H-M "P 21/C"
_symmetry_group_IT_number 14
_symmetry_cell_setting 'monoclinic'
loop_
_space_group_symop_operation_xyz
x,y,z
-x,1/2+y,1/2-z
-x,-y,-z
x,1/2-y,1/2+z
loop_
_atom_site_type_symbol
_atom_site_label
_atom_site_fract_x
_atom_site_fract_y
_atom_site_fract_z
Si Si1 0.402655 0.839927 0.769300
Si Si2 0.101311 0.862876 0.175833
Si Si3 0.238846 0.464311 0.766884
Si Si4 0.500000 0.000000 0.500000
Si Si5 0.284757 0.489459 0.174795
Si Si6 0.920269 0.535943 0.946958
Si Si7 0.986762 0.055665 0.078122
O O1 0.326793 0.649461 0.769334
O O2 0.424907 0.944632 0.695975
O O3 0.233539 0.936572 0.848790
O O4 0.594755 0.830631 0.760343
O O5 0.196818 0.002718 0.201466
O O6 0.199975 0.677737 0.168270
O O7 0.095021 0.930961 0.103108
O O8 0.886123 0.876149 0.254364
O O9 0.058951 0.444134 0.858995
O O10 0.611344 0.907198 0.411768
O O11 0.295422 0.984476 0.510222
O O12 0.937849 0.746241 0.931780
O O13 0.000000 0.500000 0.000000
O O14 0.000000 0.000000 0.000000
#
# Coordination Sequence:
#
# PCOD9244623 Si02
#       7
#     4   4   4   2   4   4   4
#     4   9  21  39  63  94 132 173 224 278 350 419
#     4  10  22  42  69  96 136 182 231 289 357 422
#     4  10  20  42  65  98 128 178 230 280 347 431
#     4  12  24  42  72 106 138 182 242 302 356 426
#     4  10  22  41  67  97 132 181 231 285 357 421
#     4  11  25  45  69 101 142 183 236 292 362 429
#     4  10  24  44  66  98 139 182 234 299 356 426
#
# _framework density 23.520526
#
# number of rings (size 3 to 8) (size 9 to 14) (size 15 to 20)
#    0.000    1.846    1.538    1.846    2.154    6.154 
#    5.538    1.538    0.000    0.000    0.000    0.000 
#    0.000    0.000    0.000    0.000    0.000    0.000 
#
# Total GULP energy -144873.424722 kJ/mol
# GULP energy per Si atom -5572.054797 kJ/mol
# Density = 2.346699 g / cm^3
# Si number density = 23.520526 Si / 1000 Ang^3
#
#
#
# Elastic Constant Matrix: (Units=GPa)
#
#
# Indices 1 2 3 4 5 6 
#
# 1 204.1708 18.5880 41.6262 0.0000 7.8126 0.0000
# 2 18.5880 71.2980 -3.0662 0.0000 0.3128 0.0000
# 3 41.6262 -3.0662 96.9869 0.0000 22.1871 0.0000
# 4 0.0000 0.0000 0.0000 13.1219 0.0000 1.4958
# 5 7.8126 0.3128 22.1871 0.0000 41.0896 0.0000
# 6 0.0000 0.0000 0.0000 1.4958 0.0000 34.5225
#
#
#
# Elastic Compliance Matrix: (Units=1/GPa)
#
#
# Indices 1 2 3 4 5 6 
#
# 1 0.005536 -0.001552 -0.002495 0.000000 0.000307 0.000000
# 2 -0.001552 0.014485 0.001234 0.000000 -0.000482 0.000000
# 3 -0.002495 0.001234 0.012909 0.000000 -0.006505 0.000000
# 4 0.000000 0.000000 0.000000 0.076587 0.000000 -0.003318
# 5 0.000307 -0.000482 -0.006505 0.000000 0.027795 0.000000
# 6 0.000000 0.000000 0.000000 -0.003318 0.000000 0.029110
#
#
# Mechanical properties :
#
#
# Convention : Reuss Voigt Hill
#
# Bulk Modulus (GPa) = 36.62417 54.08352 45.35384
# Shear Modulus (GPa) = 27.60137 38.76730 33.18433
#
# Velocity S-wave (km/s) = 3.42936 4.06425 3.76023
# Velocity P-wave (km/s) = 5.59335 6.71329 6.17875
#
# Compressibility (1/GPa) = 0.02730437
#
# Stress axis : x y z
#
# Youngs Moduli (GPa) = 180.63063 69.03482 77.46630
#
# Poissons Ratio (x) = 0.10714 0.19330
# Poissons Ratio (y) = 0.28033 -0.09561
# Poissons Ratio (z) = 0.45073 -0.08520
#
# Static dielectric constant tensor:
#      x y z
#    x 1.899180 0.000000 0.032780 
#    y 0.000000 1.956410 0.000000 
#    z 0.032780 0.000000 1.847710 
# 
# From -- ./inp_files/64774.got.cif
#   From: 2010.05.17/outbox.cif.g08.bks.cpg/sg14_33_cif.got.tgz:64774.got - 2010.06.03 17:49:19.
