data_PCOD9244852
_publ_section_title
;
Structure prediction by ZEFSAII (Michael W. Deem and Ramdas Pophale) SiO2 
 PCOD9244852
Probable space group: P 21/C
;
_chemical_formula_sum "Si O2"
_cell_formula_units_Z 32
_cell_length_a 7.408691
_cell_length_b 15.805108
_cell_length_c 12.064416
_cell_angle_alpha 90.000000
_cell_angle_beta 122.584454
_cell_angle_gamma 90.000000
_cell_volume 1190.326112
_symmetry_space_group_name_H-M "P 21/C"
_symmetry_group_IT_number 14
_symmetry_cell_setting 'monoclinic'
loop_
_space_group_symop_operation_xyz
x,y,z
-x,1/2+y,1/2-z
-x,-y,-z
x,1/2-y,1/2+z
loop_
_atom_site_type_symbol
_atom_site_label
_atom_site_fract_x
_atom_site_fract_y
_atom_site_fract_z
Si Si1 0.686192 0.893775 0.439091
Si Si2 0.013514 0.005860 0.783455
Si Si3 0.260440 0.883813 0.991657
Si Si4 0.561173 0.204339 0.466235
Si Si5 0.578926 0.517720 0.276242
Si Si6 0.821930 0.858166 0.984407
Si Si7 0.117758 0.205519 0.331273
Si Si8 0.007157 0.657821 0.878529
O O1 0.483997 0.849745 0.435344
O O2 0.612209 0.983722 0.365210
O O3 0.874429 0.882933 0.595376
O O4 0.784235 0.842456 0.368580
O O5 0.985122 0.064243 0.668755
O O6 0.787156 0.987040 0.765918
O O7 0.173571 0.926929 0.850627
O O8 0.127353 0.071197 0.906968
O O9 0.404321 0.803995 0.012987
O O10 0.036604 0.858948 0.979166
O O11 0.385431 0.945804 0.116760
O O12 0.334653 0.193154 0.332173
O O13 0.775851 0.170922 0.480458
O O14 0.612842 0.605608 0.352952
O O15 0.820150 0.770807 0.049402
O O16 0.974551 0.266299 0.207049
#
# Coordination Sequence:
#
# PCOD9244852 Si02
#       8
#     4   4   4   4   4   4   4   4
#     4  10  21  32  48  77 103 136 180 197 254 313
#     4   8  15  28  49  77 104 133 164 200 271 318
#     4   9  16  28  51  78 106 136 160 209 262 310
#     4  10  21  33  48  75 108 134 176 203 247 315
#     4   9  15  30  50  78 107 133 163 210 257 314
#     4   8  15  27  51  76 105 132 162 205 267 316
#     4   9  20  34  48  79 106 130 176 206 250 316
#     4  11  19  36  53  72 109 139 163 219 254 296
#
# _framework density 26.883391
#
# number of rings (size 3 to 8) (size 9 to 14) (size 15 to 20)
#    0.750    2.000    1.250    3.000    0.000    1.000 
#    2.250    3.750    0.000    0.000    0.000   19.250 
#    0.000    0.000    0.000    0.000    0.000    0.000 
#
# Total GULP energy -178366.808028 kJ/mol
# GULP energy per Si atom -5573.962751 kJ/mol
# Density = 2.682220 g / cm^3
# Si number density = 26.883391 Si / 1000 Ang^3
#
#
#
# Elastic Constant Matrix: (Units=GPa)
#
#
# Indices 1 2 3 4 5 6 
#
# 1 48.8778 -13.8520 2.1458 0.0000 2.9547 0.0000
# 2 -13.8520 65.0641 39.9961 0.0000 -1.4343 0.0000
# 3 2.1458 39.9961 74.9933 0.0000 10.1947 0.0000
# 4 0.0000 0.0000 0.0000 33.9789 0.0000 0.4822
# 5 2.9547 -1.4343 10.1947 0.0000 13.7165 0.0000
# 6 0.0000 0.0000 0.0000 0.4822 0.0000 34.5345
#
#
#
# Elastic Compliance Matrix: (Units=1/GPa)
#
#
# Indices 1 2 3 4 5 6 
#
# 1 0.022901 0.007755 -0.004706 0.000000 -0.000624 0.000000
# 2 0.007755 0.027686 -0.016857 0.000000 0.013754 0.000000
# 3 -0.004706 -0.016857 0.025097 0.000000 -0.019402 0.000000
# 4 0.000000 0.000000 0.000000 0.029436 0.000000 -0.000411
# 5 -0.000624 0.013754 -0.019402 0.000000 0.088899 0.000000
# 6 0.000000 0.000000 0.000000 -0.000411 0.000000 0.028962
#
#
# Mechanical properties :
#
#
# Convention : Reuss Voigt Hill
#
# Bulk Modulus (GPa) = 20.80424 27.27944 24.04184
# Shear Modulus (GPa) = 18.75315 27.15566 22.95440
#
# Velocity S-wave (km/s) = 2.64403 3.18170 2.92524
# Velocity P-wave (km/s) = 4.13239 4.86487 4.51352
#
# Compressibility (1/GPa) = 0.04806711
#
# Stress axis : x y z
#
# Youngs Moduli (GPa) = 43.66567 36.11900 39.84480
#
# Poissons Ratio (x) = -0.28010 0.18752
# Poissons Ratio (y) = -0.33862 0.67168
# Poissons Ratio (z) = 0.20551 0.60888
#
# Static dielectric constant tensor:
#      x y z
#    x 2.082890 0.000000 -0.015480 
#    y 0.000000 2.236230 0.000000 
#    z -0.015480 0.000000 2.161570 
# 
# From -- ./inp_files/41604.got.cif
#   From: 2010.05.17/outbox.cif.g08.bks.cpg/sg14_21_cif.got.tgz:41604.got - 2010.06.03 17:49:19.
