data_PCOD9244718
_publ_section_title
;
Structure prediction by ZEFSAII (Michael W. Deem and Ramdas Pophale) SiO2 
 PCOD9244718
Probable space group: P 21/C
;
_chemical_formula_sum "Si O2"
_cell_formula_units_Z 28
_cell_length_a 19.262609
_cell_length_b 11.490703
_cell_length_c 10.595588
_cell_angle_alpha 90.000000
_cell_angle_beta 33.565026
_cell_angle_gamma 90.000000
_cell_volume 1296.641821
_symmetry_space_group_name_H-M "P 21/C"
_symmetry_group_IT_number 14
_symmetry_cell_setting 'monoclinic'
loop_
_space_group_symop_operation_xyz
x,y,z
-x,1/2+y,1/2-z
-x,-y,-z
x,1/2-y,1/2+z
loop_
_atom_site_type_symbol
_atom_site_label
_atom_site_fract_x
_atom_site_fract_y
_atom_site_fract_z
Si Si1 0.994982 0.592589 0.619152
Si Si2 0.958997 0.560323 0.933759
Si Si3 0.297015 0.348070 0.905537
Si Si4 0.656574 0.382450 0.191404
Si Si5 0.595329 0.687641 0.535463
Si Si6 0.703444 0.051601 0.881342
Si Si7 0.132110 0.743544 0.746338
O O1 0.000000 0.500000 0.500000
O O2 0.026667 0.528248 0.701787
O O3 0.093029 0.693122 0.434732
O O4 0.855018 0.645392 0.848708
O O5 0.002293 0.693591 0.886617
O O6 0.000000 0.500000 0.000000
O O7 0.817123 0.518426 0.139675
O O8 0.346718 0.481147 0.837707
O O9 0.353418 0.275377 0.937222
O O10 0.339670 0.299872 0.702628
O O11 0.552208 0.311687 0.273072
O O12 0.634939 0.377448 0.374541
O O13 0.793384 0.332808 0.952812
O O14 0.621410 0.556740 0.549718
O O15 0.772557 0.137000 0.872606
#
# Coordination Sequence:
#
# PCOD9244718 Si02
#       7
#     4   4   4   4   4   4   4
#     4  12  22  41  65  95 138 171 220 274 339 401
#     4  10  21  40  63  97 134 167 222 270 332 402
#     4  11  24  48  67 101 130 179 226 275 344 392
#     4  11  23  42  69  91 136 179 224 266 342 395
#     4  11  25  44  72  93 133 180 226 280 326 402
#     4  10  20  43  62  95 127 178 216 267 338 396
#     4  11  23  37  66 101 133 171 220 275 336 404
#
# _framework density 21.594245000000001
#
# number of rings (size 3 to 8) (size 9 to 14) (size 15 to 20)
#    0.000    1.143    4.286    3.429    4.000    1.143 
#    5.143    0.714    0.000    0.000    0.000    0.000 
#    0.000    0.000    0.000    0.000    0.000    0.000 
#
# Total GULP energy -156160.646066 kJ/mol
# GULP energy per Si atom -5577.165931 kJ/mol
# Density = 2.154510 g / cm^3
# Si number density = 21.594245 Si / 1000 Ang^3
#
#
#
# Elastic Constant Matrix: (Units=GPa)
#
#
# Indices 1 2 3 4 5 6 
#
# 1 113.5801 41.7355 19.0761 0.0000 12.3715 0.0000
# 2 41.7355 55.8641 21.8511 0.0000 4.4414 0.0000
# 3 19.0761 21.8511 70.5040 0.0000 5.8471 0.0000
# 4 0.0000 0.0000 0.0000 33.1308 0.0000 -4.9640
# 5 12.3715 4.4414 5.8471 0.0000 34.5076 0.0000
# 6 0.0000 0.0000 0.0000 -4.9640 0.0000 35.6281
#
#
#
# Elastic Compliance Matrix: (Units=1/GPa)
#
#
# Indices 1 2 3 4 5 6 
#
# 1 0.012507 -0.008951 -0.000338 0.000000 -0.003275 0.000000
# 2 -0.008951 0.026861 -0.005966 0.000000 0.000763 0.000000
# 3 -0.000338 -0.005966 0.016279 0.000000 -0.001869 0.000000
# 4 0.000000 0.000000 0.000000 0.030827 0.000000 0.004295
# 5 -0.003275 0.000763 -0.001869 0.000000 0.030372 0.000000
# 6 0.000000 0.000000 0.000000 0.004295 0.000000 0.028666
#
#
# Mechanical properties :
#
#
# Convention : Reuss Voigt Hill
#
# Bulk Modulus (GPa) = 39.78393 45.03041 42.40717
# Shear Modulus (GPa) = 27.11465 31.13900 29.12682
#
# Velocity S-wave (km/s) = 3.54735 3.80149 3.67662
# Velocity P-wave (km/s) = 5.93647 6.33772 6.14037
#
# Compressibility (1/GPa) = 0.02513578
#
# Stress axis : x y z
#
# Youngs Moduli (GPa) = 79.95514 37.22861 61.42794
#
# Poissons Ratio (x) = 0.33324 0.02077
# Poissons Ratio (y) = 0.71570 0.36650
# Poissons Ratio (z) = 0.02704 0.22212
#
# Static dielectric constant tensor:
#      x y z
#    x 1.830350 0.000000 -0.032170 
#    y 0.000000 1.814700 0.000000 
#    z -0.032170 0.000000 1.796970 
# 
# From -- ./inp_files/35139.got.cif
#   From: 2010.05.17/outbox.cif.g08.bks.cpg/sg14_18_cif.got.tgz:35139.got - 2010.06.03 17:49:19.
