data_PCOD9244139
_publ_section_title
;
Structure prediction by ZEFSAII (Michael W. Deem and Ramdas Pophale) SiO2 
 PCOD9244139
Probable space group: P 21/C
;
_chemical_formula_sum "Si O2"
_cell_formula_units_Z 18
_cell_length_a 8.480210
_cell_length_b 4.818722
_cell_length_c 14.627242
_cell_angle_alpha 90.000000
_cell_angle_beta 89.292116
_cell_angle_gamma 90.000000
_cell_volume 597.678700
_symmetry_space_group_name_H-M "P 21/C"
_symmetry_group_IT_number 14
_symmetry_cell_setting 'monoclinic'
loop_
_space_group_symop_operation_xyz
x,y,z
-x,1/2+y,1/2-z
-x,-y,-z
x,1/2-y,1/2+z
loop_
_atom_site_type_symbol
_atom_site_label
_atom_site_fract_x
_atom_site_fract_y
_atom_site_fract_z
Si Si1 0.300079 0.556275 0.779613
Si Si2 0.500000 0.000000 0.500000
Si Si3 0.576474 0.555198 0.633589
Si Si4 0.827168 0.222687 0.939623
Si Si5 0.988726 0.247861 0.625275
O O1 0.418263 0.601037 0.695341
O O2 0.298781 0.234490 0.806730
O O3 0.131989 0.703312 0.790851
O O4 0.400682 0.720382 0.862699
O O5 0.414085 0.290951 0.462349
O O6 0.665019 0.112989 0.450984
O O7 0.951010 0.446465 0.901617
O O8 0.879614 0.147022 0.042512
O O9 0.861855 0.951298 0.877274
#
# Coordination Sequence:
#
# PCOD9244139 Si02
#       5
#     4   2   4   4   4
#     4  10  20  42  61  88 118 169 207 246 296 401
#     4  12  24  42  58 102 122 158 198 284 298 376
#     4  10  23  36  64  89 124 159 205 253 318 352
#     4  10  23  34  62  86 125 153 204 248 319 345
#     4  10  20  40  58  88 114 170 200 246 291 400
#
# _framework density 30.116517999999999
#
# number of rings (size 3 to 8) (size 9 to 14) (size 15 to 20)
#    0.000    1.778    2.222    1.333    6.222    3.556 
#    0.000    2.222    0.000    0.000    0.000    0.000 
#    0.000    0.000    0.000    0.000    0.000    0.000 
#
# Total GULP energy -100403.869273 kJ/mol
# GULP energy per Si atom -5577.992737 kJ/mol
# Density = 3.004797 g / cm^3
# Si number density = 30.116518 Si / 1000 Ang^3
#
#
#
# Elastic Constant Matrix: (Units=GPa)
#
#
# Indices 1 2 3 4 5 6 
#
# 1 159.7356 30.8803 7.8486 0.0000 -47.7364 0.0000
# 2 30.8803 190.6005 41.3087 0.0000 -27.7692 0.0000
# 3 7.8486 41.3087 89.2385 0.0000 -28.7634 0.0000
# 4 0.0000 0.0000 0.0000 24.8243 0.0000 -13.5619
# 5 -47.7364 -27.7692 -28.7634 0.0000 49.9432 0.0000
# 6 0.0000 0.0000 0.0000 -13.5619 0.0000 68.0916
#
#
#
# Elastic Compliance Matrix: (Units=1/GPa)
#
#
# Indices 1 2 3 4 5 6 
#
# 1 0.009255 -0.000622 0.002718 0.000000 0.010066 0.000000
# 2 -0.000622 0.006054 -0.002277 0.000000 0.001460 0.000000
# 3 0.002718 -0.002277 0.015288 0.000000 0.010137 0.000000
# 4 0.000000 0.000000 0.000000 0.045201 0.000000 0.009003
# 5 0.010066 0.001460 0.010137 0.000000 0.036294 0.000000
# 6 0.000000 0.000000 0.000000 0.009003 0.000000 0.016479
#
#
# Mechanical properties :
#
#
# Convention : Reuss Voigt Hill
#
# Bulk Modulus (GPa) = 33.07335 66.62776 49.85055
# Shear Modulus (GPa) = 35.96826 52.54094 44.25460
#
# Velocity S-wave (km/s) = 3.45962 4.18136 3.83749
# Velocity P-wave (km/s) = 5.19271 6.74411 6.01861
#
# Compressibility (1/GPa) = 0.03023582
#
# Stress axis : x y z
#
# Youngs Moduli (GPa) = 108.04711 165.19251 65.40974
#
# Poissons Ratio (x) = 0.10277 -0.17781
# Poissons Ratio (y) = 0.06722 0.14893
# Poissons Ratio (z) = -0.29372 0.37613
#
# Static dielectric constant tensor:
#      x y z
#    x 2.008000 0.000000 -0.345320 
#    y 0.000000 2.204360 0.000000 
#    z -0.345320 0.000000 1.717550 
# 
# From -- ./inp_files/53840.got.cif
#   From: 2010.05.17/outbox.cif.g08.bks.cpg/sg14_27_cif.got.tgz:53840.got - 2010.06.03 17:49:19.
