data_PCOD9244967
_publ_section_title
;
Structure prediction by ZEFSAII (Michael W. Deem and Ramdas Pophale) SiO2 
 PCOD9244967
Probable space group: P 21/C
;
_chemical_formula_sum "Si O2"
_cell_formula_units_Z 20
_cell_length_a 11.255049
_cell_length_b 5.196527
_cell_length_c 18.737509
_cell_angle_alpha 90.000000
_cell_angle_beta 57.526695
_cell_angle_gamma 90.000000
_cell_volume 924.550134
_symmetry_space_group_name_H-M "P 21/C"
_symmetry_group_IT_number 14
_symmetry_cell_setting 'monoclinic'
loop_
_space_group_symop_operation_xyz
x,y,z
-x,1/2+y,1/2-z
-x,-y,-z
x,1/2-y,1/2+z
loop_
_atom_site_type_symbol
_atom_site_label
_atom_site_fract_x
_atom_site_fract_y
_atom_site_fract_z
Si Si1 0.835259 0.264453 0.099045
Si Si2 0.439566 0.727713 0.234326
Si Si3 0.163881 0.271755 0.493429
Si Si4 0.394302 0.554862 0.600023
Si Si5 0.664749 0.944087 0.428750
O O1 0.727164 0.227281 0.197909
O O2 0.997977 0.219588 0.065554
O O3 0.820392 0.550310 0.071647
O O4 0.796774 0.049549 0.051514
O O5 0.499167 0.447200 0.232835
O O6 0.468071 0.827321 0.145525
O O7 0.252920 0.175855 0.531745
O O8 0.500000 0.500000 0.500000
O O9 0.330871 0.273097 0.633813
O O10 0.284990 0.773344 0.610169
O O11 0.500000 0.000000 0.500000
#
# Coordination Sequence:
#
# PCOD9244967 Si02
#       5
#     4   4   4   4   4
#     4  10  23  39  64  91 130 166 222 260 335 375
#     4  12  26  40  64  95 133 168 218 280 323 382
#     4  10  21  41  64  94 123 174 212 271 315 410
#     4  10  23  39  57  92 127 168 210 256 333 390
#     4  10  21  35  63  88 124 161 216 254 320 388
#
# _framework density 21.632142999999999
#
# number of rings (size 3 to 8) (size 9 to 14) (size 15 to 20)
#    0.000    1.600    0.000    3.600   16.800    0.000 
#    0.000    2.000    0.000    0.000    0.000    0.000 
#    0.000    0.000    0.000    0.000    0.000    0.000 
#
# Total GULP energy -111680.457558 kJ/mol
# GULP energy per Si atom -5584.022878 kJ/mol
# Density = 2.158291 g / cm^3
# Si number density = 21.632143 Si / 1000 Ang^3
#
#
#
# Elastic Constant Matrix: (Units=GPa)
#
#
# Indices 1 2 3 4 5 6 
#
# 1 86.2092 3.0469 16.6553 0.0000 9.2752 0.0000
# 2 3.0469 141.4963 -4.9661 0.0000 2.3870 0.0000
# 3 16.6553 -4.9661 63.0086 0.0000 -2.2197 0.0000
# 4 0.0000 0.0000 0.0000 18.7478 0.0000 9.5641
# 5 9.2752 2.3870 -2.2197 0.0000 34.0517 0.0000
# 6 0.0000 0.0000 0.0000 9.5641 0.0000 38.2931
#
#
#
# Elastic Compliance Matrix: (Units=1/GPa)
#
#
# Indices 1 2 3 4 5 6 
#
# 1 0.012683 -0.000334 -0.003508 0.000000 -0.003660 0.000000
# 2 -0.000334 0.007103 0.000635 0.000000 -0.000365 0.000000
# 3 -0.003508 0.000635 0.016919 0.000000 0.002014 0.000000
# 4 0.000000 0.000000 0.000000 0.061128 0.000000 -0.015268
# 5 -0.003660 -0.000365 0.002014 0.000000 0.030521 0.000000
# 6 0.000000 0.000000 0.000000 -0.015268 0.000000 0.029928
#
#
# Mechanical properties :
#
#
# Convention : Reuss Voigt Hill
#
# Bulk Modulus (GPa) = 33.01289 35.57624 34.29457
# Shear Modulus (GPa) = 28.60528 36.61704 32.61116
#
# Velocity S-wave (km/s) = 3.64036 4.11872 3.88691
# Velocity P-wave (km/s) = 5.74141 6.25302 6.00267
#
# Compressibility (1/GPa) = 0.03029120
#
# Stress axis : x y z
#
# Youngs Moduli (GPa) = 78.84584 140.78580 59.10479
#
# Poissons Ratio (x) = 0.04709 0.20733
# Poissons Ratio (y) = 0.02637 -0.03755
# Poissons Ratio (z) = 0.27658 -0.08945
#
# Static dielectric constant tensor:
#      x y z
#    x 1.809270 0.000000 -0.009220 
#    y 0.000000 1.938290 0.000000 
#    z -0.009220 0.000000 1.837160 
# 
# From -- ./inp_files/56507.got.cif
#   From: 2010.05.17/outbox.cif.g08.bks.cpg/sg14_29_cif.got.tgz:56507.got - 2010.06.03 17:49:19.
