data_PCOD9244731
_publ_section_title
;
Structure prediction by ZEFSAII (Michael W. Deem and Ramdas Pophale) SiO2 
 PCOD9244731
Probable space group: P 21/C
;
_chemical_formula_sum "Si O2"
_cell_formula_units_Z 28
_cell_length_a 7.222678
_cell_length_b 14.700618
_cell_length_c 11.601653
_cell_angle_alpha 90.000000
_cell_angle_beta 72.524103
_cell_angle_gamma 90.000000
_cell_volume 1174.980831
_symmetry_space_group_name_H-M "P 21/C"
_symmetry_group_IT_number 14
_symmetry_cell_setting 'monoclinic'
loop_
_space_group_symop_operation_xyz
x,y,z
-x,1/2+y,1/2-z
-x,-y,-z
x,1/2-y,1/2+z
loop_
_atom_site_type_symbol
_atom_site_label
_atom_site_fract_x
_atom_site_fract_y
_atom_site_fract_z
Si Si1 0.023948 0.929426 0.345981
Si Si2 0.397200 0.016316 0.191059
Si Si3 0.127284 0.207107 0.812138
Si Si4 0.591505 0.239790 0.466245
Si Si5 0.109414 0.613737 0.082232
Si Si6 0.551938 0.208083 0.218351
Si Si7 0.285335 0.385518 0.486428
O O1 0.248409 0.955941 0.289318
O O2 0.000380 0.902707 0.482461
O O3 0.953451 0.851498 0.276464
O O4 0.910091 0.022595 0.342316
O O5 0.561068 0.950138 0.109159
O O6 0.490021 0.102204 0.239313
O O7 0.270105 0.061244 0.109769
O O8 0.351354 0.234632 0.748947
O O9 0.119423 0.143250 0.928460
O O10 0.003219 0.298525 0.848937
O O11 0.664825 0.138555 0.476525
O O12 0.647853 0.244540 0.318455
O O13 0.664268 0.284850 0.574541
O O14 0.383851 0.288151 0.498521
#
# Coordination Sequence:
#
# PCOD9244731 Si02
#       7
#     4   4   4   4   4   4   4
#     4  11  26  42  66  98 134 178 222 288 349 405
#     4  10  20  43  64  96 134 168 233 283 333 409
#     4  11  24  42  67  97 136 182 226 275 353 403
#     4  10  23  42  67  97 129 180 223 273 341 404
#     4  11  26  43  63 100 139 175 227 284 345 412
#     4  10  23  42  70  94 134 178 227 282 332 405
#     4   9  22  40  68  97 126 181 226 280 336 406
#
# _framework density 23.830176000000002
#
# number of rings (size 3 to 8) (size 9 to 14) (size 15 to 20)
#    0.000    1.714    1.429    0.857   14.000    0.571 
#    0.000    1.429    0.000    0.000    0.000    0.000 
#    0.000    0.000    0.000    0.000    0.000    0.000 
#
# Total GULP energy -156009.634181 kJ/mol
# GULP energy per Si atom -5571.772649 kJ/mol
# Density = 2.377594 g / cm^3
# Si number density = 23.830176 Si / 1000 Ang^3
#
#
#
# Elastic Constant Matrix: (Units=GPa)
#
#
# Indices 1 2 3 4 5 6 
#
# 1 48.5692 38.9673 38.4762 0.0000 0.0243 0.0000
# 2 38.9673 139.2614 50.1834 0.0000 1.2947 0.0000
# 3 38.4762 50.1834 96.8840 0.0000 27.3179 0.0000
# 4 0.0000 0.0000 0.0000 34.9601 0.0000 -1.7424
# 5 0.0243 1.2947 27.3179 0.0000 26.6185 0.0000
# 6 0.0000 0.0000 0.0000 -1.7424 0.0000 17.9705
#
#
#
# Elastic Compliance Matrix: (Units=1/GPa)
#
#
# Indices 1 2 3 4 5 6 
#
# 1 0.038776 -0.004333 -0.018581 0.000000 0.019245 0.000000
# 2 -0.004333 0.010051 -0.004712 0.000000 0.004351 0.000000
# 3 -0.018581 -0.004712 0.028246 0.000000 -0.028742 0.000000
# 4 0.000000 0.000000 0.000000 0.028743 0.000000 0.002787
# 5 0.019245 0.004351 -0.028742 0.000000 0.066836 0.000000
# 6 0.000000 0.000000 0.000000 0.002787 0.000000 0.055917
#
#
# Mechanical properties :
#
#
# Convention : Reuss Voigt Hill
#
# Bulk Modulus (GPa) = 45.83010 59.99648 52.91329
# Shear Modulus (GPa) = 17.17654 26.38233 21.77943
#
# Velocity S-wave (km/s) = 2.68766 3.33092 3.02643
# Velocity P-wave (km/s) = 5.37635 6.32651 5.87068
#
# Compressibility (1/GPa) = 0.02181972
#
# Stress axis : x y z
#
# Youngs Moduli (GPa) = 25.78904 99.49522 35.40339
#
# Poissons Ratio (x) = 0.43113 0.65785
# Poissons Ratio (y) = 0.11175 0.16682
# Poissons Ratio (z) = 0.47920 0.46882
#
# Static dielectric constant tensor:
#      x y z
#    x 1.931710 0.000000 -0.022700 
#    y 0.000000 1.898310 0.000000 
#    z -0.022700 0.000000 1.989580 
# 
# From -- ./inp_files/25188.got.cif
#   From: 2010.05.17/outbox.cif.g08.bks.cpg/sg14_13_cif.got.tgz:25188.got - 2010.06.03 17:49:19.
