data_PCOD9244380
_publ_section_title
;
Structure prediction by ZEFSAII (Michael W. Deem and Ramdas Pophale) SiO2 
 PCOD9244380
Probable space group: P 21/C
;
_chemical_formula_sum "Si O2"
_cell_formula_units_Z 20
_cell_length_a 6.325577
_cell_length_b 10.599528
_cell_length_c 12.061941
_cell_angle_alpha 90.000000
_cell_angle_beta 102.539410
_cell_angle_gamma 90.000000
_cell_volume 789.439864
_symmetry_space_group_name_H-M "P 21/C"
_symmetry_group_IT_number 14
_symmetry_cell_setting 'monoclinic'
loop_
_space_group_symop_operation_xyz
x,y,z
-x,1/2+y,1/2-z
-x,-y,-z
x,1/2-y,1/2+z
loop_
_atom_site_type_symbol
_atom_site_label
_atom_site_fract_x
_atom_site_fract_y
_atom_site_fract_z
Si Si1 0.916763 0.190256 0.190089
Si Si2 0.455104 0.819779 0.031363
Si Si3 0.904332 0.550712 0.816451
Si Si4 0.298019 0.088873 0.479165
Si Si5 0.222824 0.028297 0.090615
O O1 0.750662 0.218542 0.069274
O O2 0.996087 0.329355 0.239709
O O3 0.134345 0.116390 0.176469
O O4 0.802391 0.072682 0.243583
O O5 0.612707 0.707011 0.078416
O O6 0.615684 0.900094 0.972565
O O7 0.352770 0.897580 0.121323
O O8 0.761423 0.611579 0.898556
O O9 0.098408 0.479792 0.901207
O O10 0.500000 0.000000 0.500000
O O11 0.000000 0.000000 0.000000
#
# Coordination Sequence:
#
# PCOD9244380 Si02
#       5
#     4   4   4   4   4
#     4  11  23  43  64 102 138 173 226 282 335 396
#     4  10  20  40  69  96 128 172 225 268 335 405
#     4  11  26  42  69  98 140 177 224 281 340 398
#     4  11  23  45  69  93 130 182 223 269 336 410
#     4   9  20  37  66  95 131 168 216 274 330 399
#
# _framework density 25.334420000000001
#
# number of rings (size 3 to 8) (size 9 to 14) (size 15 to 20)
#    0.000    1.600    4.000    0.000    0.000    8.000 
#    0.000    0.000    0.000    0.000    0.000    0.000 
#    0.000    0.000    0.000    0.000    0.000    0.000 
#
# Total GULP energy -111524.875357 kJ/mol
# GULP energy per Si atom -5576.243768 kJ/mol
# Density = 2.527676 g / cm^3
# Si number density = 25.334420 Si / 1000 Ang^3
#
#
#
# Elastic Constant Matrix: (Units=GPa)
#
#
# Indices 1 2 3 4 5 6 
#
# 1 111.3750 24.8865 19.2110 0.0000 -16.9246 0.0000
# 2 24.8865 155.2927 26.2078 0.0000 -1.8312 0.0000
# 3 19.2110 26.2078 57.1621 0.0000 4.3407 0.0000
# 4 0.0000 0.0000 0.0000 25.2796 0.0000 -0.5723
# 5 -16.9246 -1.8312 4.3407 0.0000 33.1270 0.0000
# 6 0.0000 0.0000 0.0000 -0.5723 0.0000 52.4808
#
#
#
# Elastic Compliance Matrix: (Units=1/GPa)
#
#
# Indices 1 2 3 4 5 6 
#
# 1 0.010723 -0.001046 -0.003571 0.000000 0.005889 0.000000
# 2 -0.001046 0.007103 -0.002923 0.000000 0.000241 0.000000
# 3 -0.003571 -0.002923 0.020388 0.000000 -0.004658 0.000000
# 4 0.000000 0.000000 0.000000 0.039567 0.000000 0.000431
# 5 0.005889 0.000241 -0.004658 0.000000 0.033819 0.000000
# 6 0.000000 0.000000 0.000000 0.000431 0.000000 0.019059
#
#
# Mechanical properties :
#
#
# Convention : Reuss Voigt Hill
#
# Bulk Modulus (GPa) = 43.22845 51.60450 47.41647
# Shear Modulus (GPa) = 32.58305 39.07909 35.83107
#
# Velocity S-wave (km/s) = 3.59014 3.93177 3.76483
# Velocity P-wave (km/s) = 5.85539 6.40510 6.13640
#
# Compressibility (1/GPa) = 0.02313291
#
# Stress axis : x y z
#
# Youngs Moduli (GPa) = 93.25447 140.77878 49.04748
#
# Poissons Ratio (x) = 0.14730 0.17517
# Poissons Ratio (y) = 0.09757 0.14339
# Poissons Ratio (z) = 0.33304 0.41156
#
# Static dielectric constant tensor:
#      x y z
#    x 1.929220 0.000000 -0.026470 
#    y 0.000000 1.964260 0.000000 
#    z -0.026470 0.000000 2.147110 
# 
# From -- ./inp_files/36918.got.cif
#   From: 2010.05.17/outbox.cif.g08.bks.cpg/sg14_19_cif.got.tgz:36918.got - 2010.06.03 17:49:19.
