data_PCOD9244238
_publ_section_title
;
Structure prediction by ZEFSAII (Michael W. Deem and Ramdas Pophale) SiO2 
 PCOD9244238
Probable space group: P 21/C
;
_chemical_formula_sum "Si O2"
_cell_formula_units_Z 24
_cell_length_a 15.369377
_cell_length_b 7.823348
_cell_length_c 14.558211
_cell_angle_alpha 90.000000
_cell_angle_beta 143.435281
_cell_angle_gamma 90.000000
_cell_volume 1042.813616
_symmetry_space_group_name_H-M "P 21/C"
_symmetry_group_IT_number 14
_symmetry_cell_setting 'monoclinic'
loop_
_space_group_symop_operation_xyz
x,y,z
-x,1/2+y,1/2-z
-x,-y,-z
x,1/2-y,1/2+z
loop_
_atom_site_type_symbol
_atom_site_label
_atom_site_fract_x
_atom_site_fract_y
_atom_site_fract_z
Si Si1 0.702264 0.035585 0.146407
Si Si2 0.275637 0.625744 0.026650
Si Si3 0.258180 0.286819 0.684205
Si Si4 0.025110 0.444473 0.915381
Si Si5 0.486964 0.613790 0.680862
Si Si6 0.339103 0.911961 0.366088
O O1 0.664923 0.213187 0.167199
O O2 0.862726 0.067547 0.238865
O O3 0.717520 0.867090 0.220833
O O4 0.579980 0.020195 0.964758
O O5 0.393900 0.495538 0.167717
O O6 0.344292 0.810421 0.108310
O O7 0.122756 0.580163 0.943275
O O8 0.281052 0.596926 0.921642
O O9 0.123279 0.226631 0.506935
O O10 0.413077 0.277219 0.763504
O O11 0.240800 0.464493 0.720869
O O12 0.000000 0.500000 0.000000
O O13 0.500000 0.000000 0.500000
#
# Coordination Sequence:
#
# PCOD9244238 Si02
#       6
#     4   4   4   4   4   4
#     4  10  21  39  64  89 124 163 199 245 309 365
#     4  10  22  38  60  90 125 151 206 254 294 364
#     4  10  20  40  64  91 119 163 199 250 309 356
#     4   9  21  42  61  85 125 162 199 246 304 367
#     4  10  21  38  61  92 117 157 208 247 304 354
#     4  11  22  38  64  95 124 152 207 259 295 362
#
# _framework density 23.014661
#
# number of rings (size 3 to 8) (size 9 to 14) (size 15 to 20)
#    0.000    2.000    3.333    0.500    2.333    3.333 
#   12.000    0.000    0.000    0.000    0.000    0.000 
#    0.000    0.000    0.000    0.000    0.000    0.000 
#
# Total GULP energy -133959.548968 kJ/mol
# GULP energy per Si atom -5581.647874 kJ/mol
# Density = 2.296228 g / cm^3
# Si number density = 23.014661 Si / 1000 Ang^3
#
#
#
# Elastic Constant Matrix: (Units=GPa)
#
#
# Indices 1 2 3 4 5 6 
#
# 1 100.0786 13.8911 19.3134 0.0000 26.8714 0.0000
# 2 13.8911 92.2507 0.2270 0.0000 4.9870 0.0000
# 3 19.3134 0.2270 68.4424 0.0000 25.8930 0.0000
# 4 0.0000 0.0000 0.0000 21.6648 0.0000 6.5274
# 5 26.8714 4.9870 25.8930 0.0000 40.3484 0.0000
# 6 0.0000 0.0000 0.0000 6.5274 0.0000 37.3136
#
#
#
# Elastic Compliance Matrix: (Units=1/GPa)
#
#
# Indices 1 2 3 4 5 6 
#
# 1 0.012368 -0.001445 -0.000577 0.000000 -0.007688 0.000000
# 2 -0.001445 0.011102 0.000695 0.000000 -0.000855 0.000000
# 3 -0.000577 0.000695 0.019358 0.000000 -0.012125 0.000000
# 4 0.000000 0.000000 0.000000 0.048726 0.000000 -0.008524
# 5 -0.007688 -0.000855 -0.012125 0.000000 0.037791 0.000000
# 6 0.000000 0.000000 0.000000 -0.008524 0.000000 0.028291
#
#
# Mechanical properties :
#
#
# Convention : Reuss Voigt Hill
#
# Bulk Modulus (GPa) = 24.89170 36.40385 30.64778
# Shear Modulus (GPa) = 28.78805 35.02138 31.90471
#
# Velocity S-wave (km/s) = 3.54058 3.90513 3.72731
# Velocity P-wave (km/s) = 5.24913 6.01543 5.64530
#
# Compressibility (1/GPa) = 0.04017403
#
# Stress axis : x y z
#
# Youngs Moduli (GPa) = 80.85094 90.07222 51.65753
#
# Poissons Ratio (x) = 0.13019 0.02979
# Poissons Ratio (y) = 0.11686 -0.03588
# Poissons Ratio (z) = 0.04663 -0.06257
#
# Static dielectric constant tensor:
#      x y z
#    x 1.976090 0.000000 -0.039930 
#    y 0.000000 1.927320 0.000000 
#    z -0.039930 0.000000 1.921990 
# 
# From -- ./inp_files/38934.got.cif
#   From: 2010.05.17/outbox.cif.g08.bks.cpg/sg14_20_cif.got.tgz:38934.got - 2010.06.03 17:49:19.
