data_PCOD9244957
_publ_section_title
;
Structure prediction by ZEFSAII (Michael W. Deem and Ramdas Pophale) SiO2 
 PCOD9244957
Probable space group: P 21/C
;
_chemical_formula_sum "Si O2"
_cell_formula_units_Z 30
_cell_length_a 8.518286
_cell_length_b 20.133823
_cell_length_c 8.814441
_cell_angle_alpha 90.000000
_cell_angle_beta 85.840053
_cell_angle_gamma 90.000000
_cell_volume 1507.743796
_symmetry_space_group_name_H-M "P 21/C"
_symmetry_group_IT_number 14
_symmetry_cell_setting 'monoclinic'
loop_
_space_group_symop_operation_xyz
x,y,z
-x,1/2+y,1/2-z
-x,-y,-z
x,1/2-y,1/2+z
loop_
_atom_site_type_symbol
_atom_site_label
_atom_site_fract_x
_atom_site_fract_y
_atom_site_fract_z
Si Si1 0.708747 0.461466 0.315131
Si Si2 0.489222 0.337824 0.382030
Si Si3 0.959490 0.424399 0.044521
Si Si4 0.557954 0.027625 0.334839
Si Si5 0.237166 0.656383 0.151210
Si Si6 0.000000 0.500000 0.500000
Si Si7 0.800838 0.587093 0.724316
Si Si8 0.641040 0.245463 0.113994
O O1 0.599136 0.402909 0.386069
O O2 0.807306 0.431157 0.165511
O O3 0.590038 0.518153 0.264686
O O4 0.828264 0.490436 0.427732
O O5 0.317992 0.360397 0.339001
O O6 0.562187 0.291857 0.245128
O O7 0.509866 0.297442 0.535387
O O8 0.104058 0.393993 0.129406
O O9 0.913575 0.384652 0.896251
O O10 0.000000 0.500000 0.000000
O O11 0.625487 0.101248 0.344528
O O12 0.500000 0.000000 0.500000
O O13 0.697441 0.978472 0.271854
O O14 0.238062 0.696440 0.308026
O O15 0.275341 0.708540 0.015923
O O16 0.066950 0.435900 0.401404
#
# Coordination Sequence:
#
# PCOD9244957 Si02
#       8
#     4   4   4   4   4   2   4   4
#     4  10  21  35  59  92 125 156 201 265 321 375
#     4  10  21  41  63  86 121 165 217 262 304 372
#     4  11  19  36  60  92 127 159 200 264 325 381
#     4  11  19  35  64  94 116 155 206 263 319 366
#     4  11  21  38  60  89 124 161 216 249 311 380
#     4  10  24  36  54  94 132 156 184 244 354 370
#     4  10  22  37  61  92 129 155 197 269 324 375
#     4  10  23  38  62  87 119 171 218 257 299 376
#
# _framework density 19.897279000000001
#
# number of rings (size 3 to 8) (size 9 to 14) (size 15 to 20)
#    0.000    1.600    4.000    0.800    3.733    1.067 
#    0.000    1.333    0.000    0.000    0.000    0.000 
#    0.000    0.000    0.000    0.000    0.000    0.000 
#
# Total GULP energy -167019.574070 kJ/mol
# GULP energy per Si atom -5567.319136 kJ/mol
# Density = 1.985199 g / cm^3
# Si number density = 19.897279 Si / 1000 Ang^3
#
#
#
# Elastic Constant Matrix: (Units=GPa)
#
#
# Indices 1 2 3 4 5 6 
#
# 1 104.1787 32.0594 30.4619 0.0000 56.2275 0.0000
# 2 32.0594 89.0500 42.1128 0.0000 31.7002 0.0000
# 3 30.4619 42.1128 65.8952 0.0000 39.3244 0.0000
# 4 0.0000 0.0000 0.0000 29.0569 0.0000 20.8622
# 5 56.2275 31.7002 39.3244 0.0000 47.5110 0.0000
# 6 0.0000 0.0000 0.0000 20.8622 0.0000 28.4054
#
#
#
# Elastic Compliance Matrix: (Units=1/GPa)
#
#
# Indices 1 2 3 4 5 6 
#
# 1 0.033552 -0.001222 0.016758 0.000000 -0.052763 0.000000
# 2 -0.001222 0.016617 -0.008499 0.000000 -0.002606 0.000000
# 3 0.016758 -0.008499 0.042113 0.000000 -0.049018 0.000000
# 4 0.000000 0.000000 0.000000 0.072808 0.000000 -0.053473
# 5 -0.052763 -0.002606 -0.049018 0.000000 0.125802 0.000000
# 6 0.000000 0.000000 0.000000 -0.053473 0.000000 0.074478
#
#
# Mechanical properties :
#
#
# Convention : Reuss Voigt Hill
#
# Bulk Modulus (GPa) = 9.40240 52.04357 30.72299
# Shear Modulus (GPa) = 12.92833 31.29397 22.11115
#
# Velocity S-wave (km/s) = 2.55179 3.97013 3.33718
# Velocity P-wave (km/s) = 3.66305 6.87232 5.50666
#
# Compressibility (1/GPa) = 0.10635577
#
# Stress axis : x y z
#
# Youngs Moduli (GPa) = 29.80438 60.18035 23.74542
#
# Poissons Ratio (x) = 0.07351 -0.39792
# Poissons Ratio (y) = 0.03641 0.20182
# Poissons Ratio (z) = -0.49945 0.51149
#
# Static dielectric constant tensor:
#      x y z
#    x 1.705960 0.000000 0.003570 
#    y 0.000000 1.716290 0.000000 
#    z 0.003570 0.000000 1.767770 
# 
# From -- ./inp_files/9959.got.cif
#   From: 2010.05.17/outbox.cif.g08.bks.cpg/sg14_5_cif.got.tgz:9959.got - 2010.06.03 17:49:19.
