data_PCOD9244451
_publ_section_title
;
Structure prediction by ZEFSAII (Michael W. Deem and Ramdas Pophale) SiO2 
 PCOD9244451
Probable space group: P 21/C
;
_chemical_formula_sum "Si O2"
_cell_formula_units_Z 20
_cell_length_a 5.856575
_cell_length_b 9.071929
_cell_length_c 14.846501
_cell_angle_alpha 90.000000
_cell_angle_beta 103.471932
_cell_angle_gamma 90.000000
_cell_volume 767.096501
_symmetry_space_group_name_H-M "P 21/C"
_symmetry_group_IT_number 14
_symmetry_cell_setting 'monoclinic'
loop_
_space_group_symop_operation_xyz
x,y,z
-x,1/2+y,1/2-z
-x,-y,-z
x,1/2-y,1/2+z
loop_
_atom_site_type_symbol
_atom_site_label
_atom_site_fract_x
_atom_site_fract_y
_atom_site_fract_z
Si Si1 0.936676 0.169793 0.980141
Si Si2 0.111859 0.439069 0.200015
Si Si3 0.590691 0.307329 0.814695
Si Si4 0.190016 0.824150 0.841256
Si Si5 0.704342 0.892132 0.556155
O O1 0.764313 0.194805 0.049933
O O2 0.158072 0.282442 0.999442
O O3 0.797168 0.210049 0.877384
O O4 0.000000 0.000000 0.000000
O O5 0.124811 0.513059 0.300215
O O6 0.901584 0.506010 0.120740
O O7 0.337586 0.518776 0.177613
O O8 0.045963 0.270225 0.197508
O O9 0.389761 0.294554 0.869042
O O10 0.605950 0.275158 0.709567
O O11 0.500000 0.000000 0.500000
#
# Coordination Sequence:
#
# PCOD9244451 Si02
#       5
#     4   4   4   4   4
#     4  11  23  42  67  94 134 176 217 278 343 402
#     4   9  21  40  62  89 128 170 219 268 337 392
#     4   9  22  40  60  93 127 164 220 268 326 403
#     4  10  20  41  63  88 131 172 215 272 337 396
#     4  11  22  41  65  94 128 170 229 276 332 410
#
# _framework density 26.072340000000001
#
# number of rings (size 3 to 8) (size 9 to 14) (size 15 to 20)
#    1.200    0.800    0.000    3.600    0.000    4.000 
#   14.400    0.000    0.000    0.000    0.000    0.000 
#    0.000    0.000    0.000    0.000    0.000    0.000 
#
# Total GULP energy -111554.115515 kJ/mol
# GULP energy per Si atom -5577.705776 kJ/mol
# Density = 2.601300 g / cm^3
# Si number density = 26.072340 Si / 1000 Ang^3
#
#
#
# Elastic Constant Matrix: (Units=GPa)
#
#
# Indices 1 2 3 4 5 6 
#
# 1 64.4378 32.1033 55.7587 0.0000 -15.5715 0.0000
# 2 32.1033 96.4457 5.5045 0.0000 -1.4994 0.0000
# 3 55.7587 5.5045 127.6670 0.0000 -46.7642 0.0000
# 4 0.0000 0.0000 0.0000 25.5577 0.0000 -0.6056
# 5 -15.5715 -1.4994 -46.7642 0.0000 50.9671 0.0000
# 6 0.0000 0.0000 0.0000 -0.6056 0.0000 35.3341
#
#
#
# Elastic Compliance Matrix: (Units=1/GPa)
#
#
# Indices 1 2 3 4 5 6 
#
# 1 0.033040 -0.010175 -0.015670 0.000000 -0.004583 0.000000
# 2 -0.010175 0.013528 0.004319 0.000000 0.001253 0.000000
# 3 -0.015670 0.004319 0.019255 0.000000 0.013007 0.000000
# 4 0.000000 0.000000 0.000000 0.039143 0.000000 0.000671
# 5 -0.004583 0.001253 0.013007 0.000000 0.030191 0.000000
# 6 0.000000 0.000000 0.000000 0.000671 0.000000 0.028313
#
#
# Mechanical properties :
#
#
# Convention : Reuss Voigt Hill
#
# Bulk Modulus (GPa) = 43.91376 52.80926 48.36151
# Shear Modulus (GPa) = 23.35215 35.38406 29.36810
#
# Velocity S-wave (km/s) = 2.99602 3.68795 3.35984
# Velocity P-wave (km/s) = 5.37101 6.19947 5.80005
#
# Compressibility (1/GPa) = 0.02277191
#
# Stress axis : x y z
#
# Youngs Moduli (GPa) = 30.26608 73.91911 51.93438
#
# Poissons Ratio (x) = 0.75211 0.81384
# Poissons Ratio (y) = 0.30795 -0.22432
# Poissons Ratio (z) = 0.47428 -0.31929
#
# Static dielectric constant tensor:
#      x y z
#    x 2.064170 0.000000 -0.021900 
#    y 0.000000 2.107820 0.000000 
#    z -0.021900 0.000000 2.066510 
# 
# From -- ./inp_files/52698.got.cif
#   From: 2010.05.17/outbox.cif.g08.bks.cpg/sg14_27_cif.got.tgz:52698.got - 2010.06.03 17:49:19.
