data_PCOD9244219
_publ_section_title
;
Structure prediction by ZEFSAII (Michael W. Deem and Ramdas Pophale) SiO2 
 PCOD9244219
Probable space group: P 21/C
;
_chemical_formula_sum "Si O2"
_cell_formula_units_Z 24
_cell_length_a 12.398072
_cell_length_b 12.266656
_cell_length_c 11.382068
_cell_angle_alpha 90.000000
_cell_angle_beta 145.798695
_cell_angle_gamma 90.000000
_cell_volume 973.008902
_symmetry_space_group_name_H-M "P 21/C"
_symmetry_group_IT_number 14
_symmetry_cell_setting 'monoclinic'
loop_
_space_group_symop_operation_xyz
x,y,z
-x,1/2+y,1/2-z
-x,-y,-z
x,1/2-y,1/2+z
loop_
_atom_site_type_symbol
_atom_site_label
_atom_site_fract_x
_atom_site_fract_y
_atom_site_fract_z
Si Si1 0.310107 0.925662 0.439818
Si Si2 0.103894 0.141050 0.557288
Si Si3 0.747731 0.207769 0.388380
Si Si4 0.288719 0.538194 0.667434
Si Si5 0.180059 0.527105 0.334264
Si Si6 0.509095 0.195797 0.968792
O O1 0.215839 0.876938 0.473142
O O2 0.214966 0.974099 0.235219
O O3 0.397351 0.812547 0.469319
O O4 0.486946 0.005307 0.628850
O O5 0.298164 0.206938 0.726354
O O6 0.922270 0.195960 0.454796
O O7 0.016047 0.097388 0.356984
O O8 0.167381 0.048743 0.708155
O O9 0.738538 0.336750 0.400642
O O10 0.548093 0.176727 0.142885
O O11 0.192153 0.473497 0.472841
O O12 0.370427 0.599120 0.482149
#
# Coordination Sequence:
#
# PCOD9244219 Si02
#       6
#     4   4   4   4   4   4
#     4  10  21  40  67  91 126 179 216 258 338 388
#     4  10  22  38  65  95 123 166 215 262 330 380
#     4  10  21  42  62  91 132 164 210 277 314 382
#     4  10  21  40  65  91 129 174 214 264 326 385
#     4  10  20  40  63  94 126 161 210 274 321 377
#     4  10  20  40  66  91 123 165 214 267 320 391
#
# _framework density 24.665758
#
# number of rings (size 3 to 8) (size 9 to 14) (size 15 to 20)
#    0.000    2.000    1.667    1.500    0.000    2.667 
#    6.000    5.000    0.000    0.000    0.000    0.000 
#    0.000    0.000    0.000    0.000    0.000    0.000 
#
# Total GULP energy -133872.323267 kJ/mol
# GULP energy per Si atom -5578.013469 kJ/mol
# Density = 2.460962 g / cm^3
# Si number density = 24.665758 Si / 1000 Ang^3
#
#
#
# Elastic Constant Matrix: (Units=GPa)
#
#
# Indices 1 2 3 4 5 6 
#
# 1 39.0603 1.6009 44.8279 0.0000 -15.3300 0.0000
# 2 1.6009 56.8924 -1.5366 0.0000 7.1065 0.0000
# 3 44.8279 -1.5366 157.4061 0.0000 -20.9181 0.0000
# 4 0.0000 0.0000 0.0000 -3.0278 0.0000 -26.6740
# 5 -15.3300 7.1065 -20.9181 0.0000 43.5220 0.0000
# 6 0.0000 0.0000 0.0000 -26.6740 0.0000 4.7723
#
#
#
# Elastic Compliance Matrix: (Units=1/GPa)
#
#
# Indices 1 2 3 4 5 6 
#
# 1 0.041838 -0.002724 -0.010601 0.000000 0.010086 0.000000
# 2 -0.002724 0.018128 0.000461 0.000000 -0.003698 0.000000
# 3 -0.010601 0.000461 0.009476 0.000000 0.000745 0.000000
# 4 0.000000 0.000000 0.000000 -0.006574 0.000000 -0.036743
# 5 0.010086 -0.003698 0.000745 0.000000 0.027491 0.000000
# 6 0.000000 0.000000 0.000000 -0.036743 0.000000 0.004171
#
#
# Mechanical properties :
#
#
# Convention : Reuss Voigt Hill
#
# Bulk Modulus (GPa) = 22.87563 38.12703 30.50133
# Shear Modulus (GPa) = 37.08387 22.95108 30.01747
#
# Velocity S-wave (km/s) = 3.88165 3.05369 3.49229
# Velocity P-wave (km/s) = 5.42070 5.28436 5.35296
#
# Compressibility (1/GPa) = 0.04371464
#
# Stress axis : x y z
#
# Youngs Moduli (GPa) = 23.90146 55.16326 105.53337
#
# Poissons Ratio (x) = 0.15024 1.11880
# Poissons Ratio (y) = 0.06510 -0.04867
# Poissons Ratio (z) = 0.25339 -0.02544
#
# Static dielectric constant tensor:
#      x y z
#    x 2.100270 0.000000 -0.106210 
#    y 0.000000 2.026410 0.000000 
#    z -0.106210 0.000000 2.188270 
# 
# From -- ./inp_files/32796.got.cif
#   From: 2010.05.17/outbox.cif.g08.bks.cpg/sg14_17_cif.got.tgz:32796.got - 2010.06.03 17:49:19.
