data_PCOD9244286
_publ_section_title
;
Structure prediction by ZEFSAII (Michael W. Deem and Ramdas Pophale) SiO2 
 PCOD9244286
Probable space group: P 21/C
;
_chemical_formula_sum "Si O2"
_cell_formula_units_Z 20
_cell_length_a 16.851663
_cell_length_b 7.727001
_cell_length_c 9.335262
_cell_angle_alpha 90.000000
_cell_angle_beta 38.682371
_cell_angle_gamma 90.000000
_cell_volume 759.734765
_symmetry_space_group_name_H-M "P 21/C"
_symmetry_group_IT_number 14
_symmetry_cell_setting 'monoclinic'
loop_
_space_group_symop_operation_xyz
x,y,z
-x,1/2+y,1/2-z
-x,-y,-z
x,1/2-y,1/2+z
loop_
_atom_site_type_symbol
_atom_site_label
_atom_site_fract_x
_atom_site_fract_y
_atom_site_fract_z
Si Si1 0.622365 0.452363 0.125844
Si Si2 0.967337 0.585169 0.257770
Si Si3 0.139078 0.132909 0.786196
Si Si4 0.446343 0.723933 0.502666
Si Si5 0.209691 0.501893 0.728352
O O1 0.571876 0.622162 0.278256
O O2 0.581073 0.299788 0.291909
O O3 0.770440 0.478399 0.887802
O O4 0.559685 0.409999 0.061739
O O5 0.946202 0.593164 0.455949
O O6 0.935689 0.775557 0.237157
O O7 0.858742 0.470554 0.329749
O O8 0.100804 0.542143 0.997728
O O9 0.230618 0.294582 0.706014
O O10 0.331087 0.614137 0.591993
#
# Coordination Sequence:
#
# PCOD9244286 Si02
#       5
#     4   4   4   4   4
#     4  11  26  43  67  95 128 170 216 267 322 382
#     4   9  21  38  67  93 132 169 212 259 321 374
#     4  10  20  40  65  94 126 169 210 266 310 384
#     4  11  25  44  64  96 127 170 213 267 320 387
#     4   9  21  41  65  92 133 168 213 262 315 387
#
# _framework density 26.32498
#
# number of rings (size 3 to 8) (size 9 to 14) (size 15 to 20)
#    1.200    0.800    0.000    2.400    2.800    5.600 
#    0.000    3.000    0.000    0.000    0.000    0.000 
#    0.000    0.000    0.000    0.000    0.000    0.000 
#
# Total GULP energy -111945.348573 kJ/mol
# GULP energy per Si atom -5597.267429 kJ/mol
# Density = 2.626506 g / cm^3
# Si number density = 26.324980 Si / 1000 Ang^3
#
#
#
# Elastic Constant Matrix: (Units=GPa)
#
#
# Indices 1 2 3 4 5 6 
#
# 1 74.6818 -2.7998 50.0205 0.0000 27.1214 0.0000
# 2 -2.7998 57.3243 24.5736 0.0000 4.3835 0.0000
# 3 50.0205 24.5736 184.5590 0.0000 23.1843 0.0000
# 4 0.0000 0.0000 0.0000 32.2664 0.0000 -2.9168
# 5 27.1214 4.3835 23.1843 0.0000 42.4953 0.0000
# 6 0.0000 0.0000 0.0000 -2.9168 0.0000 46.8105
#
#
#
# Elastic Compliance Matrix: (Units=1/GPa)
#
#
# Indices 1 2 3 4 5 6 
#
# 1 0.020725 0.003892 -0.004749 0.000000 -0.011038 0.000000
# 2 0.003892 0.019246 -0.003281 0.000000 -0.002679 0.000000
# 3 -0.004749 -0.003281 0.007213 0.000000 -0.000566 0.000000
# 4 0.000000 0.000000 0.000000 0.031168 0.000000 0.001942
# 5 -0.011038 -0.002679 -0.000566 0.000000 0.031162 0.000000
# 6 0.000000 0.000000 0.000000 0.001942 0.000000 0.021484
#
#
# Mechanical properties :
#
#
# Convention : Reuss Voigt Hill
#
# Bulk Modulus (GPa) = 25.70077 51.12820 38.41448
# Shear Modulus (GPa) = 32.84232 40.63250 36.73741
#
# Velocity S-wave (km/s) = 3.53593 3.93300 3.73974
# Velocity P-wave (km/s) = 5.14339 6.33157 5.76815
#
# Compressibility (1/GPa) = 0.03890934
#
# Stress axis : x y z
#
# Youngs Moduli (GPa) = 48.25049 51.95892 138.63244
#
# Poissons Ratio (x) = -0.20222 0.65833
# Poissons Ratio (y) = -0.18779 0.45483
# Poissons Ratio (z) = 0.22913 0.17047
#
# Static dielectric constant tensor:
#      x y z
#    x 2.105810 0.000000 0.035120 
#    y 0.000000 2.166970 0.000000 
#    z 0.035120 0.000000 1.927280 
# 
# From -- ./inp_files/18471.got.cif
#   From: 2010.05.17/outbox.cif.g08.bks.cpg/sg14_10_cif.got.tgz:18471.got - 2010.06.03 17:49:19.
