data_PCOD9244513
_publ_section_title
;
Structure prediction by ZEFSAII (Michael W. Deem and Ramdas Pophale) SiO2 
 PCOD9244513
Probable space group: P 21/C
;
_chemical_formula_sum "Si O2"
_cell_formula_units_Z 24
_cell_length_a 11.711133
_cell_length_b 12.989788
_cell_length_c 13.431060
_cell_angle_alpha 90.000000
_cell_angle_beta 31.110443
_cell_angle_gamma 90.000000
_cell_volume 1055.700694
_symmetry_space_group_name_H-M "P 21/C"
_symmetry_group_IT_number 14
_symmetry_cell_setting 'monoclinic'
loop_
_space_group_symop_operation_xyz
x,y,z
-x,1/2+y,1/2-z
-x,-y,-z
x,1/2-y,1/2+z
loop_
_atom_site_type_symbol
_atom_site_label
_atom_site_fract_x
_atom_site_fract_y
_atom_site_fract_z
Si Si1 0.418562 0.267607 0.004059
Si Si2 0.116911 0.012998 0.555587
Si Si3 0.931238 0.186700 0.806048
Si Si4 0.133494 0.676621 0.417742
Si Si5 0.195318 0.356623 0.823059
Si Si6 0.285010 0.604068 0.113326
O O1 0.384626 0.173565 0.104924
O O2 0.189546 0.279806 0.118349
O O3 0.635827 0.261792 0.774466
O O4 0.468546 0.369871 0.033683
O O5 0.247735 0.976403 0.554700
O O6 0.995421 0.918444 0.593525
O O7 0.260936 0.074004 0.367191
O O8 0.928508 0.092295 0.732392
O O9 0.798328 0.286218 0.869786
O O10 0.871627 0.150983 0.962129
O O11 0.149380 0.591728 0.318151
O O12 0.925116 0.751104 0.554259
#
# Coordination Sequence:
#
# PCOD9244513 Si02
#       6
#     4   4   4   4   4   4
#     4   9  21  40  65  87 124 169 208 250 322 377
#     4  11  21  37  69  95 127 167 211 265 317 363
#     4  11  21  41  65  89 131 166 202 272 316 359
#     4   9  20  41  62  90 124 164 217 250 304 398
#     4  10  20  41  67  92 124 166 218 264 298 382
#     4  10  21  40  64  92 126 167 211 256 317 376
#
# _framework density 22.733716000000001
#
# number of rings (size 3 to 8) (size 9 to 14) (size 15 to 20)
#    1.000    1.000    5.000    0.000    0.000    2.667 
#    0.000    9.167   14.667    0.000    0.000    0.000 
#    0.000    0.000    0.000    0.000    0.000    0.000 
#
# Total GULP energy -133874.406385 kJ/mol
# GULP energy per Si atom -5578.100266 kJ/mol
# Density = 2.268197 g / cm^3
# Si number density = 22.733716 Si / 1000 Ang^3
#
#
#
# Elastic Constant Matrix: (Units=GPa)
#
#
# Indices 1 2 3 4 5 6 
#
# 1 83.0325 8.6101 5.3220 0.0000 8.9395 0.0000
# 2 8.6101 35.5751 -0.7963 0.0000 5.1227 0.0000
# 3 5.3220 -0.7963 49.7313 0.0000 -3.0307 0.0000
# 4 0.0000 0.0000 0.0000 21.0114 0.0000 10.9315
# 5 8.9395 5.1227 -3.0307 0.0000 40.6464 0.0000
# 6 0.0000 0.0000 0.0000 10.9315 0.0000 43.7414
#
#
#
# Elastic Compliance Matrix: (Units=1/GPa)
#
#
# Indices 1 2 3 4 5 6 
#
# 1 0.012704 -0.002740 -0.001560 0.000000 -0.002565 0.000000
# 2 -0.002740 0.029223 0.000576 0.000000 -0.003037 0.000000
# 3 -0.001560 0.000576 0.020393 0.000000 0.001791 0.000000
# 4 0.000000 0.000000 0.000000 0.054706 0.000000 -0.013672
# 5 -0.002565 -0.003037 0.001791 0.000000 0.025683 0.000000
# 6 0.000000 0.000000 0.000000 -0.013672 0.000000 0.026278
#
#
# Mechanical properties :
#
#
# Convention : Reuss Voigt Hill
#
# Bulk Modulus (GPa) = 18.22409 21.62339 19.92374
# Shear Modulus (GPa) = 25.67713 31.42672 28.55192
#
# Velocity S-wave (km/s) = 3.36441 3.72208 3.54775
# Velocity P-wave (km/s) = 4.80896 5.29188 5.05619
#
# Compressibility (1/GPa) = 0.05487243
#
# Stress axis : x y z
#
# Youngs Moduli (GPa) = 78.71700 34.21964 49.03564
#
# Poissons Ratio (x) = 0.09377 0.07648
# Poissons Ratio (y) = 0.21570 -0.02825
# Poissons Ratio (z) = 0.12277 -0.01971
#
# Static dielectric constant tensor:
#      x y z
#    x 1.880230 0.000000 0.014000 
#    y 0.000000 1.889290 0.000000 
#    z 0.014000 0.000000 1.820680 
# 
# From -- ./inp_files/45023.got.cif
#   From: 2010.05.17/outbox.cif.g08.bks.cpg/sg14_23_cif.got.tgz:45023.got - 2010.06.03 17:49:19.
