data_PCOD9244197
_publ_section_title
;
Structure prediction by ZEFSAII (Michael W. Deem and Ramdas Pophale) SiO2 
 PCOD9244197
Probable space group: P 21/C
;
_chemical_formula_sum "Si O2"
_cell_formula_units_Z 24
_cell_length_a 8.226276
_cell_length_b 11.234954
_cell_length_c 12.232988
_cell_angle_alpha 90.000000
_cell_angle_beta 52.279701
_cell_angle_gamma 90.000000
_cell_volume 894.308498
_symmetry_space_group_name_H-M "P 21/C"
_symmetry_group_IT_number 14
_symmetry_cell_setting 'monoclinic'
loop_
_space_group_symop_operation_xyz
x,y,z
-x,1/2+y,1/2-z
-x,-y,-z
x,1/2-y,1/2+z
loop_
_atom_site_type_symbol
_atom_site_label
_atom_site_fract_x
_atom_site_fract_y
_atom_site_fract_z
Si Si1 0.947090 0.324956 0.191743
Si Si2 0.296877 0.598681 0.499685
Si Si3 0.824987 0.081574 0.311404
Si Si4 0.749917 0.362881 0.071429
Si Si5 0.307295 0.097272 0.821743
Si Si6 0.245831 0.188233 0.198231
O O1 0.836530 0.392811 0.336279
O O2 0.808996 0.204433 0.251048
O O3 0.934708 0.383894 0.079451
O O4 0.175387 0.280780 0.131102
O O5 0.238220 0.722180 0.462813
O O6 0.243264 0.478062 0.455246
O O7 0.542478 0.619942 0.411514
O O8 0.700337 0.076576 0.475220
O O9 0.047086 0.105243 0.277728
O O10 0.774035 0.982245 0.245407
O O11 0.552664 0.398186 0.224021
O O12 0.253150 0.231767 0.805603
#
# Coordination Sequence:
#
# PCOD9244197 Si02
#       6
#     4   4   4   4   4   4
#     4   9  20  41  61  85 134 160 208 266 312 375
#     4  10  20  40  62  92 129 165 212 268 316 370
#     4   9  20  41  63  91 129 162 212 272 303 380
#     4  10  20  40  63  93 125 169 210 261 318 375
#     4  11  21  38  68  92 128 169 213 260 325 380
#     4   9  22  40  63  97 123 171 212 259 328 369
#
# _framework density 26.836378
#
# number of rings (size 3 to 8) (size 9 to 14) (size 15 to 20)
#    1.000    1.333    1.667    0.500    0.000    2.667 
#    6.000    1.667    0.000    0.000    0.000    0.000 
#    0.000    0.000    0.000    0.000    0.000    0.000 
#
# Total GULP energy -133913.846823 kJ/mol
# GULP energy per Si atom -5579.743618 kJ/mol
# Density = 2.677530 g / cm^3
# Si number density = 26.836378 Si / 1000 Ang^3
#
#
#
# Elastic Constant Matrix: (Units=GPa)
#
#
# Indices 1 2 3 4 5 6 
#
# 1 118.7224 13.2950 37.3815 0.0000 14.6948 0.0000
# 2 13.2950 117.0029 44.0924 0.0000 10.4988 0.0000
# 3 37.3815 44.0924 95.3077 0.0000 35.2130 0.0000
# 4 0.0000 0.0000 0.0000 47.7909 0.0000 6.8126
# 5 14.6948 10.4988 35.2130 0.0000 39.6679 0.0000
# 6 0.0000 0.0000 0.0000 6.8126 0.0000 25.2295
#
#
#
# Elastic Compliance Matrix: (Units=1/GPa)
#
#
# Indices 1 2 3 4 5 6 
#
# 1 0.009627 0.000384 -0.003866 0.000000 -0.000236 0.000000
# 2 0.000384 0.010503 -0.005848 0.000000 0.002269 0.000000
# 3 -0.003866 -0.005848 0.020257 0.000000 -0.015002 0.000000
# 4 0.000000 0.000000 0.000000 0.021762 0.000000 -0.005876
# 5 -0.000236 0.002269 -0.015002 0.000000 0.038013 0.000000
# 6 0.000000 0.000000 0.000000 -0.005876 0.000000 0.041223
#
#
# Mechanical properties :
#
#
# Convention : Reuss Voigt Hill
#
# Bulk Modulus (GPa) = 46.02743 57.84119 51.93431
# Shear Modulus (GPa) = 29.88842 38.28860 34.08851
#
# Velocity S-wave (km/s) = 3.34088 3.78132 3.56790
# Velocity P-wave (km/s) = 5.66307 6.37688 6.03054
#
# Compressibility (1/GPa) = 0.02172618
#
# Stress axis : x y z
#
# Youngs Moduli (GPa) = 103.87937 95.20665 49.36493
#
# Poissons Ratio (x) = -0.03659 0.19087
# Poissons Ratio (y) = -0.03993 0.28871
# Poissons Ratio (z) = 0.40165 0.55681
#
# Static dielectric constant tensor:
#      x y z
#    x 2.168800 0.000000 -0.086050 
#    y 0.000000 2.225990 0.000000 
#    z -0.086050 0.000000 2.172780 
# 
# From -- ./inp_files/24057.got.cif
#   From: 2010.05.17/outbox.cif.g08.bks.cpg/sg14_13_cif.got.tgz:24057.got - 2010.06.03 17:49:19.
