data_PCOD9244550
_publ_section_title
;
Structure prediction by ZEFSAII (Michael W. Deem and Ramdas Pophale) SiO2 
 PCOD9244550
Probable space group: P 21/C
;
_chemical_formula_sum "Si O2"
_cell_formula_units_Z 24
_cell_length_a 9.810988
_cell_length_b 18.344594
_cell_length_c 5.401183
_cell_angle_alpha 90.000000
_cell_angle_beta 108.222928
_cell_angle_gamma 90.000000
_cell_volume 923.343702
_symmetry_space_group_name_H-M "P 21/C"
_symmetry_group_IT_number 14
_symmetry_cell_setting 'monoclinic'
loop_
_space_group_symop_operation_xyz
x,y,z
-x,1/2+y,1/2-z
-x,-y,-z
x,1/2-y,1/2+z
loop_
_atom_site_type_symbol
_atom_site_label
_atom_site_fract_x
_atom_site_fract_y
_atom_site_fract_z
Si Si1 0.735437 0.088356 0.832868
Si Si2 0.220737 0.225686 0.249386
Si Si3 0.499064 0.825571 0.101118
Si Si4 0.295259 0.419631 0.585783
Si Si5 0.199430 0.709452 0.283486
Si Si6 0.999358 0.952447 0.256665
O O1 0.693860 0.003844 0.836513
O O2 0.590325 0.135282 0.729539
O O3 0.814793 0.126540 0.115991
O O4 0.853676 0.092112 0.686540
O O5 0.143767 0.252950 0.450204
O O6 0.368189 0.271616 0.287766
O O7 0.259502 0.140252 0.276037
O O8 0.567477 0.891601 0.982171
O O9 0.374206 0.788050 0.871147
O O10 0.152752 0.412667 0.335074
O O11 0.153159 0.757754 0.495673
O O12 0.000000 0.000000 0.500000
O O13 0.000000 0.000000 0.000000
#
# Coordination Sequence:
#
# PCOD9244550 Si02
#       6
#     4   4   4   4   4   4
#     4   9  22  40  66 100 127 179 222 274 333 401
#     4  10  21  38  61  89 129 171 208 269 334 381
#     4   9  20  38  64  94 131 168 221 270 338 389
#     4  10  20  41  70  94 133 172 231 272 332 404
#     4  10  21  38  60  88 131 171 208 268 332 388
#     4  10  23  44  65  94 135 171 211 277 333 385
#
# _framework density 25.992488000000002
#
# number of rings (size 3 to 8) (size 9 to 14) (size 15 to 20)
#    1.000    1.333    0.000    2.500    0.000    8.000 
#    0.000    6.667    0.000    0.000    0.000    0.000 
#    0.000    0.000    0.000    0.000    0.000    0.000 
#
# Total GULP energy -133957.374548 kJ/mol
# GULP energy per Si atom -5581.557273 kJ/mol
# Density = 2.593333 g / cm^3
# Si number density = 25.992488 Si / 1000 Ang^3
#
#
#
# Elastic Constant Matrix: (Units=GPa)
#
#
# Indices 1 2 3 4 5 6 
#
# 1 146.9473 19.1235 39.0261 0.0000 -7.6285 0.0000
# 2 19.1235 197.1056 29.8756 0.0000 -9.4381 0.0000
# 3 39.0261 29.8756 102.3581 0.0000 -27.5987 0.0000
# 4 0.0000 0.0000 0.0000 45.1892 0.0000 -5.4565
# 5 -7.6285 -9.4381 -27.5987 0.0000 31.2875 0.0000
# 6 0.0000 0.0000 0.0000 -5.4565 0.0000 -8.4017
#
#
#
# Elastic Compliance Matrix: (Units=1/GPa)
#
#
# Indices 1 2 3 4 5 6 
#
# 1 0.007611 -0.000319 -0.003063 0.000000 -0.000942 0.000000
# 2 -0.000319 0.005324 -0.001338 0.000000 0.000347 0.000000
# 3 -0.003063 -0.001338 0.014456 0.000000 0.011601 0.000000
# 4 0.000000 0.000000 0.000000 0.020520 0.000000 -0.013327
# 5 -0.000942 0.000347 0.011601 0.000000 0.042070 0.000000
# 6 0.000000 0.000000 0.000000 -0.013327 0.000000 -0.110369
#
#
# Mechanical properties :
#
#
# Convention : Reuss Voigt Hill
#
# Bulk Modulus (GPa) = 55.71032 69.16238 62.43635
# Shear Modulus (GPa) = -1007.44762 37.50739 -484.97012
#
# Velocity S-wave (km/s) = -19.70871 3.80282 -13.67428
# Velocity P-wave (km/s) = 22.28074 6.77851 15.00805
#
# Compressibility (1/GPa) = 0.01795000
#
# Stress axis : x y z
#
# Youngs Moduli (GPa) = 131.38502 187.83166 69.17523
#
# Poissons Ratio (x) = 0.05998 0.21187
# Poissons Ratio (y) = 0.04196 0.09259
# Poissons Ratio (z) = 0.40240 0.25141
#
# Static dielectric constant tensor:
#      x y z
#    x 2.037500 0.000000 0.016780 
#    y 0.000000 2.106910 0.000000 
#    z 0.016780 0.000000 2.200950 
# 
# From -- ./inp_files/2904.got.cif
#   From: 2010.05.17/outbox.cif.g08.bks.cpg/sg14_2_cif.got.tgz:2904.got - 2010.06.03 17:49:19.
