data_PCOD9244889
_publ_section_title
;
Structure prediction by ZEFSAII (Michael W. Deem and Ramdas Pophale) SiO2 
 PCOD9244889
Probable space group: P 21/C
;
_chemical_formula_sum "Si O2"
_cell_formula_units_Z 20
_cell_length_a 6.938904
_cell_length_b 20.520082
_cell_length_c 5.599451
_cell_angle_alpha 90.000000
_cell_angle_beta 106.555053
_cell_angle_gamma 90.000000
_cell_volume 764.237876
_symmetry_space_group_name_H-M "P 21/C"
_symmetry_group_IT_number 14
_symmetry_cell_setting 'monoclinic'
loop_
_space_group_symop_operation_xyz
x,y,z
-x,1/2+y,1/2-z
-x,-y,-z
x,1/2-y,1/2+z
loop_
_atom_site_type_symbol
_atom_site_label
_atom_site_fract_x
_atom_site_fract_y
_atom_site_fract_z
Si Si1 0.424994 0.566998 0.353719
Si Si2 0.475052 0.713736 0.358497
Si Si3 0.976321 0.911520 0.902601
Si Si4 0.013244 0.282247 0.811472
Si Si5 0.851094 0.465829 0.134135
O O1 0.500000 0.500000 0.500000
O O2 0.536070 0.637004 0.412944
O O3 0.206660 0.578970 0.397796
O O4 0.355182 0.555887 0.054852
O O5 0.529494 0.744757 0.117150
O O6 0.230483 0.714101 0.271557
O O7 0.023298 0.907289 0.200554
O O8 0.901568 0.852824 0.719936
O O9 0.836052 0.973706 0.811628
O O10 0.067924 0.242605 0.591175
O O11 0.000000 0.500000 0.000000
#
# Coordination Sequence:
#
# PCOD9244889 Si02
#       5
#     4   4   4   4   4
#     4  10  21  34  56  86 111 145 190 234 280 337
#     4   9  19  34  53  78 113 148 183 233 287 334
#     4   9  19  34  53  79 109 146 179 229 285 327
#     4   9  18  28  51  80 107 138 183 233 277 329
#     4   9  19  34  53  76 109 143 180 225 279 329
#
# _framework density 26.169861999999998
#
# number of rings (size 3 to 8) (size 9 to 14) (size 15 to 20)
#    0.000    2.800    0.000    0.000   16.800    0.800 
#    0.000    0.000    0.000    2.400    0.000    0.000 
#    0.000    0.000    0.000    0.000    0.000    0.000 
#
# Total GULP energy -111616.914825 kJ/mol
# GULP energy per Si atom -5580.845741 kJ/mol
# Density = 2.611030 g / cm^3
# Si number density = 26.169862 Si / 1000 Ang^3
#
#
#
# Elastic Constant Matrix: (Units=GPa)
#
#
# Indices 1 2 3 4 5 6 
#
# 1 63.1272 12.8389 30.2353 0.0000 -3.4695 0.0000
# 2 12.8389 172.6972 63.1928 0.0000 -4.0769 0.0000
# 3 30.2353 63.1928 115.1223 0.0000 1.4230 0.0000
# 4 0.0000 0.0000 0.0000 35.0294 0.0000 0.3597
# 5 -3.4695 -4.0769 1.4230 0.0000 41.6935 0.0000
# 6 0.0000 0.0000 0.0000 0.3597 0.0000 30.9179
#
#
#
# Elastic Compliance Matrix: (Units=1/GPa)
#
#
# Indices 1 2 3 4 5 6 
#
# 1 0.018280 0.000559 -0.005130 0.000000 0.001751 0.000000
# 2 0.000559 0.007293 -0.004161 0.000000 0.000902 0.000000
# 3 -0.005130 -0.004161 0.012333 0.000000 -0.001255 0.000000
# 4 0.000000 0.000000 0.000000 0.028551 0.000000 -0.000332
# 5 0.001751 0.000902 -0.001255 0.000000 0.024261 0.000000
# 6 0.000000 0.000000 0.000000 -0.000332 0.000000 0.032348
#
#
# Mechanical properties :
#
#
# Convention : Reuss Voigt Hill
#
# Bulk Modulus (GPa) = 48.91564 62.60897 55.76230
# Shear Modulus (GPa) = 33.93413 37.84013 35.88713
#
# Velocity S-wave (km/s) = 3.60486 3.80668 3.70714
# Velocity P-wave (km/s) = 6.00490 6.58005 6.29905
#
# Compressibility (1/GPa) = 0.02044336
#
# Stress axis : x y z
#
# Youngs Moduli (GPa) = 54.70314 137.12067 81.08070
#
# Poissons Ratio (x) = -0.07670 0.41593
# Poissons Ratio (y) = -0.03060 0.33740
# Poissons Ratio (z) = 0.28062 0.57059
#
# Static dielectric constant tensor:
#      x y z
#    x 2.180930 0.000000 -0.041800 
#    y 0.000000 2.191100 0.000000 
#    z -0.041800 0.000000 2.322150 
# 
# From -- ./inp_files/1323.got.cif
#   From: 2010.05.17/outbox.cif.g08.bks.cpg/sg14_1_cif.got.tgz:1323.got - 2010.06.03 17:49:19.
