data_PCOD9244569
_publ_section_title
;
Structure prediction by ZEFSAII (Michael W. Deem and Ramdas Pophale) SiO2 
 PCOD9244569
Probable space group: P 21/C
;
_chemical_formula_sum "Si O2"
_cell_formula_units_Z 24
_cell_length_a 7.541824
_cell_length_b 15.779450
_cell_length_c 9.594450
_cell_angle_alpha 90.000000
_cell_angle_beta 60.876329
_cell_angle_gamma 90.000000
_cell_volume 997.439721
_symmetry_space_group_name_H-M "P 21/C"
_symmetry_group_IT_number 14
_symmetry_cell_setting 'monoclinic'
loop_
_space_group_symop_operation_xyz
x,y,z
-x,1/2+y,1/2-z
-x,-y,-z
x,1/2-y,1/2+z
loop_
_atom_site_type_symbol
_atom_site_label
_atom_site_fract_x
_atom_site_fract_y
_atom_site_fract_z
Si Si1 0.542716 0.640094 0.065602
Si Si2 0.072059 0.041684 0.160977
Si Si3 0.947160 0.625831 0.032689
Si Si4 0.261958 0.204792 0.935663
Si Si5 0.675197 0.451613 0.638850
Si Si6 0.600002 0.098251 0.666496
O O1 0.764123 0.597615 0.001727
O O2 0.603645 0.736814 0.012552
O O3 0.417901 0.633630 0.259188
O O4 0.415888 0.596403 0.994591
O O5 0.062566 0.069341 0.324656
O O6 0.855078 0.021217 0.175573
O O7 0.147858 0.127887 0.053427
O O8 0.224907 0.967219 0.050097
O O9 0.886561 0.725296 0.077852
O O10 0.170407 0.620145 0.884739
O O11 0.428556 0.165967 0.771325
O O12 0.512653 0.485165 0.271620
#
# Coordination Sequence:
#
# PCOD9244569 Si02
#       6
#     4   4   4   4   4   4
#     4  10  22  37  62  91 114 154 203 238 298 348
#     4  10  20  42  60  87 122 160 196 236 302 351
#     4  10  23  35  65  86 116 154 197 251 285 347
#     4   9  23  38  61  90 118 157 198 243 297 347
#     4  10  22  38  65  82 122 164 190 243 298 352
#     4  11  21  42  59  86 123 156 197 247 292 350
#
# _framework density 24.061605
#
# number of rings (size 3 to 8) (size 9 to 14) (size 15 to 20)
#    1.000    1.000    1.667    1.500    2.333    1.333 
#    0.000    0.000    7.333    0.000    0.000    0.000 
#    0.000    0.000    0.000    0.000    0.000    0.000 
#
# Total GULP energy -133892.550328 kJ/mol
# GULP energy per Si atom -5578.856264 kJ/mol
# Density = 2.400684 g / cm^3
# Si number density = 24.061605 Si / 1000 Ang^3
#
#
#
# Elastic Constant Matrix: (Units=GPa)
#
#
# Indices 1 2 3 4 5 6 
#
# 1 72.2961 11.9513 19.2413 0.0000 -22.1224 0.0000
# 2 11.9513 34.9207 11.3769 0.0000 -12.4678 0.0000
# 3 19.2413 11.3769 83.8611 0.0000 -24.7309 0.0000
# 4 0.0000 0.0000 0.0000 26.1994 0.0000 -11.1516
# 5 -22.1224 -12.4678 -24.7309 0.0000 48.1695 0.0000
# 6 0.0000 0.0000 0.0000 -11.1516 0.0000 31.9875
#
#
#
# Elastic Compliance Matrix: (Units=1/GPa)
#
#
# Indices 1 2 3 4 5 6 
#
# 1 0.016601 -0.003005 -0.001629 0.000000 0.006010 0.000000
# 2 -0.003005 0.032446 -0.001936 0.000000 0.006024 0.000000
# 3 -0.001629 -0.001936 0.014368 0.000000 0.006128 0.000000
# 4 0.000000 0.000000 0.000000 0.044819 0.000000 0.015625
# 5 0.006010 0.006024 0.006128 0.000000 0.028226 0.000000
# 6 0.000000 0.000000 0.000000 0.015625 0.000000 0.036709
#
#
# Mechanical properties :
#
#
# Convention : Reuss Voigt Hill
#
# Bulk Modulus (GPa) = 19.89024 30.69077 25.29051
# Shear Modulus (GPa) = 24.62225 31.17183 27.89704
#
# Velocity S-wave (km/s) = 3.20238 3.60321 3.40869
# Velocity P-wave (km/s) = 4.68593 5.48576 5.10155
#
# Compressibility (1/GPa) = 0.05027590
#
# Stress axis : x y z
#
# Youngs Moduli (GPa) = 60.23567 30.82019 69.59975
#
# Poissons Ratio (x) = 0.09262 0.11337
# Poissons Ratio (y) = 0.18102 0.13473
# Poissons Ratio (z) = 0.09812 0.05966
#
# Static dielectric constant tensor:
#      x y z
#    x 1.908510 0.000000 0.054360 
#    y 0.000000 1.980130 0.000000 
#    z 0.054360 0.000000 2.013220 
# 
# From -- ./inp_files/26393.got.cif
#   From: 2010.05.17/outbox.cif.g08.bks.cpg/sg14_14_cif.got.tgz:26393.got - 2010.06.03 17:49:19.
