data_PCOD9244604
_publ_section_title
;
Structure prediction by ZEFSAII (Michael W. Deem and Ramdas Pophale) SiO2 
 PCOD9244604
Probable space group: P 21/C
;
_chemical_formula_sum "Si O2"
_cell_formula_units_Z 24
_cell_length_a 10.303852
_cell_length_b 9.367967
_cell_length_c 21.386971
_cell_angle_alpha 90.000000
_cell_angle_beta 28.822129
_cell_angle_gamma 90.000000
_cell_volume 995.231812
_symmetry_space_group_name_H-M "P 21/C"
_symmetry_group_IT_number 14
_symmetry_cell_setting 'monoclinic'
loop_
_space_group_symop_operation_xyz
x,y,z
-x,1/2+y,1/2-z
-x,-y,-z
x,1/2-y,1/2+z
loop_
_atom_site_type_symbol
_atom_site_label
_atom_site_fract_x
_atom_site_fract_y
_atom_site_fract_z
Si Si1 0.853883 0.874595 0.288920
Si Si2 0.801015 0.330004 0.467277
Si Si3 0.962293 0.892190 0.956896
Si Si4 0.554098 0.701713 0.194583
Si Si5 0.288872 0.094501 0.127548
Si Si6 0.566403 0.109934 0.641424
O O1 0.766962 0.753247 0.374890
O O2 0.606310 0.923511 0.348803
O O3 0.023317 0.001808 0.246729
O O4 0.063923 0.787500 0.154916
O O5 0.920478 0.488195 0.422879
O O6 0.480045 0.363865 0.605066
O O7 0.818646 0.205370 0.511169
O O8 0.229088 0.804365 0.829162
O O9 0.708511 0.793833 0.077807
O O10 0.000000 0.000000 0.000000
O O11 0.597296 0.788067 0.241329
O O12 0.630577 0.535609 0.151441
O O13 0.500000 0.000000 0.000000
#
# Coordination Sequence:
#
# PCOD9244604 Si02
#       6
#     4   4   4   4   4   4
#     4  10  20  42  66  91 129 170 210 281 330 393
#     4  10  20  42  64  92 133 172 215 278 332 389
#     4  12  23  44  63  97 139 176 225 278 325 399
#     4  12  24  42  66  97 137 184 220 272 326 400
#     4   9  21  39  65  91 122 166 217 271 335 388
#     4  11  22  39  66  95 133 179 219 268 331 390
#
# _framework density 24.114986999999999
#
# number of rings (size 3 to 8) (size 9 to 14) (size 15 to 20)
#    0.000    1.333    5.000    0.000    0.000    2.000 
#    6.000    7.500    0.000    0.000    0.000    0.000 
#    0.000    0.000    0.000    0.000    0.000    0.000 
#
# Total GULP energy -133700.819349 kJ/mol
# GULP energy per Si atom -5570.867473 kJ/mol
# Density = 2.406010 g / cm^3
# Si number density = 24.114987 Si / 1000 Ang^3
#
#
#
# Elastic Constant Matrix: (Units=GPa)
#
#
# Indices 1 2 3 4 5 6 
#
# 1 22.3627 26.5277 0.3216 0.0000 -10.7269 0.0000
# 2 26.5277 143.0030 36.8611 0.0000 1.0946 0.0000
# 3 0.3216 36.8611 98.1767 0.0000 -7.4906 0.0000
# 4 0.0000 0.0000 0.0000 55.0746 0.0000 2.1667
# 5 -10.7269 1.0946 -7.4906 0.0000 33.9456 0.0000
# 6 0.0000 0.0000 0.0000 2.1667 0.0000 31.7442
#
#
#
# Elastic Compliance Matrix: (Units=1/GPa)
#
#
# Indices 1 2 3 4 5 6 
#
# 1 0.077010 -0.016550 0.007994 0.000000 0.026633 0.000000
# 2 -0.016550 0.011326 -0.004704 0.000000 -0.006633 0.000000
# 3 0.007994 -0.004704 0.012338 0.000000 0.005400 0.000000
# 4 0.000000 0.000000 0.000000 0.018206 0.000000 -0.001243
# 5 0.026633 -0.006633 0.005400 0.000000 0.039280 0.000000
# 6 0.000000 0.000000 0.000000 -0.001243 0.000000 0.031587
#
#
# Mechanical properties :
#
#
# Convention : Reuss Voigt Hill
#
# Bulk Modulus (GPa) = 13.48572 43.44035 28.46303
# Shear Modulus (GPa) = 20.74803 37.47502 29.11152
#
# Velocity S-wave (km/s) = 2.93640 3.94637 3.47824
# Velocity P-wave (km/s) = 4.13534 6.23042 5.28768
#
# Compressibility (1/GPa) = 0.07415253
#
# Stress axis : x y z
#
# Youngs Moduli (GPa) = 12.98531 88.28950 81.05130
#
# Poissons Ratio (x) = 1.46119 -0.64789
# Poissons Ratio (y) = 0.21491 0.38130
# Poissons Ratio (z) = -0.10380 0.41535
#
# Static dielectric constant tensor:
#      x y z
#    x 2.237530 0.000000 -0.000600 
#    y 0.000000 1.997920 0.000000 
#    z -0.000600 0.000000 2.043720 
# 
# From -- ./inp_files/73032.got.cif
#   From: 2010.05.17/outbox.cif.g08.bks.cpg/sg14_37_cif.got.tgz:73032.got - 2010.06.03 17:49:19.
