data_PCOD9244125
_publ_section_title
;
Structure prediction by ZEFSAII (Michael W. Deem and Ramdas Pophale) SiO2 
 PCOD9244125
Probable space group: P 21/C
;
_chemical_formula_sum "Si O2"
_cell_formula_units_Z 32
_cell_length_a 19.311425
_cell_length_b 5.091404
_cell_length_c 19.859619
_cell_angle_alpha 90.000000
_cell_angle_beta 141.337605
_cell_angle_gamma 90.000000
_cell_volume 1219.875094
_symmetry_space_group_name_H-M "P 21/C"
_symmetry_group_IT_number 14
_symmetry_cell_setting 'monoclinic'
loop_
_space_group_symop_operation_xyz
x,y,z
-x,1/2+y,1/2-z
-x,-y,-z
x,1/2-y,1/2+z
loop_
_atom_site_type_symbol
_atom_site_label
_atom_site_fract_x
_atom_site_fract_y
_atom_site_fract_z
Si Si1 0.617903 0.398752 0.562555
Si Si2 0.767584 0.604133 0.206731
Si Si3 0.032121 0.358277 0.911715
Si Si4 0.140989 0.333552 0.862705
Si Si5 0.759370 0.872464 0.852322
Si Si6 0.282571 0.832282 0.997022
Si Si7 0.092477 0.728233 0.569874
Si Si8 0.435307 0.123235 0.215893
O O1 0.500000 0.500000 0.500000
O O2 0.692945 0.655302 0.624738
O O3 0.620953 0.328139 0.485720
O O4 0.683331 0.147329 0.643446
O O5 0.861453 0.599106 0.218608
O O6 0.797195 0.698756 0.305105
O O7 0.145679 0.204956 0.021413
O O8 0.048066 0.598851 0.975036
O O9 0.039002 0.377535 0.836953
O O10 0.914109 0.275454 0.854600
O O11 0.229740 0.545016 0.959768
O O12 0.185651 0.037971 0.904593
O O13 0.634975 0.795332 0.772087
O O14 0.782425 0.182743 0.859802
O O15 0.340587 0.960233 0.104861
O O16 0.000000 0.500000 0.500000
O O17 0.473689 0.392112 0.209198
#
# Coordination Sequence:
#
# PCOD9244125 Si02
#       8
#     4   4   4   4   4   4   4   4
#     4  10  22  39  60  80 119 166 222 258 300 372
#     4  10  24  38  61  91 120 172 206 259 325 366
#     4  10  20  39  71  94 124 166 211 261 325 387
#     4  10  20  40  64  88 120 165 210 251 308 380
#     4  11  24  40  65  91 136 162 210 275 321 374
#     4  10  21  39  58  83 119 164 211 253 306 370
#     4   9  21  39  66 100 119 161 209 257 323 391
#     4  12  27  38  58  94 129 166 210 267 324 374
#
# _framework density 26.232195999999998
#
# number of rings (size 3 to 8) (size 9 to 14) (size 15 to 20)
#    0.000    1.750    1.250    1.875    8.750    0.000 
#    0.000    0.000    8.250    0.000    0.000    0.000 
#    0.000    0.000    0.000    0.000    0.000    0.000 
#
# Total GULP energy -178171.297223 kJ/mol
# GULP energy per Si atom -5567.853038 kJ/mol
# Density = 2.617249 g / cm^3
# Si number density = 26.232196 Si / 1000 Ang^3
#
#
#
# Elastic Constant Matrix: (Units=GPa)
#
#
# Indices 1 2 3 4 5 6 
#
# 1 207.0072 44.3509 37.3602 0.0000 4.6450 0.0000
# 2 44.3509 76.9956 7.4346 0.0000 7.7618 0.0000
# 3 37.3602 7.4346 61.7607 0.0000 -4.8547 0.0000
# 4 0.0000 0.0000 0.0000 18.5448 0.0000 2.2059
# 5 4.6450 7.7618 -4.8547 0.0000 36.5615 0.0000
# 6 0.0000 0.0000 0.0000 2.2059 0.0000 36.5183
#
#
#
# Elastic Compliance Matrix: (Units=1/GPa)
#
#
# Indices 1 2 3 4 5 6 
#
# 1 0.006126 -0.003147 -0.003371 0.000000 -0.000558 0.000000
# 2 -0.003147 0.015098 -0.000136 0.000000 -0.002824 0.000000
# 3 -0.003371 -0.000136 0.018476 0.000000 0.002910 0.000000
# 4 0.000000 0.000000 0.000000 0.054314 0.000000 -0.003281
# 5 -0.000558 -0.002824 0.002910 0.000000 0.028408 0.000000
# 6 0.000000 0.000000 0.000000 -0.003281 0.000000 0.027582
#
#
# Mechanical properties :
#
#
# Convention : Reuss Voigt Hill
#
# Bulk Modulus (GPa) = 37.88899 58.22833 48.05866
# Shear Modulus (GPa) = 29.05163 35.43275 32.24219
#
# Velocity S-wave (km/s) = 3.33149 3.67922 3.50967
# Velocity P-wave (km/s) = 5.41050 6.34778 5.89779
#
# Compressibility (1/GPa) = 0.02639289
#
# Stress axis : x y z
#
# Youngs Moduli (GPa) = 163.24390 66.23316 54.12543
#
# Poissons Ratio (x) = 0.20843 0.18244
# Poissons Ratio (y) = 0.51371 0.00735
# Poissons Ratio (z) = 0.55024 0.00900
#
# Static dielectric constant tensor:
#      x y z
#    x 2.427130 0.000000 -0.154640 
#    y 0.000000 3.116490 0.000000 
#    z -0.154640 0.000000 2.439170 
# 
# From -- ./inp_files/68969.got.cif
#   From: 2010.05.17/outbox.cif.g08.bks.cpg/sg14_35_cif.got.tgz:68969.got - 2010.06.03 17:49:19.
