data_PCOD9244518
_publ_section_title
;
Structure prediction by ZEFSAII (Michael W. Deem and Ramdas Pophale) SiO2 
 PCOD9244518
Probable space group: P 21/C
;
_chemical_formula_sum "Si O2"
_cell_formula_units_Z 32
_cell_length_a 12.021484
_cell_length_b 7.965242
_cell_length_c 12.985365
_cell_angle_alpha 90.000000
_cell_angle_beta 72.015740
_cell_angle_gamma 90.000000
_cell_volume 1182.650152
_symmetry_space_group_name_H-M "P 21/C"
_symmetry_group_IT_number 14
_symmetry_cell_setting 'monoclinic'
loop_
_space_group_symop_operation_xyz
x,y,z
-x,1/2+y,1/2-z
-x,-y,-z
x,1/2-y,1/2+z
loop_
_atom_site_type_symbol
_atom_site_label
_atom_site_fract_x
_atom_site_fract_y
_atom_site_fract_z
Si Si1 0.154311 0.082294 0.378476
Si Si2 0.076221 0.752132 0.001494
Si Si3 0.392823 0.536920 0.891540
Si Si4 0.877222 0.436087 0.695433
Si Si5 0.534189 0.399518 0.665489
Si Si6 0.283493 0.796587 0.603128
Si Si7 0.650111 0.916785 0.957051
Si Si8 0.126968 0.217995 0.177882
O O1 0.169021 0.091359 0.253635
O O2 0.059555 0.226980 0.431487
O O3 0.096549 0.906243 0.422285
O O4 0.280076 0.070854 0.392266
O O5 0.120427 0.916982 0.929346
O O6 0.161111 0.716530 0.073131
O O7 0.492959 0.454737 0.791000
O O8 0.389112 0.730629 0.853730
O O9 0.371043 0.572671 0.020444
O O10 0.761707 0.348639 0.772760
O O11 0.879354 0.601938 0.766041
O O12 0.000478 0.343554 0.681274
O O13 0.431064 0.346581 0.612557
O O14 0.592993 0.554914 0.586318
O O15 0.333805 0.610967 0.581810
O O16 0.768220 0.809173 0.931159
#
# Coordination Sequence:
#
# PCOD9244518 Si02
#       8
#     4   4   4   4   4   4   4   4
#     4  10  20  41  67  95 139 182 230 287 361 422
#     4  10  22  41  68 100 142 186 229 288 356 434
#     4  10  22  41  69 103 134 182 243 294 361 414
#     4  12  26  41  67 105 147 183 233 286 350 453
#     4  10  22  44  72  98 138 184 245 308 357 418
#     4  10  22  43  70 103 139 190 234 286 362 433
#     4  10  22  45  68  97 140 194 233 295 365 419
#     4  12  24  42  66 101 143 189 231 284 364 429
#
# _framework density 27.057874000000002
#
# number of rings (size 3 to 8) (size 9 to 14) (size 15 to 20)
#    0.000    1.500    2.500    2.250    5.250    1.500 
#    6.750    0.000    0.000    4.500    0.000    0.000 
#    0.000    0.000    0.000    0.000    0.000    0.000 
#
# Total GULP energy -178884.528929 kJ/mol
# GULP energy per Si atom -5590.141529 kJ/mol
# Density = 2.699629 g / cm^3
# Si number density = 27.057874 Si / 1000 Ang^3
#
#
#
# Elastic Constant Matrix: (Units=GPa)
#
#
# Indices 1 2 3 4 5 6 
#
# 1 88.5961 29.2760 37.4285 0.0000 -23.0053 0.0000
# 2 29.2760 42.2106 13.7780 0.0000 -5.6129 0.0000
# 3 37.4285 13.7780 148.7945 0.0000 -39.5829 0.0000
# 4 0.0000 0.0000 0.0000 54.2630 0.0000 -12.0507
# 5 -23.0053 -5.6129 -39.5829 0.0000 39.7810 0.0000
# 6 0.0000 0.0000 0.0000 -12.0507 0.0000 22.1090
#
#
#
# Elastic Compliance Matrix: (Units=1/GPa)
#
#
# Indices 1 2 3 4 5 6 
#
# 1 0.017207 -0.010518 -0.001499 0.000000 0.006976 0.000000
# 2 -0.010518 0.030935 -0.000919 0.000000 -0.002632 0.000000
# 3 -0.001499 -0.000919 0.009408 0.000000 0.008365 0.000000
# 4 0.000000 0.000000 0.000000 0.020967 0.000000 0.011428
# 5 0.006976 -0.002632 0.008365 0.000000 0.037123 0.000000
# 6 0.000000 0.000000 0.000000 0.011428 0.000000 0.051459
#
#
# Mechanical properties :
#
#
# Convention : Reuss Voigt Hill
#
# Bulk Modulus (GPa) = 31.56595 48.95178 40.25887
# Shear Modulus (GPa) = 24.56632 36.50518 30.53575
#
# Velocity S-wave (km/s) = 3.01644 3.67706 3.36301
# Velocity P-wave (km/s) = 4.88091 6.01320 5.47639
#
# Compressibility (1/GPa) = 0.03167970
#
# Stress axis : x y z
#
# Youngs Moduli (GPa) = 58.11543 32.32538 106.29239
#
# Poissons Ratio (x) = 0.33998 0.15931
# Poissons Ratio (y) = 0.61123 0.09769
# Poissons Ratio (z) = 0.08710 0.02971
#
# Static dielectric constant tensor:
#      x y z
#    x 2.179730 0.000000 -0.030740 
#    y 0.000000 2.105590 0.000000 
#    z -0.030740 0.000000 2.179240 
# 
# From -- ./inp_files/46490.got.cif
#   From: 2010.05.17/outbox.cif.g08.bks.cpg/sg14_24_cif.got.tgz:46490.got - 2010.06.03 17:49:19.
