data_PCOD9244649
_publ_section_title
;
Structure prediction by ZEFSAII (Michael W. Deem and Ramdas Pophale) SiO2 
 PCOD9244649
Probable space group: P 21/C
;
_chemical_formula_sum "Si O2"
_cell_formula_units_Z 30
_cell_length_a 10.218093
_cell_length_b 5.171006
_cell_length_c 23.947139
_cell_angle_alpha 90.000000
_cell_angle_beta 116.593936
_cell_angle_gamma 90.000000
_cell_volume 1131.446389
_symmetry_space_group_name_H-M "P 21/C"
_symmetry_group_IT_number 14
_symmetry_cell_setting 'monoclinic'
loop_
_space_group_symop_operation_xyz
x,y,z
-x,1/2+y,1/2-z
-x,-y,-z
x,1/2-y,1/2+z
loop_
_atom_site_type_symbol
_atom_site_label
_atom_site_fract_x
_atom_site_fract_y
_atom_site_fract_z
Si Si1 0.570478 0.846131 0.110927
Si Si2 0.877618 0.711367 0.642256
Si Si3 0.658791 0.796861 0.316743
Si Si4 0.370665 0.848361 0.305031
Si Si5 0.906642 0.985846 0.906511
Si Si6 0.122782 0.984271 0.732671
Si Si7 0.732452 0.127039 0.439190
Si Si8 0.000000 0.500000 0.000000
O O1 0.706133 0.801628 0.095082
O O2 0.609592 0.627924 0.164715
O O3 0.402808 0.785164 0.062087
O O4 0.584720 0.130478 0.140412
O O5 0.978706 0.567196 0.617496
O O6 0.887932 0.589340 0.706922
O O7 0.967998 0.974363 0.671733
O O8 0.484984 0.792072 0.276900
O O9 0.738925 0.538208 0.353409
O O10 0.760110 0.877329 0.285078
O O11 0.674898 0.985108 0.373254
O O12 0.205515 0.791910 0.255494
O O13 0.950869 0.713415 0.940074
O O14 0.884805 0.221806 0.947115
O O15 0.827864 0.946778 0.496969
#
# Coordination Sequence:
#
# PCOD9244649 Si02
#       8
#     4   4   4   4   4   4   4   2
#     4  10  22  42  65  93 134 176 218 270 334 393
#     4  11  23  38  61  95 133 181 216 266 330 399
#     4  10  21  36  62  94 128 174 225 270 322 386
#     4  10  22  39  61  93 134 180 228 271 313 380
#     4  11  21  41  66  93 130 162 220 276 345 397
#     4  11  22  37  59  97 136 181 226 265 316 397
#     4  10  20  42  67  92 125 165 219 279 335 396
#     4  10  24  40  72 102 114 162 224 296 340 402
#
# _framework density 26.514733
#
# number of rings (size 3 to 8) (size 9 to 14) (size 15 to 20)
#    0.000    1.600    2.667    2.000    0.000    7.467 
#    0.000    0.667    0.000    1.600    0.000    0.000 
#    0.000    0.000    0.000    0.000    0.000    0.000 
#
# Total GULP energy -167283.909860 kJ/mol
# GULP energy per Si atom -5576.130329 kJ/mol
# Density = 2.645438 g / cm^3
# Si number density = 26.514733 Si / 1000 Ang^3
#
#
#
# Elastic Constant Matrix: (Units=GPa)
#
#
# Indices 1 2 3 4 5 6 
#
# 1 222.9721 21.8808 34.0939 0.0000 19.3052 0.0000
# 2 21.8808 85.5016 17.6558 0.0000 -2.8069 0.0000
# 3 34.0939 17.6558 44.3656 0.0000 26.0798 0.0000
# 4 0.0000 0.0000 0.0000 40.2613 0.0000 0.1579
# 5 19.3052 -2.8069 26.0798 0.0000 46.9717 0.0000
# 6 0.0000 0.0000 0.0000 0.1579 0.0000 34.7166
#
#
#
# Elastic Compliance Matrix: (Units=1/GPa)
#
#
# Indices 1 2 3 4 5 6 
#
# 1 0.005105 -0.000560 -0.003633 0.000000 -0.000115 0.000000
# 2 -0.000560 0.013764 -0.008411 0.000000 0.005723 0.000000
# 3 -0.003633 -0.008411 0.041710 0.000000 -0.022168 0.000000
# 4 0.000000 0.000000 0.000000 0.024838 0.000000 -0.000113
# 5 -0.000115 0.005723 -0.022168 0.000000 0.033987 0.000000
# 6 0.000000 0.000000 0.000000 -0.000113 0.000000 0.028805
#
#
# Mechanical properties :
#
#
# Convention : Reuss Voigt Hill
#
# Bulk Modulus (GPa) = 28.27170 55.56670 41.91920
# Shear Modulus (GPa) = 26.99663 43.00384 35.00023
#
# Velocity S-wave (km/s) = 3.19435 4.03163 3.63716
# Velocity P-wave (km/s) = 4.92858 6.53257 5.78642
#
# Compressibility (1/GPa) = 0.03537106
#
# Stress axis : x y z
#
# Youngs Moduli (GPa) = 195.87650 72.65463 23.97481
#
# Poissons Ratio (x) = 0.04069 0.08710
# Poissons Ratio (y) = 0.10970 0.20165
# Poissons Ratio (z) = 0.71163 0.61111
#
# Static dielectric constant tensor:
#      x y z
#    x 2.173830 0.000000 0.102980 
#    y 0.000000 2.318900 0.000000 
#    z 0.102980 0.000000 2.258980 
# 
# From -- ./inp_files/79266.got.cif
#   From: 2010.05.17/outbox.cif.g08.bks.cpg/sg14_40_cif.got.tgz:79266.got - 2010.06.03 17:49:19.
