data_PCOD9244496
_publ_section_title
;
Structure prediction by ZEFSAII (Michael W. Deem and Ramdas Pophale) SiO2 
 PCOD9244496
Probable space group: P 21/C
;
_chemical_formula_sum "Si O2"
_cell_formula_units_Z 28
_cell_length_a 15.805843
_cell_length_b 8.157071
_cell_length_c 10.267853
_cell_angle_alpha 90.000000
_cell_angle_beta 118.827922
_cell_angle_gamma 90.000000
_cell_volume 1159.768345
_symmetry_space_group_name_H-M "P 21/C"
_symmetry_group_IT_number 14
_symmetry_cell_setting 'monoclinic'
loop_
_space_group_symop_operation_xyz
x,y,z
-x,1/2+y,1/2-z
-x,-y,-z
x,1/2-y,1/2+z
loop_
_atom_site_type_symbol
_atom_site_label
_atom_site_fract_x
_atom_site_fract_y
_atom_site_fract_z
Si Si1 0.249009 0.379861 0.908583
Si Si2 0.784132 0.407215 0.857781
Si Si3 0.082382 0.131170 0.689508
Si Si4 0.424037 0.996449 0.829794
Si Si5 0.754110 0.459783 0.361167
Si Si6 0.408379 0.321151 0.660914
Si Si7 0.950406 0.865750 0.053802
O O1 0.163766 0.263822 0.792576
O O2 0.261112 0.513046 0.804232
O O3 0.219947 0.468710 0.021850
O O4 0.346431 0.273404 0.002846
O O5 0.861364 0.467954 0.810074
O O6 0.678823 0.421580 0.714484
O O7 0.791737 0.222295 0.912434
O O8 0.038149 0.201139 0.522395
O O9 0.017019 0.124215 0.771113
O O10 0.407802 0.179585 0.767935
O O11 0.481820 0.879782 0.772894
O O12 0.500000 0.000000 0.000000
O O13 0.655494 0.519709 0.353328
O O14 0.837355 0.583751 0.471289
O O15 0.000000 0.000000 0.000000
#
# Coordination Sequence:
#
# PCOD9244496 Si02
#       7
#     4   4   4   4   4   4   4
#     4  10  20  41  66  92 126 183 221 269 337 400
#     4  11  24  39  66  98 130 179 222 282 330 405
#     4  11  21  48  70  97 137 179 222 267 342 399
#     4  11  23  37  60  89 128 172 228 272 335 390
#     4  11  24  40  67  94 134 171 228 274 343 404
#     4  11  21  40  60  93 128 178 221 279 333 398
#     4  11  25  45  74 102 135 178 223 276 332 403
#
# _framework density 24.142752999999999
#
# number of rings (size 3 to 8) (size 9 to 14) (size 15 to 20)
#    0.000    1.143    2.857    5.143    2.000    3.429 
#    2.571    6.429    0.000    0.000    0.000    0.000 
#    0.000    0.000    0.000    0.000    0.000    0.000 
#
# Total GULP energy -156597.204296 kJ/mol
# GULP energy per Si atom -5592.757296 kJ/mol
# Density = 2.408780 g / cm^3
# Si number density = 24.142753 Si / 1000 Ang^3
#
#
#
# Elastic Constant Matrix: (Units=GPa)
#
#
# Indices 1 2 3 4 5 6 
#
# 1 94.1423 34.6053 34.0022 0.0000 -8.5307 0.0000
# 2 34.6053 112.1930 16.5735 0.0000 -11.8508 0.0000
# 3 34.0022 16.5735 79.2612 0.0000 -7.5193 0.0000
# 4 0.0000 0.0000 0.0000 19.8247 0.0000 0.9364
# 5 -8.5307 -11.8508 -7.5193 0.0000 38.4144 0.0000
# 6 0.0000 0.0000 0.0000 0.9364 0.0000 38.2994
#
#
#
# Elastic Compliance Matrix: (Units=1/GPa)
#
#
# Indices 1 2 3 4 5 6 
#
# 1 0.013812 -0.003397 -0.005118 0.000000 0.001017 0.000000
# 2 -0.003397 0.010276 -0.000471 0.000000 0.002324 0.000000
# 3 -0.005118 -0.000471 0.015069 0.000000 0.001668 0.000000
# 4 0.000000 0.000000 0.000000 0.050500 0.000000 -0.001235
# 5 0.001017 0.002324 0.001668 0.000000 0.027301 0.000000
# 6 0.000000 0.000000 0.000000 -0.001235 0.000000 0.026140
#
#
# Mechanical properties :
#
#
# Convention : Reuss Voigt Hill
#
# Bulk Modulus (GPa) = 47.20453 50.66205 48.93329
# Shear Modulus (GPa) = 29.73862 32.66874 31.20368
#
# Velocity S-wave (km/s) = 3.51348 3.68251 3.59899
# Velocity P-wave (km/s) = 6.00451 6.25388 6.13046
#
# Compressibility (1/GPa) = 0.02118441
#
# Stress axis : x y z
#
# Youngs Moduli (GPa) = 72.40322 97.31508 66.36170
#
# Poissons Ratio (x) = 0.33053 0.33966
# Poissons Ratio (y) = 0.24592 0.03127
# Poissons Ratio (z) = 0.37058 0.04585
#
# Static dielectric constant tensor:
#      x y z
#    x 2.287740 0.000000 -0.111600 
#    y 0.000000 1.336070 0.000000 
#    z -0.111600 0.000000 1.978150 
# 
# From -- ./inp_files/31899.got.cif
#   From: 2010.05.17/outbox.cif.g08.bks.cpg/sg14_16_cif.got.tgz:31899.got - 2010.06.03 17:49:19.
