data_PCOD9244745
_publ_section_title
;
Structure prediction by ZEFSAII (Michael W. Deem and Ramdas Pophale) SiO2 
 PCOD9244745
Probable space group: P 21/C
;
_chemical_formula_sum "Si O2"
_cell_formula_units_Z 32
_cell_length_a 6.792661
_cell_length_b 10.670198
_cell_length_c 22.544232
_cell_angle_alpha 90.000000
_cell_angle_beta 121.745509
_cell_angle_gamma 90.000000
_cell_volume 1389.529528
_symmetry_space_group_name_H-M "P 21/C"
_symmetry_group_IT_number 14
_symmetry_cell_setting 'monoclinic'
loop_
_space_group_symop_operation_xyz
x,y,z
-x,1/2+y,1/2-z
-x,-y,-z
x,1/2-y,1/2+z
loop_
_atom_site_type_symbol
_atom_site_label
_atom_site_fract_x
_atom_site_fract_y
_atom_site_fract_z
Si Si1 0.068889 0.892532 0.090118
Si Si2 0.656737 0.428314 0.781629
Si Si3 0.503376 0.217848 0.371604
Si Si4 0.019924 0.851980 0.337715
Si Si5 0.196827 0.310696 0.022759
Si Si6 0.021671 0.798380 0.209330
Si Si7 0.765413 0.644290 0.365826
Si Si8 0.275946 0.581768 0.993072
O O1 0.310268 0.828004 0.109117
O O2 0.045465 0.890200 0.157656
O O3 0.082735 0.038659 0.076880
O O4 0.872708 0.800176 0.033449
O O5 0.569428 0.386166 0.832699
O O6 0.796767 0.556910 0.806140
O O7 0.445388 0.420101 0.702201
O O8 0.840073 0.324455 0.788793
O O9 0.245402 0.265472 0.322029
O O10 0.532813 0.160594 0.441557
O O11 0.111630 0.851068 0.285606
O O12 0.925227 0.717770 0.344376
O O13 0.210938 0.895121 0.414858
O O14 0.318255 0.244061 0.097942
O O15 0.303359 0.434542 0.010615
O O16 0.956486 0.365539 0.011224
#
# Coordination Sequence:
#
# PCOD9244745 Si02
#       8
#     4   4   4   4   4   4   4   4
#     4  10  22  40  66  93 130 175 216 267 338 394
#     4  11  24  41  63  91 132 176 220 271 329 396
#     4  10  20  43  68  94 133 174 211 271 339 382
#     4  11  23  42  66  98 131 171 224 270 329 397
#     4   9  18  39  66  98 126 170 224 271 324 398
#     4  11  24  41  64  97 136 172 218 273 330 399
#     4  11  22  39  68  94 127 178 220 271 333 394
#     4   9  18  38  70  95 128 171 219 276 328 386
#
# _framework density 23.029375999999999
#
# number of rings (size 3 to 8) (size 9 to 14) (size 15 to 20)
#    0.000    1.750    1.250    4.875    3.500    0.000 
#    4.500    1.250    0.000    3.750    0.000    0.000 
#    0.000    0.000    0.000    0.000    0.000    0.000 
#
# Total GULP energy -179034.594799 kJ/mol
# GULP energy per Si atom -5594.831087 kJ/mol
# Density = 2.297696 g / cm^3
# Si number density = 23.029376 Si / 1000 Ang^3
#
#
#
# Elastic Constant Matrix: (Units=GPa)
#
#
# Indices 1 2 3 4 5 6 
#
# 1 70.4781 10.5473 18.0994 0.0000 -8.5704 0.0000
# 2 10.5473 105.2802 34.3109 0.0000 -7.0532 0.0000
# 3 18.0994 34.3109 138.3532 0.0000 -21.4066 0.0000
# 4 0.0000 0.0000 0.0000 14.5715 0.0000 -11.6747
# 5 -8.5704 -7.0532 -21.4066 0.0000 39.0144 0.0000
# 6 0.0000 0.0000 0.0000 -11.6747 0.0000 5.9779
#
#
#
# Elastic Compliance Matrix: (Units=1/GPa)
#
#
# Indices 1 2 3 4 5 6 
#
# 1 0.014963 -0.000894 -0.001368 0.000000 0.002375 0.000000
# 2 -0.000894 0.010396 -0.002405 0.000000 0.000363 0.000000
# 3 -0.001368 -0.002405 0.008621 0.000000 0.003995 0.000000
# 4 0.000000 0.000000 0.000000 -0.121525 0.000000 -0.237333
# 5 0.002375 0.000363 0.003995 0.000000 0.028411 0.000000
# 6 0.000000 0.000000 0.000000 -0.237333 0.000000 -0.296222
#
#
# Mechanical properties :
#
#
# Convention : Reuss Voigt Hill
#
# Bulk Modulus (GPa) = 40.57501 48.89186 44.73344
# Shear Modulus (GPa) = -14.80141 28.65634 6.92746
#
# Velocity S-wave (km/s) = -2.53794 3.53135 1.73627
# Velocity P-wave (km/s) = 3.01146 6.15658 4.84625
#
# Compressibility (1/GPa) = 0.02464571
#
# Stress axis : x y z
#
# Youngs Moduli (GPa) = 66.83264 96.18931 115.98974
#
# Poissons Ratio (x) = 0.08599 0.15871
# Poissons Ratio (y) = 0.05975 0.27896
# Poissons Ratio (z) = 0.09145 0.23134
#
# Static dielectric constant tensor:
#      x y z
#    x 1.849090 0.000000 -0.017990 
#    y 0.000000 1.847590 0.000000 
#    z -0.017990 0.000000 1.876160 
# 
# From -- ./inp_files/71314.got.cif
#   From: 2010.05.17/outbox.cif.g08.bks.cpg/sg14_36_cif.got.tgz:71314.got - 2010.06.03 17:49:19.
