data_PCOD9244437
_publ_section_title
;
Structure prediction by ZEFSAII (Michael W. Deem and Ramdas Pophale) SiO2 
 PCOD9244437
Probable space group: P 21/C
;
_chemical_formula_sum "Si O2"
_cell_formula_units_Z 28
_cell_length_a 9.485515
_cell_length_b 14.470172
_cell_length_c 11.814017
_cell_angle_alpha 90.000000
_cell_angle_beta 127.739202
_cell_angle_gamma 90.000000
_cell_volume 1282.335227
_symmetry_space_group_name_H-M "P 21/C"
_symmetry_group_IT_number 14
_symmetry_cell_setting 'monoclinic'
loop_
_space_group_symop_operation_xyz
x,y,z
-x,1/2+y,1/2-z
-x,-y,-z
x,1/2-y,1/2+z
loop_
_atom_site_type_symbol
_atom_site_label
_atom_site_fract_x
_atom_site_fract_y
_atom_site_fract_z
Si Si1 0.002752 0.785399 0.944007
Si Si2 0.122624 0.088181 0.569592
Si Si3 0.450188 0.902565 0.530780
Si Si4 0.332658 0.173412 0.067149
Si Si5 0.534924 0.004103 0.235780
Si Si6 0.354317 0.826908 0.258099
Si Si7 0.183703 0.179613 0.353061
O O1 0.968088 0.676305 0.919648
O O2 0.830472 0.827100 0.924330
O O3 0.988612 0.826925 0.810927
O O4 0.178469 0.798966 0.104372
O O5 0.169871 0.123199 0.464200
O O6 0.296519 0.053756 0.722174
O O7 0.000000 0.000000 0.500000
O O8 0.391160 0.928100 0.627404
O O9 0.331415 0.846963 0.381764
O O10 0.640629 0.852847 0.626508
O O11 0.500000 0.000000 0.500000
O O12 0.425449 0.074045 0.104068
O O13 0.487198 0.250148 0.173061
O O14 0.233278 0.215878 0.910264
O O15 0.413971 0.924542 0.232689
#
# Coordination Sequence:
#
# PCOD9244437 Si02
#       7
#     4   4   4   4   4   4   4
#     4  11  22  42  63  92 131 169 210 277 317 387
#     4  11  23  43  64  92 130 170 216 258 331 390
#     4   9  16  35  64  91 114 166 211 256 310 380
#     4  10  21  40  62  93 129 166 210 270 320 380
#     4  11  19  39  69  92 125 170 214 264 321 384
#     4  10  21  39  62  94 127 166 219 259 322 383
#     4  10  20  41  62  90 133 163 213 265 325 379
#
# _framework density 21.835166000000001
#
# number of rings (size 3 to 8) (size 9 to 14) (size 15 to 20)
#    0.000    1.714    7.143    0.857    0.000    0.571 
#   12.857    2.143    0.000    0.000    0.000    0.000 
#    0.000    0.000    0.000    0.000    0.000    0.000 
#
# Total GULP energy -156090.382646 kJ/mol
# GULP energy per Si atom -5574.656523 kJ/mol
# Density = 2.178547 g / cm^3
# Si number density = 21.835166 Si / 1000 Ang^3
#
#
#
# Elastic Constant Matrix: (Units=GPa)
#
#
# Indices 1 2 3 4 5 6 
#
# 1 28.6312 19.6194 24.0101 0.0000 12.7397 0.0000
# 2 19.6194 80.7076 20.7628 0.0000 9.1616 0.0000
# 3 24.0101 20.7628 140.7051 0.0000 17.2229 0.0000
# 4 0.0000 0.0000 0.0000 33.5803 0.0000 7.6289
# 5 12.7397 9.1616 17.2229 0.0000 14.2369 0.0000
# 6 0.0000 0.0000 0.0000 7.6289 0.0000 24.2721
#
#
#
# Elastic Compliance Matrix: (Units=1/GPa)
#
#
# Indices 1 2 3 4 5 6 
#
# 1 0.066400 -0.009621 -0.003986 0.000000 -0.048404 0.000000
# 2 -0.009621 0.014902 -0.000513 0.000000 -0.000359 0.000000
# 3 -0.003986 -0.000513 0.008670 0.000000 -0.006591 0.000000
# 4 0.000000 0.000000 0.000000 0.032069 0.000000 -0.010080
# 5 -0.048404 -0.000359 -0.006591 0.000000 0.121758 0.000000
# 6 0.000000 0.000000 0.000000 -0.010080 0.000000 0.044368
#
#
# Mechanical properties :
#
#
# Convention : Reuss Voigt Hill
#
# Bulk Modulus (GPa) = 16.19935 42.09208 29.14571
# Shear Modulus (GPa) = 14.83743 26.79461 20.81602
#
# Velocity S-wave (km/s) = 2.60959 3.50684 3.09095
# Velocity P-wave (km/s) = 4.06386 5.97631 5.11035
#
# Compressibility (1/GPa) = 0.06173087
#
# Stress axis : x y z
#
# Youngs Moduli (GPa) = 15.06021 67.10467 115.34359
#
# Poissons Ratio (x) = 0.64564 0.45976
# Poissons Ratio (y) = 0.14490 0.05920
# Poissons Ratio (z) = 0.06003 0.03444
#
# Static dielectric constant tensor:
#      x y z
#    x 1.856200 0.000000 -0.015880 
#    y 0.000000 1.737300 0.000000 
#    z -0.015880 0.000000 1.759820 
# 
# From -- ./inp_files/44940.got.cif
#   From: 2010.05.17/outbox.cif.g08.bks.cpg/sg14_23_cif.got.tgz:44940.got - 2010.06.03 17:49:19.
