data_PCOD9244209
_publ_section_title
;
Structure prediction by ZEFSAII (Michael W. Deem and Ramdas Pophale) SiO2 
 PCOD9244209
Probable space group: P 21/C
;
_chemical_formula_sum "Si O2"
_cell_formula_units_Z 20
_cell_length_a 9.113658
_cell_length_b 11.915542
_cell_length_c 10.983809
_cell_angle_alpha 90.000000
_cell_angle_beta 42.737202
_cell_angle_gamma 90.000000
_cell_volume 809.462710
_symmetry_space_group_name_H-M "P 21/C"
_symmetry_group_IT_number 14
_symmetry_cell_setting 'monoclinic'
loop_
_space_group_symop_operation_xyz
x,y,z
-x,1/2+y,1/2-z
-x,-y,-z
x,1/2-y,1/2+z
loop_
_atom_site_type_symbol
_atom_site_label
_atom_site_fract_x
_atom_site_fract_y
_atom_site_fract_z
Si Si1 0.286814 0.831873 0.621549
Si Si2 0.506926 0.389344 0.410597
Si Si3 0.230656 0.459948 0.910862
Si Si4 0.121607 0.208805 0.283209
Si Si5 0.247296 0.064595 0.689915
O O1 0.322148 0.709025 0.657533
O O2 0.519329 0.877497 0.436201
O O3 0.112454 0.828655 0.620482
O O4 0.223161 0.937161 0.747367
O O5 0.500000 0.500000 0.500000
O O6 0.587120 0.450569 0.239783
O O7 0.278113 0.327498 0.573800
O O8 0.245423 0.346082 0.822299
O O9 0.220446 0.438012 0.059322
O O10 0.000000 0.500000 0.000000
O O11 0.091096 0.339539 0.330429
#
# Coordination Sequence:
#
# PCOD9244209 Si02
#       5
#     4   4   4   4   4
#     4  10  20  40  63  86 133 161 204 272 318 373
#     4   9  21  39  61  92 127 164 209 259 317 384
#     4  11  20  40  68  92 124 177 216 252 325 399
#     4  10  21  40  64  92 128 167 209 268 324 383
#     4  10  22  40  62  97 126 166 213 262 328 380
#
# _framework density 24.707747000000001
#
# number of rings (size 3 to 8) (size 9 to 14) (size 15 to 20)
#    0.000    2.000    2.000    1.200    2.800    0.000 
#   28.800    1.000    0.000    0.000    0.000    0.000 
#    0.000    0.000    0.000    0.000    0.000    0.000 
#
# Total GULP energy -111472.071058 kJ/mol
# GULP energy per Si atom -5573.603553 kJ/mol
# Density = 2.465151 g / cm^3
# Si number density = 24.707747 Si / 1000 Ang^3
#
#
#
# Elastic Constant Matrix: (Units=GPa)
#
#
# Indices 1 2 3 4 5 6 
#
# 1 102.1364 27.1246 19.6444 0.0000 -3.0909 0.0000
# 2 27.1246 220.6695 14.9155 0.0000 11.3523 0.0000
# 3 19.6444 14.9155 52.7831 0.0000 10.7694 0.0000
# 4 0.0000 0.0000 0.0000 20.4204 0.0000 -6.7602
# 5 -3.0909 11.3523 10.7694 0.0000 30.4354 0.0000
# 6 0.0000 0.0000 0.0000 -6.7602 0.0000 31.3658
#
#
#
# Elastic Compliance Matrix: (Units=1/GPa)
#
#
# Indices 1 2 3 4 5 6 
#
# 1 0.011059 -0.001223 -0.004411 0.000000 0.003140 0.000000
# 2 -0.001223 0.004808 -0.000552 0.000000 -0.001722 0.000000
# 3 -0.004411 -0.000552 0.022410 0.000000 -0.008172 0.000000
# 4 0.000000 0.000000 0.000000 0.052733 0.000000 0.011365
# 5 0.003140 -0.001722 -0.008172 0.000000 0.036709 0.000000
# 6 0.000000 0.000000 0.000000 0.011365 0.000000 0.034331
#
#
# Mechanical properties :
#
#
# Convention : Reuss Voigt Hill
#
# Bulk Modulus (GPa) = 38.60183 55.43977 47.02080
# Shear Modulus (GPa) = 27.31375 37.37129 32.34252
#
# Velocity S-wave (km/s) = 3.32847 3.89335 3.62194
# Velocity P-wave (km/s) = 5.51624 6.53436 6.04677
#
# Compressibility (1/GPa) = 0.02590551
#
# Stress axis : x y z
#
# Youngs Moduli (GPa) = 90.42436 207.99185 44.62199
#
# Poissons Ratio (x) = 0.25432 0.19683
# Poissons Ratio (y) = 0.11057 0.02464
# Poissons Ratio (z) = 0.39886 0.11485
#
# Static dielectric constant tensor:
#      x y z
#    x 1.962480 0.000000 -0.006660 
#    y 0.000000 2.170020 0.000000 
#    z -0.006660 0.000000 2.130490 
# 
# From -- ./inp_files/23616.got.cif
#   From: 2010.05.17/outbox.cif.g08.bks.cpg/sg14_12_cif.got.tgz:23616.got - 2010.06.03 17:49:19.
