data_PCOD9244617
_publ_section_title
;
Structure prediction by ZEFSAII (Michael W. Deem and Ramdas Pophale) SiO2 
 PCOD9244617
Probable space group: P 21/C
;
_chemical_formula_sum "Si O2"
_cell_formula_units_Z 20
_cell_length_a 16.495491
_cell_length_b 7.780723
_cell_length_c 17.584283
_cell_angle_alpha 90.000000
_cell_angle_beta 157.410868
_cell_angle_gamma 90.000000
_cell_volume 866.915986
_symmetry_space_group_name_H-M "P 21/C"
_symmetry_group_IT_number 14
_symmetry_cell_setting 'monoclinic'
loop_
_space_group_symop_operation_xyz
x,y,z
-x,1/2+y,1/2-z
-x,-y,-z
x,1/2-y,1/2+z
loop_
_atom_site_type_symbol
_atom_site_label
_atom_site_fract_x
_atom_site_fract_y
_atom_site_fract_z
Si Si1 0.275962 0.554722 0.767280
Si Si2 0.701909 0.231533 0.977413
Si Si3 0.901910 0.734139 0.287597
Si Si4 0.277486 0.575129 0.338073
Si Si5 0.559108 0.605276 0.881297
O O1 0.122205 0.410568 0.668253
O O2 0.224409 0.747570 0.748966
O O3 0.343469 0.555561 0.738168
O O4 0.500000 0.500000 0.000000
O O5 0.691588 0.432554 0.987165
O O6 0.501319 0.185827 0.751281
O O7 0.702286 0.128597 0.056033
O O8 0.907346 0.201966 0.104311
O O9 0.895019 0.924065 0.317247
O O10 0.693185 0.726231 0.052889
O O11 0.500000 0.500000 0.500000
#
# Coordination Sequence:
#
# PCOD9244617 Si02
#       5
#     4   4   4   4   4
#     4  10  20  42  65  93 131 173 212 263 330 385
#     4  12  25  41  68 100 130 171 220 271 320 385
#     4  11  23  44  69  96 130 170 222 267 322 387
#     4  12  21  40  72  94 129 180 213 260 334 390
#     4  11  23  43  65  95 134 169 214 269 327 381
#
# _framework density 23.070288000000001
#
# number of rings (size 3 to 8) (size 9 to 14) (size 15 to 20)
#    0.000    0.800    8.000    2.400    0.000    0.800 
#    3.600    1.000    0.000    0.000    0.000    0.000 
#    0.000    0.000    0.000    0.000    0.000    0.000 
#
# Total GULP energy -111908.864162 kJ/mol
# GULP energy per Si atom -5595.443208 kJ/mol
# Density = 2.301778 g / cm^3
# Si number density = 23.070288 Si / 1000 Ang^3
#
#
#
# Elastic Constant Matrix: (Units=GPa)
#
#
# Indices 1 2 3 4 5 6 
#
# 1 121.7777 34.7980 12.1519 0.0000 14.7543 0.0000
# 2 34.7980 150.4757 4.5089 0.0000 -1.8806 0.0000
# 3 12.1519 4.5089 45.6813 0.0000 10.5473 0.0000
# 4 0.0000 0.0000 0.0000 8.7511 0.0000 2.6751
# 5 14.7543 -1.8806 10.5473 0.0000 30.8545 0.0000
# 6 0.0000 0.0000 0.0000 2.6751 0.0000 45.7833
#
#
#
# Elastic Compliance Matrix: (Units=1/GPa)
#
#
# Indices 1 2 3 4 5 6 
#
# 1 0.009486 -0.002206 -0.001332 0.000000 -0.004215 0.000000
# 2 -0.002206 0.007192 -0.000508 0.000000 0.001667 0.000000
# 3 -0.001332 -0.000508 0.024054 0.000000 -0.007616 0.000000
# 4 0.000000 0.000000 0.000000 0.116349 0.000000 -0.006798
# 5 -0.004215 0.001667 -0.007616 0.000000 0.037131 0.000000
# 6 0.000000 0.000000 0.000000 -0.006798 0.000000 0.022239
#
#
# Mechanical properties :
#
#
# Convention : Reuss Voigt Hill
#
# Bulk Modulus (GPa) = 30.63878 46.76137 38.70008
# Shear Modulus (GPa) = 21.23831 34.84284 28.04057
#
# Velocity S-wave (km/s) = 3.03742 3.89046 3.49010
# Velocity P-wave (km/s) = 5.06070 6.36349 5.74912
#
# Compressibility (1/GPa) = 0.03263838
#
# Stress axis : x y z
#
# Youngs Moduli (GPa) = 105.42081 139.04582 41.57332
#
# Poissons Ratio (x) = 0.30679 0.05539
# Poissons Ratio (y) = 0.23260 0.02111
# Poissons Ratio (z) = 0.14046 0.07061
#
# Static dielectric constant tensor:
#      x y z
#    x 1.849590 0.000000 -0.033530 
#    y 0.000000 2.070400 0.000000 
#    z -0.033530 0.000000 1.963910 
# 
# From -- ./inp_files/58823.got.cif
#   From: 2010.05.17/outbox.cif.g08.bks.cpg/sg14_30_cif.got.tgz:58823.got - 2010.06.03 17:49:19.
