data_PCOD9244352
_publ_section_title
;
Structure prediction by ZEFSAII (Michael W. Deem and Ramdas Pophale) SiO2 
 PCOD9244352
Probable space group: P 21/C
;
_chemical_formula_sum "Si O2"
_cell_formula_units_Z 30
_cell_length_a 18.621851
_cell_length_b 5.794289
_cell_length_c 12.681972
_cell_angle_alpha 90.000000
_cell_angle_beta 59.662024
_cell_angle_gamma 90.000000
_cell_volume 1181.003706
_symmetry_space_group_name_H-M "P 21/C"
_symmetry_group_IT_number 14
_symmetry_cell_setting 'monoclinic'
loop_
_space_group_symop_operation_xyz
x,y,z
-x,1/2+y,1/2-z
-x,-y,-z
x,1/2-y,1/2+z
loop_
_atom_site_type_symbol
_atom_site_label
_atom_site_fract_x
_atom_site_fract_y
_atom_site_fract_z
Si Si1 0.000000 0.500000 0.000000
Si Si2 0.581703 0.231681 0.089082
Si Si3 0.995883 0.092269 0.793850
Si Si4 0.142126 0.340162 0.490838
Si Si5 0.581887 0.533439 0.796342
Si Si6 0.858755 0.145451 0.191825
Si Si7 0.300300 0.413619 0.887252
Si Si8 0.308066 0.679879 0.661670
O O1 0.065528 0.311598 0.004836
O O2 0.080405 0.661484 0.901150
O O3 0.497656 0.331196 0.101590
O O4 0.552576 0.135619 0.224011
O O5 0.650621 0.422678 0.069508
O O6 0.632763 0.067085 0.971028
O O7 0.077826 0.024188 0.796610
O O8 0.001140 0.873327 0.706821
O O9 0.905841 0.030043 0.905051
O O10 0.182341 0.487022 0.367438
O O11 0.211753 0.183088 0.491670
O O12 0.641457 0.704076 0.688762
O O13 0.635319 0.394041 0.841465
O O14 0.783051 0.252361 0.312427
O O15 0.288481 0.542449 0.783515
#
# Coordination Sequence:
#
# PCOD9244352 Si02
#       8
#     2   4   4   4   4   4   4   4
#     4  10  20  40  68  86 130 176 226 284 344 424
#     4  11  25  44  70 105 141 185 228 305 351 446
#     4  11  28  43  68 105 143 185 240 303 364 441
#     4  11  24  43  70  92 137 185 234 290 363 428
#     4  11  23  47  69 100 141 182 231 281 373 423
#     4  11  24  43  70  96 133 188 237 286 363 428
#     4  11  24  44  71 101 137 182 234 293 355 434
#     4  11  25  43  71 102 138 181 244 290 355 435
#
# _framework density 25.40212
#
# number of rings (size 3 to 8) (size 9 to 14) (size 15 to 20)
#    0.000    1.067    4.000    2.000    9.333    2.667 
#    0.000    0.000    0.000    0.000    0.000    0.000 
#    0.000    0.000    0.000    0.000    0.000    0.000 
#
# Total GULP energy -167150.673817 kJ/mol
# GULP energy per Si atom -5571.689127 kJ/mol
# Density = 2.534430 g / cm^3
# Si number density = 25.402120 Si / 1000 Ang^3
#
#
#
# Elastic Constant Matrix: (Units=GPa)
#
#
# Indices 1 2 3 4 5 6 
#
# 1 102.0681 16.8390 20.9323 0.0000 -29.0184 0.0000
# 2 16.8390 68.5703 2.5048 0.0000 1.6947 0.0000
# 3 20.9323 2.5048 80.6184 0.0000 -33.0561 0.0000
# 4 0.0000 0.0000 0.0000 36.1085 0.0000 -2.9016
# 5 -29.0184 1.6947 -33.0561 0.0000 38.4054 0.0000
# 6 0.0000 0.0000 0.0000 -2.9016 0.0000 30.2909
#
#
#
# Elastic Compliance Matrix: (Units=1/GPa)
#
#
# Indices 1 2 3 4 5 6 
#
# 1 0.013360 -0.003610 0.001310 0.000000 0.011381 0.000000
# 2 -0.003610 0.015639 -0.001468 0.000000 -0.004681 0.000000
# 3 0.001310 -0.001468 0.019382 0.000000 0.017737 0.000000
# 4 0.000000 0.000000 0.000000 0.027909 0.000000 0.002673
# 5 0.011381 -0.004681 0.017737 0.000000 0.050111 0.000000
# 6 0.000000 0.000000 0.000000 0.002673 0.000000 0.033269
#
#
# Mechanical properties :
#
#
# Convention : Reuss Voigt Hill
#
# Bulk Modulus (GPa) = 24.48231 36.86767 30.67499
# Shear Modulus (GPa) = 27.65136 35.02634 31.33885
#
# Velocity S-wave (km/s) = 3.30289 3.71735 3.51623
# Velocity P-wave (km/s) = 4.91978 5.74195 5.34670
#
# Compressibility (1/GPa) = 0.04084581
#
# Stress axis : x y z
#
# Youngs Moduli (GPa) = 74.84979 63.94102 51.59299
#
# Poissons Ratio (x) = 0.23083 -0.06759
# Poissons Ratio (y) = 0.27021 0.07574
# Poissons Ratio (z) = -0.09806 0.09387
#
# Static dielectric constant tensor:
#      x y z
#    x 1.977650 0.000000 0.094890 
#    y 0.000000 2.021240 0.000000 
#    z 0.094890 0.000000 1.980010 
# 
# From -- ./inp_files/48128.got.cif
#   From: 2010.05.17/outbox.cif.g08.bks.cpg/sg14_25_cif.got.tgz:48128.got - 2010.06.03 17:49:19.
