data_PCOD9244704
_publ_section_title
;
Structure prediction by ZEFSAII (Michael W. Deem and Ramdas Pophale) SiO2 
 PCOD9244704
Probable space group: P 21/C
;
_chemical_formula_sum "Si O2"
_cell_formula_units_Z 26
_cell_length_a 9.186897
_cell_length_b 12.575933
_cell_length_c 9.288188
_cell_angle_alpha 90.000000
_cell_angle_beta 110.548469
_cell_angle_gamma 90.000000
_cell_volume 1004.824341
_symmetry_space_group_name_H-M "P 21/C"
_symmetry_group_IT_number 14
_symmetry_cell_setting 'monoclinic'
loop_
_space_group_symop_operation_xyz
x,y,z
-x,1/2+y,1/2-z
-x,-y,-z
x,1/2-y,1/2+z
loop_
_atom_site_type_symbol
_atom_site_label
_atom_site_fract_x
_atom_site_fract_y
_atom_site_fract_z
Si Si1 0.931596 0.804541 0.717483
Si Si2 0.817078 0.529460 0.972639
Si Si3 0.236409 0.804034 0.428680
Si Si4 0.674145 0.604602 0.327686
Si Si5 0.500000 0.000000 0.500000
Si Si6 0.277199 0.406558 0.352076
Si Si7 0.540981 0.198532 0.759212
O O1 0.921362 0.876568 0.571892
O O2 0.104849 0.772220 0.821033
O O3 0.837889 0.868287 0.809057
O O4 0.830918 0.697289 0.662049
O O5 0.160190 0.584468 0.947040
O O6 0.646525 0.558564 0.970132
O O7 0.807481 0.524525 0.798364
O O8 0.326743 0.753229 0.594214
O O9 0.366159 0.838437 0.353494
O O10 0.700594 0.542147 0.484770
O O11 0.560686 0.549668 0.176075
O O12 0.582181 0.712390 0.335597
O O13 0.439293 0.370031 0.336640
#
# Coordination Sequence:
#
# PCOD9244704 Si02
#       7
#     4   4   4   4   2   4   4
#     4  10  25  45  74 104 157 197 243 311 385 444
#     4  11  24  45  77 107 145 199 250 314 374 450
#     4  12  26  47  75 109 150 197 250 311 383 449
#     4  10  21  43  73 108 146 203 238 305 378 444
#     4  10  20  42  72 108 144 178 256 302 354 440
#     4  11  23  43  73 107 149 195 252 304 381 448
#     4  11  23  44  73 108 150 193 245 316 377 436
#
# _framework density 25.875171000000002
#
# number of rings (size 3 to 8) (size 9 to 14) (size 15 to 20)
#    0.000    1.231    3.077    2.769    6.462    1.231 
#    0.000    2.308    0.000    0.000    0.000    0.000 
#    0.000    0.000    0.000    0.000    0.000    0.000 
#
# Total GULP energy -145309.129236 kJ/mol
# GULP energy per Si atom -5588.812663 kJ/mol
# Density = 2.581628 g / cm^3
# Si number density = 25.875171 Si / 1000 Ang^3
#
#
#
# Elastic Constant Matrix: (Units=GPa)
#
#
# Indices 1 2 3 4 5 6 
#
# 1 151.3040 33.5369 42.5244 0.0000 2.6812 0.0000
# 2 33.5369 48.2649 14.8424 0.0000 -4.1229 0.0000
# 3 42.5244 14.8424 171.7445 0.0000 -17.7957 0.0000
# 4 0.0000 0.0000 0.0000 10.2307 0.0000 17.1049
# 5 2.6812 -4.1229 -17.7957 0.0000 45.0281 0.0000
# 6 0.0000 0.0000 0.0000 17.1049 0.0000 36.5087
#
#
#
# Elastic Compliance Matrix: (Units=1/GPa)
#
#
# Indices 1 2 3 4 5 6 
#
# 1 0.008332 -0.005389 -0.001772 0.000000 -0.001690 0.000000
# 2 -0.005389 0.024840 -0.000567 0.000000 0.002371 0.000000
# 3 -0.001772 -0.000567 0.006586 0.000000 0.002656 0.000000
# 4 0.000000 0.000000 0.000000 0.451114 0.000000 -0.211355
# 5 -0.001690 0.002371 0.002656 0.000000 0.023576 0.000000
# 6 0.000000 0.000000 0.000000 -0.211355 0.000000 0.126414
#
#
# Mechanical properties :
#
#
# Convention : Reuss Voigt Hill
#
# Bulk Modulus (GPa) = 41.14889 61.45784 51.30336
# Shear Modulus (GPa) = 7.52538 37.04749 22.28644
#
# Velocity S-wave (km/s) = 1.70724 3.78799 2.93799
# Velocity P-wave (km/s) = 4.45237 6.55248 5.60172
#
# Compressibility (1/GPa) = 0.02430199
#
# Stress axis : x y z
#
# Youngs Moduli (GPa) = 120.02385 40.25748 151.84469
#
# Poissons Ratio (x) = 0.21693 0.26912
# Poissons Ratio (y) = 0.64676 0.08606
# Poissons Ratio (z) = 0.21273 0.02282
#
# Static dielectric constant tensor:
#      x y z
#    x 2.135960 0.000000 -0.330900 
#    y 0.000000 1.975950 0.000000 
#    z -0.330900 0.000000 2.799070 
# 
# From -- ./inp_files/9525.got.cif
#   From: 2010.05.17/outbox.cif.g08.bks.cpg/sg14_5_cif.got.tgz:9525.got - 2010.06.03 17:49:19.
