data_PCOD9244457
_publ_section_title
;
Structure prediction by ZEFSAII (Michael W. Deem and Ramdas Pophale) SiO2 
 PCOD9244457
Probable space group: P 21/C
;
_chemical_formula_sum "Si O2"
_cell_formula_units_Z 30
_cell_length_a 27.912278
_cell_length_b 8.678630
_cell_length_c 10.486543
_cell_angle_alpha 90.000000
_cell_angle_beta 34.288208
_cell_angle_gamma 90.000000
_cell_volume 1431.072827
_symmetry_space_group_name_H-M "P 21/C"
_symmetry_group_IT_number 14
_symmetry_cell_setting 'monoclinic'
loop_
_space_group_symop_operation_xyz
x,y,z
-x,1/2+y,1/2-z
-x,-y,-z
x,1/2-y,1/2+z
loop_
_atom_site_type_symbol
_atom_site_label
_atom_site_fract_x
_atom_site_fract_y
_atom_site_fract_z
Si Si1 0.129279 0.639670 0.356482
Si Si2 0.518858 0.898853 0.581313
Si Si3 0.283982 0.302916 0.336454
Si Si4 0.732141 0.908458 0.391567
Si Si5 0.999906 0.176413 0.647120
Si Si6 0.450333 0.934009 0.230290
Si Si7 0.000000 0.000000 0.000000
Si Si8 0.141420 0.538290 0.736088
O O1 0.190422 0.525775 0.294924
O O2 0.037365 0.669299 0.627291
O O3 0.098850 0.557687 0.294754
O O4 0.168821 0.805987 0.246875
O O5 0.617085 0.843968 0.361987
O O6 0.459842 0.748893 0.712097
O O7 0.500000 0.000000 0.500000
O O8 0.508601 0.997720 0.731706
O O9 0.268570 0.281264 0.219229
O O10 0.264464 0.166773 0.476984
O O11 0.221504 0.443540 0.510427
O O12 0.645581 0.004844 0.566525
O O13 0.925628 0.097712 0.724374
O O14 0.019361 0.345920 0.550972
O O15 0.083774 0.072921 0.450408
O O16 0.500000 0.000000 0.000000
#
# Coordination Sequence:
#
# PCOD9244457 Si02
#       8
#     4   4   4   4   4   4   2   4
#     4  11  22  42  65  98 131 175 232 280 343 408
#     4  11  25  43  72 101 139 180 230 283 347 419
#     4  11  24  46  65 102 138 182 225 282 348 410
#     4  11  25  45  71 100 142 177 231 288 342 416
#     4  10  20  41  63  90 129 172 225 277 336 405
#     4  11  23  45  71 101 137 184 231 286 347 419
#     4  10  22  38  64  92 124 174 222 266 344 398
#     4  10  22  39  64  91 131 174 220 280 337 401
#
# _framework density 20.963294999999999
#
# number of rings (size 3 to 8) (size 9 to 14) (size 15 to 20)
#    0.000    1.333    2.667    2.400    3.733    0.000 
#   14.400    0.000    0.000    0.000    0.000    0.000 
#    0.000    0.000    0.000    0.000    0.000    0.000 
#
# Total GULP energy -167102.558394 kJ/mol
# GULP energy per Si atom -5570.085280 kJ/mol
# Density = 2.091558 g / cm^3
# Si number density = 20.963295 Si / 1000 Ang^3
#
#
#
# Elastic Constant Matrix: (Units=GPa)
#
#
# Indices 1 2 3 4 5 6 
#
# 1 83.3796 39.6766 18.9713 0.0000 6.3037 0.0000
# 2 39.6766 117.1314 18.3078 0.0000 4.2273 0.0000
# 3 18.9713 18.3078 64.7340 0.0000 9.9669 0.0000
# 4 0.0000 0.0000 0.0000 31.1124 0.0000 5.0647
# 5 6.3037 4.2273 9.9669 0.0000 24.6884 0.0000
# 6 0.0000 0.0000 0.0000 5.0647 0.0000 29.1510
#
#
#
# Elastic Compliance Matrix: (Units=1/GPa)
#
#
# Indices 1 2 3 4 5 6 
#
# 1 0.014941 -0.004555 -0.002797 0.000000 -0.001906 0.000000
# 2 -0.004555 0.010328 -0.001592 0.000000 0.000037 0.000000
# 3 -0.002797 -0.001592 0.017664 0.000000 -0.006144 0.000000
# 4 0.000000 0.000000 0.000000 0.033077 0.000000 -0.005747
# 5 -0.001906 0.000037 -0.006144 0.000000 0.043466 0.000000
# 6 0.000000 0.000000 0.000000 -0.005747 0.000000 0.035303
#
#
# Mechanical properties :
#
#
# Convention : Reuss Voigt Hill
#
# Bulk Modulus (GPa) = 39.92794 46.57293 43.25043
# Shear Modulus (GPa) = 27.62208 29.54298 28.58253
#
# Velocity S-wave (km/s) = 3.63387 3.75810 3.69651
# Velocity P-wave (km/s) = 6.05761 6.41060 6.23660
#
# Compressibility (1/GPa) = 0.02504512
#
# Stress axis : x y z
#
# Youngs Moduli (GPa) = 66.92778 96.82530 56.61317
#
# Poissons Ratio (x) = 0.44106 0.15835
# Poissons Ratio (y) = 0.30487 0.09011
# Poissons Ratio (z) = 0.18720 0.15411
#
# Static dielectric constant tensor:
#      x y z
#    x 1.785930 0.000000 -0.006780 
#    y 0.000000 1.736350 0.000000 
#    z -0.006780 0.000000 1.690380 
# 
# From -- ./inp_files/36421.got.cif
#   From: 2010.05.17/outbox.cif.g08.bks.cpg/sg14_19_cif.got.tgz:36421.got - 2010.06.03 17:49:19.
