data_PCOD9244484
_publ_section_title
;
Structure prediction by ZEFSAII (Michael W. Deem and Ramdas Pophale) SiO2 
 PCOD9244484
Probable space group: P 21/C
;
_chemical_formula_sum "Si O2"
_cell_formula_units_Z 28
_cell_length_a 15.083171
_cell_length_b 5.498739
_cell_length_c 12.856553
_cell_angle_alpha 90.000000
_cell_angle_beta 85.493845
_cell_angle_gamma 90.000000
_cell_volume 1063.006153
_symmetry_space_group_name_H-M "P 21/C"
_symmetry_group_IT_number 14
_symmetry_cell_setting 'monoclinic'
loop_
_space_group_symop_operation_xyz
x,y,z
-x,1/2+y,1/2-z
-x,-y,-z
x,1/2-y,1/2+z
loop_
_atom_site_type_symbol
_atom_site_label
_atom_site_fract_x
_atom_site_fract_y
_atom_site_fract_z
Si Si1 0.771580 0.430792 0.123110
Si Si2 0.526974 0.213724 0.306196
Si Si3 0.286728 0.976956 0.766983
Si Si4 0.628558 0.732992 0.047202
Si Si5 0.962362 0.500054 0.124337
Si Si6 0.749171 0.879399 0.860111
Si Si7 0.063213 0.996261 0.126026
O O1 0.783099 0.151536 0.150747
O O2 0.689339 0.490954 0.055958
O O3 0.865472 0.533148 0.080676
O O4 0.744156 0.510810 0.244188
O O5 0.514917 0.477916 0.251714
O O6 0.630726 0.151971 0.298621
O O7 0.475807 0.211580 0.421466
O O8 0.339730 0.126227 0.851433
O O9 0.232994 0.103678 0.679754
O O10 0.662047 0.864312 0.939988
O O11 0.938761 0.500483 0.248443
O O12 0.021583 0.737764 0.101058
O O13 0.009996 0.241150 0.101287
O O14 0.832818 0.987022 0.911734
#
# Coordination Sequence:
#
# PCOD9244484 Si02
#       7
#     4   4   4   4   4   4   4
#     4  10  21  39  63  90 122 168 216 261 319 386
#     4  10  20  41  65  93 131 174 217 261 326 386
#     4  10  22  39  67  90 127 172 214 271 317 393
#     4  10  22  41  62  92 128 172 207 270 327 385
#     4   9  19  33  60  83 122 163 208 253 316 375
#     4  10  23  38  63  93 128 164 217 266 326 384
#     4   9  19  35  55  89 121 162 202 264 312 377
#
# _framework density 26.340395999999998
#
# number of rings (size 3 to 8) (size 9 to 14) (size 15 to 20)
#    0.000    2.286    1.429    0.000   12.000    1.714 
#    0.000    2.143    0.000    0.000    0.000    0.000 
#    0.000    0.000    0.000    0.000    0.000    0.000 
#
# Total GULP energy -156161.088059 kJ/mol
# GULP energy per Si atom -5577.181716 kJ/mol
# Density = 2.628044 g / cm^3
# Si number density = 26.340396 Si / 1000 Ang^3
#
#
#
# Elastic Constant Matrix: (Units=GPa)
#
#
# Indices 1 2 3 4 5 6 
#
# 1 61.9168 38.7826 12.6952 0.0000 -11.9886 0.0000
# 2 38.7826 103.3693 12.7892 0.0000 -16.2942 0.0000
# 3 12.6952 12.7892 130.9329 0.0000 -14.2807 0.0000
# 4 0.0000 0.0000 0.0000 -16.5021 0.0000 -28.8276
# 5 -11.9886 -16.2942 -14.2807 0.0000 22.9541 0.0000
# 6 0.0000 0.0000 0.0000 -28.8276 0.0000 17.1107
#
#
#
# Elastic Compliance Matrix: (Units=1/GPa)
#
#
# Indices 1 2 3 4 5 6 
#
# 1 0.021970 -0.007222 -0.000786 0.000000 0.005859 0.000000
# 2 -0.007222 0.013274 0.000021 0.000000 0.005664 0.000000
# 3 -0.000786 0.000021 0.008227 0.000000 0.004723 0.000000
# 4 0.000000 0.000000 0.000000 -0.015368 0.000000 -0.025892
# 5 0.005859 0.005664 0.004723 0.000000 0.053584 0.000000
# 6 0.000000 0.000000 0.000000 -0.025892 0.000000 0.014821
#
#
# Mechanical properties :
#
#
# Convention : Reuss Voigt Hill
#
# Bulk Modulus (GPa) = 36.36638 47.19477 41.78057
# Shear Modulus (GPa) = 41.10265 20.17600 30.63933
#
# Velocity S-wave (km/s) = 3.95453 2.77062 3.41428
# Velocity P-wave (km/s) = 5.88960 5.30955 5.60708
#
# Compressibility (1/GPa) = 0.02749792
#
# Stress axis : x y z
#
# Youngs Moduli (GPa) = 45.51678 75.33648 121.55511
#
# Poissons Ratio (x) = 0.54408 0.09551
# Poissons Ratio (y) = 0.32872 -0.00261
# Poissons Ratio (z) = 0.03576 -0.00162
#
# Static dielectric constant tensor:
#      x y z
#    x 2.006480 0.000000 -0.026520 
#    y 0.000000 2.854910 0.000000 
#    z -0.026520 0.000000 2.034130 
# 
# From -- ./inp_files/47960.got.cif
#   From: 2010.05.17/outbox.cif.g08.bks.cpg/sg14_24_cif.got.tgz:47960.got - 2010.06.03 17:49:19.
