data_PCOD9244483
_publ_section_title
;
Structure prediction by ZEFSAII (Michael W. Deem and Ramdas Pophale) SiO2 
 PCOD9244483
Probable space group: P 21/C
;
_chemical_formula_sum "Si O2"
_cell_formula_units_Z 32
_cell_length_a 11.352719
_cell_length_b 18.995745
_cell_length_c 13.232954
_cell_angle_alpha 90.000000
_cell_angle_beta 148.310806
_cell_angle_gamma 90.000000
_cell_volume 1499.096758
_symmetry_space_group_name_H-M "P 21/C"
_symmetry_group_IT_number 14
_symmetry_cell_setting 'monoclinic'
loop_
_space_group_symop_operation_xyz
x,y,z
-x,1/2+y,1/2-z
-x,-y,-z
x,1/2-y,1/2+z
loop_
_atom_site_type_symbol
_atom_site_label
_atom_site_fract_x
_atom_site_fract_y
_atom_site_fract_z
Si Si1 0.136772 0.357433 0.767704
Si Si2 0.060606 0.581253 0.565659
Si Si3 0.542899 0.559838 0.879122
Si Si4 0.112772 0.805672 0.723864
Si Si5 0.453096 0.707032 0.053978
Si Si6 0.308636 0.342143 0.200168
Si Si7 0.495678 0.416984 0.519617
Si Si8 0.419514 0.092948 0.201527
O O1 0.339284 0.315846 0.864098
O O2 0.958120 0.377623 0.553601
O O3 0.031025 0.313171 0.779612
O O4 0.244944 0.428957 0.892959
O O5 0.322912 0.582945 0.782786
O O6 0.000000 0.500000 0.500000
O O7 0.846858 0.606907 0.474026
O O8 0.602632 0.608558 0.826055
O O9 0.488465 0.483277 0.795839
O O10 0.277771 0.873299 0.839776
O O11 0.936352 0.812591 0.504951
O O12 0.251515 0.733741 0.835902
O O13 0.525424 0.776886 0.166921
O O14 0.434548 0.647226 0.125353
O O15 0.315862 0.383773 0.311058
O O16 0.500000 0.500000 0.500000
O O17 0.455207 0.404747 0.608260
#
# Coordination Sequence:
#
# PCOD9244483 Si02
#       8
#     4   4   4   4   4   4   4   4
#     4  10  22  40  64  91 123 168 223 266 337 402
#     4   9  19  34  59  90 126 164 205 262 332 382
#     4  10  20  41  65  92 131 170 214 278 328 395
#     4  10  24  43  68  92 126 180 215 270 344 387
#     4  10  23  41  64  95 134 167 227 281 323 404
#     4  10  22  42  67  94 132 178 224 269 336 401
#     4  11  22  41  67  97 136 169 219 279 326 395
#     4  10  22  39  63 101 132 172 222 268 334 397
#
# _framework density 21.346185999999999
#
# number of rings (size 3 to 8) (size 9 to 14) (size 15 to 20)
#    0.000    2.000    1.250    1.500    1.750   12.000 
#    0.000    3.750    0.000    0.000    0.000    0.000 
#    0.000    0.000    0.000    0.000    0.000    0.000 
#
# Total GULP energy -178647.213616 kJ/mol
# GULP energy per Si atom -5582.725425 kJ/mol
# Density = 2.129760 g / cm^3
# Si number density = 21.346186 Si / 1000 Ang^3
#
#
#
# Elastic Constant Matrix: (Units=GPa)
#
#
# Indices 1 2 3 4 5 6 
#
# 1 87.9531 29.0681 18.2320 0.0000 -13.8655 0.0000
# 2 29.0681 101.0980 24.6956 0.0000 -5.6181 0.0000
# 3 18.2320 24.6956 74.5320 0.0000 5.0746 0.0000
# 4 0.0000 0.0000 0.0000 35.0279 0.0000 -4.3579
# 5 -13.8655 -5.6181 5.0746 0.0000 11.9674 0.0000
# 6 0.0000 0.0000 0.0000 -4.3579 0.0000 27.0028
#
#
#
# Elastic Compliance Matrix: (Units=1/GPa)
#
#
# Indices 1 2 3 4 5 6 
#
# 1 0.016186 -0.002481 -0.004464 0.000000 0.019482 0.000000
# 2 -0.002481 0.011701 -0.003551 0.000000 0.004125 0.000000
# 3 -0.004464 -0.003551 0.016631 0.000000 -0.013891 0.000000
# 4 0.000000 0.000000 0.000000 0.029134 0.000000 0.004702
# 5 0.019482 0.004125 -0.013891 0.000000 0.113958 0.000000
# 6 0.000000 0.000000 0.000000 0.004702 0.000000 0.037792
#
#
# Mechanical properties :
#
#
# Convention : Reuss Voigt Hill
#
# Bulk Modulus (GPa) = 42.50392 45.28606 43.89499
# Shear Modulus (GPa) = 19.66667 27.57209 23.61938
#
# Velocity S-wave (km/s) = 3.03862 3.59787 3.33001
# Velocity P-wave (km/s) = 5.68031 6.20650 5.94923
#
# Compressibility (1/GPa) = 0.02352724
#
# Stress axis : x y z
#
# Youngs Moduli (GPa) = 61.78129 85.46015 60.12712
#
# Poissons Ratio (x) = 0.21202 0.26840
# Poissons Ratio (y) = 0.15327 0.21352
# Poissons Ratio (z) = 0.27578 0.30348
#
# Static dielectric constant tensor:
#      x y z
#    x 1.750480 0.000000 -0.010610 
#    y 0.000000 1.885870 0.000000 
#    z -0.010610 0.000000 1.855130 
# 
# From -- ./inp_files/45393.got.cif
#   From: 2010.05.17/outbox.cif.g08.bks.cpg/sg14_23_cif.got.tgz:45393.got - 2010.06.03 17:49:19.
