data_PCOD9244876
_publ_section_title
;
Structure prediction by ZEFSAII (Michael W. Deem and Ramdas Pophale) SiO2 
 PCOD9244876
Probable space group: P 21/C
;
_chemical_formula_sum "Si O2"
_cell_formula_units_Z 28
_cell_length_a 18.486919
_cell_length_b 13.096173
_cell_length_c 22.179217
_cell_angle_alpha 90.000000
_cell_angle_beta 17.853800
_cell_angle_gamma 90.000000
_cell_volume 1646.311510
_symmetry_space_group_name_H-M "P 21/C"
_symmetry_group_IT_number 14
_symmetry_cell_setting 'monoclinic'
loop_
_space_group_symop_operation_xyz
x,y,z
-x,1/2+y,1/2-z
-x,-y,-z
x,1/2-y,1/2+z
loop_
_atom_site_type_symbol
_atom_site_label
_atom_site_fract_x
_atom_site_fract_y
_atom_site_fract_z
Si Si1 0.684557 0.332530 0.647632
Si Si2 0.342897 0.598581 0.194556
Si Si3 0.806353 0.897936 0.249503
Si Si4 0.811149 0.111573 0.593383
Si Si5 0.331438 0.319010 0.694460
Si Si6 0.297725 0.385889 0.856433
Si Si7 0.224751 0.821664 0.242600
O O1 0.646873 0.385963 0.742291
O O2 0.710857 0.211950 0.640295
O O3 0.479214 0.355408 0.763951
O O4 0.938860 0.374659 0.424974
O O5 0.202920 0.499141 0.283703
O O6 0.233491 0.701586 0.252886
O O7 0.605913 0.590036 0.958936
O O8 0.737486 0.798833 0.264278
O O9 0.752299 0.121029 0.711286
O O10 0.096510 0.117679 0.363175
O O11 0.715017 0.007470 0.642792
O O12 0.370035 0.337739 0.734486
O O13 0.441464 0.655748 0.526160
O O14 0.030566 0.348905 0.081067
#
# Coordination Sequence:
#
# PCOD9244876 Si02
#       7
#     4   4   4   4   4   4   4
#     4  10  21  34  49  73 107 132 154 204 258 292
#     4   9  18  34  55  75  97 132 173 204 237 288
#     4   9  18  34  55  75  97 132 173 204 237 288
#     4   9  20  36  50  71  99 131 168 200 242 298
#     4   9  18  34  54  74  98 130 169 206 238 286
#     4  11  22  32  50  78 102 127 164 204 248 300
#     4   9  18  34  54  74  98 130 169 206 238 286
#
# _framework density 17.007717
#
# number of rings (size 3 to 8) (size 9 to 14) (size 15 to 20)
#    0.000    2.571    0.000    3.000    0.000    5.714 
#    0.000    0.000    0.000    0.000    0.000    0.000 
#    0.000    0.000    0.000    0.000    0.000    0.000 
#
# Total GULP energy -156204.404617 kJ/mol
# GULP energy per Si atom -5578.728736 kJ/mol
# Density = 1.696901 g / cm^3
# Si number density = 17.007717 Si / 1000 Ang^3
#
#
#
# Elastic Constant Matrix: (Units=GPa)
#
#
# Indices 1 2 3 4 5 6 
#
# 1 53.8309 34.1175 45.3792 0.0000 -17.1839 0.0000
# 2 34.1175 70.8957 40.5424 0.0000 -8.2435 0.0000
# 3 45.3792 40.5424 83.2188 0.0000 4.6588 0.0000
# 4 0.0000 0.0000 0.0000 22.0769 0.0000 -0.1905
# 5 -17.1839 -8.2435 4.6588 0.0000 29.2898 0.0000
# 6 0.0000 0.0000 0.0000 -0.1905 0.0000 22.0561
#
#
#
# Elastic Compliance Matrix: (Units=1/GPa)
#
#
# Indices 1 2 3 4 5 6 
#
# 1 0.065862 -0.006771 -0.034984 0.000000 0.042299 0.000000
# 2 -0.006771 0.021821 -0.007124 0.000000 0.003302 0.000000
# 3 -0.034984 -0.007124 0.036147 0.000000 -0.028279 0.000000
# 4 0.000000 0.000000 0.000000 0.045300 0.000000 0.000391
# 5 0.042299 0.003302 -0.028279 0.000000 0.064385 0.000000
# 6 0.000000 0.000000 0.000000 0.000391 0.000000 0.045342
#
#
# Mechanical properties :
#
#
# Convention : Reuss Voigt Hill
#
# Bulk Modulus (GPa) = 38.35326 49.78040 44.06683
# Shear Modulus (GPa) = 12.97672 20.54498 16.76085
#
# Velocity S-wave (km/s) = 2.76522 3.47937 3.14265
# Velocity P-wave (km/s) = 5.72667 6.74346 6.25576
#
# Compressibility (1/GPa) = 0.02607341
#
# Stress axis : x y z
#
# Youngs Moduli (GPa) = 15.18322 45.82685 27.66489
#
# Poissons Ratio (x) = 0.31029 0.96783
# Poissons Ratio (y) = 0.10280 0.19707
# Poissons Ratio (z) = 0.53117 0.32645
#
# Static dielectric constant tensor:
#      x y z
#    x 1.534610 0.000000 0.024980 
#    y 0.000000 1.585730 0.000000 
#    z 0.024980 0.000000 1.579820 
# 
# From -- ./inp_files/74344.got.cif
#   From: 2010.05.17/outbox.cif.g08.bks.cpg/sg14_38_cif.got.tgz:74344.got - 2010.06.03 17:49:19.
