data_PCOD9244461
_publ_section_title
;
Structure prediction by ZEFSAII (Michael W. Deem and Ramdas Pophale) SiO2 
 PCOD9244461
Probable space group: P 21/C
;
_chemical_formula_sum "Si O2"
_cell_formula_units_Z 28
_cell_length_a 16.192549
_cell_length_b 9.146180
_cell_length_c 11.198793
_cell_angle_alpha 90.000000
_cell_angle_beta 140.746376
_cell_angle_gamma 90.000000
_cell_volume 1049.448889
_symmetry_space_group_name_H-M "P 21/C"
_symmetry_group_IT_number 14
_symmetry_cell_setting 'monoclinic'
loop_
_space_group_symop_operation_xyz
x,y,z
-x,1/2+y,1/2-z
-x,-y,-z
x,1/2-y,1/2+z
loop_
_atom_site_type_symbol
_atom_site_label
_atom_site_fract_x
_atom_site_fract_y
_atom_site_fract_z
Si Si1 0.692532 0.168974 0.819797
Si Si2 0.746385 0.092405 0.550019
Si Si3 0.184694 0.284454 0.790883
Si Si4 0.509490 0.029668 0.810263
Si Si5 0.044229 0.727251 0.142386
Si Si6 0.566656 0.782221 0.069407
Si Si7 0.114265 0.045625 0.878219
O O1 0.620704 0.106228 0.859345
O O2 0.567338 0.192688 0.596787
O O3 0.750436 0.325950 0.925761
O O4 0.808746 0.052769 0.938786
O O5 0.820665 0.939731 0.650166
O O6 0.594926 0.049893 0.390765
O O7 0.809850 0.209284 0.712148
O O8 0.207934 0.155562 0.911044
O O9 0.050564 0.239947 0.575517
O O10 0.300707 0.293432 0.823773
O O11 0.554662 0.915884 0.961165
O O12 0.430064 0.152258 0.795241
O O13 0.054733 0.570404 0.217111
O O14 0.984481 0.843813 0.169119
#
# Coordination Sequence:
#
# PCOD9244461 Si02
#       7
#     4   4   4   4   4   4   4
#     4  10  21  43  66 100 131 172 213 270 332 385
#     4  10  23  41  65  93 137 170 211 276 324 380
#     4  12  23  41  66  98 130 171 221 267 330 392
#     4  10  20  41  63  93 133 165 214 261 321 396
#     4  11  26  44  65  97 127 177 222 272 323 388
#     4  10  22  36  66  98 124 171 213 260 328 388
#     4  11  25  46  69  93 133 175 220 269 330 391
#
# _framework density 26.680671
#
# number of rings (size 3 to 8) (size 9 to 14) (size 15 to 20)
#    0.000    1.429    2.857    1.714    4.000    1.143 
#    0.000    1.429    0.000    0.000    0.000    0.000 
#    0.000    0.000    0.000    0.000    0.000    0.000 
#
# Total GULP energy -156829.298513 kJ/mol
# GULP energy per Si atom -5601.046375 kJ/mol
# Density = 2.661994 g / cm^3
# Si number density = 26.680671 Si / 1000 Ang^3
#
#
#
# Elastic Constant Matrix: (Units=GPa)
#
#
# Indices 1 2 3 4 5 6 
#
# 1 57.1867 28.7047 17.0989 0.0000 0.5530 0.0000
# 2 28.7047 169.6425 44.3625 0.0000 -12.6323 0.0000
# 3 17.0989 44.3625 117.8266 0.0000 -1.2011 0.0000
# 4 0.0000 0.0000 0.0000 68.0778 0.0000 0.0596
# 5 0.5530 -12.6323 -1.2011 0.0000 35.1403 0.0000
# 6 0.0000 0.0000 0.0000 0.0596 0.0000 42.4998
#
#
#
# Elastic Compliance Matrix: (Units=1/GPa)
#
#
# Indices 1 2 3 4 5 6 
#
# 1 0.019501 -0.002953 -0.001733 0.000000 -0.001428 0.000000
# 2 -0.002953 0.007171 -0.002246 0.000000 0.002548 0.000000
# 3 -0.001733 -0.002246 0.009579 0.000000 -0.000453 0.000000
# 4 0.000000 0.000000 0.000000 0.014689 0.000000 -0.000021
# 5 -0.001428 0.002548 -0.000453 0.000000 0.029380 0.000000
# 6 0.000000 0.000000 0.000000 -0.000021 0.000000 0.023530
#
#
# Mechanical properties :
#
#
# Convention : Reuss Voigt Hill
#
# Bulk Modulus (GPa) = 44.66459 58.33200 51.49829
# Shear Modulus (GPa) = 39.94394 46.10957 43.02676
#
# Velocity S-wave (km/s) = 3.87345 4.16167 4.02015
# Velocity P-wave (km/s) = 6.06478 6.70844 6.39472
#
# Compressibility (1/GPa) = 0.02238910
#
# Stress axis : x y z
#
# Youngs Moduli (GPa) = 51.28034 139.44414 104.39122
#
# Poissons Ratio (x) = 0.41176 0.18088
# Poissons Ratio (y) = 0.15142 0.23442
# Poissons Ratio (z) = 0.08885 0.31313
#
# Static dielectric constant tensor:
#      x y z
#    x 2.117330 0.000000 0.026750 
#    y 0.000000 2.039690 0.000000 
#    z 0.026750 0.000000 2.125750 
# 
# From -- ./inp_files/43473.got.cif
#   From: 2010.05.17/outbox.cif.g08.bks.cpg/sg14_22_cif.got.tgz:43473.got - 2010.06.03 17:49:19.
