data_PCOD9244145
_publ_section_title
;
Structure prediction by ZEFSAII (Michael W. Deem and Ramdas Pophale) SiO2 
 PCOD9244145
Probable space group: P 21/C
;
_chemical_formula_sum "Si O2"
_cell_formula_units_Z 32
_cell_length_a 11.475595
_cell_length_b 10.855541
_cell_length_c 21.907457
_cell_angle_alpha 90.000000
_cell_angle_beta 36.347195
_cell_angle_gamma 90.000000
_cell_volume 1617.471362
_symmetry_space_group_name_H-M "P 21/C"
_symmetry_group_IT_number 14
_symmetry_cell_setting 'monoclinic'
loop_
_space_group_symop_operation_xyz
x,y,z
-x,1/2+y,1/2-z
-x,-y,-z
x,1/2-y,1/2+z
loop_
_atom_site_type_symbol
_atom_site_label
_atom_site_fract_x
_atom_site_fract_y
_atom_site_fract_z
Si Si1 0.852567 0.831957 0.477792
Si Si2 0.887629 0.546262 0.173892
Si Si3 0.109334 0.411431 0.376092
Si Si4 0.103459 0.210169 0.754366
Si Si5 0.174039 0.672649 0.408861
Si Si6 0.741694 0.082804 0.850373
Si Si7 0.371985 0.195702 0.311035
Si Si8 0.681895 0.674931 0.439844
O O1 0.668122 0.836155 0.601616
O O2 0.799489 0.739554 0.445105
O O3 0.036714 0.778841 0.439016
O O4 0.927515 0.964332 0.423679
O O5 0.755407 0.464698 0.275388
O O6 0.755967 0.598907 0.174611
O O7 0.949643 0.665404 0.186824
O O8 0.126721 0.550648 0.389723
O O9 0.276042 0.329195 0.338684
O O10 0.134692 0.389712 0.293919
O O11 0.904355 0.357517 0.489836
O O12 0.927648 0.166605 0.786066
O O13 0.286203 0.242185 0.633944
O O14 0.403876 0.696838 0.304982
O O15 0.751184 0.962167 0.890378
O O16 0.542880 0.155655 0.946918
#
# Coordination Sequence:
#
# PCOD9244145 Si02
#       8
#     4   4   4   4   4   4   4   4
#     4  11  22  39  59  90 122 155 197 249 307 364
#     4  10  22  39  60  84 125 155 192 254 303 358
#     4   9  21  40  59  88 119 154 203 255 291 356
#     4  10  20  40  59  86 120 156 195 247 304 348
#     4  10  22  38  63  87 116 160 202 251 296 356
#     4  10  21  39  64  86 118 161 205 247 289 363
#     4  10  23  38  61  87 119 157 201 245 312 358
#     4  10  22  37  62  92 115 159 204 244 296 354
#
# _framework density 19.783965999999999
#
# number of rings (size 3 to 8) (size 9 to 14) (size 15 to 20)
#    0.000    2.000    1.250    1.125    3.500    6.000 
#    2.250    0.625    0.000    0.000    0.000    0.000 
#    0.000    0.000    0.000    0.000    0.000    0.000 
#
# Total GULP energy -178632.473203 kJ/mol
# GULP energy per Si atom -5582.264788 kJ/mol
# Density = 1.973894 g / cm^3
# Si number density = 19.783966 Si / 1000 Ang^3
#
#
#
# Elastic Constant Matrix: (Units=GPa)
#
#
# Indices 1 2 3 4 5 6 
#
# 1 35.0842 7.6466 6.9880 0.0000 19.6436 0.0000
# 2 7.6466 30.9684 11.2459 0.0000 5.2406 0.0000
# 3 6.9880 11.2459 89.2595 0.0000 7.8209 0.0000
# 4 0.0000 0.0000 0.0000 19.3707 0.0000 -9.7810
# 5 19.6436 5.2406 7.8209 0.0000 26.8185 0.0000
# 6 0.0000 0.0000 0.0000 -9.7810 0.0000 5.7029
#
#
#
# Elastic Compliance Matrix: (Units=1/GPa)
#
#
# Indices 1 2 3 4 5 6 
#
# 1 0.049476 -0.006287 -0.000014 0.000000 -0.035007 0.000000
# 2 -0.006287 0.035451 -0.003870 0.000000 -0.001194 0.000000
# 3 -0.000014 -0.003870 0.011930 0.000000 -0.002713 0.000000
# 4 0.000000 0.000000 0.000000 0.385271 0.000000 0.660771
# 5 -0.035007 -0.001194 -0.002713 0.000000 0.063953 0.000000
# 6 0.000000 0.000000 0.000000 0.660771 0.000000 1.308627
#
#
# Mechanical properties :
#
#
# Convention : Reuss Voigt Hill
#
# Bulk Modulus (GPa) = 13.06942 23.00813 18.03877
# Shear Modulus (GPa) = 2.63081 19.00721 10.81901
#
# Velocity S-wave (km/s) = 1.15441 3.10294 2.34104
# Velocity P-wave (km/s) = 2.89781 4.94900 4.05523
#
# Compressibility (1/GPa) = 0.07651448
#
# Stress axis : x y z
#
# Youngs Moduli (GPa) = 20.21175 28.20824 83.82510
#
# Poissons Ratio (x) = 0.17735 0.00117
# Poissons Ratio (y) = 0.12708 0.32437
# Poissons Ratio (z) = 0.00028 0.10916
#
# Static dielectric constant tensor:
#      x y z
#    x 1.688460 0.000000 0.033250 
#    y 0.000000 1.691670 0.000000 
#    z 0.033250 0.000000 1.699750 
# 
# From -- ./inp_files/35916.got.cif
#   From: 2010.05.17/outbox.cif.g08.bks.cpg/sg14_18_cif.got.tgz:35916.got - 2010.06.03 17:49:19.
