data_PCOD9244719
_publ_section_title
;
Structure prediction by ZEFSAII (Michael W. Deem and Ramdas Pophale) SiO2 
 PCOD9244719
Probable space group: P 21/C
;
_chemical_formula_sum "Si O2"
_cell_formula_units_Z 30
_cell_length_a 10.036311
_cell_length_b 12.207348
_cell_length_c 14.223826
_cell_angle_alpha 90.000000
_cell_angle_beta 132.394912
_cell_angle_gamma 90.000000
_cell_volume 1286.978570
_symmetry_space_group_name_H-M "P 21/C"
_symmetry_group_IT_number 14
_symmetry_cell_setting 'monoclinic'
loop_
_space_group_symop_operation_xyz
x,y,z
-x,1/2+y,1/2-z
-x,-y,-z
x,1/2-y,1/2+z
loop_
_atom_site_type_symbol
_atom_site_label
_atom_site_fract_x
_atom_site_fract_y
_atom_site_fract_z
Si Si1 0.093791 0.807399 0.699756
Si Si2 0.271418 0.018700 0.197199
Si Si3 0.952097 0.319387 0.488793
Si Si4 0.500000 0.500000 0.000000
Si Si5 0.606646 0.650985 0.592213
Si Si6 0.555418 0.436862 0.674433
Si Si7 0.235741 0.128293 0.369394
Si Si8 0.738750 0.299653 0.046514
O O1 0.975073 0.749611 0.564088
O O2 0.273830 0.856928 0.740900
O O3 0.154150 0.721331 0.806357
O O4 0.962242 0.893648 0.688658
O O5 0.437396 0.053587 0.211572
O O6 0.310503 0.036704 0.327816
O O7 0.197670 0.902178 0.126897
O O8 0.105574 0.103576 0.105132
O O9 0.867897 0.235954 0.523023
O O10 0.589142 0.611167 0.983954
O O11 0.646214 0.416244 0.007449
O O12 0.635398 0.552920 0.678021
O O13 0.577168 0.601227 0.473938
O O14 0.750931 0.748618 0.661694
O O15 0.418519 0.707854 0.530322
#
# Coordination Sequence:
#
# PCOD9244719 Si02
#       8
#     4   4   4   2   4   4   4   4
#     4  11  24  40  65  96 137 173 228 280 350 407
#     4  11  23  39  69  97 127 174 237 280 345 404
#     4  11  23  41  67  97 133 172 231 289 331 421
#     4  10  24  40  72  88 142 178 218 270 368 408
#     4   9  20  38  63  87 133 163 225 272 341 405
#     4  10  21  37  64  98 122 175 224 284 336 410
#     4  11  23  43  64  98 131 185 217 284 345 417
#     4  10  20  43  62  98 129 180 219 284 339 418
#
# _framework density 23.310411999999999
#
# number of rings (size 3 to 8) (size 9 to 14) (size 15 to 20)
#    0.000    1.600    2.667    1.600    3.733    2.133 
#    0.000    2.000    0.000    0.000    0.000    0.000 
#    0.000    0.000    0.000    0.000    0.000    0.000 
#
# Total GULP energy -167301.820030 kJ/mol
# GULP energy per Si atom -5576.727334 kJ/mol
# Density = 2.325736 g / cm^3
# Si number density = 23.310412 Si / 1000 Ang^3
#
#
#
# Elastic Constant Matrix: (Units=GPa)
#
#
# Indices 1 2 3 4 5 6 
#
# 1 138.2236 37.2532 38.0359 0.0000 -4.0847 0.0000
# 2 37.2532 106.1698 27.5433 0.0000 -11.2378 0.0000
# 3 38.0359 27.5433 85.7688 0.0000 -9.1129 0.0000
# 4 0.0000 0.0000 0.0000 31.8418 0.0000 2.1864
# 5 -4.0847 -11.2378 -9.1129 0.0000 32.0480 0.0000
# 6 0.0000 0.0000 0.0000 2.1864 0.0000 38.4734
#
#
#
# Elastic Compliance Matrix: (Units=1/GPa)
#
#
# Indices 1 2 3 4 5 6 
#
# 1 0.008713 -0.002293 -0.003192 0.000000 -0.000601 0.000000
# 2 -0.002293 0.011118 -0.002238 0.000000 0.002970 0.000000
# 3 -0.003192 -0.002238 0.014092 0.000000 0.002816 0.000000
# 4 0.000000 0.000000 0.000000 0.031528 0.000000 -0.001792
# 5 -0.000601 0.002970 0.002816 0.000000 0.032969 0.000000
# 6 0.000000 0.000000 0.000000 -0.001792 0.000000 0.026094
#
#
# Mechanical properties :
#
#
# Convention : Reuss Voigt Hill
#
# Bulk Modulus (GPa) = 54.11570 59.53635 56.82602
# Shear Modulus (GPa) = 34.21856 35.62795 34.92325
#
# Velocity S-wave (km/s) = 3.83554 3.91373 3.87484
# Velocity P-wave (km/s) = 6.54835 6.78375 6.66708
#
# Compressibility (1/GPa) = 0.01847893
#
# Stress axis : x y z
#
# Youngs Moduli (GPa) = 114.76968 89.94082 70.95983
#
# Poissons Ratio (x) = 0.20623 0.22647
# Poissons Ratio (y) = 0.26316 0.15881
# Poissons Ratio (z) = 0.36629 0.20130
#
# Static dielectric constant tensor:
#      x y z
#    x 1.868860 0.000000 -0.025700 
#    y 0.000000 1.864520 0.000000 
#    z -0.025700 0.000000 1.966900 
# 
# From -- ./inp_files/40443.got.cif
#   From: 2010.05.17/outbox.cif.g08.bks.cpg/sg14_21_cif.got.tgz:40443.got - 2010.06.03 17:49:19.
