data_PCOD9244560
_publ_section_title
;
Structure prediction by ZEFSAII (Michael W. Deem and Ramdas Pophale) SiO2 
 PCOD9244560
Probable space group: P 21/C
;
_chemical_formula_sum "Si O2"
_cell_formula_units_Z 26
_cell_length_a 13.858002
_cell_length_b 7.858266
_cell_length_c 14.437693
_cell_angle_alpha 90.000000
_cell_angle_beta 140.747112
_cell_angle_gamma 90.000000
_cell_volume 994.840441
_symmetry_space_group_name_H-M "P 21/C"
_symmetry_group_IT_number 14
_symmetry_cell_setting 'monoclinic'
loop_
_space_group_symop_operation_xyz
x,y,z
-x,1/2+y,1/2-z
-x,-y,-z
x,1/2-y,1/2+z
loop_
_atom_site_type_symbol
_atom_site_label
_atom_site_fract_x
_atom_site_fract_y
_atom_site_fract_z
Si Si1 0.468010 0.309937 0.606701
Si Si2 0.745131 0.047025 0.385814
Si Si3 0.185938 0.463501 0.328725
Si Si4 0.813210 0.812211 0.977408
Si Si5 0.672685 0.164191 0.536457
Si Si6 0.000000 0.500000 0.000000
Si Si7 0.342015 0.475432 0.799010
O O1 0.583245 0.461126 0.716812
O O2 0.654865 0.639019 0.560198
O O3 0.358989 0.274667 0.613162
O O4 0.572345 0.148998 0.667761
O O5 0.856001 0.875931 0.469437
O O6 0.861880 0.149094 0.410040
O O7 0.718660 0.110018 0.468008
O O8 0.116932 0.393843 0.377166
O O9 0.245618 0.656959 0.384508
O O10 0.084981 0.435030 0.165226
O O11 0.786610 0.928504 0.869860
O O12 0.487479 0.153546 0.405294
O O13 0.720535 0.019988 0.646108
#
# Coordination Sequence:
#
# PCOD9244560 Si02
#       7
#     4   4   4   4   4   2   4
#     4  10  20  41  71 103 132 172 218 293 331 413
#     4  12  24  44  70 101 144 174 231 275 348 408
#     4  10  24  44  67  97 135 181 231 277 348 394
#     4  10  21  40  69 102 134 175 217 293 332 408
#     4  11  21  38  63 100 135 174 217 286 329 416
#     4  12  30  46  64  96 136 198 224 276 332 420
#     4  11  21  36  69 113 137 164 223 286 367 381
#
# _framework density 26.134844999999999
#
# number of rings (size 3 to 8) (size 9 to 14) (size 15 to 20)
#    0.923    0.308    3.077    2.769    0.000    7.385 
#    0.000    0.000    0.000    9.231    0.000    0.000 
#    0.000    0.000    0.000    0.000    0.000    0.000 
#
# Total GULP energy -144914.017804 kJ/mol
# GULP energy per Si atom -5573.616069 kJ/mol
# Density = 2.607536 g / cm^3
# Si number density = 26.134845 Si / 1000 Ang^3
#
#
#
# Elastic Constant Matrix: (Units=GPa)
#
#
# Indices 1 2 3 4 5 6 
#
# 1 90.8846 2.2718 32.1113 0.0000 1.5759 0.0000
# 2 2.2718 112.5357 38.5332 0.0000 -2.1049 0.0000
# 3 32.1113 38.5332 174.4355 0.0000 -19.0618 0.0000
# 4 0.0000 0.0000 0.0000 3.8293 0.0000 -4.2441
# 5 1.5759 -2.1049 -19.0618 0.0000 41.6117 0.0000
# 6 0.0000 0.0000 0.0000 -4.2441 0.0000 29.8682
#
#
#
# Elastic Compliance Matrix: (Units=1/GPa)
#
#
# Indices 1 2 3 4 5 6 
#
# 1 0.011895 0.000583 -0.002489 0.000000 -0.001561 0.000000
# 2 0.000583 0.009652 -0.002304 0.000000 -0.000589 0.000000
# 3 -0.002489 -0.002304 0.007050 0.000000 0.003207 0.000000
# 4 0.000000 0.000000 0.000000 0.309958 0.000000 0.044043
# 5 -0.001561 -0.000589 0.003207 0.000000 0.025530 0.000000
# 6 0.000000 0.000000 0.000000 0.044043 0.000000 0.039739
#
#
# Mechanical properties :
#
#
# Convention : Reuss Voigt Hill
#
# Bulk Modulus (GPa) = 49.56027 58.18761 53.87394
# Shear Modulus (GPa) = 11.93402 35.39114 23.66258
#
# Velocity S-wave (km/s) = 2.13921 3.68390 3.01226
# Velocity P-wave (km/s) = 5.01060 6.35669 5.72336
#
# Compressibility (1/GPa) = 0.02017745
#
# Stress axis : x y z
#
# Youngs Moduli (GPa) = 84.06960 103.60388 141.83557
#
# Poissons Ratio (x) = -0.06040 0.35304
# Poissons Ratio (y) = -0.04901 0.32677
# Poissons Ratio (z) = 0.20926 0.23869
#
# Static dielectric constant tensor:
#      x y z
#    x 2.250840 0.000000 0.040830 
#    y 0.000000 2.304140 0.000000 
#    z 0.040830 0.000000 2.041730 
# 
# From -- ./inp_files/46648.got.cif
#   From: 2010.05.17/outbox.cif.g08.bks.cpg/sg14_24_cif.got.tgz:46648.got - 2010.06.03 17:49:19.
