data_PCOD9244326
_publ_section_title
;
Structure prediction by ZEFSAII (Michael W. Deem and Ramdas Pophale) SiO2 
 PCOD9244326
Probable space group: P 21/C
;
_chemical_formula_sum "Si O2"
_cell_formula_units_Z 24
_cell_length_a 13.481308
_cell_length_b 9.995006
_cell_length_c 8.402370
_cell_angle_alpha 90.000000
_cell_angle_beta 88.260208
_cell_angle_gamma 90.000000
_cell_volume 1131.661765
_symmetry_space_group_name_H-M "P 21/C"
_symmetry_group_IT_number 14
_symmetry_cell_setting 'monoclinic'
loop_
_space_group_symop_operation_xyz
x,y,z
-x,1/2+y,1/2-z
-x,-y,-z
x,1/2-y,1/2+z
loop_
_atom_site_type_symbol
_atom_site_label
_atom_site_fract_x
_atom_site_fract_y
_atom_site_fract_z
Si Si1 0.331417 0.797696 0.850284
Si Si2 0.868443 0.632876 0.200905
Si Si3 0.602403 0.056960 0.433195
Si Si4 0.204185 0.865202 0.120074
Si Si5 0.060119 0.594466 0.375708
Si Si6 0.195367 0.401133 0.151738
O O1 0.410998 0.866141 0.733571
O O2 0.244608 0.748512 0.734071
O O3 0.364537 0.664376 0.936901
O O4 0.293008 0.894848 0.991298
O O5 0.830253 0.494822 0.282440
O O6 0.802808 0.758208 0.260691
O O7 0.978854 0.659338 0.264569
O O8 0.862247 0.617250 0.012341
O O9 0.500000 0.000000 0.500000
O O10 0.695314 0.957833 0.395640
O O11 0.119979 0.815901 0.000547
O O12 0.133542 0.501306 0.268559
O O13 0.000000 0.500000 0.500000
#
# Coordination Sequence:
#
# PCOD9244326 Si02
#       6
#     4   4   4   4   4   4
#     4  10  22  44  69  97 134 174 224 279 338 408
#     4  11  24  40  65 102 138 179 231 278 343 397
#     4  11  25  47  73 102 132 180 231 279 353 399
#     4  10  20  40  66  94 134 184 218 273 334 403
#     4  10  22  40  62  98 134 183 224 266 339 409
#     4  12  24  45  66  98 143 177 228 293 339 405
#
# _framework density 21.207751999999999
#
# number of rings (size 3 to 8) (size 9 to 14) (size 15 to 20)
#    0.000    1.333    3.333    2.500    0.000    5.333 
#    0.000    1.667    0.000    0.000    0.000    0.000 
#    0.000    0.000    0.000    0.000    0.000    0.000 
#
# Total GULP energy -133992.802855 kJ/mol
# GULP energy per Si atom -5583.033452 kJ/mol
# Density = 2.115948 g / cm^3
# Si number density = 21.207752 Si / 1000 Ang^3
#
#
#
# Elastic Constant Matrix: (Units=GPa)
#
#
# Indices 1 2 3 4 5 6 
#
# 1 68.0714 15.8740 31.2077 0.0000 -21.4872 0.0000
# 2 15.8740 63.1643 35.8871 0.0000 -17.4779 0.0000
# 3 31.2077 35.8871 147.4318 0.0000 -13.7114 0.0000
# 4 0.0000 0.0000 0.0000 42.9387 0.0000 -14.1894
# 5 -21.4872 -17.4779 -13.7114 0.0000 34.6903 0.0000
# 6 0.0000 0.0000 0.0000 -14.1894 0.0000 23.7192
#
#
#
# Elastic Compliance Matrix: (Units=1/GPa)
#
#
# Indices 1 2 3 4 5 6 
#
# 1 0.019560 -0.000167 -0.003095 0.000000 0.010808 0.000000
# 2 -0.000167 0.020643 -0.004186 0.000000 0.008643 0.000000
# 3 -0.003095 -0.004186 0.008391 0.000000 -0.000709 0.000000
# 4 0.000000 0.000000 0.000000 0.029027 0.000000 0.017365
# 5 0.010808 0.008643 -0.000709 0.000000 0.039595 0.000000
# 6 0.000000 0.000000 0.000000 0.017365 0.000000 0.052548
#
#
# Mechanical properties :
#
#
# Convention : Reuss Voigt Hill
#
# Bulk Modulus (GPa) = 29.67391 49.40057 39.53724
# Shear Modulus (GPa) = 25.52427 33.31622 29.42024
#
# Velocity S-wave (km/s) = 3.47296 3.96782 3.72861
# Velocity P-wave (km/s) = 5.48674 6.65850 6.10082
#
# Compressibility (1/GPa) = 0.03369963
#
# Stress axis : x y z
#
# Youngs Moduli (GPa) = 51.12546 48.44176 119.17867
#
# Poissons Ratio (x) = 0.00808 0.36880
# Poissons Ratio (y) = 0.00853 0.49886
# Poissons Ratio (z) = 0.15821 0.20277
#
# Static dielectric constant tensor:
#      x y z
#    x 1.833350 0.000000 -0.023540 
#    y 0.000000 1.771010 0.000000 
#    z -0.023540 0.000000 1.790600 
# 
# From -- ./inp_files/15060.got.cif
#   From: 2010.05.17/outbox.cif.g08.bks.cpg/sg14_8_cif.got.tgz:15060.got - 2010.06.03 17:49:19.
