data_PCOD9244944
_publ_section_title
;
Structure prediction by ZEFSAII (Michael W. Deem and Ramdas Pophale) SiO2 
 PCOD9244944
Probable space group: P 21/C
;
_chemical_formula_sum "Si O2"
_cell_formula_units_Z 28
_cell_length_a 8.282945
_cell_length_b 14.297649
_cell_length_c 11.525714
_cell_angle_alpha 90.000000
_cell_angle_beta 124.588659
_cell_angle_gamma 90.000000
_cell_volume 1123.694687
_symmetry_space_group_name_H-M "P 21/C"
_symmetry_group_IT_number 14
_symmetry_cell_setting 'monoclinic'
loop_
_space_group_symop_operation_xyz
x,y,z
-x,1/2+y,1/2-z
-x,-y,-z
x,1/2-y,1/2+z
loop_
_atom_site_type_symbol
_atom_site_label
_atom_site_fract_x
_atom_site_fract_y
_atom_site_fract_z
Si Si1 0.772557 0.083136 0.754146
Si Si2 0.432573 0.203219 0.842684
Si Si3 0.976785 0.891844 0.362232
Si Si4 0.754692 0.443873 0.709884
Si Si5 0.661093 0.006265 0.926683
Si Si6 0.425538 0.293092 0.082784
Si Si7 0.041136 0.780387 0.606190
O O1 0.871401 0.071783 0.670907
O O2 0.775570 0.002778 0.852869
O O3 0.545121 0.110226 0.640796
O O4 0.884464 0.174845 0.852330
O O5 0.558328 0.108200 0.889411
O O6 0.463352 0.249490 0.728195
O O7 0.201264 0.175434 0.754516
O O8 0.489404 0.252415 0.984986
O O9 0.087509 0.830872 0.503254
O O10 0.853635 0.985639 0.342895
O O11 0.522890 0.437591 0.638282
O O12 0.778278 0.494857 0.594448
O O13 0.855656 0.344203 0.755215
O O14 0.191465 0.294108 0.979977
#
# Coordination Sequence:
#
# PCOD9244944 Si02
#       7
#     4   4   4   4   4   4   4
#     4  11  23  38  64  92 126 157 215 270 300 367
#     4   9  18  37  56  88 122 161 202 259 310 366
#     4  10  22  38  60  90 124 161 205 260 314 371
#     4  10  21  42  65  85 127 171 207 245 321 385
#     4   9  21  39  65  89 121 168 210 250 313 380
#     4  10  21  35  58  89 127 156 211 261 309 367
#     4  11  23  39  65  92 123 172 208 255 319 373
#
# _framework density 24.917802999999999
#
# number of rings (size 3 to 8) (size 9 to 14) (size 15 to 20)
#    0.000    2.000    1.429    2.143    6.000    0.571 
#    0.000    2.857    0.000    0.000    0.000    0.000 
#    0.000    0.000    0.000    0.000    0.000    0.000 
#
# Total GULP energy -156377.325579 kJ/mol
# GULP energy per Si atom -5584.904485 kJ/mol
# Density = 2.486109 g / cm^3
# Si number density = 24.917803 Si / 1000 Ang^3
#
#
#
# Elastic Constant Matrix: (Units=GPa)
#
#
# Indices 1 2 3 4 5 6 
#
# 1 91.7542 -13.1240 13.9033 0.0000 -8.1065 0.0000
# 2 -13.1240 31.7622 14.3993 0.0000 -0.1331 0.0000
# 3 13.9033 14.3993 105.4489 0.0000 -2.1789 0.0000
# 4 0.0000 0.0000 0.0000 35.2465 0.0000 -9.0254
# 5 -8.1065 -0.1331 -2.1789 0.0000 48.2018 0.0000
# 6 0.0000 0.0000 0.0000 -9.0254 0.0000 20.7403
#
#
#
# Elastic Compliance Matrix: (Units=1/GPa)
#
#
# Indices 1 2 3 4 5 6 
#
# 1 0.012330 0.006206 -0.002432 0.000000 0.001981 0.000000
# 2 0.006206 0.036685 -0.005809 0.000000 0.000882 0.000000
# 3 -0.002432 -0.005809 0.010598 0.000000 0.000054 0.000000
# 4 0.000000 0.000000 0.000000 0.031930 0.000000 0.013895
# 5 0.001981 0.000882 0.000054 0.000000 0.021084 0.000000
# 6 0.000000 0.000000 0.000000 0.013895 0.000000 0.054262
#
#
# Mechanical properties :
#
#
# Convention : Reuss Voigt Hill
#
# Bulk Modulus (GPa) = 18.00454 28.81363 23.40909
# Shear Modulus (GPa) = 26.38870 35.09015 30.73943
#
# Velocity S-wave (km/s) = 3.25780 3.75672 3.51612
# Velocity P-wave (km/s) = 4.62518 5.51415 5.08911
#
# Compressibility (1/GPa) = 0.05554153
#
# Stress axis : x y z
#
# Youngs Moduli (GPa) = 81.10417 27.25875 94.35427
#
# Poissons Ratio (x) = -0.16916 0.22948
# Poissons Ratio (y) = -0.50329 0.54815
# Poissons Ratio (z) = 0.19726 0.15836
#
# Static dielectric constant tensor:
#      x y z
#    x 2.042060 0.000000 -0.056640 
#    y 0.000000 1.966570 0.000000 
#    z -0.056640 0.000000 2.048700 
# 
# From -- ./inp_files/25356.got.cif
#   From: 2010.05.17/outbox.cif.g08.bks.cpg/sg14_13_cif.got.tgz:25356.got - 2010.06.03 17:49:19.
