data_PCOD9244755
_publ_section_title
;
Structure prediction by ZEFSAII (Michael W. Deem and Ramdas Pophale) SiO2 
 PCOD9244755
Probable space group: P 21/C
;
_chemical_formula_sum "Si O2"
_cell_formula_units_Z 30
_cell_length_a 18.389595
_cell_length_b 5.124564
_cell_length_c 23.627328
_cell_angle_alpha 90.000000
_cell_angle_beta 29.838931
_cell_angle_gamma 90.000000
_cell_volume 1107.878628
_symmetry_space_group_name_H-M "P 21/C"
_symmetry_group_IT_number 14
_symmetry_cell_setting 'monoclinic'
loop_
_space_group_symop_operation_xyz
x,y,z
-x,1/2+y,1/2-z
-x,-y,-z
x,1/2-y,1/2+z
loop_
_atom_site_type_symbol
_atom_site_label
_atom_site_fract_x
_atom_site_fract_y
_atom_site_fract_z
Si Si1 0.500000 0.000000 0.000000
Si Si2 0.143074 0.902981 0.516984
Si Si3 0.571152 0.280755 0.727882
Si Si4 0.668435 0.814717 0.306164
Si Si5 0.893590 0.552503 0.733991
Si Si6 0.562410 0.516526 0.575471
Si Si7 0.902610 0.751373 0.051589
Si Si8 0.148696 0.262251 0.110887
O O1 0.347683 0.083610 0.136718
O O2 0.551482 0.845478 0.021974
O O3 0.259856 0.736907 0.402588
O O4 0.134965 0.174920 0.487292
O O5 0.198190 0.989347 0.541414
O O6 0.994637 0.743499 0.627387
O O7 0.491338 0.066586 0.741612
O O8 0.538533 0.166661 0.811792
O O9 0.755048 0.017846 0.287734
O O10 0.499873 0.772265 0.398501
O O11 0.762750 0.771557 0.186639
O O12 0.993969 0.314883 0.687857
O O13 0.864701 0.688198 0.813819
O O14 0.728039 0.544881 0.482731
O O15 0.000000 0.500000 0.000000
O O16 0.000000 0.000000 0.000000
#
# Coordination Sequence:
#
# PCOD9244755 Si02
#       8
#     2   4   4   4   4   4   4   4
#     4   8  18  36  76  94 136 192 236 304 356 432
#     4  12  25  42  66 103 136 185 233 296 362 433
#     4  12  26  45  72 104 143 188 242 301 364 434
#     4  10  20  43  70  98 140 187 249 291 369 429
#     4  12  23  40  69  98 137 188 229 302 358 435
#     4  10  20  43  70  98 140 187 244 299 362 435
#     4  12  26  45  72 104 144 189 239 302 367 438
#     4  12  23  41  67 100 141 181 242 293 371 428
#
# _framework density 27.078779999999998
#
# number of rings (size 3 to 8) (size 9 to 14) (size 15 to 20)
#    0.800    0.000    6.667    1.600    0.000    0.000 
#    0.000    0.000    0.000    2.400    0.000    0.000 
#    0.000    0.000    0.000    0.000    0.000    0.000 
#
# Total GULP energy -167162.246945 kJ/mol
# GULP energy per Si atom -5572.074898 kJ/mol
# Density = 2.701715 g / cm^3
# Si number density = 27.078780 Si / 1000 Ang^3
#
#
#
# Elastic Constant Matrix: (Units=GPa)
#
#
# Indices 1 2 3 4 5 6 
#
# 1 97.4878 20.8410 24.3173 0.0000 15.5784 0.0000
# 2 20.8410 98.2099 27.6988 0.0000 -1.6213 0.0000
# 3 24.3173 27.6988 139.6413 0.0000 34.4369 0.0000
# 4 0.0000 0.0000 0.0000 8.5871 0.0000 -5.7844
# 5 15.5784 -1.6213 34.4369 0.0000 58.0541 0.0000
# 6 0.0000 0.0000 0.0000 -5.7844 0.0000 23.8877
#
#
#
# Elastic Compliance Matrix: (Units=1/GPa)
#
#
# Indices 1 2 3 4 5 6 
#
# 1 0.011365 -0.002198 -0.000909 0.000000 -0.002572 0.000000
# 2 -0.002198 0.011381 -0.002458 0.000000 0.002366 0.000000
# 3 -0.000909 -0.002458 0.009094 0.000000 -0.005219 0.000000
# 4 0.000000 0.000000 0.000000 0.139152 0.000000 0.033696
# 5 -0.002572 0.002366 -0.005219 0.000000 0.021078 0.000000
# 6 0.000000 0.000000 0.000000 0.033696 0.000000 0.050022
#
#
# Mechanical properties :
#
#
# Convention : Reuss Voigt Hill
#
# Bulk Modulus (GPa) = 48.28465 53.45035 50.86750
# Shear Modulus (GPa) = 19.22147 35.60458 27.41302
#
# Velocity S-wave (km/s) = 2.66716 3.63002 3.18519
# Velocity P-wave (km/s) = 5.23019 6.11155 5.68797
#
# Compressibility (1/GPa) = 0.02071052
#
# Stress axis : x y z
#
# Youngs Moduli (GPa) = 87.98715 87.86536 109.96004
#
# Poissons Ratio (x) = 0.19312 0.09994
# Poissons Ratio (y) = 0.19339 0.27030
# Poissons Ratio (z) = 0.07997 0.21599
#
# Static dielectric constant tensor:
#      x y z
#    x 2.354950 0.000000 0.010480 
#    y 0.000000 2.231440 0.000000 
#    z 0.010480 0.000000 2.052320 
# 
# From -- ./inp_files/74504.got.cif
#   From: 2010.05.17/outbox.cif.g08.bks.cpg/sg14_38_cif.got.tgz:74504.got - 2010.06.03 17:49:19.
