data_PCOD9244229
_publ_section_title
;
Structure prediction by ZEFSAII (Michael W. Deem and Ramdas Pophale) SiO2 
 PCOD9244229
Probable space group: P 21/C
;
_chemical_formula_sum "Si O2"
_cell_formula_units_Z 24
_cell_length_a 9.665352
_cell_length_b 11.331378
_cell_length_c 10.590381
_cell_angle_alpha 90.000000
_cell_angle_beta 131.174495
_cell_angle_gamma 90.000000
_cell_volume 873.048853
_symmetry_space_group_name_H-M "P 21/C"
_symmetry_group_IT_number 14
_symmetry_cell_setting 'monoclinic'
loop_
_space_group_symop_operation_xyz
x,y,z
-x,1/2+y,1/2-z
-x,-y,-z
x,1/2-y,1/2+z
loop_
_atom_site_type_symbol
_atom_site_label
_atom_site_fract_x
_atom_site_fract_y
_atom_site_fract_z
Si Si1 0.294984 0.949388 0.697879
Si Si2 0.370978 0.985746 0.233740
Si Si3 0.800467 0.277805 0.455409
Si Si4 0.497017 0.197064 0.471456
Si Si5 0.884528 0.775486 0.206117
Si Si6 0.974673 0.994762 0.689699
O O1 0.295512 0.807950 0.704558
O O2 0.198503 0.975992 0.504190
O O3 0.489619 0.008563 0.800074
O O4 0.162419 0.996317 0.723530
O O5 0.198416 0.915021 0.076715
O O6 0.441549 0.897492 0.386269
O O7 0.381646 0.114863 0.300216
O O8 0.665611 0.255280 0.495450
O O9 0.005485 0.227275 0.594107
O O10 0.334563 0.280656 0.425046
O O11 0.986225 0.887856 0.201840
O O12 0.939871 0.641948 0.199926
#
# Coordination Sequence:
#
# PCOD9244229 Si02
#       6
#     4   4   4   4   4   4
#     4   9  19  39  60  87 123 174 207 258 322 388
#     4  10  20  40  64  88 127 169 215 256 322 389
#     4  10  23  38  63  98 124 161 222 271 314 379
#     4  10  22  41  65  88 129 176 207 259 330 386
#     4  11  23  42  62  97 128 167 218 266 323 378
#     4  10  21  38  64  90 128 167 217 259 321 382
#
# _framework density 27.489868999999999
#
# number of rings (size 3 to 8) (size 9 to 14) (size 15 to 20)
#    0.000    2.000    1.667    1.000    4.667    0.667 
#    6.000    1.667    0.000    0.000    0.000    0.000 
#    0.000    0.000    0.000    0.000    0.000    0.000 
#
# Total GULP energy -133975.398777 kJ/mol
# GULP energy per Si atom -5582.308282 kJ/mol
# Density = 2.742730 g / cm^3
# Si number density = 27.489869 Si / 1000 Ang^3
#
#
#
# Elastic Constant Matrix: (Units=GPa)
#
#
# Indices 1 2 3 4 5 6 
#
# 1 115.8746 5.6794 7.1493 0.0000 8.3170 0.0000
# 2 5.6794 149.5588 22.4631 0.0000 -1.1126 0.0000
# 3 7.1493 22.4631 33.4539 0.0000 13.2540 0.0000
# 4 0.0000 0.0000 0.0000 51.6160 0.0000 14.5654
# 5 8.3170 -1.1126 13.2540 0.0000 18.3866 0.0000
# 6 0.0000 0.0000 0.0000 14.5654 0.0000 27.3562
#
#
#
# Elastic Compliance Matrix: (Units=1/GPa)
#
#
# Indices 1 2 3 4 5 6 
#
# 1 0.008940 -0.000357 -0.000085 0.000000 -0.004005 0.000000
# 2 -0.000357 0.007898 -0.007671 0.000000 0.006169 0.000000
# 3 -0.000085 -0.007671 0.049313 0.000000 -0.035973 0.000000
# 4 0.000000 0.000000 0.000000 0.022799 0.000000 -0.012139
# 5 -0.004005 0.006169 -0.035973 0.000000 0.082503 0.000000
# 6 0.000000 0.000000 0.000000 -0.012139 0.000000 0.043018
#
#
# Mechanical properties :
#
#
# Convention : Reuss Voigt Hill
#
# Bulk Modulus (GPa) = 20.02934 41.05232 30.54083
# Shear Modulus (GPa) = 20.21524 37.04481 28.63002
#
# Velocity S-wave (km/s) = 2.71471 3.67492 3.23069
# Velocity P-wave (km/s) = 4.13861 5.74219 5.00504
#
# Compressibility (1/GPa) = 0.04992677
#
# Stress axis : x y z
#
# Youngs Moduli (GPa) = 111.85491 126.61567 20.27866
#
# Poissons Ratio (x) = 0.04515 0.00171
# Poissons Ratio (y) = 0.03989 0.15556
# Poissons Ratio (z) = 0.00945 0.97127
#
# Static dielectric constant tensor:
#      x y z
#    x 2.131070 0.000000 -0.057790 
#    y 0.000000 2.251330 0.000000 
#    z -0.057790 0.000000 2.244510 
# 
# From -- ./inp_files/28763.got.cif
#   From: 2010.05.17/outbox.cif.g08.bks.cpg/sg14_15_cif.got.tgz:28763.got - 2010.06.03 17:49:19.
