data_PCOD9244232
_publ_section_title
;
Structure prediction by ZEFSAII (Michael W. Deem and Ramdas Pophale) SiO2 
 PCOD9244232
Probable space group: P 21/C
;
_chemical_formula_sum "Si O2"
_cell_formula_units_Z 24
_cell_length_a 13.505336
_cell_length_b 14.066842
_cell_length_c 11.056350
_cell_angle_alpha 90.000000
_cell_angle_beta 150.542707
_cell_angle_gamma 90.000000
_cell_volume 1032.951535
_symmetry_space_group_name_H-M "P 21/C"
_symmetry_group_IT_number 14
_symmetry_cell_setting 'monoclinic'
loop_
_space_group_symop_operation_xyz
x,y,z
-x,1/2+y,1/2-z
-x,-y,-z
x,1/2-y,1/2+z
loop_
_atom_site_type_symbol
_atom_site_label
_atom_site_fract_x
_atom_site_fract_y
_atom_site_fract_z
Si Si1 0.418945 0.538694 0.208258
Si Si2 0.130972 0.500068 0.401187
Si Si3 0.128017 0.691523 0.886940
Si Si4 0.277503 0.468881 0.806455
Si Si5 0.864902 0.927920 0.434123
Si Si6 0.947133 0.771285 0.935039
O O1 0.286099 0.503953 0.951954
O O2 0.334509 0.479569 0.231357
O O3 0.352244 0.648699 0.147094
O O4 0.647073 0.514486 0.419041
O O5 0.020170 0.400065 0.259223
O O6 0.145478 0.517020 0.560233
O O7 0.010893 0.581960 0.205474
O O8 0.065614 0.756931 0.934604
O O9 0.092531 0.719754 0.708507
O O10 0.209674 0.358913 0.731384
O O11 0.500000 0.500000 0.000000
O O12 0.831153 0.827833 0.336367
O O13 0.000000 0.000000 0.500000
#
# Coordination Sequence:
#
# PCOD9244232 Si02
#       6
#     4   4   4   4   4   4
#     4  10  20  40  64  89 126 174 211 271 341 394
#     4   9  20  39  62  90 126 167 217 265 338 402
#     4  10  22  39  62  92 130 171 219 275 334 392
#     4   9  20  39  66  93 128 176 220 265 339 409
#     4  11  21  38  61  89 125 168 215 268 339 385
#     4  11  21  40  61  93 130 165 223 280 319 402
#
# _framework density 23.234389
#
# number of rings (size 3 to 8) (size 9 to 14) (size 15 to 20)
#    0.000    2.000    3.333    1.000    0.000    8.000 
#    0.000   13.333    0.000    0.000    0.000    0.000 
#    0.000    0.000    0.000    0.000    0.000    0.000 
#
# Total GULP energy -133928.543380 kJ/mol
# GULP energy per Si atom -5580.355974 kJ/mol
# Density = 2.318151 g / cm^3
# Si number density = 23.234389 Si / 1000 Ang^3
#
#
#
# Elastic Constant Matrix: (Units=GPa)
#
#
# Indices 1 2 3 4 5 6 
#
# 1 161.7827 49.9520 34.6493 0.0000 -2.7767 0.0000
# 2 49.9520 112.4424 20.4919 0.0000 -8.0613 0.0000
# 3 34.6493 20.4919 92.9709 0.0000 -2.8894 0.0000
# 4 0.0000 0.0000 0.0000 27.9232 0.0000 -10.4773
# 5 -2.7767 -8.0613 -2.8894 0.0000 43.6185 0.0000
# 6 0.0000 0.0000 0.0000 -10.4773 0.0000 36.6003
#
#
#
# Elastic Compliance Matrix: (Units=1/GPa)
#
#
# Indices 1 2 3 4 5 6 
#
# 1 0.007562 -0.002979 -0.002168 0.000000 -0.000213 0.000000
# 2 -0.002979 0.010550 -0.001163 0.000000 0.001683 0.000000
# 3 -0.002168 -0.001163 0.011834 0.000000 0.000431 0.000000
# 4 0.000000 0.000000 0.000000 0.040122 0.000000 0.011485
# 5 -0.000213 0.001683 0.000431 0.000000 0.023252 0.000000
# 6 0.000000 0.000000 0.000000 0.011485 0.000000 0.030610
#
#
# Mechanical properties :
#
#
# Convention : Reuss Voigt Hill
#
# Bulk Modulus (GPa) = 57.72036 64.15358 60.93697
# Shear Modulus (GPa) = 35.13105 39.10194 37.11650
#
# Velocity S-wave (km/s) = 3.89270 4.10681 4.00119
# Velocity P-wave (km/s) = 6.71571 7.08232 6.90145
#
# Compressibility (1/GPa) = 0.01732491
#
# Stress axis : x y z
#
# Youngs Moduli (GPa) = 132.24465 94.79068 84.50428
#
# Poissons Ratio (x) = 0.28242 0.18321
# Poissons Ratio (y) = 0.39401 0.09824
# Poissons Ratio (z) = 0.28672 0.11020
#
# Static dielectric constant tensor:
#      x y z
#    x 1.957940 0.000000 -0.044730 
#    y 0.000000 1.890780 0.000000 
#    z -0.044730 0.000000 1.957210 
# 
# From -- ./inp_files/32661.got.cif
#   From: 2010.05.17/outbox.cif.g08.bks.cpg/sg14_17_cif.got.tgz:32661.got - 2010.06.03 17:49:19.
