data_PCOD9244659
_publ_section_title
;
Structure prediction by ZEFSAII (Michael W. Deem and Ramdas Pophale) SiO2 
 PCOD9244659
Probable space group: P 21/C
;
_chemical_formula_sum "Si O2"
_cell_formula_units_Z 26
_cell_length_a 7.857816
_cell_length_b 22.753736
_cell_length_c 9.270443
_cell_angle_alpha 90.000000
_cell_angle_beta 34.894925
_cell_angle_gamma 90.000000
_cell_volume 948.214692
_symmetry_space_group_name_H-M "P 21/C"
_symmetry_group_IT_number 14
_symmetry_cell_setting 'monoclinic'
loop_
_space_group_symop_operation_xyz
x,y,z
-x,1/2+y,1/2-z
-x,-y,-z
x,1/2-y,1/2+z
loop_
_atom_site_type_symbol
_atom_site_label
_atom_site_fract_x
_atom_site_fract_y
_atom_site_fract_z
Si Si1 0.327382 0.751283 0.825623
Si Si2 0.500000 0.000000 0.000000
Si Si3 0.747752 0.896032 0.679603
Si Si4 0.396496 0.466145 0.253688
Si Si5 0.790562 0.408168 0.624681
Si Si6 0.188767 0.640185 0.086908
Si Si7 0.030646 0.192464 0.679351
O O1 0.373714 0.693894 0.895007
O O2 0.190824 0.725393 0.774939
O O3 0.081644 0.789704 0.084472
O O4 0.641373 0.781389 0.577017
O O5 0.734348 0.963260 0.734837
O O6 0.335514 0.025305 0.967112
O O7 0.402900 0.887371 0.876502
O O8 0.933712 0.873695 0.412357
O O9 0.869023 0.857908 0.729269
O O10 0.391383 0.532898 0.198783
O O11 0.120638 0.431894 0.371912
O O12 0.669319 0.421644 0.059026
O O13 0.808411 0.363035 0.743780
#
# Coordination Sequence:
#
# PCOD9244659 Si02
#       7
#     4   2   4   4   4   4   4
#     4  11  27  45  78 101 149 189 253 310 389 438
#     4  10  20  42  68 100 142 192 228 306 362 460
#     4  10  24  43  69 101 143 183 247 295 382 441
#     4  10  22  41  67  99 143 183 240 293 372 433
#     4  10  22  42  64 101 136 182 232 300 354 447
#     4  11  24  43  67  97 135 189 236 300 366 447
#     4  11  26  49  71 113 142 198 249 322 376 467
#
# _framework density 27.419948000000002
#
# number of rings (size 3 to 8) (size 9 to 14) (size 15 to 20)
#    0.000    1.538    1.538    1.385    6.462    4.923 
#    8.308    0.000    0.000    0.000    0.000    0.000 
#    0.000    0.000    0.000    0.000    0.000    0.000 
#
# Total GULP energy -145041.582804 kJ/mol
# GULP energy per Si atom -5578.522416 kJ/mol
# Density = 2.735754 g / cm^3
# Si number density = 27.419948 Si / 1000 Ang^3
#
#
#
# Elastic Constant Matrix: (Units=GPa)
#
#
# Indices 1 2 3 4 5 6 
#
# 1 188.5846 18.1667 64.6136 0.0000 -1.2278 0.0000
# 2 18.1667 79.4912 35.3153 0.0000 -4.7606 0.0000
# 3 64.6136 35.3153 99.8389 0.0000 -5.6916 0.0000
# 4 0.0000 0.0000 0.0000 40.5178 0.0000 -3.6351
# 5 -1.2278 -4.7606 -5.6916 0.0000 35.2080 0.0000
# 6 0.0000 0.0000 0.0000 -3.6351 0.0000 28.7590
#
#
#
# Elastic Compliance Matrix: (Units=1/GPa)
#
#
# Indices 1 2 3 4 5 6 
#
# 1 0.006836 0.000460 -0.004612 0.000000 -0.000445 0.000000
# 2 0.000460 0.015005 -0.005540 0.000000 0.001149 0.000000
# 3 -0.004612 -0.005540 0.015047 0.000000 0.001523 0.000000
# 4 0.000000 0.000000 0.000000 0.024964 0.000000 0.003155
# 5 -0.000445 0.001149 0.001523 0.000000 0.028789 0.000000
# 6 0.000000 0.000000 0.000000 0.003155 0.000000 0.035171
#
#
# Mechanical properties :
#
#
# Convention : Reuss Voigt Hill
#
# Bulk Modulus (GPa) = 57.12862 67.12288 62.12575
# Shear Modulus (GPa) = 33.10631 37.55158 35.32894
#
# Velocity S-wave (km/s) = 3.47851 3.70469 3.59338
# Velocity P-wave (km/s) = 6.08385 6.54464 6.31845
#
# Compressibility (1/GPa) = 0.01750436
#
# Stress axis : x y z
#
# Youngs Moduli (GPa) = 146.29271 66.64518 66.45729
#
# Poissons Ratio (x) = -0.03066 0.30650
# Poissons Ratio (y) = -0.06731 0.36816
# Poissons Ratio (z) = 0.67470 0.36920
#
# Static dielectric constant tensor:
#      x y z
#    x 1.693660 0.000000 -0.281240 
#    y 0.000000 2.251640 0.000000 
#    z -0.281240 0.000000 1.943000 
# 
# From -- ./inp_files/27085.got.cif
#   From: 2010.05.17/outbox.cif.g08.bks.cpg/sg14_14_cif.got.tgz:27085.got - 2010.06.03 17:49:19.
