data_PCOD9244173
_publ_section_title
;
Structure prediction by ZEFSAII (Michael W. Deem and Ramdas Pophale) SiO2 
 PCOD9244173
Probable space group: P 21/C
;
_chemical_formula_sum "Si O2"
_cell_formula_units_Z 24
_cell_length_a 9.764395
_cell_length_b 9.408430
_cell_length_c 20.796701
_cell_angle_alpha 90.000000
_cell_angle_beta 31.657085
_cell_angle_gamma 90.000000
_cell_volume 1002.718680
_symmetry_space_group_name_H-M "P 21/C"
_symmetry_group_IT_number 14
_symmetry_cell_setting 'monoclinic'
loop_
_space_group_symop_operation_xyz
x,y,z
-x,1/2+y,1/2-z
-x,-y,-z
x,1/2-y,1/2+z
loop_
_atom_site_type_symbol
_atom_site_label
_atom_site_fract_x
_atom_site_fract_y
_atom_site_fract_z
Si Si1 0.966188 0.934655 0.921390
Si Si2 0.567553 0.029062 0.677193
Si Si3 0.414630 0.419896 0.098657
Si Si4 0.606451 0.732673 0.650931
Si Si5 0.354888 0.638492 0.531609
Si Si6 0.161991 0.807290 0.728885
O O1 0.268518 0.973856 0.805977
O O2 0.956496 0.809801 0.869664
O O3 0.814720 0.075396 0.958818
O O4 0.834635 0.869366 0.036251
O O5 0.721222 0.883494 0.628900
O O6 0.589572 0.067114 0.593305
O O7 0.577038 0.158345 0.722505
O O8 0.170284 0.522844 0.211357
O O9 0.500000 0.500000 0.000000
O O10 0.430548 0.253662 0.077501
O O11 0.429211 0.760112 0.658391
O O12 0.500000 0.500000 0.500000
O O13 0.178636 0.719499 0.656199
#
# Coordination Sequence:
#
# PCOD9244173 Si02
#       6
#     4   4   4   4   4   4
#     4  10  21  37  60  89 122 154 202 248 302 358
#     4  10  23  39  63  86 119 164 195 251 302 357
#     4   8  18  37  58  80 118 153 193 244 308 339
#     4  10  20  40  61  82 122 158 196 245 302 357
#     4  11  20  35  65  88 115 160 206 247 298 361
#     4   9  21  41  58  88 122 160 192 253 307 352
#
# _framework density 23.934927999999999
#
# number of rings (size 3 to 8) (size 9 to 14) (size 15 to 20)
#    0.000    2.667    1.667    0.500    2.333    2.667 
#    6.000    3.333    3.667    0.000    0.000    0.000 
#    0.000    0.000    0.000    0.000    0.000    0.000 
#
# Total GULP energy -133663.897006 kJ/mol
# GULP energy per Si atom -5569.329042 kJ/mol
# Density = 2.388045 g / cm^3
# Si number density = 23.934928 Si / 1000 Ang^3
#
#
#
# Elastic Constant Matrix: (Units=GPa)
#
#
# Indices 1 2 3 4 5 6 
#
# 1 37.9170 30.5119 17.6791 0.0000 13.1870 0.0000
# 2 30.5119 166.7623 21.2467 0.0000 21.0809 0.0000
# 3 17.6791 21.2467 67.5415 0.0000 32.6563 0.0000
# 4 0.0000 0.0000 0.0000 49.5509 0.0000 10.6519
# 5 13.1870 21.0809 32.6563 0.0000 41.6159 0.0000
# 6 0.0000 0.0000 0.0000 10.6519 0.0000 39.9942
#
#
#
# Elastic Compliance Matrix: (Units=1/GPa)
#
#
# Indices 1 2 3 4 5 6 
#
# 1 0.034420 -0.005091 -0.005449 0.000000 -0.004052 0.000000
# 2 -0.005091 0.007182 0.000084 0.000000 -0.002091 0.000000
# 3 -0.005449 0.000084 0.024801 0.000000 -0.017778 0.000000
# 4 0.000000 0.000000 0.000000 0.021407 0.000000 -0.005701
# 5 -0.004052 -0.002091 -0.017778 0.000000 0.040323 0.000000
# 6 0.000000 0.000000 0.000000 -0.005701 0.000000 0.026522
#
#
# Mechanical properties :
#
#
# Convention : Reuss Voigt Hill
#
# Bulk Modulus (GPa) = 21.98211 45.67736 33.82973
# Shear Modulus (GPa) = 26.21517 39.75108 32.98312
#
# Velocity S-wave (km/s) = 3.31307 4.07971 3.71621
# Velocity P-wave (km/s) = 4.88255 6.42786 5.70775
#
# Compressibility (1/GPa) = 0.04549154
#
# Stress axis : x y z
#
# Youngs Moduli (GPa) = 29.05275 139.24377 40.32124
#
# Poissons Ratio (x) = 0.70893 0.21970
# Poissons Ratio (y) = 0.14792 -0.00340
# Poissons Ratio (z) = 0.15830 -0.01176
#
# Static dielectric constant tensor:
#      x y z
#    x 2.012120 0.000000 -0.016020 
#    y 0.000000 2.032930 0.000000 
#    z -0.016020 0.000000 2.022430 
# 
# From -- ./inp_files/73033.got.cif
#   From: 2010.05.17/outbox.cif.g08.bks.cpg/sg14_37_cif.got.tgz:73033.got - 2010.06.03 17:49:19.
