data_PCOD9244453
_publ_section_title
;
Structure prediction by ZEFSAII (Michael W. Deem and Ramdas Pophale) SiO2 
 PCOD9244453
Probable space group: P 21/C
;
_chemical_formula_sum "Si O2"
_cell_formula_units_Z 32
_cell_length_a 12.580722
_cell_length_b 8.863931
_cell_length_c 19.448646
_cell_angle_alpha 90.000000
_cell_angle_beta 43.244976
_cell_angle_gamma 90.000000
_cell_volume 1485.892504
_symmetry_space_group_name_H-M "P 21/C"
_symmetry_group_IT_number 14
_symmetry_cell_setting 'monoclinic'
loop_
_space_group_symop_operation_xyz
x,y,z
-x,1/2+y,1/2-z
-x,-y,-z
x,1/2-y,1/2+z
loop_
_atom_site_type_symbol
_atom_site_label
_atom_site_fract_x
_atom_site_fract_y
_atom_site_fract_z
Si Si1 0.821338 0.497887 0.066970
Si Si2 0.966951 0.503236 0.598564
Si Si3 0.612160 0.003256 0.260540
Si Si4 0.436309 0.966043 0.954960
Si Si5 0.585593 0.844953 0.760022
Si Si6 0.371448 0.021714 0.503421
Si Si7 0.763242 0.779114 0.992450
Si Si8 0.172353 0.739213 0.048280
O O1 0.718168 0.533625 0.180781
O O2 0.787132 0.645603 0.036155
O O3 0.787410 0.341442 0.043837
O O4 0.000000 0.500000 0.000000
O O5 0.084363 0.380742 0.575639
O O6 0.013622 0.669352 0.606824
O O7 0.000000 0.500000 0.500000
O O8 0.789111 0.460788 0.696774
O O9 0.621923 0.829487 0.231251
O O10 0.553096 0.105147 0.225317
O O11 0.482422 0.015447 0.382019
O O12 0.548996 0.864520 0.856926
O O13 0.280347 0.868798 0.028044
O O14 0.500000 0.000000 0.000000
O O15 0.386149 0.111634 0.933461
O O16 0.283495 0.181226 0.551930
O O17 0.500000 0.000000 0.500000
O O18 0.229706 0.901189 0.568359
#
# Coordination Sequence:
#
# PCOD9244453 Si02
#       8
#     4   4   4   4   4   4   4   4
#     4  11  21  38  64  95 127 164 209 265 333 379
#     4  11  23  39  64  96 134 169 209 272 333 382
#     4  12  25  41  68  99 126 170 223 270 328 382
#     4  11  22  38  64  91 124 171 211 261 316 379
#     4  12  22  39  64  97 129 163 220 279 311 382
#     4  11  23  44  69  91 130 178 217 268 319 384
#     4  10  22  40  62  90 127 166 215 256 323 386
#     4  10  20  41  63  89 128 168 210 262 318 381
#
# _framework density 21.535878
#
# number of rings (size 3 to 8) (size 9 to 14) (size 15 to 20)
#    0.000    1.000    3.750    5.250    0.000    1.000 
#    0.000    1.250   11.000    0.000    0.000    0.000 
#    0.000    0.000    0.000    0.000    0.000    0.000 
#
# Total GULP energy -178207.562728 kJ/mol
# GULP energy per Si atom -5568.986335 kJ/mol
# Density = 2.148686 g / cm^3
# Si number density = 21.535878 Si / 1000 Ang^3
#
#
#
# Elastic Constant Matrix: (Units=GPa)
#
#
# Indices 1 2 3 4 5 6 
#
# 1 136.0765 40.2022 39.9037 0.0000 -14.7959 0.0000
# 2 40.2022 90.1667 1.8964 0.0000 -6.2343 0.0000
# 3 39.9037 1.8964 38.3318 0.0000 -18.5364 0.0000
# 4 0.0000 0.0000 0.0000 18.1882 0.0000 -8.1808
# 5 -14.7959 -6.2343 -18.5364 0.0000 36.6507 0.0000
# 6 0.0000 0.0000 0.0000 -8.1808 0.0000 40.1255
#
#
#
# Elastic Compliance Matrix: (Units=1/GPa)
#
#
# Indices 1 2 3 4 5 6 
#
# 1 0.013047 -0.005728 -0.014857 0.000000 -0.003221 0.000000
# 2 -0.005728 0.013744 0.007009 0.000000 0.003570 0.000000
# 3 -0.014857 0.007009 0.051472 0.000000 0.021227 0.000000
# 4 0.000000 0.000000 0.000000 0.060532 0.000000 0.012341
# 5 -0.003221 0.003570 0.021227 0.000000 0.037327 0.000000
# 6 0.000000 0.000000 0.000000 0.012341 0.000000 0.027438
#
#
# Mechanical properties :
#
#
# Convention : Reuss Voigt Hill
#
# Bulk Modulus (GPa) = 19.56453 47.61994 33.59223
# Shear Modulus (GPa) = 20.18185 31.16441 25.67313
#
# Velocity S-wave (km/s) = 3.06457 3.80819 3.45644
# Velocity P-wave (km/s) = 4.65043 6.44177 5.61796
#
# Compressibility (1/GPa) = 0.05111292
#
# Stress axis : x y z
#
# Youngs Moduli (GPa) = 76.64398 72.76035 19.42810
#
# Poissons Ratio (x) = 0.41674 0.28863
# Poissons Ratio (y) = 0.43898 -0.13617
# Poissons Ratio (z) = 1.13866 -0.50998
#
# Static dielectric constant tensor:
#      x y z
#    x 1.844880 0.000000 0.001230 
#    y 0.000000 1.845200 0.000000 
#    z 0.001230 0.000000 1.863210 
# 
# From -- ./inp_files/67018.got.cif
#   From: 2010.05.17/outbox.cif.g08.bks.cpg/sg14_34_cif.got.tgz:67018.got - 2010.06.03 17:49:19.
