data_PCOD9244374
_publ_section_title
;
Structure prediction by ZEFSAII (Michael W. Deem and Ramdas Pophale) SiO2 
 PCOD9244374
Probable space group: P 21/C
;
_chemical_formula_sum "Si O2"
_cell_formula_units_Z 24
_cell_length_a 18.558872
_cell_length_b 10.880183
_cell_length_c 11.271876
_cell_angle_alpha 90.000000
_cell_angle_beta 26.734275
_cell_angle_gamma 90.000000
_cell_volume 1023.893843
_symmetry_space_group_name_H-M "P 21/C"
_symmetry_group_IT_number 14
_symmetry_cell_setting 'monoclinic'
loop_
_space_group_symop_operation_xyz
x,y,z
-x,1/2+y,1/2-z
-x,-y,-z
x,1/2-y,1/2+z
loop_
_atom_site_type_symbol
_atom_site_label
_atom_site_fract_x
_atom_site_fract_y
_atom_site_fract_z
Si Si1 0.563698 0.400023 0.263483
Si Si2 0.689290 0.500248 0.689847
Si Si3 0.172101 0.717056 0.668685
Si Si4 0.380688 0.873366 0.050910
Si Si5 0.658387 0.779930 0.067271
Si Si6 0.890914 0.891293 0.110037
O O1 0.626369 0.417108 0.304497
O O2 0.489317 0.525203 0.323974
O O3 0.413968 0.309020 0.457693
O O4 0.713453 0.335675 0.984312
O O5 0.757519 0.369580 0.539490
O O6 0.723680 0.600167 0.535704
O O7 0.784844 0.549021 0.663100
O O8 0.500000 0.500000 0.000000
O O9 0.214003 0.646020 0.729603
O O10 0.998763 0.775107 0.906823
O O11 0.500294 0.758411 0.873152
O O12 0.783812 0.671083 0.869983
O O13 0.000000 0.000000 0.000000
#
# Coordination Sequence:
#
# PCOD9244374 Si02
#       6
#     4   4   4   4   4   4
#     4  10  21  40  70 104 134 189 241 295 353 440
#     4  12  27  50  78 105 144 199 248 303 365 441
#     4  11  25  44  70 105 149 188 239 311 368 433
#     4  10  20  40  69 101 136 182 241 295 354 432
#     4  11  23  44  68 102 140 186 241 293 354 441
#     4  12  30  46  72 107 148 194 241 303 379 437
#
# _framework density 23.43993
#
# number of rings (size 3 to 8) (size 9 to 14) (size 15 to 20)
#    0.000    1.000    1.667    5.000    9.333    0.667 
#    6.000    0.000    0.000    0.000    0.000    0.000 
#    0.000    0.000    0.000    0.000    0.000    0.000 
#
# Total GULP energy -133918.476669 kJ/mol
# GULP energy per Si atom -5579.936528 kJ/mol
# Density = 2.338658 g / cm^3
# Si number density = 23.439930 Si / 1000 Ang^3
#
#
#
# Elastic Constant Matrix: (Units=GPa)
#
#
# Indices 1 2 3 4 5 6 
#
# 1 135.0306 33.7897 37.7832 0.0000 -20.0007 0.0000
# 2 33.7897 84.5853 31.9882 0.0000 -12.8586 0.0000
# 3 37.7832 31.9882 85.4851 0.0000 -19.3234 0.0000
# 4 0.0000 0.0000 0.0000 46.4249 0.0000 -1.6452
# 5 -20.0007 -12.8586 -19.3234 0.0000 27.1161 0.0000
# 6 0.0000 0.0000 0.0000 -1.6452 0.0000 36.7758
#
#
#
# Elastic Compliance Matrix: (Units=1/GPa)
#
#
# Indices 1 2 3 4 5 6 
#
# 1 0.009209 -0.002174 -0.002330 0.000000 0.004101 0.000000
# 2 -0.002174 0.014554 -0.003919 0.000000 0.002505 0.000000
# 3 -0.002330 -0.003919 0.015956 0.000000 0.007794 0.000000
# 4 0.000000 0.000000 0.000000 0.021574 0.000000 0.000965
# 5 0.004101 0.002505 0.007794 0.000000 0.046646 0.000000
# 6 0.000000 0.000000 0.000000 0.000965 0.000000 0.027235
#
#
# Mechanical properties :
#
#
# Convention : Reuss Voigt Hill
#
# Bulk Modulus (GPa) = 43.71880 56.91367 50.31624
# Shear Modulus (GPa) = 31.31986 35.49936 33.40961
#
# Velocity S-wave (km/s) = 3.65934 3.89586 3.77945
# Velocity P-wave (km/s) = 6.04535 6.67610 6.36854
#
# Compressibility (1/GPa) = 0.02287345
#
# Stress axis : x y z
#
# Youngs Moduli (GPa) = 108.58723 68.71077 62.67366
#
# Poissons Ratio (x) = 0.14940 0.14600
# Poissons Ratio (y) = 0.23611 0.24560
# Poissons Ratio (z) = 0.25296 0.26925
#
# Static dielectric constant tensor:
#      x y z
#    x 1.920200 0.000000 0.022580 
#    y 0.000000 2.028950 0.000000 
#    z 0.022580 0.000000 1.920200 
# 
# From -- ./inp_files/33866.got.cif
#   From: 2010.05.17/outbox.cif.g08.bks.cpg/sg14_17_cif.got.tgz:33866.got - 2010.06.03 17:49:19.
