data_PCOD9244964
_publ_section_title
;
Structure prediction by ZEFSAII (Michael W. Deem and Ramdas Pophale) SiO2 
 PCOD9244964
Probable space group: P 21/C
;
_chemical_formula_sum "Si O2"
_cell_formula_units_Z 28
_cell_length_a 9.276402
_cell_length_b 7.754266
_cell_length_c 16.782526
_cell_angle_alpha 90.000000
_cell_angle_beta 65.579033
_cell_angle_gamma 90.000000
_cell_volume 1099.190589
_symmetry_space_group_name_H-M "P 21/C"
_symmetry_group_IT_number 14
_symmetry_cell_setting 'monoclinic'
loop_
_space_group_symop_operation_xyz
x,y,z
-x,1/2+y,1/2-z
-x,-y,-z
x,1/2-y,1/2+z
loop_
_atom_site_type_symbol
_atom_site_label
_atom_site_fract_x
_atom_site_fract_y
_atom_site_fract_z
Si Si1 0.217729 0.480969 0.724201
Si Si2 0.502049 0.716786 0.333421
Si Si3 0.906143 0.395643 0.406523
Si Si4 0.232722 0.929459 0.402209
Si Si5 0.109880 0.275099 0.038941
Si Si6 0.265852 0.023409 0.791455
Si Si7 0.869073 0.075917 0.346076
O O1 0.371546 0.396424 0.648693
O O2 0.154317 0.606890 0.671316
O O3 0.269166 0.547937 0.798756
O O4 0.052236 0.385057 0.780008
O O5 0.369944 0.601221 0.321603
O O6 0.396752 0.858939 0.400387
O O7 0.624111 0.811116 0.246511
O O8 0.848926 0.198147 0.429518
O O9 0.094760 0.425469 0.365237
O O10 0.847722 0.572636 0.461705
O O11 0.078121 0.804786 0.432903
O O12 0.191192 0.112836 0.451149
O O13 0.138727 0.382412 0.113875
O O14 0.231540 0.939590 0.712020
#
# Coordination Sequence:
#
# PCOD9244964 Si02
#       7
#     4   4   4   4   4   4   4
#     4  10  21  35  62  93 120 161 212 265 314 363
#     4  12  20  37  61  94 127 157 208 278 322 368
#     4  11  21  40  66  94 124 167 216 265 309 387
#     4  10  21  39  61  91 134 164 207 264 319 393
#     4  10  22  41  63  91 128 177 208 249 330 391
#     4  11  23  35  61  99 124 163 215 268 330 368
#     4  10  22  39  61  91 124 164 215 260 309 393
#
# _framework density 25.473289999999999
#
# number of rings (size 3 to 8) (size 9 to 14) (size 15 to 20)
#    0.000    1.429    4.286    1.714    8.000    0.000 
#    0.000   10.714    0.000    1.714    0.000    0.000 
#    0.000    0.000    0.000    0.000    0.000    0.000 
#
# Total GULP energy -156205.188418 kJ/mol
# GULP energy per Si atom -5578.756729 kJ/mol
# Density = 2.541531 g / cm^3
# Si number density = 25.473290 Si / 1000 Ang^3
#
#
#
# Elastic Constant Matrix: (Units=GPa)
#
#
# Indices 1 2 3 4 5 6 
#
# 1 119.1943 14.6208 19.8854 0.0000 -17.8840 0.0000
# 2 14.6208 68.5996 -20.1672 0.0000 7.3258 0.0000
# 3 19.8854 -20.1672 47.1461 0.0000 2.6621 0.0000
# 4 0.0000 0.0000 0.0000 19.8084 0.0000 6.9430
# 5 -17.8840 7.3258 2.6621 0.0000 37.4814 0.0000
# 6 0.0000 0.0000 0.0000 6.9430 0.0000 33.1745
#
#
#
# Elastic Compliance Matrix: (Units=1/GPa)
#
#
# Indices 1 2 3 4 5 6 
#
# 1 0.011343 -0.005361 -0.007472 0.000000 0.006990 0.000000
# 2 -0.005361 0.019759 0.011120 0.000000 -0.007210 0.000000
# 3 -0.007472 0.011120 0.029562 0.000000 -0.007838 0.000000
# 4 0.000000 0.000000 0.000000 0.054480 0.000000 -0.011402
# 5 0.006990 -0.007210 -0.007838 0.000000 0.031981 0.000000
# 6 0.000000 0.000000 0.000000 -0.011402 0.000000 0.032530
#
#
# Mechanical properties :
#
#
# Convention : Reuss Voigt Hill
#
# Bulk Modulus (GPa) = 17.47081 29.29092 23.38087
# Shear Modulus (GPa) = 24.73308 32.79959 28.76633
#
# Velocity S-wave (km/s) = 3.11937 3.59222 3.36411
# Velocity P-wave (km/s) = 4.45504 5.35994 4.92830
#
# Compressibility (1/GPa) = 0.05723833
#
# Stress axis : x y z
#
# Youngs Moduli (GPa) = 88.16298 50.61003 33.82777
#
# Poissons Ratio (x) = 0.27130 0.25276
# Poissons Ratio (y) = 0.47261 -0.37617
# Poissons Ratio (z) = 0.65875 -0.56279
#
# Static dielectric constant tensor:
#      x y z
#    x 1.934420 0.000000 0.038530 
#    y 0.000000 2.524420 0.000000 
#    z 0.038530 0.000000 2.129710 
# 
# From -- ./inp_files/64523.got.cif
#   From: 2010.05.17/outbox.cif.g08.bks.cpg/sg14_33_cif.got.tgz:64523.got - 2010.06.03 17:49:19.
