data_PCOD9244211
_publ_section_title
;
Structure prediction by ZEFSAII (Michael W. Deem and Ramdas Pophale) SiO2 
 PCOD9244211
Probable space group: P 21/C
;
_chemical_formula_sum "Si O2"
_cell_formula_units_Z 32
_cell_length_a 11.503079
_cell_length_b 9.086604
_cell_length_c 20.610825
_cell_angle_alpha 90.000000
_cell_angle_beta 40.793032
_cell_angle_gamma 90.000000
_cell_volume 1407.481544
_symmetry_space_group_name_H-M "P 21/C"
_symmetry_group_IT_number 14
_symmetry_cell_setting 'monoclinic'
loop_
_space_group_symop_operation_xyz
x,y,z
-x,1/2+y,1/2-z
-x,-y,-z
x,1/2-y,1/2+z
loop_
_atom_site_type_symbol
_atom_site_label
_atom_site_fract_x
_atom_site_fract_y
_atom_site_fract_z
Si Si1 0.244220 0.746480 0.827370
Si Si2 0.650493 0.133738 0.090242
Si Si3 0.255829 0.746518 0.672599
Si Si4 0.142116 0.430426 0.888118
Si Si5 0.663602 0.820864 0.473045
Si Si6 0.150424 0.866291 0.590278
Si Si7 0.836416 0.679103 0.526926
Si Si8 0.357906 0.069549 0.111885
O O1 0.375310 0.806852 0.826436
O O2 0.250080 0.790973 0.749964
O O3 0.265314 0.570189 0.823185
O O4 0.048785 0.801669 0.932486
O O5 0.469208 0.101541 0.129271
O O6 0.750012 0.250021 0.999989
O O7 0.767297 0.986799 0.051854
O O8 0.451215 0.801735 0.567461
O O9 0.124667 0.806888 0.673585
O O10 0.234723 0.570226 0.676802
O O11 0.030868 0.398420 0.870697
O O12 0.214252 0.281708 0.890302
O O13 0.000000 0.500000 0.000000
O O14 0.749938 0.749937 0.500018
O O15 0.714264 0.718268 0.390272
O O16 0.732851 0.986724 0.448090
O O17 0.500000 0.000000 0.000000
#
# Coordination Sequence:
#
# PCOD9244211 Si02
#       8
#     4   4   4   4   4   4   4   4
#     4  11  24  43  60  94 134 155 204 273 319 359
#     4  12  21  40  68  92 121 170 218 250 305 388
#     4  11  24  43  60  94 134 155 204 273 319 359
#     4  10  20  40  63  90 119 166 212 246 311 374
#     4  11  20  40  68  90 120 167 215 249 301 386
#     4  12  21  40  68  92 121 170 218 250 305 388
#     4  11  20  40  68  90 120 167 215 249 301 386
#     4  10  20  40  63  90 119 166 212 246 311 374
#
# _framework density 22.735645000000002
#
# number of rings (size 3 to 8) (size 9 to 14) (size 15 to 20)
#    0.000    1.000   10.000    0.750    0.000    0.000 
#    9.000    1.250    0.000    0.000    0.000    0.000 
#    0.000    0.000    0.000    0.000    0.000    0.000 
#
# Total GULP energy -178774.747169 kJ/mol
# GULP energy per Si atom -5586.710849 kJ/mol
# Density = 2.268390 g / cm^3
# Si number density = 22.735645 Si / 1000 Ang^3
#
#
#
# Elastic Constant Matrix: (Units=GPa)
#
#
# Indices 1 2 3 4 5 6 
#
# 1 178.8918 81.8412 46.0991 0.0000 48.3302 0.0000
# 2 81.8412 191.2305 41.1637 0.0000 20.8320 0.0000
# 3 46.0991 41.1637 67.9604 0.0000 26.3617 0.0000
# 4 0.0000 0.0000 0.0000 14.7313 0.0000 16.8281
# 5 48.3302 20.8320 26.3617 0.0000 46.7498 0.0000
# 6 0.0000 0.0000 0.0000 16.8281 0.0000 64.4754
#
#
#
# Elastic Compliance Matrix: (Units=1/GPa)
#
#
# Indices 1 2 3 4 5 6 
#
# 1 0.009326 -0.002807 -0.001755 0.000000 -0.007401 0.000000
# 2 -0.002807 0.006882 -0.002816 0.000000 0.001424 0.000000
# 3 -0.001755 -0.002816 0.021017 0.000000 -0.008782 0.000000
# 4 0.000000 0.000000 0.000000 0.096720 0.000000 -0.025244
# 5 -0.007401 0.001424 -0.008782 0.000000 0.033359 0.000000
# 6 0.000000 0.000000 0.000000 -0.025244 0.000000 0.022098
#
#
# Mechanical properties :
#
#
# Convention : Reuss Voigt Hill
#
# Bulk Modulus (GPa) = 44.50778 86.25453 65.38115
# Shear Modulus (GPa) = 23.62405 43.12323 33.37364
#
# Velocity S-wave (km/s) = 3.22697 4.35986 3.83547
# Velocity P-wave (km/s) = 5.78819 7.96021 6.95946
#
# Compressibility (1/GPa) = 0.02246798
#
# Stress axis : x y z
#
# Youngs Moduli (GPa) = 107.22858 145.30944 47.57986
#
# Poissons Ratio (x) = 0.40792 0.08350
# Poissons Ratio (y) = 0.30102 0.13400
# Poissons Ratio (z) = 0.18818 0.40924
#
# Static dielectric constant tensor:
#      x y z
#    x 1.859100 0.000000 -0.014110 
#    y 0.000000 1.894730 0.000000 
#    z -0.014110 0.000000 1.948940 
# 
# From -- ./inp_files/67040.got.cif
#   From: 2010.05.17/outbox.cif.g08.bks.cpg/sg14_34_cif.got.tgz:67040.got - 2010.06.03 17:49:19.
