data_PCOD9244535
_publ_section_title
;
Structure prediction by ZEFSAII (Michael W. Deem and Ramdas Pophale) SiO2 
 PCOD9244535
Probable space group: P 21/C
;
_chemical_formula_sum "Si O2"
_cell_formula_units_Z 20
_cell_length_a 18.019626
_cell_length_b 5.670663
_cell_length_c 18.969391
_cell_angle_alpha 90.000000
_cell_angle_beta 29.343273
_cell_angle_gamma 90.000000
_cell_volume 949.872624
_symmetry_space_group_name_H-M "P 21/C"
_symmetry_group_IT_number 14
_symmetry_cell_setting 'monoclinic'
loop_
_space_group_symop_operation_xyz
x,y,z
-x,1/2+y,1/2-z
-x,-y,-z
x,1/2-y,1/2+z
loop_
_atom_site_type_symbol
_atom_site_label
_atom_site_fract_x
_atom_site_fract_y
_atom_site_fract_z
Si Si1 0.018657 0.751257 0.525587
Si Si2 0.724218 0.665686 0.856951
Si Si3 0.496752 0.766304 0.431897
Si Si4 0.375043 0.381640 0.423522
Si Si5 0.329938 0.597004 0.321804
O O1 0.188603 0.748044 0.414162
O O2 0.000000 0.500000 0.500000
O O3 0.888341 0.722929 0.691927
O O4 0.000000 0.000000 0.500000
O O5 0.606508 0.812619 0.904869
O O6 0.646939 0.406731 0.916583
O O7 0.715558 0.721705 0.946660
O O8 0.433054 0.589156 0.426645
O O9 0.605754 0.940950 0.295775
O O10 0.285799 0.451065 0.427703
O O11 0.527194 0.251636 0.272750
#
# Coordination Sequence:
#
# PCOD9244535 Si02
#       5
#     4   4   4   4   4
#     4  12  27  47  71 102 142 186 235 289 355 420
#     4  10  23  40  66  99 131 181 229 288 338 420
#     4  10  20  41  68  95 134 173 241 279 344 411
#     4  11  22  40  66  99 134 178 233 288 351 413
#     4  11  23  41  69  99 137 184 232 294 350 421
#
# _framework density 21.055454999999998
#
# number of rings (size 3 to 8) (size 9 to 14) (size 15 to 20)
#    0.000    1.200    4.000    1.800    2.800    0.000 
#    3.600    0.000    0.000    0.000    0.000    0.000 
#    0.000    0.000    0.000    0.000    0.000    0.000 
#
# Total GULP energy -111586.111593 kJ/mol
# GULP energy per Si atom -5579.305580 kJ/mol
# Density = 2.100753 g / cm^3
# Si number density = 21.055455 Si / 1000 Ang^3
#
#
#
# Elastic Constant Matrix: (Units=GPa)
#
#
# Indices 1 2 3 4 5 6 
#
# 1 75.1502 12.4188 10.3795 0.0000 23.4342 0.0000
# 2 12.4188 49.5746 15.8605 0.0000 6.3308 0.0000
# 3 10.3795 15.8605 99.3650 0.0000 3.6607 0.0000
# 4 0.0000 0.0000 0.0000 14.8667 0.0000 3.1934
# 5 23.4342 6.3308 3.6607 0.0000 27.7173 0.0000
# 6 0.0000 0.0000 0.0000 3.1934 0.0000 42.4930
#
#
#
# Elastic Compliance Matrix: (Units=1/GPa)
#
#
# Indices 1 2 3 4 5 6 
#
# 1 0.018510 -0.002406 -0.000998 0.000000 -0.014968 0.000000
# 2 -0.002406 0.022125 -0.003184 0.000000 -0.002599 0.000000
# 3 -0.000998 -0.003184 0.010670 0.000000 0.000162 0.000000
# 4 0.000000 0.000000 0.000000 0.068368 0.000000 -0.005138
# 5 -0.014968 -0.002599 0.000162 0.000000 0.049306 0.000000
# 6 0.000000 0.000000 0.000000 -0.005138 0.000000 0.023919
#
#
# Mechanical properties :
#
#
# Convention : Reuss Voigt Hill
#
# Bulk Modulus (GPa) = 26.22741 33.48971 29.85856
# Shear Modulus (GPa) = 22.85351 29.37748 26.11550
#
# Velocity S-wave (km/s) = 3.29811 3.73935 3.52564
# Velocity P-wave (km/s) = 5.19488 5.88079 5.54844
#
# Compressibility (1/GPa) = 0.03812805
#
# Stress axis : x y z
#
# Youngs Moduli (GPa) = 54.02589 45.19769 93.71637
#
# Poissons Ratio (x) = 0.10875 0.09353
# Poissons Ratio (y) = 0.12999 0.29844
# Poissons Ratio (z) = 0.05392 0.14393
#
# Static dielectric constant tensor:
#      x y z
#    x 1.750220 0.000000 0.026470 
#    y 0.000000 2.105180 0.000000 
#    z 0.026470 0.000000 1.745810 
# 
# From -- ./inp_files/53957.got.cif
#   From: 2010.05.17/outbox.cif.g08.bks.cpg/sg14_27_cif.got.tgz:53957.got - 2010.06.03 17:49:19.
