data_PCOD9244643
_publ_section_title
;
Structure prediction by ZEFSAII (Michael W. Deem and Ramdas Pophale) SiO2 
 PCOD9244643
Probable space group: P 21/C
;
_chemical_formula_sum "Si O2"
_cell_formula_units_Z 30
_cell_length_a 21.664366
_cell_length_b 9.166250
_cell_length_c 15.029002
_cell_angle_alpha 90.000000
_cell_angle_beta 149.503161
_cell_angle_gamma 90.000000
_cell_volume 1514.593262
_symmetry_space_group_name_H-M "P 21/C"
_symmetry_group_IT_number 14
_symmetry_cell_setting 'monoclinic'
loop_
_space_group_symop_operation_xyz
x,y,z
-x,1/2+y,1/2-z
-x,-y,-z
x,1/2-y,1/2+z
loop_
_atom_site_type_symbol
_atom_site_label
_atom_site_fract_x
_atom_site_fract_y
_atom_site_fract_z
Si Si1 0.078296 0.330929 0.939478
Si Si2 0.687366 0.188874 0.350480
Si Si3 0.676801 0.978974 0.495684
Si Si4 0.347016 0.207740 0.703184
Si Si5 0.077709 0.355772 0.617888
Si Si6 0.447592 0.991404 0.335529
Si Si7 0.957465 0.169336 0.626437
Si Si8 0.500000 0.500000 0.500000
O O1 0.025550 0.495857 0.869749
O O2 0.011640 0.224308 0.787267
O O3 0.217682 0.343290 0.080586
O O4 0.077159 0.254735 0.033991
O O5 0.618492 0.341244 0.270242
O O6 0.813123 0.199395 0.452849
O O7 0.714086 0.116361 0.480090
O O8 0.596513 0.079985 0.186909
O O9 0.638002 0.855553 0.376726
O O10 0.788186 0.913852 0.690175
O O11 0.562121 0.017045 0.413367
O O12 0.349972 0.381110 0.702728
O O13 0.454648 0.157071 0.901843
O O14 0.000000 0.500000 0.500000
O O15 0.021091 0.267353 0.630356
O O16 0.500000 0.000000 0.500000
#
# Coordination Sequence:
#
# PCOD9244643 Si02
#       8
#     4   4   4   4   4   4   4   2
#     4  12  25  47  72 102 146 188 243 297 364 431
#     4  11  24  43  69 100 140 184 235 288 355 428
#     4  11  24  48  66  98 143 181 234 290 358 425
#     4  11  23  45  69  99 141 183 229 294 351 426
#     4  12  27  44  73 106 138 186 236 302 357 435
#     4  12  25  40  69 105 132 181 235 286 354 428
#     4  12  25  48  71 105 147 190 242 294 368 432
#     4  10  20  42  66  96 136 182 222 288 346 406
#
# _framework density 19.807297999999999
#
# number of rings (size 3 to 8) (size 9 to 14) (size 15 to 20)
#    0.000    0.533    5.333    3.600    5.600    0.000 
#    0.000    0.000    0.000    0.000    0.000    0.000 
#    0.000    0.000    0.000    0.000    0.000    0.000 
#
# Total GULP energy -167180.317726 kJ/mol
# GULP energy per Si atom -5572.677258 kJ/mol
# Density = 1.976222 g / cm^3
# Si number density = 19.807298 Si / 1000 Ang^3
#
#
#
# Elastic Constant Matrix: (Units=GPa)
#
#
# Indices 1 2 3 4 5 6 
#
# 1 55.5535 6.2724 8.0948 0.0000 -4.8257 0.0000
# 2 6.2724 123.8916 27.1114 0.0000 -2.7467 0.0000
# 3 8.0948 27.1114 82.4198 0.0000 -19.7335 0.0000
# 4 0.0000 0.0000 0.0000 16.9687 0.0000 -4.8909
# 5 -4.8257 -2.7467 -19.7335 0.0000 25.2241 0.0000
# 6 0.0000 0.0000 0.0000 -4.8909 0.0000 30.9587
#
#
#
# Elastic Compliance Matrix: (Units=1/GPa)
#
#
# Indices 1 2 3 4 5 6 
#
# 1 0.018450 -0.000668 -0.000941 0.000000 0.002721 0.000000
# 2 -0.000668 0.008774 -0.003227 0.000000 -0.001697 0.000000
# 3 -0.000941 -0.003227 0.016193 0.000000 0.012137 0.000000
# 4 0.000000 0.000000 0.000000 0.061744 0.000000 0.009754
# 5 0.002721 -0.001697 0.012137 0.000000 0.049475 0.000000
# 6 0.000000 0.000000 0.000000 0.009754 0.000000 0.033842
#
#
# Mechanical properties :
#
#
# Convention : Reuss Voigt Hill
#
# Bulk Modulus (GPa) = 29.63393 38.31356 33.97374
# Shear Modulus (GPa) = 23.87816 29.32271 26.60043
#
# Velocity S-wave (km/s) = 3.47583 3.85177 3.66862
# Velocity P-wave (km/s) = 5.57693 6.25833 5.92743
#
# Compressibility (1/GPa) = 0.03374510
#
# Stress axis : x y z
#
# Youngs Moduli (GPa) = 54.20199 113.97461 61.75629
#
# Poissons Ratio (x) = 0.07612 0.05810
# Poissons Ratio (y) = 0.03620 0.19927
# Poissons Ratio (z) = 0.05100 0.36777
#
# Static dielectric constant tensor:
#      x y z
#    x 1.713340 0.000000 0.010340 
#    y 0.000000 1.745480 0.000000 
#    z 0.010340 0.000000 1.681560 
# 
# From -- ./inp_files/50303.got.cif
#   From: 2010.05.17/outbox.cif.g08.bks.cpg/sg14_26_cif.got.tgz:50303.got - 2010.06.03 17:49:19.
