data_PCOD9244203
_publ_section_title
;
Structure prediction by ZEFSAII (Michael W. Deem and Ramdas Pophale) SiO2 
 PCOD9244203
Probable space group: P 21/C
;
_chemical_formula_sum "Si O2"
_cell_formula_units_Z 32
_cell_length_a 11.920185
_cell_length_b 13.123631
_cell_length_c 9.000175
_cell_angle_alpha 90.000000
_cell_angle_beta 79.847217
_cell_angle_gamma 90.000000
_cell_volume 1385.905528
_symmetry_space_group_name_H-M "P 21/C"
_symmetry_group_IT_number 14
_symmetry_cell_setting 'monoclinic'
loop_
_space_group_symop_operation_xyz
x,y,z
-x,1/2+y,1/2-z
-x,-y,-z
x,1/2-y,1/2+z
loop_
_atom_site_type_symbol
_atom_site_label
_atom_site_fract_x
_atom_site_fract_y
_atom_site_fract_z
Si Si1 0.904526 0.774354 0.244165
Si Si2 0.592186 0.893251 0.713455
Si Si3 0.667257 0.747273 0.453410
Si Si4 0.886485 0.338181 0.122336
Si Si5 0.346533 0.601038 0.299304
Si Si6 0.187797 0.072651 0.938072
Si Si7 0.734091 0.240235 0.915360
Si Si8 0.845811 0.548878 0.213733
O O1 0.784305 0.789662 0.356485
O O2 0.909087 0.866745 0.127454
O O3 0.892181 0.662865 0.173258
O O4 0.006179 0.779518 0.336168
O O5 0.602014 0.833650 0.556573
O O6 0.597672 0.806737 0.839955
O O7 0.472049 0.948297 0.762073
O O8 0.710881 0.952241 0.706131
O O9 0.713780 0.656972 0.549681
O O10 0.788220 0.325665 0.270750
O O11 0.905843 0.458365 0.114509
O O12 0.837009 0.290854 0.984688
O O13 0.245711 0.519160 0.336520
O O14 0.333364 0.671670 0.449887
O O15 0.332151 0.671275 0.157180
O O16 0.145357 0.037952 0.109784
#
# Coordination Sequence:
#
# PCOD9244203 Si02
#       8
#     4   4   4   4   4   4   4   4
#     4  10  23  40  71  91 132 167 215 265 325 365
#     4  10  21  39  68  89 130 170 209 266 322 369
#     4  10  20  40  62  98 126 159 218 268 302 388
#     4  11  24  44  66  97 129 175 207 270 326 378
#     4  11  22  44  65  95 127 179 208 266 330 371
#     4  10  20  41  65  97 126 167 216 264 305 397
#     4  10  25  43  62  95 140 160 222 264 312 398
#     4  10  23  42  65  99 131 163 224 261 310 396
#
# _framework density 23.089597000000001
#
# number of rings (size 3 to 8) (size 9 to 14) (size 15 to 20)
#    0.000    2.000    3.750    0.750    3.500    5.500 
#    4.500    3.125    0.000    0.000    0.000    0.000 
#    0.000    0.000    0.000    0.000    0.000    0.000 
#
# Total GULP energy -178932.242710 kJ/mol
# GULP energy per Si atom -5591.632585 kJ/mol
# Density = 2.303704 g / cm^3
# Si number density = 23.089597 Si / 1000 Ang^3
#
#
#
# Elastic Constant Matrix: (Units=GPa)
#
#
# Indices 1 2 3 4 5 6 
#
# 1 59.1265 10.6304 -6.5126 0.0000 -0.4450 0.0000
# 2 10.6304 74.7673 27.9002 0.0000 -8.5374 0.0000
# 3 -6.5126 27.9002 31.6276 0.0000 3.0585 0.0000
# 4 0.0000 0.0000 0.0000 23.3405 0.0000 2.0952
# 5 -0.4450 -8.5374 3.0585 0.0000 11.0856 0.0000
# 6 0.0000 0.0000 0.0000 2.0952 0.0000 12.4795
#
#
#
# Elastic Compliance Matrix: (Units=1/GPa)
#
#
# Indices 1 2 3 4 5 6 
#
# 1 0.019746 -0.008507 0.012460 0.000000 -0.009196 0.000000
# 2 -0.008507 0.029669 -0.030926 0.000000 0.031040 0.000000
# 3 0.012460 -0.030926 0.065466 0.000000 -0.041379 0.000000
# 4 0.000000 0.000000 0.000000 0.043500 0.000000 -0.007303
# 5 -0.009196 0.031040 -0.041379 0.000000 0.125159 0.000000
# 6 0.000000 0.000000 0.000000 -0.007303 0.000000 0.081357
#
#
# Mechanical properties :
#
#
# Convention : Reuss Voigt Hill
#
# Bulk Modulus (GPa) = 16.41107 25.50637 20.95872
# Shear Modulus (GPa) = 11.38552 18.28136 14.83344
#
# Velocity S-wave (km/s) = 2.22300 2.81687 2.53737
# Velocity P-wave (km/s) = 3.70297 4.65299 4.20490
#
# Compressibility (1/GPa) = 0.06093449
#
# Stress axis : x y z
#
# Youngs Moduli (GPa) = 50.64434 33.70530 15.27507
#
# Poissons Ratio (x) = 0.28673 -0.19032
# Poissons Ratio (y) = 0.43083 0.47239
# Poissons Ratio (z) = -0.63101 1.04236
#
# Static dielectric constant tensor:
#      x y z
#    x 1.845770 0.000000 -0.020880 
#    y 0.000000 1.880510 0.000000 
#    z -0.020880 0.000000 1.890340 
# 
# From -- ./inp_files/13349.got.cif
#   From: 2010.05.17/outbox.cif.g08.bks.cpg/sg14_7_cif.got.tgz:13349.got - 2010.06.03 17:49:19.
