data_PCOD9244529
_publ_section_title
;
Structure prediction by ZEFSAII (Michael W. Deem and Ramdas Pophale) SiO2 
 PCOD9244529
Probable space group: P 21/C
;
_chemical_formula_sum "Si O2"
_cell_formula_units_Z 28
_cell_length_a 11.276944
_cell_length_b 10.763749
_cell_length_c 10.763022
_cell_angle_alpha 90.000000
_cell_angle_beta 81.120775
_cell_angle_gamma 90.000000
_cell_volume 1290.782730
_symmetry_space_group_name_H-M "P 21/C"
_symmetry_group_IT_number 14
_symmetry_cell_setting 'monoclinic'
loop_
_space_group_symop_operation_xyz
x,y,z
-x,1/2+y,1/2-z
-x,-y,-z
x,1/2-y,1/2+z
loop_
_atom_site_type_symbol
_atom_site_label
_atom_site_fract_x
_atom_site_fract_y
_atom_site_fract_z
Si Si1 0.954555 0.876249 0.573288
Si Si2 0.787123 0.172568 0.420627
Si Si3 0.677424 0.211057 0.183318
Si Si4 0.422277 0.301659 0.858220
Si Si5 0.767310 0.870889 0.793146
Si Si6 0.741750 0.620621 0.924674
Si Si7 0.630202 0.531429 0.542340
O O1 0.894493 0.904882 0.715256
O O2 0.841746 0.832410 0.509546
O O3 0.074911 0.797621 0.567341
O O4 0.000000 0.000000 0.500000
O O5 0.759509 0.234476 0.291429
O O6 0.708039 0.207158 0.555669
O O7 0.766772 0.024345 0.400130
O O8 0.547795 0.212558 0.269948
O O9 0.678497 0.073860 0.124730
O O10 0.340378 0.390201 0.786720
O O11 0.383579 0.160033 0.884004
O O12 0.393018 0.358622 0.999421
O O13 0.762183 0.722102 0.815684
O O14 0.727740 0.944362 0.919960
O O15 0.500000 0.500000 0.500000
#
# Coordination Sequence:
#
# PCOD9244529 Si02
#       7
#     4   4   4   4   4   4   4
#     4   9  21  41  64  91 123 173 218 267 323 374
#     4  11  26  43  63  98 134 174 217 265 331 385
#     4  12  26  40  64  99 137 174 206 272 332 389
#     4  10  22  37  63  94 126 169 216 263 327 386
#     4  10  20  41  68  90 124 169 222 271 313 387
#     4   9  21  41  67  89 121 172 225 265 316 391
#     4  11  22  40  62  96 131 168 215 262 329 390
#
# _framework density 21.692266
#
# number of rings (size 3 to 8) (size 9 to 14) (size 15 to 20)
#    0.000    1.714    1.429    1.714    6.000    5.143 
#    2.571    0.714    0.000    0.000    0.000    0.000 
#    0.000    0.000    0.000    0.000    0.000    0.000 
#
# Total GULP energy -155988.175261 kJ/mol
# GULP energy per Si atom -5571.006259 kJ/mol
# Density = 2.164289 g / cm^3
# Si number density = 21.692266 Si / 1000 Ang^3
#
#
#
# Elastic Constant Matrix: (Units=GPa)
#
#
# Indices 1 2 3 4 5 6 
#
# 1 66.9447 -9.1069 30.1546 0.0000 -20.5591 0.0000
# 2 -9.1069 47.0306 29.3738 0.0000 -12.5826 0.0000
# 3 30.1546 29.3738 109.6577 0.0000 -21.0958 0.0000
# 4 0.0000 0.0000 0.0000 22.2118 0.0000 2.2531
# 5 -20.5591 -12.5826 -21.0958 0.0000 45.3177 0.0000
# 6 0.0000 0.0000 0.0000 2.2531 0.0000 14.9205
#
#
#
# Elastic Compliance Matrix: (Units=1/GPa)
#
#
# Indices 1 2 3 4 5 6 
#
# 1 0.023149 0.011980 -0.007595 0.000000 0.010293 0.000000
# 2 0.011980 0.032517 -0.010129 0.000000 0.009748 0.000000
# 3 -0.007595 -0.010129 0.013968 0.000000 0.000244 0.000000
# 4 0.000000 0.000000 0.000000 0.045721 0.000000 -0.006904
# 5 0.010293 0.009748 0.000244 0.000000 0.029556 0.000000
# 6 0.000000 0.000000 0.000000 -0.006904 0.000000 0.068064
#
#
# Mechanical properties :
#
#
# Convention : Reuss Voigt Hill
#
# Bulk Modulus (GPa) = 17.19808 36.05288 26.62548
# Shear Modulus (GPa) = 20.50470 28.03744 24.27107
#
# Velocity S-wave (km/s) = 3.07783 3.59905 3.34860
# Velocity P-wave (km/s) = 4.53610 5.82470 5.22031
#
# Compressibility (1/GPa) = 0.05814602
#
# Stress axis : x y z
#
# Youngs Moduli (GPa) = 43.19776 30.75329 71.59205
#
# Poissons Ratio (x) = -0.36842 0.54372
# Poissons Ratio (y) = -0.51750 0.72517
# Poissons Ratio (z) = 0.32807 0.31151
#
# Static dielectric constant tensor:
#      x y z
#    x 1.863590 0.000000 0.022720 
#    y 0.000000 1.825950 0.000000 
#    z 0.022720 0.000000 1.902420 
# 
# From -- ./inp_files/28593.got.cif
#   From: 2010.05.17/outbox.cif.g08.bks.cpg/sg14_15_cif.got.tgz:28593.got - 2010.06.03 17:49:19.
