data_PCOD9244300
_publ_section_title
;
Structure prediction by ZEFSAII (Michael W. Deem and Ramdas Pophale) SiO2 
 PCOD9244300
Probable space group: P 21/C
;
_chemical_formula_sum "Si O2"
_cell_formula_units_Z 32
_cell_length_a 11.866279
_cell_length_b 10.517152
_cell_length_c 15.049469
_cell_angle_alpha 90.000000
_cell_angle_beta 127.462744
_cell_angle_gamma 90.000000
_cell_volume 1490.792095
_symmetry_space_group_name_H-M "P 21/C"
_symmetry_group_IT_number 14
_symmetry_cell_setting 'monoclinic'
loop_
_space_group_symop_operation_xyz
x,y,z
-x,1/2+y,1/2-z
-x,-y,-z
x,1/2-y,1/2+z
loop_
_atom_site_type_symbol
_atom_site_label
_atom_site_fract_x
_atom_site_fract_y
_atom_site_fract_z
Si Si1 0.743784 0.795556 0.584852
Si Si2 0.510310 0.661352 0.561902
Si Si3 0.538849 0.616517 0.212098
Si Si4 0.812824 0.735079 0.922299
Si Si5 0.776171 0.167314 0.155615
Si Si6 0.274104 0.541528 0.822123
Si Si7 0.051069 0.148308 0.168319
Si Si8 0.297984 0.511237 0.220709
O O1 0.604952 0.709609 0.525038
O O2 0.825143 0.769756 0.533688
O O3 0.838959 0.768026 0.718148
O O4 0.704907 0.944075 0.584247
O O5 0.491173 0.786661 0.612784
O O6 0.361414 0.609777 0.458683
O O7 0.597396 0.567532 0.665161
O O8 0.670433 0.684607 0.326759
O O9 0.606499 0.494488 0.193565
O O10 0.405132 0.587440 0.208901
O O11 0.938626 0.798508 0.925722
O O12 0.789440 0.591649 0.877026
O O13 0.738223 0.313965 0.156792
O O14 0.905546 0.153357 0.150411
O O15 0.796079 0.097617 0.259284
O O16 0.124928 0.489786 0.710000
#
# Coordination Sequence:
#
# PCOD9244300 Si02
#       8
#     4   4   4   4   4   4   4   4
#     4   9  19  42  68  84 122 170 208 260 317 373
#     4  10  22  40  62  98 124 164 215 261 320 372
#     4   9  20  38  60  92 129 155 211 264 311 374
#     4  10  20  40  66  86 120 173 209 255 326 372
#     4  12  24  37  65  90 129 167 210 263 313 372
#     4   8  21  39  59  90 121 166 208 251 313 375
#     4   9  22  44  58  92 127 170 206 260 316 378
#     4  11  23  37  62  94 128 162 205 270 317 368
#
# _framework density 21.465098999999999
#
# number of rings (size 3 to 8) (size 9 to 14) (size 15 to 20)
#    0.750    1.500    2.500    1.125    8.750    1.000 
#    2.250    1.250    0.000    3.750    0.000    0.000 
#    0.000    0.000    0.000    0.000    0.000    0.000 
#
# Total GULP energy -178612.212566 kJ/mol
# GULP energy per Si atom -5581.631643 kJ/mol
# Density = 2.141624 g / cm^3
# Si number density = 21.465099 Si / 1000 Ang^3
#
#
#
# Elastic Constant Matrix: (Units=GPa)
#
#
# Indices 1 2 3 4 5 6 
#
# 1 115.0575 13.3189 12.1115 0.0000 -33.2143 0.0000
# 2 13.3189 51.4454 8.2690 0.0000 -19.0461 0.0000
# 3 12.1115 8.2690 32.4257 0.0000 -25.9940 0.0000
# 4 0.0000 0.0000 0.0000 3.8653 0.0000 -1.6877
# 5 -33.2143 -19.0461 -25.9940 0.0000 40.3719 0.0000
# 6 0.0000 0.0000 0.0000 -1.6877 0.0000 9.2358
#
#
#
# Elastic Compliance Matrix: (Units=1/GPa)
#
#
# Indices 1 2 3 4 5 6 
#
# 1 0.012238 0.001391 0.007588 0.000000 0.015610 0.000000
# 2 0.001391 0.024288 0.007005 0.000000 0.017113 0.000000
# 3 0.007588 0.007005 0.070007 0.000000 0.054623 0.000000
# 4 0.000000 0.000000 0.000000 0.281145 0.000000 0.051376
# 5 0.015610 0.017113 0.054623 0.000000 0.080855 0.000000
# 6 0.000000 0.000000 0.000000 0.051376 0.000000 0.117663
#
#
# Mechanical properties :
#
#
# Convention : Reuss Voigt Hill
#
# Bulk Modulus (GPa) = 7.22011 29.59190 18.40601
# Shear Modulus (GPa) = 8.32786 21.70989 15.01888
#
# Velocity S-wave (km/s) = 1.97184 3.18371 2.64803
# Velocity P-wave (km/s) = 2.92492 5.22787 4.23591
#
# Compressibility (1/GPa) = 0.13850206
#
# Stress axis : x y z
#
# Youngs Moduli (GPa) = 81.71424 41.17342 14.28422
#
# Poissons Ratio (x) = -0.05728 -0.10839
# Poissons Ratio (y) = -0.11368 -0.10007
# Poissons Ratio (z) = -0.62005 -0.28844
#
# Static dielectric constant tensor:
#      x y z
#    x 1.782340 0.000000 0.012210 
#    y 0.000000 1.805280 0.000000 
#    z 0.012210 0.000000 1.791680 
# 
# From -- ./inp_files/44409.got.cif
#   From: 2010.05.17/outbox.cif.g08.bks.cpg/sg14_23_cif.got.tgz:44409.got - 2010.06.03 17:49:19.
