data_PCOD9244777
_publ_section_title
;
Structure prediction by ZEFSAII (Michael W. Deem and Ramdas Pophale) SiO2 
 PCOD9244777
Probable space group: P 21/C
;
_chemical_formula_sum "Si O2"
_cell_formula_units_Z 28
_cell_length_a 14.533742
_cell_length_b 9.442081
_cell_length_c 15.369341
_cell_angle_alpha 90.000000
_cell_angle_beta 36.580448
_cell_angle_gamma 90.000000
_cell_volume 1256.929389
_symmetry_space_group_name_H-M "P 21/C"
_symmetry_group_IT_number 14
_symmetry_cell_setting 'monoclinic'
loop_
_space_group_symop_operation_xyz
x,y,z
-x,1/2+y,1/2-z
-x,-y,-z
x,1/2-y,1/2+z
loop_
_atom_site_type_symbol
_atom_site_label
_atom_site_fract_x
_atom_site_fract_y
_atom_site_fract_z
Si Si1 0.632334 0.620038 0.819760
Si Si2 0.692324 0.616284 0.387241
Si Si3 0.709342 0.383375 0.879353
Si Si4 0.347296 0.630734 0.700684
Si Si5 0.882166 0.181246 0.015868
Si Si6 0.992450 0.833168 0.749926
Si Si7 0.128918 0.341756 0.482994
O O1 0.674563 0.723870 0.866661
O O2 0.716681 0.477110 0.786473
O O3 0.700693 0.687513 0.681578
O O4 0.452533 0.585550 0.951466
O O5 0.532476 0.602897 0.562884
O O6 0.709285 0.522706 0.286966
O O7 0.843357 0.585231 0.327984
O O8 0.688921 0.224912 0.858554
O O9 0.856515 0.409383 0.826397
O O10 0.261811 0.718105 0.842309
O O11 0.948884 0.243131 0.875606
O O12 0.008794 0.192676 0.997101
O O13 0.865883 0.013030 0.009225
O O14 0.924358 0.763240 0.889790
#
# Coordination Sequence:
#
# PCOD9244777 Si02
#       7
#     4   4   4   4   4   4   4
#     4  10  20  44  66  96 129 180 220 277 338 411
#     4  10  24  39  67  98 136 168 223 277 342 398
#     4  10  21  38  72  95 128 174 231 273 336 399
#     4  10  21  45  64  92 136 184 207 274 351 406
#     4  11  23  43  68  96 136 177 225 280 347 398
#     4  12  25  38  66 103 128 173 237 281 321 408
#     4  11  22  42  67  96 133 181 222 285 339 405
#
# _framework density 22.276509999999998
#
# number of rings (size 3 to 8) (size 9 to 14) (size 15 to 20)
#    0.000    1.429    4.286    0.857    2.000    1.714 
#    2.571    0.000    0.000    0.000    0.000    0.000 
#    0.000    0.000    0.000    0.000    0.000    0.000 
#
# Total GULP energy -156004.594911 kJ/mol
# GULP energy per Si atom -5571.592675 kJ/mol
# Density = 2.222581 g / cm^3
# Si number density = 22.276510 Si / 1000 Ang^3
#
#
#
# Elastic Constant Matrix: (Units=GPa)
#
#
# Indices 1 2 3 4 5 6 
#
# 1 107.0113 18.9657 69.8797 0.0000 -21.4311 0.0000
# 2 18.9657 57.6997 12.3649 0.0000 -3.4410 0.0000
# 3 69.8797 12.3649 150.3945 0.0000 7.1088 0.0000
# 4 0.0000 0.0000 0.0000 17.6387 0.0000 0.9991
# 5 -21.4311 -3.4410 7.1088 0.0000 45.3058 0.0000
# 6 0.0000 0.0000 0.0000 0.9991 0.0000 12.7476
#
#
#
# Elastic Compliance Matrix: (Units=1/GPa)
#
#
# Indices 1 2 3 4 5 6 
#
# 1 0.017010 -0.003324 -0.008059 0.000000 0.009058 0.000000
# 2 -0.003324 0.018404 0.000040 0.000000 -0.000181 0.000000
# 3 -0.008059 0.000040 0.010649 0.000000 -0.005480 0.000000
# 4 0.000000 0.000000 0.000000 0.056946 0.000000 -0.004463
# 5 0.009058 -0.000181 -0.005480 0.000000 0.027203 0.000000
# 6 0.000000 0.000000 0.000000 -0.004463 0.000000 0.078796
#
#
# Mechanical properties :
#
#
# Convention : Reuss Voigt Hill
#
# Bulk Modulus (GPa) = 42.77435 57.50289 50.13862
# Shear Modulus (GPa) = 20.87784 29.39810 25.13797
#
# Velocity S-wave (km/s) = 3.06472 3.63670 3.36289
# Velocity P-wave (km/s) = 5.63618 6.59571 6.13473
#
# Compressibility (1/GPa) = 0.02337850
#
# Stress axis : x y z
#
# Youngs Moduli (GPa) = 58.78729 54.33483 93.90264
#
# Poissons Ratio (x) = 0.18061 0.75673
# Poissons Ratio (y) = 0.19542 -0.00375
# Poissons Ratio (z) = 0.47375 -0.00217
#
# Static dielectric constant tensor:
#      x y z
#    x 1.800450 0.000000 -0.018680 
#    y 0.000000 1.831300 0.000000 
#    z -0.018680 0.000000 1.901760 
# 
# From -- ./inp_files/46394.got.cif
#   From: 2010.05.17/outbox.cif.g08.bks.cpg/sg14_24_cif.got.tgz:46394.got - 2010.06.03 17:49:19.
