data_PCOD9244726
_publ_section_title
;
Structure prediction by ZEFSAII (Michael W. Deem and Ramdas Pophale) SiO2 
 PCOD9244726
Probable space group: P 21/C
;
_chemical_formula_sum "Si O2"
_cell_formula_units_Z 28
_cell_length_a 11.497463
_cell_length_b 7.762495
_cell_length_c 18.983575
_cell_angle_alpha 90.000000
_cell_angle_beta 139.838090
_cell_angle_gamma 90.000000
_cell_volume 1092.715877
_symmetry_space_group_name_H-M "P 21/C"
_symmetry_group_IT_number 14
_symmetry_cell_setting 'monoclinic'
loop_
_space_group_symop_operation_xyz
x,y,z
-x,1/2+y,1/2-z
-x,-y,-z
x,1/2-y,1/2+z
loop_
_atom_site_type_symbol
_atom_site_label
_atom_site_fract_x
_atom_site_fract_y
_atom_site_fract_z
Si Si1 0.855727 0.262472 0.538238
Si Si2 0.719051 0.663492 0.622124
Si Si3 0.728481 0.293021 0.237357
Si Si4 0.956661 0.526937 0.247028
Si Si5 0.474170 0.924808 0.567238
Si Si6 0.957602 0.696449 0.505327
Si Si7 0.386660 0.074827 0.083013
O O1 0.963407 0.377620 0.645635
O O2 0.733385 0.111076 0.512440
O O3 0.994958 0.201133 0.543638
O O4 0.700021 0.391670 0.435751
O O5 0.870584 0.531013 0.717299
O O6 0.576429 0.740738 0.609352
O O7 0.635686 0.593258 0.512034
O O8 0.835442 0.830740 0.655522
O O9 0.583290 0.453517 0.171490
O O10 0.888991 0.272134 0.366312
O O11 0.591804 0.134208 0.186081
O O12 0.838056 0.363352 0.218481
O O13 0.500000 0.000000 0.500000
O O14 0.000000 0.500000 0.500000
O O15 0.757607 0.701543 0.444814
#
# Coordination Sequence:
#
# PCOD9244726 Si02
#       7
#     4   4   4   4   4   4   4
#     4  10  23  41  62  91 126 172 218 260 326 386
#     4  10  21  37  57  95 122 160 208 258 322 378
#     4  11  21  39  66  91 127 172 209 263 331 372
#     4  10  22  36  64  89 126 170 198 262 327 381
#     4  11  24  39  62  93 128 168 212 279 316 386
#     4  10  20  43  64  89 131 168 218 264 318 392
#     4  10  21  39  66  94 121 169 211 267 321 385
#
# _framework density 25.624224999999999
#
# number of rings (size 3 to 8) (size 9 to 14) (size 15 to 20)
#    0.000    1.714    5.714    0.000    4.000    5.714 
#    0.000    0.714    0.000    0.000    0.000    0.000 
#    0.000    0.000    0.000    0.000    0.000    0.000 
#
# Total GULP energy -156296.405884 kJ/mol
# GULP energy per Si atom -5582.014496 kJ/mol
# Density = 2.556590 g / cm^3
# Si number density = 25.624225 Si / 1000 Ang^3
#
#
#
# Elastic Constant Matrix: (Units=GPa)
#
#
# Indices 1 2 3 4 5 6 
#
# 1 143.3254 19.0869 24.7500 0.0000 35.1709 0.0000
# 2 19.0869 56.1645 8.5406 0.0000 7.0035 0.0000
# 3 24.7500 8.5406 73.6842 0.0000 26.4567 0.0000
# 4 0.0000 0.0000 0.0000 42.0599 0.0000 20.1021
# 5 35.1709 7.0035 26.4567 0.0000 35.6345 0.0000
# 6 0.0000 0.0000 0.0000 20.1021 0.0000 40.9414
#
#
#
# Elastic Compliance Matrix: (Units=1/GPa)
#
#
# Indices 1 2 3 4 5 6 
#
# 1 0.009450 -0.002122 0.000369 0.000000 -0.009184 0.000000
# 2 -0.002122 0.018798 -0.001216 0.000000 -0.000697 0.000000
# 3 0.000369 -0.001216 0.018589 0.000000 -0.013927 0.000000
# 4 0.000000 0.000000 0.000000 0.031066 0.000000 -0.015253
# 5 -0.009184 -0.000697 -0.013927 0.000000 0.047604 0.000000
# 6 0.000000 0.000000 0.000000 -0.015253 0.000000 0.031914
#
#
# Mechanical properties :
#
#
# Convention : Reuss Voigt Hill
#
# Bulk Modulus (GPa) = 24.45031 41.99210 33.22120
# Shear Modulus (GPa) = 28.25011 38.44694 33.34852
#
# Velocity S-wave (km/s) = 3.32396 3.87772 3.61147
# Velocity P-wave (km/s) = 4.92891 6.03922 5.51209
#
# Compressibility (1/GPa) = 0.04089928
#
# Stress axis : x y z
#
# Youngs Moduli (GPa) = 105.82459 53.19743 53.79593
#
# Poissons Ratio (x) = 0.11290 -0.01987
# Poissons Ratio (y) = 0.22460 0.06539
# Poissons Ratio (z) = -0.03910 0.06467
#
# Static dielectric constant tensor:
#      x y z
#    x 2.085570 0.000000 0.003410 
#    y 0.000000 2.200090 0.000000 
#    z 0.003410 0.000000 2.040660 
# 
# From -- ./inp_files/67073.got.cif
#   From: 2010.05.17/outbox.cif.g08.bks.cpg/sg14_34_cif.got.tgz:67073.got - 2010.06.03 17:49:19.
