data_PCOD9244164
_publ_section_title
;
Structure prediction by ZEFSAII (Michael W. Deem and Ramdas Pophale) SiO2 
 PCOD9244164
Probable space group: P 21/C
;
_chemical_formula_sum "Si O2"
_cell_formula_units_Z 24
_cell_length_a 7.741749
_cell_length_b 11.890814
_cell_length_c 14.781585
_cell_angle_alpha 90.000000
_cell_angle_beta 42.637124
_cell_angle_gamma 90.000000
_cell_volume 921.693638
_symmetry_space_group_name_H-M "P 21/C"
_symmetry_group_IT_number 14
_symmetry_cell_setting 'monoclinic'
loop_
_space_group_symop_operation_xyz
x,y,z
-x,1/2+y,1/2-z
-x,-y,-z
x,1/2-y,1/2+z
loop_
_atom_site_type_symbol
_atom_site_label
_atom_site_fract_x
_atom_site_fract_y
_atom_site_fract_z
Si Si1 0.549228 0.745999 0.805410
Si Si2 0.482475 0.629017 0.598296
Si Si3 0.173654 0.546308 0.016602
Si Si4 0.794669 0.554357 0.643545
Si Si5 0.575088 0.131812 0.335011
Si Si6 0.815720 0.915511 0.824579
O O1 0.809809 0.677169 0.681670
O O2 0.488076 0.818727 0.740133
O O3 0.598710 0.837598 0.861293
O O4 0.344439 0.652027 0.916337
O O5 0.547435 0.577933 0.673280
O O6 0.359919 0.752176 0.642812
O O7 0.289254 0.542057 0.628781
O O8 0.764209 0.635514 0.444571
O O9 0.030017 0.580340 0.163983
O O10 0.347830 0.436420 0.968981
O O11 0.000000 0.500000 0.000000
O O12 0.766868 0.468327 0.737633
O O13 0.000000 0.500000 0.500000
#
# Coordination Sequence:
#
# PCOD9244164 Si02
#       6
#     4   4   4   4   4   4
#     4  10  21  36  62  92 120 159 211 253 309 378
#     4  10  23  41  62  91 124 165 205 256 319 375
#     4  11  21  39  66  90 123 169 211 254 311 373
#     4  10  21  38  63  90 120 157 214 262 299 367
#     4  10  20  40  60  91 118 159 217 246 303 374
#     4  11  22  43  61  89 133 164 200 263 323 369
#
# _framework density 26.039021999999999
#
# number of rings (size 3 to 8) (size 9 to 14) (size 15 to 20)
#    0.000    1.667    3.333    2.000    2.333    2.667 
#   12.000    1.667    0.000    0.000    0.000    0.000 
#    0.000    0.000    0.000    0.000    0.000    0.000 
#
# Total GULP energy -133864.283006 kJ/mol
# GULP energy per Si atom -5577.678459 kJ/mol
# Density = 2.597976 g / cm^3
# Si number density = 26.039022 Si / 1000 Ang^3
#
#
#
# Elastic Constant Matrix: (Units=GPa)
#
#
# Indices 1 2 3 4 5 6 
#
# 1 14.5106 6.6517 9.9175 0.0000 6.6299 0.0000
# 2 6.6517 143.0264 29.9571 0.0000 -3.1677 0.0000
# 3 9.9175 29.9571 171.8400 0.0000 19.5295 0.0000
# 4 0.0000 0.0000 0.0000 44.6651 0.0000 -3.8085
# 5 6.6299 -3.1677 19.5295 0.0000 31.9778 0.0000
# 6 0.0000 0.0000 0.0000 -3.8085 0.0000 33.0046
#
#
#
# Elastic Compliance Matrix: (Units=1/GPa)
#
#
# Indices 1 2 3 4 5 6 
#
# 1 0.079086 -0.003560 -0.002192 0.000000 -0.015411 0.000000
# 2 -0.003560 0.007494 -0.001364 0.000000 0.002313 0.000000
# 3 -0.002192 -0.001364 0.006606 0.000000 -0.003715 0.000000
# 4 0.000000 0.000000 0.000000 0.022611 0.000000 0.002609
# 5 -0.015411 0.002313 -0.003715 0.000000 0.036965 0.000000
# 6 0.000000 0.000000 0.000000 0.002609 0.000000 0.030600
#
#
# Mechanical properties :
#
#
# Convention : Reuss Voigt Hill
#
# Bulk Modulus (GPa) = 12.66566 46.93663 29.80114
# Shear Modulus (GPa) = 22.33010 40.78624 31.55817
#
# Velocity S-wave (km/s) = 2.93159 3.96201 3.48509
# Velocity P-wave (km/s) = 4.04149 6.24457 5.25967
#
# Compressibility (1/GPa) = 0.07895366
#
# Stress axis : x y z
#
# Youngs Moduli (GPa) = 12.64440 133.43655 151.38069
#
# Poissons Ratio (x) = 0.47505 0.33188
# Poissons Ratio (y) = 0.04502 0.20647
# Poissons Ratio (z) = 0.02772 0.18200
#
# Static dielectric constant tensor:
#      x y z
#    x 2.434460 0.000000 -0.235590 
#    y 0.000000 1.976590 0.000000 
#    z -0.235590 0.000000 2.261180 
# 
# From -- ./inp_files/24282.got.cif
#   From: 2010.05.17/outbox.cif.g08.bks.cpg/sg14_13_cif.got.tgz:24282.got - 2010.06.03 17:49:19.
