data_PCOD9244668
_publ_section_title
;
Structure prediction by ZEFSAII (Michael W. Deem and Ramdas Pophale) SiO2 
 PCOD9244668
Probable space group: P 21/C
;
_chemical_formula_sum "Si O2"
_cell_formula_units_Z 32
_cell_length_a 11.774067
_cell_length_b 14.547508
_cell_length_c 14.408840
_cell_angle_alpha 90.000000
_cell_angle_beta 28.991795
_cell_angle_gamma 90.000000
_cell_volume 1196.198181
_symmetry_space_group_name_H-M "P 21/C"
_symmetry_group_IT_number 14
_symmetry_cell_setting 'monoclinic'
loop_
_space_group_symop_operation_xyz
x,y,z
-x,1/2+y,1/2-z
-x,-y,-z
x,1/2-y,1/2+z
loop_
_atom_site_type_symbol
_atom_site_label
_atom_site_fract_x
_atom_site_fract_y
_atom_site_fract_z
Si Si1 0.631085 0.310758 0.905621
Si Si2 0.486627 0.055334 0.820266
Si Si3 0.750758 0.705300 0.099924
Si Si4 0.563882 0.580606 0.098537
Si Si5 0.104789 0.336104 0.359607
Si Si6 0.198717 0.892006 0.250566
Si Si7 0.978921 0.484168 0.312385
Si Si8 0.278703 0.717569 0.965361
O O1 0.672752 0.206908 0.842945
O O2 0.651414 0.385970 0.810033
O O3 0.366245 0.329348 0.130524
O O4 0.785740 0.318476 0.887291
O O5 0.641445 0.042176 0.801859
O O6 0.602279 0.141019 0.684176
O O7 0.503199 0.972318 0.735381
O O8 0.213402 0.063271 0.040005
O O9 0.864311 0.799538 0.057445
O O10 0.490186 0.708820 0.329089
O O11 0.689156 0.677494 0.038237
O O12 0.948180 0.628649 0.979332
O O13 0.750863 0.515536 0.913976
O O14 0.002861 0.431015 0.393709
O O15 0.938298 0.261837 0.430023
O O16 0.138746 0.926138 0.189823
#
# Coordination Sequence:
#
# PCOD9244668 Si02
#       8
#     4   4   4   4   4   4   4   4
#     4  10  23  42  70  94 130 174 232 279 313 392
#     4  12  25  40  67  99 140 174 213 271 354 403
#     4  10  22  40  69  94 127 170 232 269 314 392
#     4  10  24  43  62  98 140 176 217 275 335 394
#     4  10  20  42  68  94 126 175 225 277 318 382
#     4  11  22  41  67  99 126 176 225 274 332 381
#     4  10  23  42  62  98 138 169 218 274 333 397
#     4  11  22  43  66 100 126 176 228 269 333 401
#
# _framework density 26.751421000000001
#
# number of rings (size 3 to 8) (size 9 to 14) (size 15 to 20)
#    0.000    1.500    2.500    1.875    3.500    3.500 
#    2.250    5.625    0.000    0.000    0.000    0.000 
#    0.000    0.000    0.000    0.000    0.000    0.000 
#
# Total GULP energy -178769.990174 kJ/mol
# GULP energy per Si atom -5586.562193 kJ/mol
# Density = 2.669053 g / cm^3
# Si number density = 26.751421 Si / 1000 Ang^3
#
#
#
# Elastic Constant Matrix: (Units=GPa)
#
#
# Indices 1 2 3 4 5 6 
#
# 1 134.5240 31.8606 18.8372 0.0000 4.4132 0.0000
# 2 31.8606 65.3528 21.8696 0.0000 1.6138 0.0000
# 3 18.8372 21.8696 81.7955 0.0000 -10.1361 0.0000
# 4 0.0000 0.0000 0.0000 48.7429 0.0000 -0.5675
# 5 4.4132 1.6138 -10.1361 0.0000 38.9030 0.0000
# 6 0.0000 0.0000 0.0000 -0.5675 0.0000 50.1533
#
#
#
# Elastic Compliance Matrix: (Units=1/GPa)
#
#
# Indices 1 2 3 4 5 6 
#
# 1 0.008512 -0.003758 -0.001091 0.000000 -0.001094 0.000000
# 2 -0.003758 0.018605 -0.004290 0.000000 -0.001463 0.000000
# 3 -0.001091 -0.004290 0.014117 0.000000 0.003980 0.000000
# 4 0.000000 0.000000 0.000000 0.020518 0.000000 0.000232
# 5 -0.001094 -0.001463 0.003980 0.000000 0.026927 0.000000
# 6 0.000000 0.000000 0.000000 0.000232 0.000000 0.019941
#
#
# Mechanical properties :
#
#
# Convention : Reuss Voigt Hill
#
# Bulk Modulus (GPa) = 43.56136 47.42303 45.49220
# Shear Modulus (GPa) = 37.16020 41.50017 39.33019
#
# Velocity S-wave (km/s) = 3.73110 3.94296 3.83849
# Velocity P-wave (km/s) = 5.90598 6.20444 6.05704
#
# Compressibility (1/GPa) = 0.02295612
#
# Stress axis : x y z
#
# Youngs Moduli (GPa) = 117.47719 53.74785 70.83529
#
# Poissons Ratio (x) = 0.20197 0.07730
# Poissons Ratio (y) = 0.44144 0.30392
# Poissons Ratio (z) = 0.12820 0.23060
#
# Static dielectric constant tensor:
#      x y z
#    x 2.127390 0.000000 0.054050 
#    y 0.000000 2.205490 0.000000 
#    z 0.054050 0.000000 2.106650 
# 
# From -- ./inp_files/45442.got.cif
#   From: 2010.05.17/outbox.cif.g08.bks.cpg/sg14_23_cif.got.tgz:45442.got - 2010.06.03 17:49:19.
