data_PCOD9244780
_publ_section_title
;
Structure prediction by ZEFSAII (Michael W. Deem and Ramdas Pophale) SiO2 
 PCOD9244780
Probable space group: P 21/C
;
_chemical_formula_sum "Si O2"
_cell_formula_units_Z 24
_cell_length_a 11.381738
_cell_length_b 9.609456
_cell_length_c 9.306275
_cell_angle_alpha 90.000000
_cell_angle_beta 106.264655
_cell_angle_gamma 90.000000
_cell_volume 977.112708
_symmetry_space_group_name_H-M "P 21/C"
_symmetry_group_IT_number 14
_symmetry_cell_setting 'monoclinic'
loop_
_space_group_symop_operation_xyz
x,y,z
-x,1/2+y,1/2-z
-x,-y,-z
x,1/2-y,1/2+z
loop_
_atom_site_type_symbol
_atom_site_label
_atom_site_fract_x
_atom_site_fract_y
_atom_site_fract_z
Si Si1 0.218647 0.492355 0.137734
Si Si2 0.058711 0.789188 0.667522
Si Si3 0.590430 0.124172 0.073410
Si Si4 0.181833 0.901835 0.003526
Si Si5 0.582405 0.865759 0.496822
Si Si6 0.199634 0.198787 0.873045
O O1 0.118174 0.606606 0.071042
O O2 0.317874 0.570300 0.274208
O O3 0.304622 0.423671 0.053170
O O4 0.156118 0.375631 0.213105
O O5 0.104737 0.842371 0.839934
O O6 0.114828 0.642695 0.627831
O O7 0.913457 0.792107 0.618444
O O8 0.681092 0.160532 0.971541
O O9 0.512027 0.254312 0.098311
O O10 0.500000 0.000000 0.000000
O O11 0.204675 0.068429 0.987974
O O12 0.669199 0.766211 0.625801
O O13 0.500000 0.000000 0.500000
#
# Coordination Sequence:
#
# PCOD9244780 Si02
#       6
#     4   4   4   4   4   4
#     4  10  25  43  64 100 132 173 230 284 332 406
#     4  10  22  44  67  98 135 178 229 276 347 400
#     4  10  20  44  67  88 138 174 218 281 339 407
#     4  10  22  43  70  99 135 180 226 282 343 403
#     4  12  25  42  67  99 129 180 229 271 348 403
#     4  10  23  45  65  94 139 176 219 285 339 406
#
# _framework density 24.562161
#
# number of rings (size 3 to 8) (size 9 to 14) (size 15 to 20)
#    0.000    2.000    3.333    1.500    4.667    3.333 
#   15.000    0.000    0.000    0.000    0.000    0.000 
#    0.000    0.000    0.000    0.000    0.000    0.000 
#
# Total GULP energy -133812.943558 kJ/mol
# GULP energy per Si atom -5575.539315 kJ/mol
# Density = 2.450626 g / cm^3
# Si number density = 24.562161 Si / 1000 Ang^3
#
#
#
# Elastic Constant Matrix: (Units=GPa)
#
#
# Indices 1 2 3 4 5 6 
#
# 1 159.0848 36.3734 18.7905 0.0000 23.6025 0.0000
# 2 36.3734 96.9986 24.1253 0.0000 12.6903 0.0000
# 3 18.7905 24.1253 37.0163 0.0000 14.7732 0.0000
# 4 0.0000 0.0000 0.0000 26.1200 0.0000 -0.9983
# 5 23.6025 12.6903 14.7732 0.0000 26.3529 0.0000
# 6 0.0000 0.0000 0.0000 -0.9983 0.0000 63.1842
#
#
#
# Elastic Compliance Matrix: (Units=1/GPa)
#
#
# Indices 1 2 3 4 5 6 
#
# 1 0.007632 -0.002051 -0.000262 0.000000 -0.005700 0.000000
# 2 -0.002051 0.012925 -0.007255 0.000000 -0.000320 0.000000
# 3 -0.000262 -0.007255 0.039147 0.000000 -0.018217 0.000000
# 4 0.000000 0.000000 0.000000 0.038308 0.000000 0.000605
# 5 -0.005700 -0.000320 -0.018217 0.000000 0.053418 0.000000
# 6 0.000000 0.000000 0.000000 0.000605 0.000000 0.015836
#
#
# Mechanical properties :
#
#
# Convention : Reuss Voigt Hill
#
# Bulk Modulus (GPa) = 24.65032 50.18646 37.41839
# Shear Modulus (GPa) = 25.00944 37.38544 31.19744
#
# Velocity S-wave (km/s) = 3.19440 3.90561 3.56777
# Velocity P-wave (km/s) = 4.86449 6.38868 5.67796
#
# Compressibility (1/GPa) = 0.04056742
#
# Stress axis : x y z
#
# Youngs Moduli (GPa) = 131.03468 77.37102 25.54468
#
# Poissons Ratio (x) = 0.15866 0.00670
# Poissons Ratio (y) = 0.26871 0.18532
# Poissons Ratio (z) = 0.03438 0.56132
#
# Static dielectric constant tensor:
#      x y z
#    x 1.717950 0.000000 -0.139470 
#    y 0.000000 2.054230 0.000000 
#    z -0.139470 0.000000 1.987990 
# 
# From -- ./inp_files/28195.got.cif
#   From: 2010.05.17/outbox.cif.g08.bks.cpg/sg14_15_cif.got.tgz:28195.got - 2010.06.03 17:49:19.
