data_PCOD9244454
_publ_section_title
;
Structure prediction by ZEFSAII (Michael W. Deem and Ramdas Pophale) SiO2 
 PCOD9244454
Probable space group: P 21/C
;
_chemical_formula_sum "Si O2"
_cell_formula_units_Z 32
_cell_length_a 12.962943
_cell_length_b 19.507202
_cell_length_c 8.935767
_cell_angle_alpha 90.000000
_cell_angle_beta 33.470532
_cell_angle_gamma 90.000000
_cell_volume 1246.184289
_symmetry_space_group_name_H-M "P 21/C"
_symmetry_group_IT_number 14
_symmetry_cell_setting 'monoclinic'
loop_
_space_group_symop_operation_xyz
x,y,z
-x,1/2+y,1/2-z
-x,-y,-z
x,1/2-y,1/2+z
loop_
_atom_site_type_symbol
_atom_site_label
_atom_site_fract_x
_atom_site_fract_y
_atom_site_fract_z
Si Si1 0.846273 0.483224 0.859090
Si Si2 0.007242 0.720490 0.299115
Si Si3 0.461242 0.656414 0.435913
Si Si4 0.287912 0.044243 0.202280
Si Si5 0.451032 0.725386 0.757067
Si Si6 0.023843 0.652790 0.952921
Si Si7 0.183794 0.405015 0.327652
Si Si8 0.489345 0.418433 0.175983
O O1 0.847858 0.560402 0.793969
O O2 0.047811 0.450585 0.599005
O O3 0.766382 0.483019 0.121888
O O4 0.704922 0.439504 0.926347
O O5 0.953910 0.797882 0.403443
O O6 0.891455 0.670345 0.547590
O O7 0.230151 0.719440 0.064374
O O8 0.991720 0.693610 0.148260
O O9 0.576740 0.593470 0.361978
O O10 0.464593 0.712778 0.564996
O O11 0.528718 0.701192 0.213273
O O12 0.244264 0.639109 0.669155
O O13 0.099505 0.085625 0.399249
O O14 0.387367 0.033671 0.922988
O O15 0.540861 0.658963 0.726360
O O16 0.392174 0.419607 0.133744
#
# Coordination Sequence:
#
# PCOD9244454 Si02
#       8
#     4   4   4   4   4   4   4   4
#     4  11  26  44  61  92 124 165 221 253 307 368
#     4  10  20  41  63  89 130 159 199 257 308 366
#     4   9  21  37  58  90 126 157 197 251 312 369
#     4  11  24  39  64  93 125 161 207 263 309 375
#     4   9  19  38  61  88 125 158 199 251 308 369
#     4  10  22  38  62  96 124 161 204 250 319 373
#     4  11  24  43  65  88 126 171 206 265 305 365
#     4  11  22  42  65  88 123 168 207 257 312 365
#
# _framework density 25.678384000000001
#
# number of rings (size 3 to 8) (size 9 to 14) (size 15 to 20)
#    0.000    1.750    2.500    0.750    3.500    2.500 
#    0.000    0.000    0.000    0.000    0.000    0.000 
#    0.000    0.000    0.000    0.000    0.000    0.000 
#
# Total GULP energy -179230.567771 kJ/mol
# GULP energy per Si atom -5600.955243 kJ/mol
# Density = 2.561994 g / cm^3
# Si number density = 25.678384 Si / 1000 Ang^3
#
#
#
# Elastic Constant Matrix: (Units=GPa)
#
#
# Indices 1 2 3 4 5 6 
#
# 1 72.4394 23.6799 6.1657 0.0000 -24.4169 0.0000
# 2 23.6799 41.4033 2.8097 0.0000 2.6409 0.0000
# 3 6.1657 2.8097 64.8808 0.0000 0.3081 0.0000
# 4 0.0000 0.0000 0.0000 30.9098 0.0000 7.2033
# 5 -24.4169 2.6409 0.3081 0.0000 28.9209 0.0000
# 6 0.0000 0.0000 0.0000 7.2033 0.0000 41.2630
#
#
#
# Elastic Compliance Matrix: (Units=1/GPa)
#
#
# Indices 1 2 3 4 5 6 
#
# 1 0.028426 -0.017754 -0.002054 0.000000 0.025643 0.000000
# 2 -0.017754 0.035454 0.000238 0.000000 -0.018229 0.000000
# 3 -0.002054 0.000238 0.015607 0.000000 -0.001922 0.000000
# 4 0.000000 0.000000 0.000000 0.033724 0.000000 -0.005887
# 5 0.025643 -0.018229 -0.001922 0.000000 0.057911 0.000000
# 6 0.000000 0.000000 0.000000 -0.005887 0.000000 0.025263
#
#
# Mechanical properties :
#
#
# Convention : Reuss Voigt Hill
#
# Bulk Modulus (GPa) = 24.78521 27.11489 25.95005
# Shear Modulus (GPa) = 20.08242 29.95662 25.01952
#
# Velocity S-wave (km/s) = 2.79959 3.41927 3.12483
# Velocity P-wave (km/s) = 4.48591 5.11575 4.81115
#
# Compressibility (1/GPa) = 0.04034663
#
# Stress axis : x y z
#
# Youngs Moduli (GPa) = 35.17850 28.20595 64.07423
#
# Poissons Ratio (x) = 0.50078 0.13163
# Poissons Ratio (y) = 0.62457 -0.01528
# Poissons Ratio (z) = 0.07227 -0.00672
#
# Static dielectric constant tensor:
#      x y z
#    x 1.993740 0.000000 0.004950 
#    y 0.000000 2.039860 0.000000 
#    z 0.004950 0.000000 2.010580 
# 
# From -- ./inp_files/14523.got.cif
#   From: 2010.05.17/outbox.cif.g08.bks.cpg/sg14_8_cif.got.tgz:14523.got - 2010.06.03 17:49:19.
