data_PCOD9244570
_publ_section_title
;
Structure prediction by ZEFSAII (Michael W. Deem and Ramdas Pophale) SiO2 
 PCOD9244570
Probable space group: P 21/C
;
_chemical_formula_sum "Si O2"
_cell_formula_units_Z 30
_cell_length_a 9.022680
_cell_length_b 14.645016
_cell_length_c 20.890454
_cell_angle_alpha 90.000000
_cell_angle_beta 33.953938
_cell_angle_gamma 90.000000
_cell_volume 1541.760301
_symmetry_space_group_name_H-M "P 21/C"
_symmetry_group_IT_number 14
_symmetry_cell_setting 'monoclinic'
loop_
_space_group_symop_operation_xyz
x,y,z
-x,1/2+y,1/2-z
-x,-y,-z
x,1/2-y,1/2+z
loop_
_atom_site_type_symbol
_atom_site_label
_atom_site_fract_x
_atom_site_fract_y
_atom_site_fract_z
Si Si1 0.048109 0.590847 0.849330
Si Si2 0.169716 0.907204 0.948795
Si Si3 0.139477 0.273937 0.981873
Si Si4 0.500000 0.000000 0.500000
Si Si5 0.341894 0.805155 0.137949
Si Si6 0.029264 0.856432 0.699390
Si Si7 0.732907 0.900128 0.682212
Si Si8 0.507139 0.909412 0.956554
O O1 0.228472 0.613862 0.723065
O O2 0.163934 0.503735 0.846010
O O3 0.752706 0.563790 0.933452
O O4 0.034444 0.678957 0.900092
O O5 0.421471 0.902407 0.810505
O O6 0.297356 0.908132 0.973899
O O7 0.000398 0.815515 0.997650
O O8 0.000000 0.000000 0.000000
O O9 0.416790 0.240790 0.911392
O O10 0.199209 0.352618 0.908618
O O11 0.715729 0.079810 0.401148
O O12 0.107734 0.734628 0.208017
O O13 0.444530 0.832702 0.031149
O O14 0.892712 0.842929 0.679114
O O15 0.797867 0.902502 0.822900
O O16 0.500000 0.000000 0.000000
#
# Coordination Sequence:
#
# PCOD9244570 Si02
#       8
#     4   4   4   2   4   4   4   4
#     4  11  23  42  66  95 136 173 224 283 330 406
#     4  11  24  43  65  97 133 173 220 278 340 403
#     4  12  23  41  67  97 131 178 225 274 344 406
#     4  10  20  42  60  94 126 172 208 282 326 386
#     4  12  23  41  67  98 130 172 223 280 331 402
#     4  10  22  40  65  94 131 168 218 275 332 395
#     4  10  23  43  63  92 135 174 219 278 336 398
#     4  11  23  42  65  95 128 174 219 273 334 395
#
# _framework density 19.458276999999999
#
# number of rings (size 3 to 8) (size 9 to 14) (size 15 to 20)
#    0.000    1.067    1.333    6.800    0.000    1.067 
#    4.800    0.000    0.000    0.000    0.000    0.000 
#    0.000    0.000    0.000    0.000    0.000    0.000 
#
# Total GULP energy -167075.926263 kJ/mol
# GULP energy per Si atom -5569.197542 kJ/mol
# Density = 1.941399 g / cm^3
# Si number density = 19.458277 Si / 1000 Ang^3
#
#
#
# Elastic Constant Matrix: (Units=GPa)
#
#
# Indices 1 2 3 4 5 6 
#
# 1 34.4369 24.7859 28.3859 0.0000 -1.9986 0.0000
# 2 24.7859 90.8954 9.7566 0.0000 -5.9610 0.0000
# 3 28.3859 9.7566 76.4259 0.0000 -0.5778 0.0000
# 4 0.0000 0.0000 0.0000 25.3163 0.0000 7.8991
# 5 -1.9986 -5.9610 -0.5778 0.0000 31.1226 0.0000
# 6 0.0000 0.0000 0.0000 7.8991 0.0000 43.8858
#
#
#
# Elastic Compliance Matrix: (Units=1/GPa)
#
#
# Indices 1 2 3 4 5 6 
#
# 1 0.052928 -0.012449 -0.018064 0.000000 0.000679 0.000000
# 2 -0.012449 0.014223 0.002823 0.000000 0.001977 0.000000
# 3 -0.018064 0.002823 0.019432 0.000000 -0.000259 0.000000
# 4 0.000000 0.000000 0.000000 0.041851 0.000000 -0.007533
# 5 0.000679 0.001977 -0.000259 0.000000 0.032549 0.000000
# 6 0.000000 0.000000 0.000000 -0.007533 0.000000 0.024142
#
#
# Mechanical properties :
#
#
# Convention : Reuss Voigt Hill
#
# Bulk Modulus (GPa) = 32.04884 36.40166 34.22525
# Shear Modulus (GPa) = 19.92781 29.32025 24.62403
#
# Velocity S-wave (km/s) = 3.20368 3.88600 3.56122
# Velocity P-wave (km/s) = 5.49464 6.23561 5.87681
#
# Compressibility (1/GPa) = 0.03120238
#
# Stress axis : x y z
#
# Youngs Moduli (GPa) = 18.89347 70.30848 51.46277
#
# Poissons Ratio (x) = 0.87529 0.92963
# Poissons Ratio (y) = 0.23521 -0.14528
# Poissons Ratio (z) = 0.34129 -0.19849
#
# Static dielectric constant tensor:
#      x y z
#    x 1.691160 0.000000 0.055650 
#    y 0.000000 1.638640 0.000000 
#    z 0.055650 0.000000 1.723230 
# 
# From -- ./inp_files/65920.got.cif
#   From: 2010.05.17/outbox.cif.g08.bks.cpg/sg14_33_cif.got.tgz:65920.got - 2010.06.03 17:49:19.
