data_PCOD9244319
_publ_section_title
;
Structure prediction by ZEFSAII (Michael W. Deem and Ramdas Pophale) SiO2 
 PCOD9244319
Probable space group: P 21/C
;
_chemical_formula_sum "Si O2"
_cell_formula_units_Z 32
_cell_length_a 12.148161
_cell_length_b 11.843185
_cell_length_c 23.800877
_cell_angle_alpha 90.000000
_cell_angle_beta 151.758438
_cell_angle_gamma 90.000000
_cell_volume 1620.345056
_symmetry_space_group_name_H-M "P 21/C"
_symmetry_group_IT_number 14
_symmetry_cell_setting 'monoclinic'
loop_
_space_group_symop_operation_xyz
x,y,z
-x,1/2+y,1/2-z
-x,-y,-z
x,1/2-y,1/2+z
loop_
_atom_site_type_symbol
_atom_site_label
_atom_site_fract_x
_atom_site_fract_y
_atom_site_fract_z
Si Si1 0.796344 0.705903 0.670373
Si Si2 0.574756 0.549225 0.094015
Si Si3 0.951313 0.665163 0.511726
Si Si4 0.373037 0.542932 0.647350
Si Si5 0.022148 0.903786 0.171828
Si Si6 0.648170 0.403741 0.487664
Si Si7 0.890209 0.336099 0.083419
Si Si8 0.847566 0.895838 0.411952
O O1 0.718945 0.833919 0.649699
O O2 0.937380 0.693319 0.676168
O O3 0.559713 0.632325 0.564907
O O4 0.959738 0.654574 0.792408
O O5 0.736759 0.460512 0.199882
O O6 0.500000 0.500000 0.000000
O O7 0.335114 0.582785 0.017403
O O8 0.745560 0.579554 0.401482
O O9 0.020554 0.637884 0.606999
O O10 0.872599 0.792082 0.465873
O O11 0.171119 0.631798 0.572182
O O12 0.447834 0.558451 0.616343
O O13 0.586060 0.563888 0.784077
O O14 0.825441 0.001200 0.087640
O O15 0.792702 0.290509 0.541164
O O16 0.049937 0.354540 0.101521
O O17 0.000000 0.000000 0.500000
#
# Coordination Sequence:
#
# PCOD9244319 Si02
#       8
#     4   4   4   4   4   4   4   4
#     4  11  22  40  66  97 131 170 222 275 323 409
#     4  11  24  41  68  97 133 174 223 275 333 394
#     4  10  25  45  67  98 137 179 221 279 348 397
#     4  10  22  43  70  92 131 175 226 277 338 399
#     4  11  23  43  65  97 135 177 216 272 347 400
#     4  10  20  40  66  94 123 176 220 274 322 396
#     4  11  22  40  66  97 127 173 228 274 330 396
#     4  12  27  43  68 102 133 175 232 284 339 404
#
# _framework density 19.748878999999999
#
# number of rings (size 3 to 8) (size 9 to 14) (size 15 to 20)
#    0.000    1.250    5.000    0.375    3.500    1.000 
#    0.000    0.000    0.000    0.000    0.000    0.000 
#    0.000    0.000    0.000    0.000    0.000    0.000 
#
# Total GULP energy -178794.071101 kJ/mol
# GULP energy per Si atom -5587.314722 kJ/mol
# Density = 1.970393 g / cm^3
# Si number density = 19.748879 Si / 1000 Ang^3
#
#
#
# Elastic Constant Matrix: (Units=GPa)
#
#
# Indices 1 2 3 4 5 6 
#
# 1 71.8358 8.2622 25.6232 0.0000 -0.7928 0.0000
# 2 8.2622 50.7047 53.4405 0.0000 -3.7669 0.0000
# 3 25.6232 53.4405 128.1594 0.0000 -2.0709 0.0000
# 4 0.0000 0.0000 0.0000 18.2477 0.0000 -4.9596
# 5 -0.7928 -3.7669 -2.0709 0.0000 24.2310 0.0000
# 6 0.0000 0.0000 0.0000 -4.9596 0.0000 19.5534
#
#
#
# Elastic Compliance Matrix: (Units=1/GPa)
#
#
# Indices 1 2 3 4 5 6 
#
# 1 0.015040 0.001322 -0.003552 0.000000 0.000394 0.000000
# 2 0.001322 0.035738 -0.015097 0.000000 0.004309 0.000000
# 3 -0.003552 -0.015097 0.014789 0.000000 -0.001199 0.000000
# 4 0.000000 0.000000 0.000000 0.058859 0.000000 0.014929
# 5 0.000394 0.004309 -0.001199 0.000000 0.041850 0.000000
# 6 0.000000 0.000000 0.000000 0.014929 0.000000 0.054929
#
#
# Mechanical properties :
#
#
# Convention : Reuss Voigt Hill
#
# Bulk Modulus (GPa) = 32.34851 47.26129 39.80490
# Shear Modulus (GPa) = 18.78551 23.29802 21.04177
#
# Velocity S-wave (km/s) = 3.08753 3.43842 3.26769
# Velocity P-wave (km/s) = 5.39685 6.30450 5.86825
#
# Compressibility (1/GPa) = 0.03091332
#
# Stress axis : x y z
#
# Youngs Moduli (GPa) = 66.49008 27.98113 67.61882
#
# Poissons Ratio (x) = -0.03699 0.24017
# Poissons Ratio (y) = -0.08791 1.02085
# Poissons Ratio (z) = 0.23616 0.42243
#
# Static dielectric constant tensor:
#      x y z
#    x 1.701890 0.000000 -0.011150 
#    y 0.000000 1.671930 0.000000 
#    z -0.011150 0.000000 1.691210 
# 
# From -- ./inp_files/35920.got.cif
#   From: 2010.05.17/outbox.cif.g08.bks.cpg/sg14_18_cif.got.tgz:35920.got - 2010.06.03 17:49:19.
