data_PCOD9244805
_publ_section_title
;
Structure prediction by ZEFSAII (Michael W. Deem and Ramdas Pophale) SiO2 
 PCOD9244805
Probable space group: P 21/C
;
_chemical_formula_sum "Si O2"
_cell_formula_units_Z 32
_cell_length_a 16.651655
_cell_length_b 11.097900
_cell_length_c 14.519781
_cell_angle_alpha 90.000000
_cell_angle_beta 145.340862
_cell_angle_gamma 90.000000
_cell_volume 1525.935562
_symmetry_space_group_name_H-M "P 21/C"
_symmetry_group_IT_number 14
_symmetry_cell_setting 'monoclinic'
loop_
_space_group_symop_operation_xyz
x,y,z
-x,1/2+y,1/2-z
-x,-y,-z
x,1/2-y,1/2+z
loop_
_atom_site_type_symbol
_atom_site_label
_atom_site_fract_x
_atom_site_fract_y
_atom_site_fract_z
Si Si1 0.447453 0.921205 0.863122
Si Si2 0.402494 0.528587 0.996706
Si Si3 0.139999 0.379303 0.807646
Si Si4 0.386160 0.128058 0.155526
Si Si5 0.074013 0.250421 0.576726
Si Si6 0.868672 0.986660 0.988888
Si Si7 0.731039 0.633194 0.880317
Si Si8 0.759902 0.287623 0.268117
O O1 0.569463 0.877827 0.908528
O O2 0.355913 0.806556 0.807184
O O3 0.347455 0.008941 0.709209
O O4 0.500000 0.000000 0.000000
O O5 0.292693 0.423101 0.915866
O O6 0.306195 0.644196 0.881516
O O7 0.500000 0.500000 0.000000
O O8 0.502791 0.556238 0.176649
O O9 0.095513 0.263400 0.706077
O O10 0.018602 0.475561 0.670802
O O11 0.155600 0.365232 0.930697
O O12 0.376634 0.261846 0.189895
O O13 0.235104 0.068255 0.033390
O O14 0.106721 0.383586 0.564635
O O15 0.187631 0.166347 0.636153
O O16 0.911816 0.224537 0.398348
O O17 0.796270 0.103525 0.873846
#
# Coordination Sequence:
#
# PCOD9244805 Si02
#       8
#     4   4   4   4   4   4   4   4
#     4  12  29  45  62  99 144 182 221 275 341 417
#     4  12  20  38  73  99 124 170 221 280 326 385
#     4  11  21  41  71  98 133 167 232 277 318 405
#     4  11  25  43  69  95 140 173 224 280 331 401
#     4  10  21  44  70 100 136 169 224 291 331 397
#     4  10  20  44  71 103 127 173 232 288 328 385
#     4  11  26  45  64 102 134 179 225 268 346 403
#     4  11  22  42  71  97 135 176 225 273 344 394
#
# _framework density 20.970739999999999
#
# number of rings (size 3 to 8) (size 9 to 14) (size 15 to 20)
#    0.000    1.000    5.000    2.250    5.250    1.500 
#   13.500    0.000    0.000    0.000    0.000    0.000 
#    0.000    0.000    0.000    0.000    0.000    0.000 
#
# Total GULP energy -178868.410683 kJ/mol
# GULP energy per Si atom -5589.637834 kJ/mol
# Density = 2.092301 g / cm^3
# Si number density = 20.970740 Si / 1000 Ang^3
#
#
#
# Elastic Constant Matrix: (Units=GPa)
#
#
# Indices 1 2 3 4 5 6 
#
# 1 86.4307 11.8580 14.6286 0.0000 6.9006 0.0000
# 2 11.8580 25.1564 -6.0179 0.0000 9.7908 0.0000
# 3 14.6286 -6.0179 80.3857 0.0000 1.4474 0.0000
# 4 0.0000 0.0000 0.0000 28.6303 0.0000 7.1571
# 5 6.9006 9.7908 1.4474 0.0000 30.5342 0.0000
# 6 0.0000 0.0000 0.0000 7.1571 0.0000 19.8585
#
#
#
# Elastic Compliance Matrix: (Units=1/GPa)
#
#
# Indices 1 2 3 4 5 6 
#
# 1 0.013004 -0.006534 -0.002843 0.000000 -0.000709 0.000000
# 2 -0.006534 0.049808 0.005183 0.000000 -0.014740 0.000000
# 3 -0.002843 0.005183 0.013375 0.000000 -0.001654 0.000000
# 4 0.000000 0.000000 0.000000 0.038386 0.000000 -0.013835
# 5 -0.000709 -0.014740 -0.001654 0.000000 0.037715 0.000000
# 6 0.000000 0.000000 0.000000 -0.013835 0.000000 0.055342
#
#
# Mechanical properties :
#
#
# Convention : Reuss Voigt Hill
#
# Bulk Modulus (GPa) = 14.74926 25.87891 20.31408
# Shear Modulus (GPa) = 20.95394 27.23819 24.09607
#
# Velocity S-wave (km/s) = 3.16444 3.60789 3.39342
# Velocity P-wave (km/s) = 4.51665 5.45189 5.00616
#
# Compressibility (1/GPa) = 0.06780003
#
# Stress axis : x y z
#
# Youngs Moduli (GPa) = 76.89842 20.07713 74.76539
#
# Poissons Ratio (x) = 0.13118 0.21255
# Poissons Ratio (y) = 0.50245 -0.38752
# Poissons Ratio (z) = 0.21861 -0.10406
#
# Static dielectric constant tensor:
#      x y z
#    x 1.766940 0.000000 -0.009470 
#    y 0.000000 1.765530 0.000000 
#    z -0.009470 0.000000 1.764400 
# 
# From -- ./inp_files/48939.got.cif
#   From: 2010.05.17/outbox.cif.g08.bks.cpg/sg14_25_cif.got.tgz:48939.got - 2010.06.03 17:49:19.
