data_PCOD9244808
_publ_section_title
;
Structure prediction by ZEFSAII (Michael W. Deem and Ramdas Pophale) SiO2 
 PCOD9244808
Probable space group: P 21/C
;
_chemical_formula_sum "Si O2"
_cell_formula_units_Z 24
_cell_length_a 9.687312
_cell_length_b 8.574953
_cell_length_c 10.339820
_cell_angle_alpha 90.000000
_cell_angle_beta 74.735710
_cell_angle_gamma 90.000000
_cell_volume 828.609786
_symmetry_space_group_name_H-M "P 21/C"
_symmetry_group_IT_number 14
_symmetry_cell_setting 'monoclinic'
loop_
_space_group_symop_operation_xyz
x,y,z
-x,1/2+y,1/2-z
-x,-y,-z
x,1/2-y,1/2+z
loop_
_atom_site_type_symbol
_atom_site_label
_atom_site_fract_x
_atom_site_fract_y
_atom_site_fract_z
Si Si1 0.125876 0.391052 0.521957
Si Si2 0.951100 0.091946 0.638015
Si Si3 0.633857 0.359226 0.464613
Si Si4 0.445039 0.651739 0.236926
Si Si5 0.303418 0.527364 0.950959
Si Si6 0.809114 0.557106 0.757451
O O1 0.191543 0.326202 0.365132
O O2 0.000000 0.500000 0.500000
O O3 0.031083 0.256244 0.610765
O O4 0.971812 0.521359 0.758058
O O5 0.745181 0.995587 0.947673
O O6 0.785715 0.059944 0.658605
O O7 0.000000 0.000000 0.500000
O O8 0.552709 0.307790 0.352346
O O9 0.525443 0.353509 0.616317
O O10 0.716750 0.197362 0.477910
O O11 0.544667 0.532579 0.134231
O O12 0.283198 0.586048 0.273460
O O13 0.261540 0.414502 0.082548
#
# Coordination Sequence:
#
# PCOD9244808 Si02
#       6
#     4   4   4   4   4   4
#     4  11  22  40  69 105 140 177 252 313 365 439
#     4  10  22  41  65  99 137 186 240 292 379 442
#     4  10  21  42  74 107 145 192 251 311 374 446
#     4  10  22  44  75 102 149 199 246 305 377 460
#     4  10  20  44  71  96 143 200 240 295 384 455
#     4   9  21  40  68  97 140 186 238 303 378 444
#
# _framework density 28.964175999999998
#
# number of rings (size 3 to 8) (size 9 to 14) (size 15 to 20)
#    0.000    2.000    1.667    2.000    0.000    4.000 
#   18.000    4.167    0.000    0.000    0.000    0.000 
#    0.000    0.000    0.000    0.000    0.000    0.000 
#
# Total GULP energy -133743.215958 kJ/mol
# GULP energy per Si atom -5572.633998 kJ/mol
# Density = 2.889825 g / cm^3
# Si number density = 28.964176 Si / 1000 Ang^3
#
#
#
# Elastic Constant Matrix: (Units=GPa)
#
#
# Indices 1 2 3 4 5 6 
#
# 1 147.9148 64.7573 40.0612 0.0000 -6.3097 0.0000
# 2 64.7573 145.4439 45.5583 0.0000 -4.1175 0.0000
# 3 40.0612 45.5583 154.1492 0.0000 11.2387 0.0000
# 4 0.0000 0.0000 0.0000 48.4075 0.0000 -4.1921
# 5 -6.3097 -4.1175 11.2387 0.0000 21.5153 0.0000
# 6 0.0000 0.0000 0.0000 -4.1921 0.0000 42.5593
#
#
#
# Elastic Compliance Matrix: (Units=1/GPa)
#
#
# Indices 1 2 3 4 5 6 
#
# 1 0.008744 -0.003354 -0.001478 0.000000 0.002694 0.000000
# 2 -0.003354 0.009020 -0.001922 0.000000 0.001746 0.000000
# 3 -0.001478 -0.001922 0.007794 0.000000 -0.004873 0.000000
# 4 0.000000 0.000000 0.000000 0.020836 0.000000 0.002052
# 5 0.002694 0.001746 -0.004873 0.000000 0.050148 0.000000
# 6 0.000000 0.000000 0.000000 0.002052 0.000000 0.023699
#
#
# Mechanical properties :
#
#
# Convention : Reuss Voigt Hill
#
# Bulk Modulus (GPa) = 82.97214 83.14015 83.05615
# Shear Modulus (GPa) = 36.29358 42.30516 39.29937
#
# Velocity S-wave (km/s) = 3.54369 3.82593 3.68751
# Velocity P-wave (km/s) = 6.74183 6.94865 6.84602
#
# Compressibility (1/GPa) = 0.01205224
#
# Stress axis : x y z
#
# Youngs Moduli (GPa) = 114.36101 110.86190 128.29749
#
# Poissons Ratio (x) = 0.37185 0.18958
# Poissons Ratio (y) = 0.38358 0.24653
# Poissons Ratio (z) = 0.16898 0.21302
#
# Static dielectric constant tensor:
#      x y z
#    x 2.492280 0.000000 -0.008030 
#    y 0.000000 2.422070 0.000000 
#    z -0.008030 0.000000 2.412910 
# 
# From -- ./inp_files/28983.got.cif
#   From: 2010.05.17/outbox.cif.g08.bks.cpg/sg14_15_cif.got.tgz:28983.got - 2010.06.03 17:49:19.
