data_PCOD9244025
_publ_section_title
;
Structure prediction by ZEFSAII (Michael W. Deem and Ramdas Pophale) SiO2 
 PCOD9244025
Probable space group: P 21/C
;
_chemical_formula_sum "Si O2"
_cell_formula_units_Z 30
_cell_length_a 9.809643
_cell_length_b 14.622879
_cell_length_c 10.693091
_cell_angle_alpha 90.000000
_cell_angle_beta 58.233919
_cell_angle_gamma 90.000000
_cell_volume 1304.105575
_symmetry_space_group_name_H-M "P 21/C"
_symmetry_group_IT_number 14
_symmetry_cell_setting 'monoclinic'
loop_
_space_group_symop_operation_xyz
x,y,z
-x,1/2+y,1/2-z
-x,-y,-z
x,1/2-y,1/2+z
loop_
_atom_site_type_symbol
_atom_site_label
_atom_site_fract_x
_atom_site_fract_y
_atom_site_fract_z
Si Si1 0.349292 0.847636 0.494517
Si Si2 0.500000 0.000000 0.000000
Si Si3 0.351815 0.847988 0.895984
Si Si4 0.159378 0.881344 0.349793
Si Si5 0.904694 0.324277 0.676194
Si Si6 0.398172 0.139903 0.446159
Si Si7 0.828088 0.924706 0.639780
Si Si8 0.737666 0.834982 0.921694
O O1 0.370889 0.737965 0.478672
O O2 0.305705 0.867501 0.373200
O O3 0.201240 0.866316 0.660022
O O4 0.508818 0.891032 0.474756
O O5 0.410845 0.936002 0.939245
O O6 0.596750 0.907275 0.010381
O O7 0.175164 0.848564 0.918879
O O8 0.465067 0.836356 0.720539
O O9 0.115930 0.787173 0.303076
O O10 0.006350 0.904583 0.510022
O O11 0.194476 0.980454 0.270898
O O12 0.088484 0.353684 0.600243
O O13 0.278700 0.071440 0.433576
O O14 0.305579 0.232635 0.520428
O O15 0.769997 0.844101 0.756758
#
# Coordination Sequence:
#
# PCOD9244025 Si02
#       8
#     4   2   4   4   4   4   4   4
#     4  10  20  39  64  90 129 173 216 265 332 389
#     4  12  24  40  66  96 136 166 222 272 332 386
#     4  10  23  40  64  98 127 178 215 275 331 394
#     4  10  22  38  64  95 129 172 213 278 318 392
#     4  10  22  40  66  90 131 173 223 259 339 393
#     4  11  21  41  66  94 135 170 224 268 335 398
#     4  11  22  39  64  97 129 170 224 263 333 388
#     4  12  24  41  67  98 131 178 217 280 326 402
#
# _framework density 23.004270999999999
#
# number of rings (size 3 to 8) (size 9 to 14) (size 15 to 20)
#    0.000    1.333    5.333    0.000    1.867    2.133 
#    0.000    0.000    8.800    0.000    0.000    0.000 
#    0.000    0.000    0.000    0.000    0.000    0.000 
#
# Total GULP energy -167064.208957 kJ/mol
# GULP energy per Si atom -5568.806965 kJ/mol
# Density = 2.295191 g / cm^3
# Si number density = 23.004271 Si / 1000 Ang^3
#
#
#
# Elastic Constant Matrix: (Units=GPa)
#
#
# Indices 1 2 3 4 5 6 
#
# 1 142.0204 -6.3029 -7.5706 0.0000 5.5238 0.0000
# 2 -6.3029 65.3251 -2.2918 0.0000 -8.5223 0.0000
# 3 -7.5706 -2.2918 37.4233 0.0000 1.5859 0.0000
# 4 0.0000 0.0000 0.0000 24.4237 0.0000 2.8075
# 5 5.5238 -8.5223 1.5859 0.0000 13.6280 0.0000
# 6 0.0000 0.0000 0.0000 2.8075 0.0000 30.5814
#
#
#
# Elastic Compliance Matrix: (Units=1/GPa)
#
#
# Indices 1 2 3 4 5 6 
#
# 1 0.007257 0.000380 0.001614 0.000000 -0.002892 0.000000
# 2 0.000380 0.016700 0.000667 0.000000 0.010212 0.000000
# 3 0.001614 0.000667 0.027233 0.000000 -0.003406 0.000000
# 4 0.000000 0.000000 0.000000 0.041381 0.000000 -0.003799
# 5 -0.002892 0.010212 -0.003406 0.000000 0.081333 0.000000
# 6 0.000000 0.000000 0.000000 -0.003799 0.000000 0.033048
#
#
# Mechanical properties :
#
#
# Convention : Reuss Voigt Hill
#
# Bulk Modulus (GPa) = 17.69602 23.60424 20.65013
# Shear Modulus (GPa) = 22.67898 31.12223 26.90060
#
# Velocity S-wave (km/s) = 3.14325 3.68215 3.42332
# Velocity P-wave (km/s) = 4.56974 5.32548 4.96202
#
# Compressibility (1/GPa) = 0.05650987
#
# Stress axis : x y z
#
# Youngs Moduli (GPa) = 137.80583 59.87907 36.72022
#
# Poissons Ratio (x) = -0.02272 -0.05926
# Poissons Ratio (y) = -0.05230 -0.02448
# Poissons Ratio (z) = -0.22239 -0.03992
#
# Static dielectric constant tensor:
#      x y z
#    x 1.950850 0.000000 -0.061160 
#    y 0.000000 1.876200 0.000000 
#    z -0.061160 0.000000 1.933140 
# 
# From -- ./inp_files/25473.got.cif
#   From: 2010.05.17/outbox.cif.g08.bks.cpg/sg14_13_cif.got.tgz:25473.got - 2010.06.03 17:49:19.
