data_PCOD9244924
_publ_section_title
;
Structure prediction by ZEFSAII (Michael W. Deem and Ramdas Pophale) SiO2 
 PCOD9244924
Probable space group: P 21/C
;
_chemical_formula_sum "Si O2"
_cell_formula_units_Z 28
_cell_length_a 9.692057
_cell_length_b 16.919774
_cell_length_c 14.485443
_cell_angle_alpha 90.000000
_cell_angle_beta 139.348307
_cell_angle_gamma 90.000000
_cell_volume 1547.495418
_symmetry_space_group_name_H-M "P 21/C"
_symmetry_group_IT_number 14
_symmetry_cell_setting 'monoclinic'
loop_
_space_group_symop_operation_xyz
x,y,z
-x,1/2+y,1/2-z
-x,-y,-z
x,1/2-y,1/2+z
loop_
_atom_site_type_symbol
_atom_site_label
_atom_site_fract_x
_atom_site_fract_y
_atom_site_fract_z
Si Si1 0.623777 0.448174 0.191960
Si Si2 0.203727 0.965949 0.417096
Si Si3 0.758132 0.595539 0.385453
Si Si4 0.587799 0.013493 0.941734
Si Si5 0.145328 0.535782 0.154282
Si Si6 0.225303 0.847634 0.073680
Si Si7 0.308142 0.665483 0.121490
O O1 0.755734 0.438578 0.165742
O O2 0.723550 0.521137 0.299579
O O3 0.637209 0.374996 0.267735
O O4 0.389162 0.473288 0.041533
O O5 0.233373 0.891195 0.499865
O O6 0.983337 0.011680 0.320155
O O7 0.733866 0.556963 0.475054
O O8 0.558811 0.652585 0.265345
O O9 0.983259 0.632942 0.477725
O O10 0.698926 0.096163 0.972400
O O11 0.373357 0.005722 0.771347
O O12 0.500000 0.000000 0.000000
O O13 0.191680 0.626623 0.151911
O O14 0.000000 0.500000 0.000000
O O15 0.254764 0.755226 0.073864
#
# Coordination Sequence:
#
# PCOD9244924 Si02
#       7
#     4   4   4   4   4   4   4
#     4   9  18  34  56  81 103 148 189 228 262 340
#     4   9  18  34  57  79 109 141 198 225 266 333
#     4   9  20  37  57  76 112 148 184 221 280 337
#     4  10  21  35  56  85 111 144 194 231 268 339
#     4   9  18  34  57  76 107 150 188 226 273 338
#     4  11  21  35  59  79 118 148 177 230 295 325
#     4   9  20  37  51  84 113 141 182 234 281 330
#
# _framework density 18.093753
#
# number of rings (size 3 to 8) (size 9 to 14) (size 15 to 20)
#    0.000    2.571    0.000    4.286    4.000    3.429 
#    5.143    0.000    3.143    0.000    0.000    0.000 
#    0.000    0.000    0.000    0.000    0.000    0.000 
#
# Total GULP energy -156041.225967 kJ/mol
# GULP energy per Si atom -5572.900927 kJ/mol
# Density = 1.805257 g / cm^3
# Si number density = 18.093753 Si / 1000 Ang^3
#
#
#
# Elastic Constant Matrix: (Units=GPa)
#
#
# Indices 1 2 3 4 5 6 
#
# 1 139.0160 68.2005 22.8344 0.0000 1.7155 0.0000
# 2 68.2005 109.5624 24.5899 0.0000 18.5800 0.0000
# 3 22.8344 24.5899 47.4003 0.0000 11.3917 0.0000
# 4 0.0000 0.0000 0.0000 13.7848 0.0000 5.4142
# 5 1.7155 18.5800 11.3917 0.0000 30.8982 0.0000
# 6 0.0000 0.0000 0.0000 5.4142 0.0000 13.4439
#
#
#
# Elastic Compliance Matrix: (Units=1/GPa)
#
#
# Indices 1 2 3 4 5 6 
#
# 1 0.011047 -0.007039 -0.002787 0.000000 0.004647 0.000000
# 2 -0.007039 0.015462 -0.002732 0.000000 -0.007900 0.000000
# 3 -0.002787 -0.002732 0.025702 0.000000 -0.007679 0.000000
# 4 0.000000 0.000000 0.000000 0.086174 0.000000 -0.034704
# 5 0.004647 -0.007900 -0.007679 0.000000 0.039688 0.000000
# 6 0.000000 0.000000 0.000000 -0.034704 0.000000 0.088359
#
#
# Mechanical properties :
#
#
# Convention : Reuss Voigt Hill
#
# Bulk Modulus (GPa) = 36.90646 58.58093 47.74370
# Shear Modulus (GPa) = 16.63454 23.64899 20.14176
#
# Velocity S-wave (km/s) = 3.03537 3.61920 3.34007
# Velocity P-wave (km/s) = 5.72069 7.06480 6.42797
#
# Compressibility (1/GPa) = 0.02709553
#
# Stress axis : x y z
#
# Youngs Moduli (GPa) = 90.52006 64.67571 38.90760
#
# Poissons Ratio (x) = 0.45527 0.10843
# Poissons Ratio (y) = 0.63720 0.10628
# Poissons Ratio (z) = 0.25227 0.17666
#
# Static dielectric constant tensor:
#      x y z
#    x 1.694400 0.000000 -0.014740 
#    y 0.000000 1.585700 0.000000 
#    z -0.014740 0.000000 1.661140 
# 
# From -- ./inp_files/41827.got.cif
#   From: 2010.05.17/outbox.cif.g08.bks.cpg/sg14_21_cif.got.tgz:41827.got - 2010.06.03 17:49:19.
