data_PCOD9244742
_publ_section_title
;
Structure prediction by ZEFSAII (Michael W. Deem and Ramdas Pophale) SiO2 
 PCOD9244742
Probable space group: P 21/C
;
_chemical_formula_sum "Si O2"
_cell_formula_units_Z 24
_cell_length_a 9.041188
_cell_length_b 9.348415
_cell_length_c 14.728349
_cell_angle_alpha 90.000000
_cell_angle_beta 98.461036
_cell_angle_gamma 90.000000
_cell_volume 1231.302735
_symmetry_space_group_name_H-M "P 21/C"
_symmetry_group_IT_number 14
_symmetry_cell_setting 'monoclinic'
loop_
_space_group_symop_operation_xyz
x,y,z
-x,1/2+y,1/2-z
-x,-y,-z
x,1/2-y,1/2+z
loop_
_atom_site_type_symbol
_atom_site_label
_atom_site_fract_x
_atom_site_fract_y
_atom_site_fract_z
Si Si1 0.748712 0.735945 0.631936
Si Si2 0.090386 0.535333 0.285668
Si Si3 0.711700 0.307873 0.167716
Si Si4 0.058921 0.493607 0.905228
Si Si5 0.556531 0.643293 0.455126
Si Si6 0.742457 0.933865 0.797671
O O1 0.808170 0.576369 0.651395
O O2 0.627318 0.737864 0.541765
O O3 0.699934 0.808162 0.722388
O O4 0.885903 0.834355 0.612262
O O5 0.174181 0.685670 0.289116
O O6 0.063462 0.472237 0.182566
O O7 0.923539 0.552376 0.311913
O O8 0.801472 0.402755 0.101910
O O9 0.571683 0.229864 0.109676
O O10 0.680563 0.419224 0.246737
O O11 0.000000 0.500000 0.000000
O O12 0.500000 0.500000 0.500000
O O13 0.677855 0.598284 0.390223
#
# Coordination Sequence:
#
# PCOD9244742 Si02
#       6
#     4   4   4   4   4   4
#     4  10  23  42  65  95 128 169 213 265 320 381
#     4  10  20  43  67  90 127 163 216 266 317 370
#     4  10  23  43  63  92 131 167 210 265 318 382
#     4  10  22  39  66  97 120 162 217 265 321 371
#     4  12  26  41  63  99 130 171 219 251 326 394
#     4  10  24  42  66  92 131 171 210 271 321 368
#
# _framework density 19.49155
#
# number of rings (size 3 to 8) (size 9 to 14) (size 15 to 20)
#    0.000    2.000    1.667    4.000    7.000    6.000 
#    0.000    0.000    0.000    0.000    0.000    0.000 
#    0.000    0.000    0.000    0.000    0.000    0.000 
#
# Total GULP energy -133971.966942 kJ/mol
# GULP energy per Si atom -5582.165289 kJ/mol
# Density = 1.944719 g / cm^3
# Si number density = 19.491550 Si / 1000 Ang^3
#
#
#
# Elastic Constant Matrix: (Units=GPa)
#
#
# Indices 1 2 3 4 5 6 
#
# 1 47.7527 15.5831 45.2097 0.0000 11.4332 0.0000
# 2 15.5831 84.1258 10.0754 0.0000 1.8000 0.0000
# 3 45.2097 10.0754 83.9262 0.0000 -10.9671 0.0000
# 4 0.0000 0.0000 0.0000 29.0003 0.0000 7.5560
# 5 11.4332 1.8000 -10.9671 0.0000 48.3707 0.0000
# 6 0.0000 0.0000 0.0000 7.5560 0.0000 18.6656
#
#
#
# Elastic Compliance Matrix: (Units=1/GPa)
#
#
# Indices 1 2 3 4 5 6 
#
# 1 0.062453 -0.006799 -0.035782 0.000000 -0.022622 0.000000
# 2 -0.006799 0.012831 0.002339 0.000000 0.001660 0.000000
# 3 -0.035782 0.002339 0.032981 0.000000 0.015848 0.000000
# 4 0.000000 0.000000 0.000000 0.038548 0.000000 -0.015605
# 5 -0.022622 0.001660 0.015848 0.000000 0.029552 0.000000
# 6 0.000000 0.000000 0.000000 -0.015605 0.000000 0.059892
#
#
# Mechanical properties :
#
#
# Convention : Reuss Voigt Hill
#
# Bulk Modulus (GPa) = 35.99707 39.72677 37.86192
# Shear Modulus (GPa) = 15.33741 28.86976 22.10358
#
# Velocity S-wave (km/s) = 2.80817 3.85274 3.37116
# Velocity P-wave (km/s) = 5.38726 6.34170 5.88387
#
# Compressibility (1/GPa) = 0.02778004
#
# Stress axis : x y z
#
# Youngs Moduli (GPa) = 16.01210 77.93798 30.32076
#
# Poissons Ratio (x) = 0.52990 1.08494
# Poissons Ratio (y) = 0.10887 -0.07092
# Poissons Ratio (z) = 0.57295 -0.18230
#
# Static dielectric constant tensor:
#      x y z
#    x 1.685560 0.000000 0.029450 
#    y 0.000000 1.722240 0.000000 
#    z 0.029450 0.000000 1.689910 
# 
# From -- ./inp_files/39057.got.cif
#   From: 2010.05.17/outbox.cif.g08.bks.cpg/sg14_20_cif.got.tgz:39057.got - 2010.06.03 17:49:19.
