data_PCOD9244928
_publ_section_title
;
Structure prediction by ZEFSAII (Michael W. Deem and Ramdas Pophale) SiO2 
 PCOD9244928
Probable space group: P 21/C
;
_chemical_formula_sum "Si O2"
_cell_formula_units_Z 30
_cell_length_a 12.699321
_cell_length_b 22.051433
_cell_length_c 4.905389
_cell_angle_alpha 90.000000
_cell_angle_beta 80.411299
_cell_angle_gamma 90.000000
_cell_volume 1354.504392
_symmetry_space_group_name_H-M "P 21/C"
_symmetry_group_IT_number 14
_symmetry_cell_setting 'monoclinic'
loop_
_space_group_symop_operation_xyz
x,y,z
-x,1/2+y,1/2-z
-x,-y,-z
x,1/2-y,1/2+z
loop_
_atom_site_type_symbol
_atom_site_label
_atom_site_fract_x
_atom_site_fract_y
_atom_site_fract_z
Si Si1 0.942453 0.426963 0.318616
Si Si2 0.158037 0.452005 0.489925
Si Si3 0.675148 0.282064 0.728974
Si Si4 0.363165 0.413198 0.687348
Si Si5 0.433083 0.292848 0.941293
Si Si6 0.337319 0.521580 0.083541
Si Si7 0.500000 0.500000 0.500000
Si Si8 0.819696 0.378646 0.891181
O O1 0.905161 0.497454 0.300601
O O2 0.870418 0.407007 0.600707
O O3 0.064150 0.421399 0.359186
O O4 0.908204 0.386377 0.081632
O O5 0.242028 0.414595 0.633750
O O6 0.238376 0.482404 0.239082
O O7 0.677928 0.280313 0.402556
O O8 0.559308 0.306344 0.862814
O O9 0.774976 0.315230 0.816163
O O10 0.378486 0.355100 0.867832
O O11 0.452794 0.427833 0.423645
O O12 0.386842 0.481883 0.813191
O O13 0.409526 0.236728 0.743666
O O14 0.414263 0.531026 0.303635
O O15 0.283451 0.581205 0.986327
#
# Coordination Sequence:
#
# PCOD9244928 Si02
#       8
#     4   4   4   4   4   4   2   4
#     4  10  21  36  58  90 124 152 197 238 305 364
#     4   9  21  35  57  87 123 158 192 241 298 369
#     4  10  21  40  60  83 113 154 200 244 293 353
#     4  11  21  39  60  87 123 160 201 251 303 360
#     4  10  24  42  62  86 116 164 208 243 286 356
#     4  10  21  35  56  88 122 160 187 244 307 356
#     4  10  22  34  52  92 122 154 188 244 312 356
#     4  11  21  37  60  89 116 152 196 246 298 359
#
# _framework density 22.148323999999999
#
# number of rings (size 3 to 8) (size 9 to 14) (size 15 to 20)
#    0.000    1.867    1.333    2.000    5.600    1.600 
#    7.200    0.000    0.000    4.800    0.000    0.000 
#    0.000    0.000    0.000    0.000    0.000    0.000 
#
# Total GULP energy -167044.342431 kJ/mol
# GULP energy per Si atom -5568.144748 kJ/mol
# Density = 2.209791 g / cm^3
# Si number density = 22.148324 Si / 1000 Ang^3
#
#
#
# Elastic Constant Matrix: (Units=GPa)
#
#
# Indices 1 2 3 4 5 6 
#
# 1 184.5952 30.4310 37.2464 0.0000 36.5003 0.0000
# 2 30.4310 37.7527 6.6106 0.0000 14.3833 0.0000
# 3 37.2464 6.6106 75.6321 0.0000 21.6754 0.0000
# 4 0.0000 0.0000 0.0000 29.2309 0.0000 19.3743
# 5 36.5003 14.3833 21.6754 0.0000 42.6118 0.0000
# 6 0.0000 0.0000 0.0000 19.3743 0.0000 30.0346
#
#
#
# Elastic Compliance Matrix: (Units=1/GPa)
#
#
# Indices 1 2 3 4 5 6 
#
# 1 0.007261 -0.004043 -0.002143 0.000000 -0.003764 0.000000
# 2 -0.004043 0.032656 0.001526 0.000000 -0.008336 0.000000
# 3 -0.002143 0.001526 0.016115 0.000000 -0.006876 0.000000
# 4 0.000000 0.000000 0.000000 0.059762 0.000000 -0.038550
# 5 -0.003764 -0.008336 -0.006876 0.000000 0.033003 0.000000
# 6 0.000000 0.000000 0.000000 -0.038550 0.000000 0.058162
#
#
# Mechanical properties :
#
#
# Convention : Reuss Voigt Hill
#
# Bulk Modulus (GPa) = 21.40890 49.61734 35.51312
# Shear Modulus (GPa) = 21.56572 35.28827 28.42699
#
# Velocity S-wave (km/s) = 3.12379 3.99591 3.58646
# Velocity P-wave (km/s) = 4.76423 6.61367 5.76362
#
# Compressibility (1/GPa) = 0.04670954
#
# Stress axis : x y z
#
# Youngs Moduli (GPa) = 137.73055 30.62255 62.05504
#
# Poissons Ratio (x) = 0.12381 0.13301
# Poissons Ratio (y) = 0.55684 -0.09468
# Poissons Ratio (z) = 0.29521 -0.04672
#
# Static dielectric constant tensor:
#      x y z
#    x 1.883820 0.000000 -0.106550 
#    y 0.000000 1.922140 0.000000 
#    z -0.106550 0.000000 2.007640 
# 
# From -- ./inp_files/2952.got.cif
#   From: 2010.05.17/outbox.cif.g08.bks.cpg/sg14_2_cif.got.tgz:2952.got - 2010.06.03 17:49:19.
