data_PCOD9244441
_publ_section_title
;
Structure prediction by ZEFSAII (Michael W. Deem and Ramdas Pophale) SiO2 
 PCOD9244441
Probable space group: P 21/C
;
_chemical_formula_sum "Si O2"
_cell_formula_units_Z 32
_cell_length_a 10.494163
_cell_length_b 11.360542
_cell_length_c 13.345278
_cell_angle_alpha 90.000000
_cell_angle_beta 109.893887
_cell_angle_gamma 90.000000
_cell_volume 1496.071002
_symmetry_space_group_name_H-M "P 21/C"
_symmetry_group_IT_number 14
_symmetry_cell_setting 'monoclinic'
loop_
_space_group_symop_operation_xyz
x,y,z
-x,1/2+y,1/2-z
-x,-y,-z
x,1/2-y,1/2+z
loop_
_atom_site_type_symbol
_atom_site_label
_atom_site_fract_x
_atom_site_fract_y
_atom_site_fract_z
Si Si1 0.253606 0.439182 0.452835
Si Si2 0.800155 0.370850 0.094776
Si Si3 0.745334 0.328234 0.426125
Si Si4 0.505309 0.126965 0.550669
Si Si5 0.566233 0.692033 0.642818
Si Si6 0.916731 0.593485 0.041688
Si Si7 0.705398 0.757478 0.374743
Si Si8 0.027611 0.812053 0.176723
O O1 0.239863 0.572185 0.484724
O O2 0.360600 0.418540 0.391408
O O3 0.301012 0.362648 0.563023
O O4 0.109423 0.385086 0.380861
O O5 0.661035 0.347153 0.116203
O O6 0.814403 0.508987 0.074473
O O7 0.923012 0.330093 0.197092
O O8 0.785202 0.295721 0.988917
O O9 0.585490 0.328974 0.356089
O O10 0.851139 0.351492 0.365451
O O11 0.456637 0.217304 0.453182
O O12 0.407390 0.150314 0.616204
O O13 0.500000 0.000000 0.500000
O O14 0.669778 0.750105 0.749307
O O15 0.996030 0.676622 0.139920
O O16 0.844750 0.681503 0.944550
O O17 0.000000 0.500000 0.000000
#
# Coordination Sequence:
#
# PCOD9244441 Si02
#       8
#     4   4   4   4   4   4   4   4
#     4  10  24  43  60  94 131 163 210 264 312 379
#     4  11  24  40  67  93 128 167 212 268 318 384
#     4  11  23  45  61  95 131 160 214 267 311 378
#     4  10  20  41  62  94 130 161 214 268 314 376
#     4  10  23  39  66  95 122 173 212 251 331 378
#     4  11  23  43  62  92 132 162 215 269 313 376
#     4  10  22  41  65  91 128 167 211 263 318 384
#     4  11  25  40  66  95 121 176 211 252 333 381
#
# _framework density 21.389358000000001
#
# number of rings (size 3 to 8) (size 9 to 14) (size 15 to 20)
#    0.000    1.500    2.500    1.500    3.500    2.000 
#    0.000    0.000    0.000    0.000    0.000    0.000 
#    0.000    0.000    0.000    0.000    0.000    0.000 
#
# Total GULP energy -178723.257362 kJ/mol
# GULP energy per Si atom -5585.101793 kJ/mol
# Density = 2.134067 g / cm^3
# Si number density = 21.389358 Si / 1000 Ang^3
#
#
#
# Elastic Constant Matrix: (Units=GPa)
#
#
# Indices 1 2 3 4 5 6 
#
# 1 73.1815 0.9760 18.3660 0.0000 -0.4759 0.0000
# 2 0.9760 57.1069 -3.4473 0.0000 12.2028 0.0000
# 3 18.3660 -3.4473 84.2927 0.0000 28.6421 0.0000
# 4 0.0000 0.0000 0.0000 13.2420 0.0000 0.0267
# 5 -0.4759 12.2028 28.6421 0.0000 27.0145 0.0000
# 6 0.0000 0.0000 0.0000 0.0267 0.0000 27.1181
#
#
#
# Elastic Compliance Matrix: (Units=1/GPa)
#
#
# Indices 1 2 3 4 5 6 
#
# 1 0.015258 -0.002267 -0.006028 0.000000 0.007684 0.000000
# 2 -0.002267 0.021789 0.007414 0.000000 -0.017743 0.000000
# 3 -0.006028 0.007414 0.022906 0.000000 -0.027742 0.000000
# 4 0.000000 0.000000 0.000000 0.075517 0.000000 -0.000074
# 5 0.007684 -0.017743 -0.027742 0.000000 0.074580 0.000000
# 6 0.000000 0.000000 0.000000 -0.000074 0.000000 0.036876
#
#
# Mechanical properties :
#
#
# Convention : Reuss Voigt Hill
#
# Bulk Modulus (GPa) = 17.18478 27.37449 22.27964
# Shear Modulus (GPa) = 18.65084 26.72068 22.68576
#
# Velocity S-wave (km/s) = 2.95611 3.53831 3.26023
# Velocity P-wave (km/s) = 4.43883 5.43312 4.96095
#
# Compressibility (1/GPa) = 0.05819103
#
# Stress axis : x y z
#
# Youngs Moduli (GPa) = 65.54075 45.89553 43.65588
#
# Poissons Ratio (x) = 0.10403 0.26316
# Poissons Ratio (y) = 0.14855 -0.32365
# Poissons Ratio (z) = 0.39508 -0.34026
#
# Static dielectric constant tensor:
#      x y z
#    x 1.864280 0.000000 -0.007510 
#    y 0.000000 1.759270 0.000000 
#    z -0.007510 0.000000 1.746130 
# 
# From -- ./inp_files/29403.got.cif
#   From: 2010.05.17/outbox.cif.g08.bks.cpg/sg14_15_cif.got.tgz:29403.got - 2010.06.03 17:49:19.
