data_PCOD9244376
_publ_section_title
;
Structure prediction by ZEFSAII (Michael W. Deem and Ramdas Pophale) SiO2 
 PCOD9244376
Probable space group: P 21/C
;
_chemical_formula_sum "Si O2"
_cell_formula_units_Z 30
_cell_length_a 11.084290
_cell_length_b 7.320492
_cell_length_c 14.558184
_cell_angle_alpha 90.000000
_cell_angle_beta 87.860263
_cell_angle_gamma 90.000000
_cell_volume 1180.463144
_symmetry_space_group_name_H-M "P 21/C"
_symmetry_group_IT_number 14
_symmetry_cell_setting 'monoclinic'
loop_
_space_group_symop_operation_xyz
x,y,z
-x,1/2+y,1/2-z
-x,-y,-z
x,1/2-y,1/2+z
loop_
_atom_site_type_symbol
_atom_site_label
_atom_site_fract_x
_atom_site_fract_y
_atom_site_fract_z
Si Si1 0.080709 0.295923 0.101528
Si Si2 0.001615 0.775976 0.592627
Si Si3 0.339525 0.937837 0.674110
Si Si4 0.258342 0.779778 0.019493
Si Si5 0.500000 0.000000 0.000000
Si Si6 0.170216 0.741058 0.316931
Si Si7 0.441168 0.318831 0.307723
Si Si8 0.197540 0.156348 0.264534
O O1 0.042463 0.510284 0.100240
O O2 0.192559 0.239159 0.161554
O O3 0.966254 0.195662 0.151117
O O4 0.081199 0.246930 0.994763
O O5 0.128467 0.675697 0.569497
O O6 0.913850 0.745862 0.679849
O O7 0.302575 0.905437 0.570621
O O8 0.229489 0.904561 0.747313
O O9 0.431372 0.776758 0.696407
O O10 0.419744 0.103325 0.706144
O O11 0.364998 0.922477 0.030217
O O12 0.236029 0.746100 0.913128
O O13 0.550895 0.951235 0.104875
O O14 0.176383 0.939401 0.269110
O O15 0.321172 0.194110 0.316273
#
# Coordination Sequence:
#
# PCOD9244376 Si02
#       8
#     4   4   4   4   2   4   4   4
#     4   9  19  37  62  93 133 171 214 264 323 406
#     4   9  19  38  61  94 131 172 215 260 334 396
#     4  11  22  42  65  90 123 174 219 270 330 387
#     4  10  20  40  69  89 127 177 213 270 330 389
#     4  10  22  44  60  88 128 174 222 276 322 380
#     4  10  21  41  65  95 132 168 218 275 331 394
#     4  11  24  42  62  92 126 168 224 273 328 397
#     4  11  22  39  63 100 129 168 220 273 329 405
#
# _framework density 25.413753
#
# number of rings (size 3 to 8) (size 9 to 14) (size 15 to 20)
#    0.000    1.867    1.333    3.200    0.000    1.067 
#    9.600    2.667    0.000    0.000    0.000    0.000 
#    0.000    0.000    0.000    0.000    0.000    0.000 
#
# Total GULP energy -167192.468347 kJ/mol
# GULP energy per Si atom -5573.082278 kJ/mol
# Density = 2.535591 g / cm^3
# Si number density = 25.413753 Si / 1000 Ang^3
#
#
#
# Elastic Constant Matrix: (Units=GPa)
#
#
# Indices 1 2 3 4 5 6 
#
# 1 74.8658 9.8812 22.4234 0.0000 7.1138 0.0000
# 2 9.8812 36.8006 6.1932 0.0000 -0.7412 0.0000
# 3 22.4234 6.1932 168.6393 0.0000 43.3053 0.0000
# 4 0.0000 0.0000 0.0000 24.6869 0.0000 2.7678
# 5 7.1138 -0.7412 43.3053 0.0000 40.3602 0.0000
# 6 0.0000 0.0000 0.0000 2.7678 0.0000 29.1502
#
#
#
# Elastic Compliance Matrix: (Units=1/GPa)
#
#
# Indices 1 2 3 4 5 6 
#
# 1 0.014386 -0.003624 -0.001534 0.000000 -0.000956 0.000000
# 2 -0.003624 0.028395 -0.001186 0.000000 0.002432 0.000000
# 3 -0.001534 -0.001186 0.008439 0.000000 -0.008806 0.000000
# 4 0.000000 0.000000 0.000000 0.040943 0.000000 -0.003887
# 5 -0.000956 0.002432 -0.008806 0.000000 0.034438 0.000000
# 6 0.000000 0.000000 0.000000 -0.003887 0.000000 0.034674
#
#
# Mechanical properties :
#
#
# Convention : Reuss Voigt Hill
#
# Bulk Modulus (GPa) = 25.95224 39.70015 32.82620
# Shear Modulus (GPa) = 26.76569 34.95999 30.86284
#
# Velocity S-wave (km/s) = 3.24882 3.71298 3.48863
# Velocity P-wave (km/s) = 4.93023 5.83413 5.40112
#
# Compressibility (1/GPa) = 0.03853231
#
# Stress axis : x y z
#
# Youngs Moduli (GPa) = 69.51252 35.21750 118.50304
#
# Poissons Ratio (x) = 0.12762 0.18182
# Poissons Ratio (y) = 0.25190 0.14049
# Poissons Ratio (z) = 0.10665 0.04175
#
# Static dielectric constant tensor:
#      x y z
#    x 1.982350 0.000000 0.027340 
#    y 0.000000 2.167470 0.000000 
#    z 0.027340 0.000000 1.979970 
# 
# From -- ./inp_files/43519.got.cif
#   From: 2010.05.17/outbox.cif.g08.bks.cpg/sg14_22_cif.got.tgz:43519.got - 2010.06.03 17:49:19.
