data_PCOD9244469
_publ_section_title
;
Structure prediction by ZEFSAII (Michael W. Deem and Ramdas Pophale) SiO2 
 PCOD9244469
Probable space group: P 21/C
;
_chemical_formula_sum "Si O2"
_cell_formula_units_Z 28
_cell_length_a 9.484883
_cell_length_b 14.029930
_cell_length_c 14.733335
_cell_angle_alpha 90.000000
_cell_angle_beta 136.469677
_cell_angle_gamma 90.000000
_cell_volume 1350.339049
_symmetry_space_group_name_H-M "P 21/C"
_symmetry_group_IT_number 14
_symmetry_cell_setting 'monoclinic'
loop_
_space_group_symop_operation_xyz
x,y,z
-x,1/2+y,1/2-z
-x,-y,-z
x,1/2-y,1/2+z
loop_
_atom_site_type_symbol
_atom_site_label
_atom_site_fract_x
_atom_site_fract_y
_atom_site_fract_z
Si Si1 0.100268 0.005119 0.751040
Si Si2 0.312351 0.268712 0.049979
Si Si3 0.040703 0.109371 0.551170
Si Si4 0.648097 0.383093 0.768470
Si Si5 0.334967 0.416246 0.914217
Si Si6 0.298351 0.468772 0.702992
Si Si7 0.956632 0.901646 0.088713
O O1 0.134558 0.036350 0.870580
O O2 0.080230 0.097332 0.676272
O O3 0.258798 0.933227 0.777606
O O4 0.880500 0.953687 0.647964
O O5 0.487422 0.198428 0.167822
O O6 0.225165 0.339074 0.086153
O O7 0.393365 0.326975 0.001964
O O8 0.114806 0.205563 0.927826
O O9 0.828300 0.155485 0.417646
O O10 0.000000 0.000000 0.500000
O O11 0.522220 0.464835 0.764316
O O12 0.304711 0.400214 0.793228
O O13 0.500000 0.500000 0.000000
O O14 0.150734 0.429252 0.555932
O O15 0.193644 0.566915 0.688668
#
# Coordination Sequence:
#
# PCOD9244469 Si02
#       7
#     4   4   4   4   4   4   4
#     4  10  21  42  68  88 129 177 206 250 336 389
#     4  11  23  39  65  97 129 159 225 272 312 372
#     4  10  20  41  64  91 129 170 208 266 318 384
#     4  10  21  39  68  94 130 166 215 268 311 388
#     4  11  22  39  65  89 124 173 213 258 320 387
#     4   9  20  38  63  90 129 168 205 257 332 381
#     4   9  21  40  63  93 128 164 208 271 317 381
#
# _framework density 20.735531999999999
#
# number of rings (size 3 to 8) (size 9 to 14) (size 15 to 20)
#    0.000    2.000    2.857    0.857    2.000    6.857 
#    0.000    0.000   22.000    0.000    0.000    0.000 
#    0.000    0.000    0.000    0.000    0.000    0.000 
#
# Total GULP energy -156139.958896 kJ/mol
# GULP energy per Si atom -5576.427103 kJ/mol
# Density = 2.068834 g / cm^3
# Si number density = 20.735532 Si / 1000 Ang^3
#
#
#
# Elastic Constant Matrix: (Units=GPa)
#
#
# Indices 1 2 3 4 5 6 
#
# 1 145.3875 48.6779 48.1289 0.0000 -0.2915 0.0000
# 2 48.6779 86.1425 35.5834 0.0000 5.6891 0.0000
# 3 48.1289 35.5834 100.1296 0.0000 -14.1262 0.0000
# 4 0.0000 0.0000 0.0000 32.1868 0.0000 3.8675
# 5 -0.2915 5.6891 -14.1262 0.0000 39.3240 0.0000
# 6 0.0000 0.0000 0.0000 3.8675 0.0000 44.2937
#
#
#
# Elastic Compliance Matrix: (Units=1/GPa)
#
#
# Indices 1 2 3 4 5 6 
#
# 1 0.009209 -0.003885 -0.003115 0.000000 -0.000489 0.000000
# 2 -0.003885 0.015838 -0.004307 0.000000 -0.003867 0.000000
# 3 -0.003115 -0.004307 0.013799 0.000000 0.005557 0.000000
# 4 0.000000 0.000000 0.000000 0.031398 0.000000 -0.002742
# 5 -0.000489 -0.003867 0.005557 0.000000 0.027982 0.000000
# 6 0.000000 0.000000 0.000000 -0.002742 0.000000 0.022816
#
#
# Mechanical properties :
#
#
# Convention : Reuss Voigt Hill
#
# Bulk Modulus (GPa) = 61.60254 66.27110 63.93682
# Shear Modulus (GPa) = 33.54217 36.44553 34.99385
#
# Velocity S-wave (km/s) = 4.02633 4.19697 4.11253
# Velocity P-wave (km/s) = 7.16856 7.45088 7.31108
#
# Compressibility (1/GPa) = 0.01623310
#
# Stress axis : x y z
#
# Youngs Moduli (GPa) = 108.58870 63.13752 72.47064
#
# Poissons Ratio (x) = 0.24529 0.22573
# Poissons Ratio (y) = 0.42187 0.31211
# Poissons Ratio (z) = 0.33823 0.27192
#
# Static dielectric constant tensor:
#      x y z
#    x 1.760310 0.000000 0.002050 
#    y 0.000000 1.778790 0.000000 
#    z 0.002050 0.000000 1.811230 
# 
# From -- ./inp_files/41261.got.cif
#   From: 2010.05.17/outbox.cif.g08.bks.cpg/sg14_21_cif.got.tgz:41261.got - 2010.06.03 17:49:19.
