data_PCOD9244143
_publ_section_title
;
Structure prediction by ZEFSAII (Michael W. Deem and Ramdas Pophale) SiO2 
 PCOD9244143
Probable space group: P 21/C
;
_chemical_formula_sum "Si O2"
_cell_formula_units_Z 28
_cell_length_a 8.364923
_cell_length_b 12.992242
_cell_length_c 15.246528
_cell_angle_alpha 90.000000
_cell_angle_beta 115.885488
_cell_angle_gamma 90.000000
_cell_volume 1490.731621
_symmetry_space_group_name_H-M "P 21/C"
_symmetry_group_IT_number 14
_symmetry_cell_setting 'monoclinic'
loop_
_space_group_symop_operation_xyz
x,y,z
-x,1/2+y,1/2-z
-x,-y,-z
x,1/2-y,1/2+z
loop_
_atom_site_type_symbol
_atom_site_label
_atom_site_fract_x
_atom_site_fract_y
_atom_site_fract_z
Si Si1 0.089384 0.240011 0.261521
Si Si2 0.712537 0.945896 0.233598
Si Si3 0.078198 0.552015 0.364251
Si Si4 0.369175 0.642995 0.560186
Si Si5 0.474869 0.036107 0.632715
Si Si6 0.817474 0.134857 0.806971
Si Si7 0.582204 0.663690 0.048946
O O1 0.183809 0.337417 0.238822
O O2 0.229425 0.197373 0.365993
O O3 0.041654 0.151852 0.181193
O O4 0.916455 0.282121 0.270547
O O5 0.534390 0.924965 0.134174
O O6 0.654886 0.978672 0.316212
O O7 0.834691 0.023252 0.208564
O O8 0.233432 0.578776 0.468906
O O9 0.961625 0.453767 0.363991
O O10 0.266957 0.678032 0.623988
O O11 0.450605 0.739302 0.527190
O O12 0.660015 0.080017 0.715215
O O13 0.405351 0.119123 0.545736
O O14 0.509022 0.929633 0.590930
#
# Coordination Sequence:
#
# PCOD9244143 Si02
#       7
#     4   4   4   4   4   4   4
#     4  10  21  37  56  87 116 149 189 238 279 335
#     4   9  22  38  58  83 115 149 195 228 281 346
#     4  11  20  37  59  83 116 150 182 244 291 326
#     4  10  21  37  57  87 113 149 191 233 281 351
#     4  10  20  40  59  82 112 159 188 235 278 341
#     4  10  21  37  59  84 117 147 193 234 288 337
#     4  10  21  38  58  82 117 149 196 231 280 337
#
# _framework density 18.782723000000001
#
# number of rings (size 3 to 8) (size 9 to 14) (size 15 to 20)
#    0.000    2.000    1.429    1.714    2.000    1.143 
#    2.571    2.143    0.000    0.000    0.000    0.000 
#    0.000    0.000    0.000    0.000    0.000    0.000 
#
# Total GULP energy -156349.996193 kJ/mol
# GULP energy per Si atom -5583.928435 kJ/mol
# Density = 1.873997 g / cm^3
# Si number density = 18.782723 Si / 1000 Ang^3
#
#
#
# Elastic Constant Matrix: (Units=GPa)
#
#
# Indices 1 2 3 4 5 6 
#
# 1 46.2326 -18.4571 5.3371 0.0000 1.9932 0.0000
# 2 -18.4571 29.2727 3.9790 0.0000 6.3132 0.0000
# 3 5.3371 3.9790 44.1683 0.0000 -9.9020 0.0000
# 4 0.0000 0.0000 0.0000 20.0914 0.0000 2.2974
# 5 1.9932 6.3132 -9.9020 0.0000 17.7352 0.0000
# 6 0.0000 0.0000 0.0000 2.2974 0.0000 12.1277
#
#
#
# Elastic Compliance Matrix: (Units=1/GPa)
#
#
# Indices 1 2 3 4 5 6 
#
# 1 0.034935 0.027900 -0.011250 0.000000 -0.020138 0.000000
# 2 0.027900 0.061392 -0.016579 0.000000 -0.034246 0.000000
# 3 -0.011250 -0.016579 0.030978 0.000000 0.024462 0.000000
# 4 0.000000 0.000000 0.000000 0.050874 0.000000 -0.009637
# 5 -0.020138 -0.034246 0.024462 0.000000 0.084496 0.000000
# 6 0.000000 0.000000 0.000000 -0.009637 0.000000 0.084282
#
#
# Mechanical properties :
#
#
# Convention : Reuss Voigt Hill
#
# Bulk Modulus (GPa) = 7.84648 11.26571 9.55610
# Shear Modulus (GPa) = 12.84363 18.57849 15.71106
#
# Velocity S-wave (km/s) = 2.61779 3.14845 2.89531
# Velocity P-wave (km/s) = 3.65016 4.38497 4.03433
#
# Compressibility (1/GPa) = 0.12744564
#
# Stress axis : x y z
#
# Youngs Moduli (GPa) = 28.62477 16.28874 32.28135
#
# Poissons Ratio (x) = -0.45445 0.36315
# Poissons Ratio (y) = -0.79862 0.53521
# Poissons Ratio (z) = 0.32202 0.27006
#
# Static dielectric constant tensor:
#      x y z
#    x 1.636910 0.000000 0.006510 
#    y 0.000000 1.624700 0.000000 
#    z 0.006510 0.000000 1.626340 
# 
# From -- ./inp_files/40186.got.cif
#   From: 2010.05.17/outbox.cif.g08.bks.cpg/sg14_21_cif.got.tgz:40186.got - 2010.06.03 17:49:19.
