data_PCOD9244302
_publ_section_title
;
Structure prediction by ZEFSAII (Michael W. Deem and Ramdas Pophale) SiO2 
 PCOD9244302
Probable space group: P 21/C
;
_chemical_formula_sum "Si O2"
_cell_formula_units_Z 30
_cell_length_a 6.353918
_cell_length_b 18.000407
_cell_length_c 12.599449
_cell_angle_alpha 90.000000
_cell_angle_beta 106.172002
_cell_angle_gamma 90.000000
_cell_volume 1384.016146
_symmetry_space_group_name_H-M "P 21/C"
_symmetry_group_IT_number 14
_symmetry_cell_setting 'monoclinic'
loop_
_space_group_symop_operation_xyz
x,y,z
-x,1/2+y,1/2-z
-x,-y,-z
x,1/2-y,1/2+z
loop_
_atom_site_type_symbol
_atom_site_label
_atom_site_fract_x
_atom_site_fract_y
_atom_site_fract_z
Si Si1 0.389250 0.964589 0.715344
Si Si2 0.279701 0.800331 0.669099
Si Si3 0.556465 0.331146 0.029964
Si Si4 0.183809 0.414970 0.611783
Si Si5 0.500000 0.000000 0.500000
Si Si6 0.946738 0.171342 0.748091
Si Si7 0.723217 0.751433 0.852182
Si Si8 0.830837 0.964961 0.114640
O O1 0.248970 0.887777 0.690471
O O2 0.637336 0.940401 0.777420
O O3 0.384986 0.006845 0.603314
O O4 0.310167 0.014544 0.802553
O O5 0.316851 0.792642 0.549022
O O6 0.099504 0.744792 0.689172
O O7 0.505791 0.775420 0.757210
O O8 0.477192 0.410473 0.977854
O O9 0.732092 0.345621 0.147888
O O10 0.362687 0.282069 0.049870
O O11 0.144318 0.327400 0.613403
O O12 0.279656 0.435086 0.508551
O O13 0.966289 0.462062 0.600643
O O14 0.141296 0.191810 0.695088
O O15 0.005514 0.100647 0.826714
#
# Coordination Sequence:
#
# PCOD9244302 Si02
#       8
#     4   4   4   4   2   4   4   4
#     4  10  20  42  63  88 123 165 207 251 317 368
#     4   9  22  40  60  87 122 162 198 255 311 364
#     4  10  22  40  61  89 123 160 202 256 310 366
#     4  10  23  41  60  91 127 161 210 256 309 374
#     4  10  20  40  66  88 124 160 206 258 308 374
#     4  11  23  38  61  93 124 157 209 257 305 372
#     4  10  22  40  62  89 120 164 209 251 308 381
#     4  11  23  38  62  93 124 164 205 261 311 366
#
# _framework density 21.676047000000001
#
# number of rings (size 3 to 8) (size 9 to 14) (size 15 to 20)
#    0.000    1.867    0.000    2.800    3.733    1.067 
#    4.800   14.667    0.000    0.000    0.000    0.000 
#    0.000    0.000    0.000    0.000    0.000    0.000 
#
# Total GULP energy -167153.061842 kJ/mol
# GULP energy per Si atom -5571.768728 kJ/mol
# Density = 2.162671 g / cm^3
# Si number density = 21.676047 Si / 1000 Ang^3
#
#
#
# Elastic Constant Matrix: (Units=GPa)
#
#
# Indices 1 2 3 4 5 6 
#
# 1 10.4239 -1.0380 7.5636 0.0000 -6.9175 0.0000
# 2 -1.0380 57.7043 19.3425 0.0000 3.1694 0.0000
# 3 7.5636 19.3425 97.1191 0.0000 -21.8230 0.0000
# 4 0.0000 0.0000 0.0000 38.8903 0.0000 -10.7745
# 5 -6.9175 3.1694 -21.8230 0.0000 27.4632 0.0000
# 6 0.0000 0.0000 0.0000 -10.7745 0.0000 19.6448
#
#
#
# Elastic Compliance Matrix: (Units=1/GPa)
#
#
# Indices 1 2 3 4 5 6 
#
# 1 0.116072 0.001822 -0.003506 0.000000 0.026240 0.000000
# 2 0.001822 0.019503 -0.005392 0.000000 -0.006076 0.000000
# 3 -0.003506 -0.005392 0.014103 0.000000 0.010946 0.000000
# 4 0.000000 0.000000 0.000000 0.030321 0.000000 0.016630
# 5 0.026240 -0.006076 0.010946 0.000000 0.052421 0.000000
# 6 0.000000 0.000000 0.000000 0.016630 0.000000 0.060025
#
#
# Mechanical properties :
#
#
# Convention : Reuss Voigt Hill
#
# Bulk Modulus (GPa) = 7.37861 24.10928 15.74395
# Shear Modulus (GPa) = 14.21373 26.49161 20.35267
#
# Velocity S-wave (km/s) = 2.56351 3.49973 3.06755
# Velocity P-wave (km/s) = 3.48906 5.24190 4.45259
#
# Compressibility (1/GPa) = 0.13552685
#
# Stress axis : x y z
#
# Youngs Moduli (GPa) = 8.61533 51.27285 70.90657
#
# Poissons Ratio (x) = -0.09342 0.24862
# Poissons Ratio (y) = -0.01570 0.38230
# Poissons Ratio (z) = 0.03021 0.27644
#
# Static dielectric constant tensor:
#      x y z
#    x 1.778020 0.000000 0.003930 
#    y 0.000000 1.759030 0.000000 
#    z 0.003930 0.000000 1.811890 
# 
# From -- ./inp_files/21817.got.cif
#   From: 2010.05.17/outbox.cif.g08.bks.cpg/sg14_11_cif.got.tgz:21817.got - 2010.06.03 17:49:19.
