data_PCOD9244706
_publ_section_title
;
Structure prediction by ZEFSAII (Michael W. Deem and Ramdas Pophale) SiO2 
 PCOD9244706
Probable space group: P 21/C
;
_chemical_formula_sum "Si O2"
_cell_formula_units_Z 20
_cell_length_a 8.337607
_cell_length_b 18.437812
_cell_length_c 5.941394
_cell_angle_alpha 90.000000
_cell_angle_beta 52.743006
_cell_angle_gamma 90.000000
_cell_volume 726.964158
_symmetry_space_group_name_H-M "P 21/C"
_symmetry_group_IT_number 14
_symmetry_cell_setting 'monoclinic'
loop_
_space_group_symop_operation_xyz
x,y,z
-x,1/2+y,1/2-z
-x,-y,-z
x,1/2-y,1/2+z
loop_
_atom_site_type_symbol
_atom_site_label
_atom_site_fract_x
_atom_site_fract_y
_atom_site_fract_z
Si Si1 0.203330 0.333101 0.425303
Si Si2 0.599863 0.162937 0.348547
Si Si3 0.586601 0.527368 0.182159
Si Si4 0.911267 0.081730 0.405359
Si Si5 0.940440 0.308550 0.272305
O O1 0.141611 0.398559 0.641424
O O2 0.096343 0.354737 0.286553
O O3 0.078687 0.261025 0.598104
O O4 0.431149 0.314703 0.173329
O O5 0.479402 0.110855 0.279622
O O6 0.767646 0.116509 0.335928
O O7 0.743609 0.215580 0.081594
O O8 0.500000 0.500000 0.500000
O O9 0.500000 0.500000 0.000000
O O10 0.817682 0.498061 0.999046
O O11 0.871168 0.134655 0.647160
#
# Coordination Sequence:
#
# PCOD9244706 Si02
#       5
#     4   4   4   4   4
#     4  11  24  41  60  99 132 173 229 279 340 417
#     4  10  24  42  69  95 130 182 223 278 354 403
#     4  10  20  42  73 102 134 179 233 285 349 414
#     4  10  22  43  67  92 136 170 224 284 338 404
#     4  11  22  43  60  93 134 172 221 284 330 411
#
# _framework density 27.511672999999998
#
# number of rings (size 3 to 8) (size 9 to 14) (size 15 to 20)
#    0.000    1.600    4.000    0.000    0.000    5.600 
#    0.000    1.000    0.000    0.000    0.000    0.000 
#    0.000    0.000    0.000    0.000    0.000    0.000 
#
# Total GULP energy -111529.363861 kJ/mol
# GULP energy per Si atom -5576.468193 kJ/mol
# Density = 2.744906 g / cm^3
# Si number density = 27.511673 Si / 1000 Ang^3
#
#
#
# Elastic Constant Matrix: (Units=GPa)
#
#
# Indices 1 2 3 4 5 6 
#
# 1 69.7344 3.5185 36.3868 0.0000 -10.9193 0.0000
# 2 3.5185 94.8960 48.4301 0.0000 -12.1774 0.0000
# 3 36.3868 48.4301 199.4956 0.0000 -44.4457 0.0000
# 4 0.0000 0.0000 0.0000 41.8558 0.0000 -2.3587
# 5 -10.9193 -12.1774 -44.4457 0.0000 57.6199 0.0000
# 6 0.0000 0.0000 0.0000 -2.3587 0.0000 41.2686
#
#
#
# Elastic Compliance Matrix: (Units=1/GPa)
#
#
# Indices 1 2 3 4 5 6 
#
# 1 0.015979 0.001038 -0.002950 0.000000 0.000972 0.000000
# 2 0.001038 0.012101 -0.003035 0.000000 0.000413 0.000000
# 3 -0.002950 -0.003035 0.007269 0.000000 0.004407 0.000000
# 4 0.000000 0.000000 0.000000 0.023969 0.000000 0.001370
# 5 0.000972 0.000413 0.004407 0.000000 0.021026 0.000000
# 6 0.000000 0.000000 0.000000 0.001370 0.000000 0.024310
#
#
# Mechanical properties :
#
#
# Convention : Reuss Voigt Hill
#
# Bulk Modulus (GPa) = 39.28424 60.08852 49.68638
# Shear Modulus (GPa) = 40.63934 46.53491 43.58713
#
# Velocity S-wave (km/s) = 3.84756 4.11720 3.98466
# Velocity P-wave (km/s) = 5.83510 6.67010 6.26653
#
# Compressibility (1/GPa) = 0.02545550
#
# Stress axis : x y z
#
# Youngs Moduli (GPa) = 62.58143 82.63578 137.56577
#
# Poissons Ratio (x) = -0.08575 0.40580
# Poissons Ratio (y) = -0.06494 0.41751
# Poissons Ratio (z) = 0.18461 0.25080
#
# Static dielectric constant tensor:
#      x y z
#    x 2.170750 0.000000 0.085350 
#    y 0.000000 2.219080 0.000000 
#    z 0.085350 0.000000 2.512850 
# 
# From -- ./inp_files/1581.got.cif
#   From: 2010.05.17/outbox.cif.g08.bks.cpg/sg14_1_cif.got.tgz:1581.got - 2010.06.03 17:49:19.
