data_PCOD9244330
_publ_section_title
;
Structure prediction by ZEFSAII (Michael W. Deem and Ramdas Pophale) SiO2 
 PCOD9244330
Probable space group: P 21/C
;
_chemical_formula_sum "Si O2"
_cell_formula_units_Z 32
_cell_length_a 7.486645
_cell_length_b 15.972622
_cell_length_c 11.759812
_cell_angle_alpha 90.000000
_cell_angle_beta 101.193157
_cell_angle_gamma 90.000000
_cell_volume 1379.504922
_symmetry_space_group_name_H-M "P 21/C"
_symmetry_group_IT_number 14
_symmetry_cell_setting 'monoclinic'
loop_
_space_group_symop_operation_xyz
x,y,z
-x,1/2+y,1/2-z
-x,-y,-z
x,1/2-y,1/2+z
loop_
_atom_site_type_symbol
_atom_site_label
_atom_site_fract_x
_atom_site_fract_y
_atom_site_fract_z
Si Si1 0.508258 0.220066 0.283590
Si Si2 0.291663 0.069971 0.259257
Si Si3 0.005215 0.307462 0.795945
Si Si4 0.935159 0.048812 0.603355
Si Si5 0.193827 0.144027 0.794072
Si Si6 0.709693 0.354240 0.621669
Si Si7 0.783938 0.517681 0.497864
Si Si8 0.843394 0.286062 0.986574
O O1 0.460728 0.125303 0.321577
O O2 0.366057 0.296165 0.285433
O O3 0.545880 0.200800 0.153832
O O4 0.688350 0.241849 0.377446
O O5 0.153985 0.148175 0.238049
O O6 0.194547 0.006245 0.331537
O O7 0.308632 0.032810 0.135680
O O8 0.832064 0.366378 0.749165
O O9 0.023360 0.306906 0.935010
O O10 0.024310 0.208826 0.778966
O O11 0.817107 0.129602 0.552565
O O12 0.117538 0.077952 0.693501
O O13 0.000000 0.000000 0.500000
O O14 0.226050 0.095433 0.916291
O O15 0.692134 0.438034 0.548924
O O16 0.842286 0.292168 0.569300
O O17 0.000000 0.500000 0.500000
#
# Coordination Sequence:
#
# PCOD9244330 Si02
#       8
#     4   4   4   4   4   4   4   4
#     4  10  28  46  65 101 150 182 225 287 368 431
#     4  11  24  44  68 106 136 181 234 294 349 411
#     4  10  20  40  66  96 135 174 236 283 339 413
#     4  12  24  43  73 106 135 183 244 291 349 420
#     4  11  24  44  71 104 134 188 234 290 351 426
#     4  11  23  44  64  99 140 185 228 288 348 420
#     4  12  23  41  77 104 135 176 247 303 339 404
#     4  11  24  43  67  98 139 188 227 287 356 423
#
# _framework density 23.196726999999999
#
# number of rings (size 3 to 8) (size 9 to 14) (size 15 to 20)
#    0.000    1.000    5.000    0.750    3.500    2.000 
#    2.250    0.000    0.000    0.000    0.000    0.000 
#    0.000    0.000    0.000    0.000    0.000    0.000 
#
# Total GULP energy -178208.024379 kJ/mol
# GULP energy per Si atom -5569.000762 kJ/mol
# Density = 2.314393 g / cm^3
# Si number density = 23.196727 Si / 1000 Ang^3
#
#
#
# Elastic Constant Matrix: (Units=GPa)
#
#
# Indices 1 2 3 4 5 6 
#
# 1 59.4059 18.1931 24.4448 0.0000 -11.8946 0.0000
# 2 18.1931 139.5219 63.2539 0.0000 -23.4811 0.0000
# 3 24.4448 63.2539 109.0903 0.0000 -27.7209 0.0000
# 4 0.0000 0.0000 0.0000 44.9789 0.0000 -11.7726
# 5 -11.8946 -23.4811 -27.7209 0.0000 26.8459 0.0000
# 6 0.0000 0.0000 0.0000 -11.7726 0.0000 25.8752
#
#
#
# Elastic Compliance Matrix: (Units=1/GPa)
#
#
# Indices 1 2 3 4 5 6 
#
# 1 0.019135 -0.000362 -0.002717 0.000000 0.005356 0.000000
# 2 -0.000362 0.009999 -0.004793 0.000000 0.003637 0.000000
# 3 -0.002717 -0.004793 0.015162 0.000000 0.010260 0.000000
# 4 0.000000 0.000000 0.000000 0.025238 0.000000 0.011483
# 5 0.005356 0.003637 0.010260 0.000000 0.053398 0.000000
# 6 0.000000 0.000000 0.000000 0.011483 0.000000 0.043871
#
#
# Mechanical properties :
#
#
# Convention : Reuss Voigt Hill
#
# Bulk Modulus (GPa) = 35.02287 57.75572 46.38930
# Shear Modulus (GPa) = 26.03300 33.01507 29.52403
#
# Velocity S-wave (km/s) = 3.35366 3.77671 3.57146
# Velocity P-wave (km/s) = 5.48881 6.63101 6.08676
#
# Compressibility (1/GPa) = 0.02855277
#
# Stress axis : x y z
#
# Youngs Moduli (GPa) = 52.26152 100.00564 65.95595
#
# Poissons Ratio (x) = 0.03620 0.17918
# Poissons Ratio (y) = 0.01892 0.31611
# Poissons Ratio (z) = 0.14198 0.47930
#
# Static dielectric constant tensor:
#      x y z
#    x 2.091600 0.000000 -0.051880 
#    y 0.000000 1.881370 0.000000 
#    z -0.051880 0.000000 1.957870 
# 
# From -- ./inp_files/25535.got.cif
#   From: 2010.05.17/outbox.cif.g08.bks.cpg/sg14_13_cif.got.tgz:25535.got - 2010.06.03 17:49:19.
