data_PCOD9244059
_publ_section_title
;
Structure prediction by ZEFSAII (Michael W. Deem and Ramdas Pophale) SiO2 
 PCOD9244059
Probable space group: P 21/C
;
_chemical_formula_sum "Si O2"
_cell_formula_units_Z 28
_cell_length_a 5.359353
_cell_length_b 22.535917
_cell_length_c 11.159303
_cell_angle_alpha 90.000000
_cell_angle_beta 71.527895
_cell_angle_gamma 90.000000
_cell_volume 1278.356374
_symmetry_space_group_name_H-M "P 21/C"
_symmetry_group_IT_number 14
_symmetry_cell_setting 'monoclinic'
loop_
_space_group_symop_operation_xyz
x,y,z
-x,1/2+y,1/2-z
-x,-y,-z
x,1/2-y,1/2+z
loop_
_atom_site_type_symbol
_atom_site_label
_atom_site_fract_x
_atom_site_fract_y
_atom_site_fract_z
Si Si1 0.899356 0.637785 0.927493
Si Si2 0.972609 0.628745 0.184007
Si Si3 0.501161 0.308134 0.844185
Si Si4 0.799213 0.424484 0.455662
Si Si5 0.313479 0.069777 0.750214
Si Si6 0.336277 0.825150 0.201542
Si Si7 0.599444 0.526647 0.308177
O O1 0.845650 0.583505 0.846185
O O2 0.079449 0.681593 0.823340
O O3 0.033429 0.620285 0.032799
O O4 0.632153 0.668530 0.012546
O O5 0.720403 0.673197 0.218595
O O6 0.849685 0.568053 0.250799
O O7 0.222433 0.657627 0.209356
O O8 0.539893 0.238187 0.840102
O O9 0.742309 0.360014 0.407775
O O10 0.678458 0.473733 0.385059
O O11 0.641700 0.435471 0.600724
O O12 0.110522 0.435422 0.393883
O O13 0.481010 0.128349 0.754766
O O14 0.485645 0.010576 0.714182
#
# Coordination Sequence:
#
# PCOD9244059 Si02
#       7
#     4   4   4   4   4   4   4
#     4   9  22  39  64  91 130 163 216 260 326 386
#     4  10  24  43  63  96 129 166 216 265 320 380
#     4  10  24  43  63  94 130 169 217 266 317 390
#     4   9  21  37  64  93 128 169 218 269 326 383
#     4  10  20  39  65  93 125 172 210 270 325 383
#     4  10  21  41  63  92 127 170 216 266 327 379
#     4  10  21  40  62  93 132 165 221 268 322 387
#
# _framework density 21.903124999999999
#
# number of rings (size 3 to 8) (size 9 to 14) (size 15 to 20)
#    0.857    1.429    0.000    1.286    6.000    1.714 
#    5.143    7.143    0.000    0.000    0.000    0.000 
#    0.000    0.000    0.000    0.000    0.000    0.000 
#
# Total GULP energy -156174.488324 kJ/mol
# GULP energy per Si atom -5577.660297 kJ/mol
# Density = 2.185327 g / cm^3
# Si number density = 21.903125 Si / 1000 Ang^3
#
#
#
# Elastic Constant Matrix: (Units=GPa)
#
#
# Indices 1 2 3 4 5 6 
#
# 1 100.7276 26.1991 10.0899 0.0000 -22.1607 0.0000
# 2 26.1991 87.3677 34.0780 0.0000 -16.1168 0.0000
# 3 10.0899 34.0780 38.3607 0.0000 -10.1544 0.0000
# 4 0.0000 0.0000 0.0000 12.2633 0.0000 -9.6788
# 5 -22.1607 -16.1168 -10.1544 0.0000 28.4188 0.0000
# 6 0.0000 0.0000 0.0000 -9.6788 0.0000 24.7888
#
#
#
# Elastic Compliance Matrix: (Units=1/GPa)
#
#
# Indices 1 2 3 4 5 6 
#
# 1 0.012382 -0.002664 0.001398 0.000000 0.008644 0.000000
# 2 -0.002664 0.018709 -0.015088 0.000000 0.003142 0.000000
# 3 0.001398 -0.015088 0.041007 0.000000 0.007185 0.000000
# 4 0.000000 0.000000 0.000000 0.117865 0.000000 0.046020
# 5 0.008644 0.003142 0.007185 0.000000 0.046278 0.000000
# 6 0.000000 0.000000 0.000000 0.046020 0.000000 0.058309
#
#
# Mechanical properties :
#
#
# Convention : Reuss Voigt Hill
#
# Bulk Modulus (GPa) = 25.38731 40.79890 33.09310
# Shear Modulus (GPa) = 14.68904 23.50013 19.09458
#
# Velocity S-wave (km/s) = 2.59247 3.27909 2.95579
# Velocity P-wave (km/s) = 4.53620 5.74491 5.17596
#
# Compressibility (1/GPa) = 0.03938976
#
# Stress axis : x y z
#
# Youngs Moduli (GPa) = 80.75980 53.44880 24.38633
#
# Poissons Ratio (x) = 0.14237 -0.03408
# Poissons Ratio (y) = 0.21511 0.36795
# Poissons Ratio (z) = -0.11287 0.80645
#
# Static dielectric constant tensor:
#      x y z
#    x 1.872660 0.000000 0.009480 
#    y 0.000000 1.758960 0.000000 
#    z 0.009480 0.000000 1.818240 
# 
# From -- ./inp_files/21746.got.cif
#   From: 2010.05.17/outbox.cif.g08.bks.cpg/sg14_11_cif.got.tgz:21746.got - 2010.06.03 17:49:19.
