data_PCOD9244026
_publ_section_title
;
Structure prediction by ZEFSAII (Michael W. Deem and Ramdas Pophale) SiO2 
 PCOD9244026
Probable space group: P 21/C
;
_chemical_formula_sum "Si O2"
_cell_formula_units_Z 28
_cell_length_a 8.901584
_cell_length_b 5.223572
_cell_length_c 31.010677
_cell_angle_alpha 90.000000
_cell_angle_beta 119.618683
_cell_angle_gamma 90.000000
_cell_volume 1253.524140
_symmetry_space_group_name_H-M "P 21/C"
_symmetry_group_IT_number 14
_symmetry_cell_setting 'monoclinic'
loop_
_space_group_symop_operation_xyz
x,y,z
-x,1/2+y,1/2-z
-x,-y,-z
x,1/2-y,1/2+z
loop_
_atom_site_type_symbol
_atom_site_label
_atom_site_fract_x
_atom_site_fract_y
_atom_site_fract_z
Si Si1 0.360412 0.908173 0.386127
Si Si2 0.766585 0.654137 0.379378
Si Si3 0.004556 0.788518 0.047787
Si Si4 0.090220 0.897509 0.743996
Si Si5 0.414585 0.089752 0.839273
Si Si6 0.976538 0.502307 0.858996
Si Si7 0.283700 0.035559 0.544692
O O1 0.386228 0.617086 0.373571
O O2 0.517590 0.996251 0.439810
O O3 0.172316 0.910126 0.380264
O O4 0.366307 0.128606 0.349580
O O5 0.939501 0.566811 0.429222
O O6 0.615103 0.444338 0.353748
O O7 0.834188 0.775412 0.345118
O O8 0.692441 0.854372 0.403388
O O9 0.024909 0.642919 0.095941
O O10 0.153407 0.698398 0.035122
O O11 0.821589 0.725005 0.001111
O O12 0.281334 0.989109 0.784494
O O13 0.072016 0.846822 0.690607
O O14 0.970745 0.143302 0.739487
#
# Coordination Sequence:
#
# PCOD9244026 Si02
#       7
#     4   4   4   4   4   4   4
#     4  11  22  41  68  95 127 172 221 263 324 394
#     4  10  22  40  63  94 129 170 217 272 330 388
#     4  10  20  39  64  90 136 165 220 270 332 382
#     4  12  24  44  69  94 125 174 218 262 334 396
#     4  11  22  44  67  91 127 175 218 264 322 404
#     4  11  25  39  63  97 131 162 221 282 322 383
#     4   9  20  39  64  93 122 183 216 258 329 412
#
# _framework density 22.337026999999999
#
# number of rings (size 3 to 8) (size 9 to 14) (size 15 to 20)
#    0.000    1.429    4.286    0.429    4.000    0.571 
#    2.571    0.714    0.000    0.000    0.000    0.000 
#    0.000    0.000    0.000    0.000    0.000    0.000 
#
# Total GULP energy -156124.921697 kJ/mol
# GULP energy per Si atom -5575.890061 kJ/mol
# Density = 2.228619 g / cm^3
# Si number density = 22.337027 Si / 1000 Ang^3
#
#
#
# Elastic Constant Matrix: (Units=GPa)
#
#
# Indices 1 2 3 4 5 6 
#
# 1 90.5685 15.8392 37.7267 0.0000 8.6404 0.0000
# 2 15.8392 71.7979 5.6038 0.0000 -9.0653 0.0000
# 3 37.7267 5.6038 93.8485 0.0000 17.5623 0.0000
# 4 0.0000 0.0000 0.0000 29.3713 0.0000 8.1155
# 5 8.6404 -9.0653 17.5623 0.0000 33.8211 0.0000
# 6 0.0000 0.0000 0.0000 8.1155 0.0000 17.9930
#
#
#
# Elastic Compliance Matrix: (Units=1/GPa)
#
#
# Indices 1 2 3 4 5 6 
#
# 1 0.013813 -0.002861 -0.005071 0.000000 -0.001663 0.000000
# 2 -0.002861 0.015274 -0.000736 0.000000 0.005207 0.000000
# 3 -0.005071 -0.000736 0.013881 0.000000 -0.006110 0.000000
# 4 0.000000 0.000000 0.000000 0.038894 0.000000 -0.017543
# 5 -0.001663 0.005207 -0.006110 0.000000 0.034561 0.000000
# 6 0.000000 0.000000 0.000000 -0.017543 0.000000 0.063490
#
#
# Mechanical properties :
#
#
# Convention : Reuss Voigt Hill
#
# Bulk Modulus (GPa) = 39.01445 41.61714 40.31580
# Shear Modulus (GPa) = 24.29629 29.37341 26.83485
#
# Velocity S-wave (km/s) = 3.30163 3.63024 3.46983
# Velocity P-wave (km/s) = 5.66026 6.02025 5.84303
#
# Compressibility (1/GPa) = 0.02563153
#
# Stress axis : x y z
#
# Youngs Moduli (GPa) = 72.39779 65.47002 72.03984
#
# Poissons Ratio (x) = 0.18733 0.36529
# Poissons Ratio (y) = 0.20715 0.05304
# Poissons Ratio (z) = 0.36710 0.04820
#
# Static dielectric constant tensor:
#      x y z
#    x 1.873790 0.000000 0.017580 
#    y 0.000000 1.902090 0.000000 
#    z 0.017580 0.000000 1.849060 
# 
# From -- ./inp_files/76075.got.cif
#   From: 2010.05.17/outbox.cif.g08.bks.cpg/sg14_39_cif.got.tgz:76075.got - 2010.06.03 17:49:19.
