data_PCOD9244283
_publ_section_title
;
Structure prediction by ZEFSAII (Michael W. Deem and Ramdas Pophale) SiO2 
 PCOD9244283
Probable space group: P 21/C
;
_chemical_formula_sum "Si O2"
_cell_formula_units_Z 20
_cell_length_a 6.804737
_cell_length_b 14.204661
_cell_length_c 9.148593
_cell_angle_alpha 90.000000
_cell_angle_beta 49.449252
_cell_angle_gamma 90.000000
_cell_volume 671.913261
_symmetry_space_group_name_H-M "P 21/C"
_symmetry_group_IT_number 14
_symmetry_cell_setting 'monoclinic'
loop_
_space_group_symop_operation_xyz
x,y,z
-x,1/2+y,1/2-z
-x,-y,-z
x,1/2-y,1/2+z
loop_
_atom_site_type_symbol
_atom_site_label
_atom_site_fract_x
_atom_site_fract_y
_atom_site_fract_z
Si Si1 0.052673 0.261293 0.594410
Si Si2 0.854262 0.065270 0.708022
Si Si3 0.515666 0.088275 0.145349
Si Si4 0.432569 0.714154 0.966960
Si Si5 0.775610 0.569257 0.697974
O O1 0.934914 0.162721 0.593158
O O2 0.108828 0.343457 0.451889
O O3 0.315578 0.236275 0.553505
O O4 0.835489 0.288505 0.818169
O O5 0.070823 0.049617 0.727994
O O6 0.755535 0.965295 0.693828
O O7 0.599702 0.088045 0.933488
O O8 0.544755 0.199126 0.159594
O O9 0.719852 0.024346 0.133993
O O10 0.496786 0.611697 0.874454
#
# Coordination Sequence:
#
# PCOD9244283 Si02
#       5
#     4   4   4   4   4
#     4  10  21  40  65  95 133 172 218 274 327 393
#     4   9  20  36  59  92 124 165 218 263 317 388
#     4  10  20  40  65  92 133 177 217 272 334 394
#     4  10  24  42  65 100 135 171 225 278 328 397
#     4  11  22  41  69  94 129 181 221 266 337 397
#
# _framework density 29.765746
#
# number of rings (size 3 to 8) (size 9 to 14) (size 15 to 20)
#    0.000    2.000    0.000    4.200    0.000    9.600 
#    0.000   10.000    0.000   26.400    0.000    0.000 
#    0.000    0.000    0.000    0.000    0.000    0.000 
#
# Total GULP energy -112177.399717 kJ/mol
# GULP energy per Si atom -5608.869986 kJ/mol
# Density = 2.969800 g / cm^3
# Si number density = 29.765746 Si / 1000 Ang^3
#
#
#
# Elastic Constant Matrix: (Units=GPa)
#
#
# Indices 1 2 3 4 5 6 
#
# 1 105.1796 33.2628 12.4620 0.0000 -1.2665 0.0000
# 2 33.2628 167.7908 64.4203 0.0000 16.2898 0.0000
# 3 12.4620 64.4203 131.2637 0.0000 -0.0989 0.0000
# 4 0.0000 0.0000 0.0000 79.0482 0.0000 -11.4528
# 5 -1.2665 16.2898 -0.0989 0.0000 31.6588 0.0000
# 6 0.0000 0.0000 0.0000 -11.4528 0.0000 58.9574
#
#
#
# Elastic Compliance Matrix: (Units=1/GPa)
#
#
# Indices 1 2 3 4 5 6 
#
# 1 0.010215 -0.002223 0.000122 0.000000 0.001553 0.000000
# 2 -0.002223 0.008312 -0.003871 0.000000 -0.004378 0.000000
# 3 0.000122 -0.003871 0.009508 0.000000 0.002027 0.000000
# 4 0.000000 0.000000 0.000000 0.013017 0.000000 0.002529
# 5 0.001553 -0.004378 0.002027 0.000000 0.033908 0.000000
# 6 0.000000 0.000000 0.000000 0.002529 0.000000 0.017453
#
#
# Mechanical properties :
#
#
# Convention : Reuss Voigt Hill
#
# Bulk Modulus (GPa) = 62.14701 69.39159 65.76930
# Shear Modulus (GPa) = 45.57082 53.53882 49.55482
#
# Velocity S-wave (km/s) = 3.91702 4.24568 4.08466
# Velocity P-wave (km/s) = 6.43284 6.88459 6.66254
#
# Compressibility (1/GPa) = 0.01609088
#
# Stress axis : x y z
#
# Youngs Moduli (GPa) = 97.89852 120.31080 105.17261
#
# Poissons Ratio (x) = 0.26740 -0.01285
# Poissons Ratio (y) = 0.21759 0.40717
# Poissons Ratio (z) = -0.01196 0.46578
#
# Static dielectric constant tensor:
#      x y z
#    x 2.363600 0.000000 -0.032880 
#    y 0.000000 2.310550 0.000000 
#    z -0.032880 0.000000 2.405500 
# 
# From -- ./inp_files/25928.got.cif
#   From: 2010.05.17/outbox.cif.g08.bks.cpg/sg14_13_cif.got.tgz:25928.got - 2010.06.03 17:49:19.
