data_PCOD9244553
_publ_section_title
;
Structure prediction by ZEFSAII (Michael W. Deem and Ramdas Pophale) SiO2 
 PCOD9244553
Probable space group: P 21/C
;
_chemical_formula_sum "Si O2"
_cell_formula_units_Z 24
_cell_length_a 25.581489
_cell_length_b 5.075000
_cell_length_c 13.173083
_cell_angle_alpha 90.000000
_cell_angle_beta 33.113857
_cell_angle_gamma 90.000000
_cell_volume 934.295183
_symmetry_space_group_name_H-M "P 21/C"
_symmetry_group_IT_number 14
_symmetry_cell_setting 'monoclinic'
loop_
_space_group_symop_operation_xyz
x,y,z
-x,1/2+y,1/2-z
-x,-y,-z
x,1/2-y,1/2+z
loop_
_atom_site_type_symbol
_atom_site_label
_atom_site_fract_x
_atom_site_fract_y
_atom_site_fract_z
Si Si1 0.273245 0.817498 0.295840
Si Si2 0.834149 0.561952 0.387915
Si Si3 0.486714 0.752594 0.948009
Si Si4 0.682156 0.889996 0.562904
Si Si5 0.837099 0.262973 0.703978
Si Si6 0.991318 0.965208 0.196451
O O1 0.213755 0.569102 0.436045
O O2 0.202726 0.922225 0.323041
O O3 0.297983 0.989772 0.355690
O O4 0.378815 0.747403 0.083207
O O5 0.740214 0.621903 0.473779
O O6 0.883938 0.370291 0.226555
O O7 0.897121 0.819105 0.306760
O O8 0.571806 0.809175 0.729403
O O9 0.500000 0.500000 0.000000
O O10 0.500000 0.000000 0.000000
O O11 0.743452 0.070912 0.388789
O O12 0.921210 0.444024 0.522809
O O13 0.017610 0.758385 0.245131
#
# Coordination Sequence:
#
# PCOD9244553 Si02
#       6
#     4   4   4   4   4   4
#     4  10  21  44  66  95 138 185 227 290 353 425
#     4  11  23  42  70  96 138 181 233 295 350 423
#     4  10  20  41  70  96 132 182 225 281 348 416
#     4  10  23  41  68 100 136 180 237 284 361 416
#     4  11  25  43  65 105 138 181 237 299 347 424
#     4  12  27  46  73 100 139 191 238 286 365 425
#
# _framework density 25.687815000000001
#
# number of rings (size 3 to 8) (size 9 to 14) (size 15 to 20)
#    0.000    1.333    3.333    1.500    4.667    2.000 
#    3.000    0.000    0.000    0.000    0.000    0.000 
#    0.000    0.000    0.000    0.000    0.000    0.000 
#
# Total GULP energy -134057.102560 kJ/mol
# GULP energy per Si atom -5585.712607 kJ/mol
# Density = 2.562935 g / cm^3
# Si number density = 25.687815 Si / 1000 Ang^3
#
#
#
# Elastic Constant Matrix: (Units=GPa)
#
#
# Indices 1 2 3 4 5 6 
#
# 1 93.0350 2.5935 43.2957 0.0000 -18.8010 0.0000
# 2 2.5935 73.7401 3.5090 0.0000 4.1606 0.0000
# 3 43.2957 3.5090 148.1237 0.0000 -16.1138 0.0000
# 4 0.0000 0.0000 0.0000 27.0596 0.0000 -4.3696
# 5 -18.8010 4.1606 -16.1138 0.0000 37.4164 0.0000
# 6 0.0000 0.0000 0.0000 -4.3696 0.0000 29.4578
#
#
#
# Elastic Compliance Matrix: (Units=1/GPa)
#
#
# Indices 1 2 3 4 5 6 
#
# 1 0.013394 -0.000616 -0.003316 0.000000 0.005371 0.000000
# 2 -0.000616 0.013712 -0.000361 0.000000 -0.001990 0.000000
# 3 -0.003316 -0.000361 0.007923 0.000000 0.001786 0.000000
# 4 0.000000 0.000000 0.000000 0.037862 0.000000 0.005616
# 5 0.005371 -0.001990 0.001786 0.000000 0.030415 0.000000
# 6 0.000000 0.000000 0.000000 0.005616 0.000000 0.034780
#
#
# Mechanical properties :
#
#
# Convention : Reuss Voigt Hill
#
# Bulk Modulus (GPa) = 37.81783 45.96611 41.89197
# Shear Modulus (GPa) = 32.15651 36.48681 34.32166
#
# Velocity S-wave (km/s) = 3.54194 3.77290 3.65924
# Velocity P-wave (km/s) = 5.61081 6.07558 5.84782
#
# Compressibility (1/GPa) = 0.02644255
#
# Stress axis : x y z
#
# Youngs Moduli (GPa) = 74.65773 72.92729 126.21018
#
# Poissons Ratio (x) = 0.04495 0.41854
# Poissons Ratio (y) = 0.04601 0.04558
# Poissons Ratio (z) = 0.24758 0.02634
#
# Static dielectric constant tensor:
#      x y z
#    x 2.068830 0.000000 0.028550 
#    y 0.000000 2.074860 0.000000 
#    z 0.028550 0.000000 2.124080 
# 
# From -- ./inp_files/45676.got.cif
#   From: 2010.05.17/outbox.cif.g08.bks.cpg/sg14_23_cif.got.tgz:45676.got - 2010.06.03 17:49:19.
