data_PCOD9244625
_publ_section_title
;
Structure prediction by ZEFSAII (Michael W. Deem and Ramdas Pophale) SiO2 
 PCOD9244625
Probable space group: P 21/C
;
_chemical_formula_sum "Si O2"
_cell_formula_units_Z 28
_cell_length_a 6.708063
_cell_length_b 19.025875
_cell_length_c 9.750976
_cell_angle_alpha 90.000000
_cell_angle_beta 121.167458
_cell_angle_gamma 90.000000
_cell_volume 1064.854447
_symmetry_space_group_name_H-M "P 21/C"
_symmetry_group_IT_number 14
_symmetry_cell_setting 'monoclinic'
loop_
_space_group_symop_operation_xyz
x,y,z
-x,1/2+y,1/2-z
-x,-y,-z
x,1/2-y,1/2+z
loop_
_atom_site_type_symbol
_atom_site_label
_atom_site_fract_x
_atom_site_fract_y
_atom_site_fract_z
Si Si1 0.672960 0.057610 0.374198
Si Si2 0.903434 0.622110 0.096389
Si Si3 0.970836 0.692991 0.861632
Si Si4 0.325645 0.544138 0.586611
Si Si5 0.349710 0.619275 0.859396
Si Si6 0.269941 0.166175 0.196751
Si Si7 0.745925 0.592839 0.580938
O O1 0.921156 0.062059 0.389729
O O2 0.699320 0.056763 0.547660
O O3 0.520630 0.129805 0.304294
O O4 0.512050 0.000429 0.245513
O O5 0.901354 0.625126 0.259570
O O6 0.000737 0.685241 0.035671
O O7 0.629728 0.623969 0.959211
O O8 0.218237 0.689074 0.870600
O O9 0.786594 0.755086 0.777243
O O10 0.860505 0.621712 0.759441
O O11 0.249403 0.599622 0.674579
O O12 0.816990 0.517841 0.539483
O O13 0.474273 0.582490 0.522276
O O14 0.221714 0.152247 0.021649
#
# Coordination Sequence:
#
# PCOD9244625 Si02
#       7
#     4   4   4   4   4   4   4
#     4   9  21  40  67  98 130 181 221 277 334 396
#     4  10  21  42  62  94 129 171 229 271 331 390
#     4  11  22  41  66  95 128 178 229 273 336 398
#     4  10  20  42  65  98 146 168 224 281 333 414
#     4  10  21  39  65  97 132 176 221 277 338 394
#     4  10  22  42  65  94 131 175 233 274 331 404
#     4  10  22  42  64 100 136 177 215 276 345 392
#
# _framework density 26.294671000000001
#
# number of rings (size 3 to 8) (size 9 to 14) (size 15 to 20)
#    0.000    2.000    1.429    1.286    0.000    2.286 
#   15.429    5.714    0.000    0.000    0.000    0.000 
#    0.000    0.000    0.000    0.000    0.000    0.000 
#
# Total GULP energy -156267.189591 kJ/mol
# GULP energy per Si atom -5580.971057 kJ/mol
# Density = 2.623482 g / cm^3
# Si number density = 26.294671 Si / 1000 Ang^3
#
#
#
# Elastic Constant Matrix: (Units=GPa)
#
#
# Indices 1 2 3 4 5 6 
#
# 1 158.5775 46.0016 35.8995 0.0000 -18.6446 0.0000
# 2 46.0016 96.8999 18.3394 0.0000 -0.1885 0.0000
# 3 35.8995 18.3394 62.0502 0.0000 -31.9843 0.0000
# 4 0.0000 0.0000 0.0000 28.3545 0.0000 -6.7052
# 5 -18.6446 -0.1885 -31.9843 0.0000 57.8170 0.0000
# 6 0.0000 0.0000 0.0000 -6.7052 0.0000 40.7064
#
#
#
# Elastic Compliance Matrix: (Units=1/GPa)
#
#
# Indices 1 2 3 4 5 6 
#
# 1 0.008079 -0.003201 -0.003344 0.000000 0.000745 0.000000
# 2 -0.003201 0.012454 -0.003273 0.000000 -0.002802 0.000000
# 3 -0.003344 -0.003273 0.025819 0.000000 0.013194 0.000000
# 4 0.000000 0.000000 0.000000 0.036697 0.000000 0.006045
# 5 0.000745 -0.002802 0.013194 0.000000 0.024826 0.000000
# 6 0.000000 0.000000 0.000000 0.006045 0.000000 0.025562
#
#
# Mechanical properties :
#
#
# Convention : Reuss Voigt Hill
#
# Bulk Modulus (GPa) = 37.43233 57.55652 47.49443
# Shear Modulus (GPa) = 30.86806 39.86139 35.36473
#
# Velocity S-wave (km/s) = 3.42998 3.89774 3.67132
# Velocity P-wave (km/s) = 5.47293 6.49562 6.00608
#
# Compressibility (1/GPa) = 0.02671487
#
# Stress axis : x y z
#
# Youngs Moduli (GPa) = 123.77224 80.29759 38.73078
#
# Poissons Ratio (x) = 0.25704 0.12953
# Poissons Ratio (y) = 0.39621 0.12678
# Poissons Ratio (z) = 0.41393 0.26284
#
# Static dielectric constant tensor:
#      x y z
#    x 2.134150 0.000000 0.017130 
#    y 0.000000 2.111370 0.000000 
#    z 0.017130 0.000000 2.093960 
# 
# From -- ./inp_files/21827.got.cif
#   From: 2010.05.17/outbox.cif.g08.bks.cpg/sg14_11_cif.got.tgz:21827.got - 2010.06.03 17:49:19.
