data_PCOD9244266
_publ_section_title
;
Structure prediction by ZEFSAII (Michael W. Deem and Ramdas Pophale) SiO2 
 PCOD9244266
Probable space group: P 21/C
;
_chemical_formula_sum "Si O2"
_cell_formula_units_Z 18
_cell_length_a 8.774271
_cell_length_b 15.149311
_cell_length_c 9.758768
_cell_angle_alpha 90.000000
_cell_angle_beta 28.974820
_cell_angle_gamma 90.000000
_cell_volume 628.384764
_symmetry_space_group_name_H-M "P 21/C"
_symmetry_group_IT_number 14
_symmetry_cell_setting 'monoclinic'
loop_
_space_group_symop_operation_xyz
x,y,z
-x,1/2+y,1/2-z
-x,-y,-z
x,1/2-y,1/2+z
loop_
_atom_site_type_symbol
_atom_site_label
_atom_site_fract_x
_atom_site_fract_y
_atom_site_fract_z
Si Si1 0.351617 0.410111 0.964193
Si Si2 0.000000 0.000000 0.000000
Si Si3 0.335015 0.416912 0.402348
Si Si4 0.732001 0.255543 0.565035
Si Si5 0.318567 0.352142 0.702036
O O1 0.592872 0.494066 0.747390
O O2 0.541238 0.318748 0.818652
O O3 0.198094 0.402293 0.933137
O O4 0.136694 0.430440 0.260749
O O5 0.983138 0.084506 0.125743
O O6 0.538519 0.334735 0.204017
O O7 0.349554 0.419664 0.552560
O O8 0.650304 0.309244 0.489689
O O9 0.069823 0.221564 0.347450
#
# Coordination Sequence:
#
# PCOD9244266 Si02
#       5
#     4   2   4   4   4
#     4   8  20  37  60  85 123 155 193 253 295 353
#     4   8  18  36  64  82 122 160 182 252 312 334
#     4  10  20  40  65  81 128 160 193 254 305 348
#     4  10  22  38  61  94 116 158 212 242 291 379
#     4  10  22  39  62  86 124 159 203 248 300 360
#
# _framework density 28.644870000000001
#
# number of rings (size 3 to 8) (size 9 to 14) (size 15 to 20)
#    2.667    0.000    0.000    2.000    0.000    4.444 
#    0.000    3.333    0.000    0.000    0.000    0.000 
#    0.000    0.000    0.000    0.000    0.000    0.000 
#
# Total GULP energy -100350.712766 kJ/mol
# GULP energy per Si atom -5575.039598 kJ/mol
# Density = 2.857967 g / cm^3
# Si number density = 28.644870 Si / 1000 Ang^3
#
#
#
# Elastic Constant Matrix: (Units=GPa)
#
#
# Indices 1 2 3 4 5 6 
#
# 1 279.7730 87.9645 68.4759 0.0000 6.4313 0.0000
# 2 87.9645 145.1188 85.0992 0.0000 17.1245 0.0000
# 3 68.4759 85.0992 103.5298 0.0000 17.3022 0.0000
# 4 0.0000 0.0000 0.0000 53.8331 0.0000 -4.2075
# 5 6.4313 17.1245 17.3022 0.0000 38.0096 0.0000
# 6 0.0000 0.0000 0.0000 -4.2075 0.0000 85.1079
#
#
#
# Elastic Compliance Matrix: (Units=1/GPa)
#
#
# Indices 1 2 3 4 5 6 
#
# 1 0.004545 -0.001947 -0.001541 0.000000 0.000810 0.000000
# 2 -0.001947 0.014180 -0.010126 0.000000 -0.001450 0.000000
# 3 -0.001541 -0.010126 0.019694 0.000000 -0.004142 0.000000
# 4 0.000000 0.000000 0.000000 0.018648 0.000000 0.000922
# 5 0.000810 -0.001450 -0.004142 0.000000 0.028711 0.000000
# 6 0.000000 0.000000 0.000000 0.000922 0.000000 0.011795
#
#
# Mechanical properties :
#
#
# Convention : Reuss Voigt Hill
#
# Bulk Modulus (GPa) = 89.35478 112.38897 100.87187
# Shear Modulus (GPa) = 38.90136 54.51559 46.70848
#
# Velocity S-wave (km/s) = 3.68918 4.36725 4.04246
# Velocity P-wave (km/s) = 7.02911 8.04680 7.55511
#
# Compressibility (1/GPa) = 0.01119134
#
# Stress axis : x y z
#
# Youngs Moduli (GPa) = 220.02082 70.52320 50.77760
#
# Poissons Ratio (x) = 0.13729 0.07826
# Poissons Ratio (y) = 0.42831 0.51415
# Poissons Ratio (z) = 0.33912 0.71409
#
# Static dielectric constant tensor:
#      x y z
#    x 2.214720 0.000000 -0.074320 
#    y 0.000000 2.248500 0.000000 
#    z -0.074320 0.000000 2.265740 
# 
# From -- ./inp_files/25917.got.cif
#   From: 2010.05.17/outbox.cif.g08.bks.cpg/sg14_13_cif.got.tgz:25917.got - 2010.06.03 17:49:19.
