data_PCOD9244414
_publ_section_title
;
Structure prediction by ZEFSAII (Michael W. Deem and Ramdas Pophale) SiO2 
 PCOD9244414
Probable space group: P 21/C
;
_chemical_formula_sum "Si O2"
_cell_formula_units_Z 28
_cell_length_a 7.237739
_cell_length_b 23.640584
_cell_length_c 8.863056
_cell_angle_alpha 90.000000
_cell_angle_beta 132.301865
_cell_angle_gamma 90.000000
_cell_volume 1121.623009
_symmetry_space_group_name_H-M "P 21/C"
_symmetry_group_IT_number 14
_symmetry_cell_setting 'monoclinic'
loop_
_space_group_symop_operation_xyz
x,y,z
-x,1/2+y,1/2-z
-x,-y,-z
x,1/2-y,1/2+z
loop_
_atom_site_type_symbol
_atom_site_label
_atom_site_fract_x
_atom_site_fract_y
_atom_site_fract_z
Si Si1 0.801758 0.123520 0.004577
Si Si2 0.483462 0.327184 0.688192
Si Si3 0.137050 0.954758 0.243640
Si Si4 0.567403 0.784327 0.174343
Si Si5 0.551192 0.948833 0.727221
Si Si6 0.682465 0.547870 0.713301
Si Si7 0.052871 0.138195 0.440045
O O1 0.562978 0.087673 0.940500
O O2 0.022659 0.125890 0.246748
O O3 0.848706 0.094205 0.872191
O O4 0.699215 0.187209 0.931797
O O5 0.388349 0.301420 0.476155
O O6 0.435064 0.281495 0.791189
O O7 0.377105 0.388161 0.670003
O O8 0.778529 0.340418 0.835832
O O9 0.349910 0.940921 0.483370
O O10 0.225235 0.013145 0.215408
O O11 0.872106 0.960295 0.179865
O O12 0.759218 0.814991 0.392730
O O13 0.411667 0.988879 0.771980
O O14 0.850356 0.580840 0.929090
#
# Coordination Sequence:
#
# PCOD9244414 Si02
#       7
#     4   4   4   4   4   4   4
#     4   9  22  44  72 109 148 192 249 310 367 439
#     4  11  24  46  74 104 144 197 248 310 375 445
#     4  10  20  40  77 113 153 197 249 298 368 460
#     4  10  25  45  73 103 139 199 252 306 380 439
#     4  10  22  41  75 116 160 194 247 317 367 440
#     4  10  20  43  76 108 153 200 244 297 382 438
#     4  10  22  47  73 100 151 194 237 317 374 433
#
# _framework density 24.963825
#
# number of rings (size 3 to 8) (size 9 to 14) (size 15 to 20)
#    0.000    2.000    1.429    0.429    2.000    2.286 
#    0.000   34.286    0.000    0.000    0.000    0.000 
#    0.000    0.000    0.000    0.000    0.000    0.000 
#
# Total GULP energy -157046.888170 kJ/mol
# GULP energy per Si atom -5608.817435 kJ/mol
# Density = 2.490701 g / cm^3
# Si number density = 24.963825 Si / 1000 Ang^3
#
#
#
# Elastic Constant Matrix: (Units=GPa)
#
#
# Indices 1 2 3 4 5 6 
#
# 1 145.8212 65.0150 53.2714 0.0000 -13.6552 0.0000
# 2 65.0150 195.8131 64.0294 0.0000 -21.4837 0.0000
# 3 53.2714 64.0294 167.6738 0.0000 2.0630 0.0000
# 4 0.0000 0.0000 0.0000 37.8878 0.0000 -13.4285
# 5 -13.6552 -21.4837 2.0630 0.0000 31.3400 0.0000
# 6 0.0000 0.0000 0.0000 -13.4285 0.0000 38.0484
#
#
#
# Elastic Compliance Matrix: (Units=1/GPa)
#
#
# Indices 1 2 3 4 5 6 
#
# 1 0.008718 -0.001934 -0.002063 0.000000 0.002609 0.000000
# 2 -0.001934 0.006859 -0.002054 0.000000 0.003994 0.000000
# 3 -0.002063 -0.002054 0.007438 0.000000 -0.002797 0.000000
# 4 0.000000 0.000000 0.000000 0.030167 0.000000 0.010647
# 5 0.002609 0.003994 -0.002797 0.000000 0.035967 0.000000
# 6 0.000000 0.000000 0.000000 0.010647 0.000000 0.030040
#
#
# Mechanical properties :
#
#
# Convention : Reuss Voigt Hill
#
# Bulk Modulus (GPa) = 91.63455 97.10441 94.36948
# Shear Modulus (GPa) = 37.05645 43.25474 40.15560
#
# Velocity S-wave (km/s) = 3.85698 4.16708 4.01503
# Velocity P-wave (km/s) = 7.52474 7.88259 7.70574
#
# Compressibility (1/GPa) = 0.01091291
#
# Stress axis : x y z
#
# Youngs Moduli (GPa) = 114.70584 145.79781 134.43915
#
# Poissons Ratio (x) = 0.28192 0.27741
# Poissons Ratio (y) = 0.22180 0.27614
# Poissons Ratio (z) = 0.23669 0.29947
#
# Static dielectric constant tensor:
#      x y z
#    x 2.025460 0.000000 -0.002240 
#    y 0.000000 1.929010 0.000000 
#    z -0.002240 0.000000 2.023520 
# 
# From -- ./inp_files/6668.got.cif
#   From: 2010.05.17/outbox.cif.g08.bks.cpg/sg14_4_cif.got.tgz:6668.got - 2010.06.03 17:49:19.
