data_PCOD9244699
_publ_section_title
;
Structure prediction by ZEFSAII (Michael W. Deem and Ramdas Pophale) SiO2 
 PCOD9244699
Probable space group: P 21/C
;
_chemical_formula_sum "Si O2"
_cell_formula_units_Z 24
_cell_length_a 7.943766
_cell_length_b 8.318489
_cell_length_c 14.934814
_cell_angle_alpha 90.000000
_cell_angle_beta 96.611385
_cell_angle_gamma 90.000000
_cell_volume 980.331512
_symmetry_space_group_name_H-M "P 21/C"
_symmetry_group_IT_number 14
_symmetry_cell_setting 'monoclinic'
loop_
_space_group_symop_operation_xyz
x,y,z
-x,1/2+y,1/2-z
-x,-y,-z
x,1/2-y,1/2+z
loop_
_atom_site_type_symbol
_atom_site_label
_atom_site_fract_x
_atom_site_fract_y
_atom_site_fract_z
Si Si1 0.530792 0.711411 0.657800
Si Si2 0.691696 0.568334 0.314590
Si Si3 0.827061 0.106292 0.391152
Si Si4 0.092211 0.588086 0.816024
Si Si5 0.325345 0.088507 0.471154
Si Si6 0.966781 0.674310 0.454718
O O1 0.477167 0.531080 0.673999
O O2 0.632179 0.742334 0.572103
O O3 0.640733 0.789931 0.743549
O O4 0.351466 0.808181 0.638756
O O5 0.824438 0.441286 0.275851
O O6 0.776434 0.640626 0.407076
O O7 0.784830 0.949754 0.448949
O O8 0.049042 0.785756 0.538951
O O9 0.931169 0.031430 0.315591
O O10 0.234998 0.511467 0.887884
O O11 0.049796 0.754162 0.866109
O O12 0.500000 0.000000 0.500000
O O13 0.000000 0.500000 0.500000
#
# Coordination Sequence:
#
# PCOD9244699 Si02
#       6
#     4   4   4   4   4   4
#     4  10  22  41  64  95 137 175 224 274 340 409
#     4  11  25  43  66  99 138 183 222 282 342 409
#     4  10  20  42  71  95 130 175 228 282 338 404
#     4  10  23  40  65  97 131 180 224 275 347 403
#     4   8  16  35  63  89 121 169 216 269 329 399
#     4  11  22  40  68  99 133 167 229 284 331 393
#
# _framework density 24.481513
#
# number of rings (size 3 to 8) (size 9 to 14) (size 15 to 20)
#    0.000    2.000    1.667    2.000    4.667    0.000 
#    3.000    5.000    0.000   10.000    0.000    0.000 
#    0.000    0.000    0.000    0.000    0.000    0.000 
#
# Total GULP energy -133788.234507 kJ/mol
# GULP energy per Si atom -5574.509771 kJ/mol
# Density = 2.442579 g / cm^3
# Si number density = 24.481513 Si / 1000 Ang^3
#
#
#
# Elastic Constant Matrix: (Units=GPa)
#
#
# Indices 1 2 3 4 5 6 
#
# 1 79.9819 25.1698 39.3348 0.0000 -3.3430 0.0000
# 2 25.1698 117.2831 41.0903 0.0000 -20.0148 0.0000
# 3 39.3348 41.0903 105.7701 0.0000 2.3920 0.0000
# 4 0.0000 0.0000 0.0000 32.8059 0.0000 -2.4460
# 5 -3.3430 -20.0148 2.3920 0.0000 50.9689 0.0000
# 6 0.0000 0.0000 0.0000 -2.4460 0.0000 38.4255
#
#
#
# Elastic Compliance Matrix: (Units=1/GPa)
#
#
# Indices 1 2 3 4 5 6 
#
# 1 0.015556 -0.001367 -0.005270 0.000000 0.000731 0.000000
# 2 -0.001367 0.010907 -0.003828 0.000000 0.004373 0.000000
# 3 -0.005270 -0.003828 0.012957 0.000000 -0.002457 0.000000
# 4 0.000000 0.000000 0.000000 0.030628 0.000000 0.001950
# 5 0.000731 0.004373 -0.002457 0.000000 0.021500 0.000000
# 6 0.000000 0.000000 0.000000 0.001950 0.000000 0.026149
#
#
# Mechanical properties :
#
#
# Convention : Reuss Voigt Hill
#
# Bulk Modulus (GPa) = 54.08558 57.13611 55.61085
# Shear Modulus (GPa) = 34.53283 37.60273 36.06778
#
# Velocity S-wave (km/s) = 3.75983 3.92339 3.84248
# Velocity P-wave (km/s) = 6.40225 6.62670 6.51544
#
# Compressibility (1/GPa) = 0.01848921
#
# Stress axis : x y z
#
# Youngs Moduli (GPa) = 64.28576 91.68334 77.17807
#
# Poissons Ratio (x) = 0.12534 0.40676
# Poissons Ratio (y) = 0.08789 0.29542
# Poissons Ratio (z) = 0.33881 0.35094
#
# Static dielectric constant tensor:
#      x y z
#    x 1.930250 0.000000 -0.058660 
#    y 0.000000 2.014590 0.000000 
#    z -0.058660 0.000000 1.892950 
# 
# From -- ./inp_files/54625.got.cif
#   From: 2010.05.17/outbox.cif.g08.bks.cpg/sg14_28_cif.got.tgz:54625.got - 2010.06.03 17:49:19.
