data_PCOD9244683
_publ_section_title
;
Structure prediction by ZEFSAII (Michael W. Deem and Ramdas Pophale) SiO2 
 PCOD9244683
Probable space group: P 21/C
;
_chemical_formula_sum "Si O2"
_cell_formula_units_Z 32
_cell_length_a 10.860279
_cell_length_b 8.316542
_cell_length_c 14.625711
_cell_angle_alpha 90.000000
_cell_angle_beta 76.556991
_cell_angle_gamma 90.000000
_cell_volume 1284.800669
_symmetry_space_group_name_H-M "P 21/C"
_symmetry_group_IT_number 14
_symmetry_cell_setting 'monoclinic'
loop_
_space_group_symop_operation_xyz
x,y,z
-x,1/2+y,1/2-z
-x,-y,-z
x,1/2-y,1/2+z
loop_
_atom_site_type_symbol
_atom_site_label
_atom_site_fract_x
_atom_site_fract_y
_atom_site_fract_z
Si Si1 0.336347 0.118721 0.214311
Si Si2 0.566712 0.900207 0.599451
Si Si3 0.948872 0.646381 0.637171
Si Si4 0.399650 0.777227 0.888559
Si Si5 0.056409 0.949408 0.680481
Si Si6 0.773779 0.798088 0.418362
Si Si7 0.697841 0.250893 0.300457
Si Si8 0.180421 0.971540 0.991094
O O1 0.363866 0.141553 0.316577
O O2 0.474277 0.119876 0.142770
O O3 0.265985 0.269299 0.180020
O O4 0.284136 0.942891 0.200266
O O5 0.655847 0.846222 0.501360
O O6 0.428298 0.818253 0.627378
O O7 0.562685 0.093815 0.597828
O O8 0.980563 0.548637 0.723372
O O9 0.836527 0.553635 0.605414
O O10 0.945810 0.834358 0.663001
O O11 0.060965 0.632409 0.542850
O O12 0.331481 0.779069 0.801555
O O13 0.302836 0.860317 0.973823
O O14 0.176782 0.838062 0.686595
O O15 0.112845 0.075197 0.598155
O O16 0.815216 0.624526 0.444710
#
# Coordination Sequence:
#
# PCOD9244683 Si02
#       8
#     4   4   4   4   4   4   4   4
#     4  10  23  40  67 103 142 179 222 267 338 423
#     4  10  23  40  65 106 141 175 223 270 334 423
#     4  11  26  45  69  95 133 174 237 292 343 390
#     4  10  20  42  69  99 141 181 216 277 342 403
#     4  12  25  46  69  98 132 179 228 292 338 408
#     4  12  26  41  69 102 134 185 219 275 345 412
#     4  10  21  41  69  99 137 181 220 279 342 403
#     4  11  24  45  68  98 134 180 226 288 340 403
#
# _framework density 24.906587999999999
#
# number of rings (size 3 to 8) (size 9 to 14) (size 15 to 20)
#    0.000    1.250    1.250    3.750    1.750    7.500 
#    2.250    0.000    0.000    0.000    0.000    0.000 
#    0.000    0.000    0.000    0.000    0.000    0.000 
#
# Total GULP energy -179347.458241 kJ/mol
# GULP energy per Si atom -5604.608070 kJ/mol
# Density = 2.484990 g / cm^3
# Si number density = 24.906588 Si / 1000 Ang^3
#
#
#
# Elastic Constant Matrix: (Units=GPa)
#
#
# Indices 1 2 3 4 5 6 
#
# 1 66.9782 32.6590 24.9393 0.0000 -8.7401 0.0000
# 2 32.6590 114.3697 39.6938 0.0000 -2.8879 0.0000
# 3 24.9393 39.6938 95.9661 0.0000 -4.9035 0.0000
# 4 0.0000 0.0000 0.0000 43.1053 0.0000 -8.9200
# 5 -8.7401 -2.8879 -4.9035 0.0000 32.9386 0.0000
# 6 0.0000 0.0000 0.0000 -8.9200 0.0000 46.9641
#
#
#
# Elastic Compliance Matrix: (Units=1/GPa)
#
#
# Indices 1 2 3 4 5 6 
#
# 1 0.018593 -0.004205 -0.002881 0.000000 0.004136 0.000000
# 2 -0.004205 0.011162 -0.003558 0.000000 -0.000667 0.000000
# 3 -0.002881 -0.003558 0.012682 0.000000 0.000811 0.000000
# 4 0.000000 0.000000 0.000000 0.024148 0.000000 0.004586
# 5 0.004136 -0.000667 0.000811 0.000000 0.031519 0.000000
# 6 0.000000 0.000000 0.000000 0.004586 0.000000 0.022164
#
#
# Mechanical properties :
#
#
# Convention : Reuss Voigt Hill
#
# Bulk Modulus (GPa) = 47.28404 52.43312 49.85858
# Shear Modulus (GPa) = 33.64551 36.60307 35.12429
#
# Velocity S-wave (km/s) = 3.67940 3.83771 3.75939
# Velocity P-wave (km/s) = 6.08904 6.38240 6.23744
#
# Compressibility (1/GPa) = 0.02114879
#
# Stress axis : x y z
#
# Youngs Moduli (GPa) = 53.78329 89.58593 78.84929
#
# Poissons Ratio (x) = 0.37670 0.22719
# Poissons Ratio (y) = 0.22616 0.28057
# Poissons Ratio (z) = 0.15497 0.31878
#
# Static dielectric constant tensor:
#      x y z
#    x 1.980420 0.000000 0.024180 
#    y 0.000000 1.939700 0.000000 
#    z 0.024180 0.000000 1.994170 
# 
# From -- ./inp_files/43675.got.cif
#   From: 2010.05.17/outbox.cif.g08.bks.cpg/sg14_22_cif.got.tgz:43675.got - 2010.06.03 17:49:19.
