data_PCOD9244690
_publ_section_title
;
Structure prediction by ZEFSAII (Michael W. Deem and Ramdas Pophale) SiO2 
 PCOD9244690
Probable space group: P 21/C
;
_chemical_formula_sum "Si O2"
_cell_formula_units_Z 32
_cell_length_a 15.619881
_cell_length_b 8.578893
_cell_length_c 13.515637
_cell_angle_alpha 90.000000
_cell_angle_beta 44.061472
_cell_angle_gamma 90.000000
_cell_volume 1259.501682
_symmetry_space_group_name_H-M "P 21/C"
_symmetry_group_IT_number 14
_symmetry_cell_setting 'monoclinic'
loop_
_space_group_symop_operation_xyz
x,y,z
-x,1/2+y,1/2-z
-x,-y,-z
x,1/2-y,1/2+z
loop_
_atom_site_type_symbol
_atom_site_label
_atom_site_fract_x
_atom_site_fract_y
_atom_site_fract_z
Si Si1 0.516978 0.772325 0.448727
Si Si2 0.700170 0.524821 0.537585
Si Si3 0.970296 0.920586 0.314082
Si Si4 0.310328 0.661417 0.965409
Si Si5 0.429410 0.563111 0.682718
Si Si6 0.768179 0.600987 0.696956
Si Si7 0.119803 0.171225 0.253584
Si Si8 0.914291 0.382227 0.703491
O O1 0.430474 0.840169 0.435357
O O2 0.430772 0.715395 0.611020
O O3 0.571235 0.603107 0.370938
O O4 0.635523 0.882924 0.363320
O O5 0.704213 0.340792 0.552523
O O6 0.561376 0.572554 0.626945
O O7 0.738971 0.607363 0.606350
O O8 0.777048 0.554768 0.373518
O O9 0.039390 0.792669 0.325127
O O10 0.877029 0.802854 0.335663
O O11 0.991256 0.078069 0.360834
O O12 0.014409 0.000350 0.170741
O O13 0.327864 0.564761 0.851639
O O14 0.194958 0.608214 0.124493
O O15 0.846237 0.746362 0.673375
O O16 0.851386 0.452677 0.659039
#
# Coordination Sequence:
#
# PCOD9244690 Si02
#       8
#     4   4   4   4   4   4   4   4
#     4  10  22  39  61  95 137 172 209 255 315 391
#     4  11  22  40  62  96 134 173 209 266 323 380
#     4   9  20  42  69  90 122 173 217 272 327 378
#     4  11  23  39  65  97 133 172 212 260 319 389
#     4  10  22  39  61  91 137 178 207 253 318 389
#     4  11  23  39  66 100 129 172 214 260 320 393
#     4  10  20  42  70  90 131 170 217 268 333 374
#     4  10  22  40  69  97 122 172 214 270 328 378
#
# _framework density 25.406873000000001
#
# number of rings (size 3 to 8) (size 9 to 14) (size 15 to 20)
#    0.000    1.750    3.750    0.000    1.750    4.500 
#    0.000    6.250    0.000    0.000    0.000    0.000 
#    0.000    0.000    0.000    0.000    0.000    0.000 
#
# Total GULP energy -178495.539631 kJ/mol
# GULP energy per Si atom -5577.985613 kJ/mol
# Density = 2.534905 g / cm^3
# Si number density = 25.406873 Si / 1000 Ang^3
#
#
#
# Elastic Constant Matrix: (Units=GPa)
#
#
# Indices 1 2 3 4 5 6 
#
# 1 120.2777 36.0353 -2.9368 0.0000 13.9340 0.0000
# 2 36.0353 58.2511 -15.5844 0.0000 17.0926 0.0000
# 3 -2.9368 -15.5844 68.5585 0.0000 6.7177 0.0000
# 4 0.0000 0.0000 0.0000 20.3771 0.0000 2.1234
# 5 13.9340 17.0926 6.7177 0.0000 31.1484 0.0000
# 6 0.0000 0.0000 0.0000 2.1234 0.0000 36.2937
#
#
#
# Elastic Compliance Matrix: (Units=1/GPa)
#
#
# Indices 1 2 3 4 5 6 
#
# 1 0.010300 -0.006341 -0.000909 0.000000 -0.000932 0.000000
# 2 -0.006341 0.026979 0.007186 0.000000 -0.013517 0.000000
# 3 -0.000909 0.007186 0.016884 0.000000 -0.007178 0.000000
# 4 0.000000 0.000000 0.000000 0.049376 0.000000 -0.002889
# 5 -0.000932 -0.013517 -0.007178 0.000000 0.041487 0.000000
# 6 0.000000 0.000000 0.000000 -0.002889 0.000000 0.027722
#
#
# Mechanical properties :
#
#
# Convention : Reuss Voigt Hill
#
# Bulk Modulus (GPa) = 18.50737 31.34617 24.92677
# Shear Modulus (GPa) = 26.19344 32.86873 29.53108
#
# Velocity S-wave (km/s) = 3.21434 3.60070 3.41299
# Velocity P-wave (km/s) = 4.59088 5.44529 5.03624
#
# Compressibility (1/GPa) = 0.05403254
#
# Stress axis : x y z
#
# Youngs Moduli (GPa) = 97.08993 37.06611 59.22825
#
# Poissons Ratio (x) = 0.23505 0.05384
# Poissons Ratio (y) = 0.61569 -0.42559
# Poissons Ratio (z) = 0.08826 -0.26634
#
# Static dielectric constant tensor:
#      x y z
#    x 2.170800 0.000000 -0.135900 
#    y 0.000000 2.044180 0.000000 
#    z -0.135900 0.000000 2.078610 
# 
# From -- ./inp_files/46500.got.cif
#   From: 2010.05.17/outbox.cif.g08.bks.cpg/sg14_24_cif.got.tgz:46500.got - 2010.06.03 17:49:19.
