data_PCOD9244842
_publ_section_title
;
Structure prediction by ZEFSAII (Michael W. Deem and Ramdas Pophale) SiO2 
 PCOD9244842
Probable space group: P 21/C
;
_chemical_formula_sum "Si O2"
_cell_formula_units_Z 28
_cell_length_a 27.124276
_cell_length_b 6.790264
_cell_length_c 24.212486
_cell_angle_alpha 90.000000
_cell_angle_beta 14.856190
_cell_angle_gamma 90.000000
_cell_volume 1143.382958
_symmetry_space_group_name_H-M "P 21/C"
_symmetry_group_IT_number 14
_symmetry_cell_setting 'monoclinic'
loop_
_space_group_symop_operation_xyz
x,y,z
-x,1/2+y,1/2-z
-x,-y,-z
x,1/2-y,1/2+z
loop_
_atom_site_type_symbol
_atom_site_label
_atom_site_fract_x
_atom_site_fract_y
_atom_site_fract_z
Si Si1 0.952905 0.854440 0.364953
Si Si2 0.782343 0.002822 0.651482
Si Si3 0.119232 0.700217 0.535530
Si Si4 0.450826 0.077422 0.406632
Si Si5 0.359245 0.865363 0.969190
Si Si6 0.660286 0.601442 0.400788
Si Si7 0.261262 0.128629 0.503313
O O1 0.834398 0.755848 0.444470
O O2 0.182292 0.847013 0.118225
O O3 0.868919 0.833120 0.517713
O O4 0.899106 0.087661 0.413861
O O5 0.882759 0.210023 0.524756
O O6 0.559589 0.034766 0.874975
O O7 0.783914 0.946484 0.713360
O O8 0.324529 0.612219 0.326894
O O9 0.941489 0.565587 0.746887
O O10 0.408542 0.853777 0.436951
O O11 0.349441 0.171171 0.570068
O O12 0.366764 0.196447 0.444984
O O13 0.549429 0.949793 0.733663
O O14 0.288348 0.979504 0.100172
#
# Coordination Sequence:
#
# PCOD9244842 Si02
#       7
#     4   4   4   4   4   4   4
#     4  10  23  42  66 101 134 192 232 284 362 425
#     4   8  19  43  76  90 135 192 239 284 361 428
#     4   9  22  43  66  98 134 192 233 282 360 425
#     4  11  26  41  67 106 137 182 239 298 356 428
#     4  12  26  40  69 103 139 183 236 299 364 422
#     4  10  20  48  70  99 136 189 234 300 357 423
#     4  12  24  39  64  96 149 176 233 295 352 433
#
# _framework density 24.488733
#
# number of rings (size 3 to 8) (size 9 to 14) (size 15 to 20)
#    0.857    0.857    1.429    1.714   10.000    0.571 
#    0.000    7.143    0.000    0.000    0.000    0.000 
#    0.000    0.000    0.000    0.000    0.000    0.000 
#
# Total GULP energy -155947.589658 kJ/mol
# GULP energy per Si atom -5569.556774 kJ/mol
# Density = 2.443300 g / cm^3
# Si number density = 24.488733 Si / 1000 Ang^3
#
#
#
# Elastic Constant Matrix: (Units=GPa)
#
#
# Indices 1 2 3 4 5 6 
#
# 1 91.4732 1.8675 51.3022 0.0000 25.0632 0.0000
# 2 1.8675 52.9884 4.7251 0.0000 -3.0889 0.0000
# 3 51.3022 4.7251 137.3935 0.0000 3.5376 0.0000
# 4 0.0000 0.0000 0.0000 26.5395 0.0000 0.3187
# 5 25.0632 -3.0889 3.5376 0.0000 55.9033 0.0000
# 6 0.0000 0.0000 0.0000 0.3187 0.0000 11.3816
#
#
#
# Elastic Compliance Matrix: (Units=1/GPa)
#
#
# Indices 1 2 3 4 5 6 
#
# 1 0.016083 -0.000449 -0.005813 0.000000 -0.006868 0.000000
# 2 -0.000449 0.019009 -0.000519 0.000000 0.001284 0.000000
# 3 -0.005813 -0.000519 0.009416 0.000000 0.001982 0.000000
# 4 0.000000 0.000000 0.000000 0.037692 0.000000 -0.001055
# 5 -0.006868 0.001284 0.001982 0.000000 0.020913 0.000000
# 6 0.000000 0.000000 0.000000 -0.001055 0.000000 0.087891
#
#
# Mechanical properties :
#
#
# Convention : Reuss Voigt Hill
#
# Bulk Modulus (GPa) = 32.31461 44.18273 38.24867
# Shear Modulus (GPa) = 23.26865 33.69558 28.48211
#
# Velocity S-wave (km/s) = 3.08584 3.71342 3.41408
# Velocity P-wave (km/s) = 5.09126 6.03881 5.58516
#
# Compressibility (1/GPa) = 0.03094575
#
# Stress axis : x y z
#
# Youngs Moduli (GPa) = 62.17635 52.60656 106.20433
#
# Poissons Ratio (x) = 0.02361 0.61738
# Poissons Ratio (y) = 0.02790 0.05515
# Poissons Ratio (z) = 0.36144 0.02732
#
# Static dielectric constant tensor:
#      x y z
#    x 1.948670 0.000000 0.002180 
#    y 0.000000 2.169270 0.000000 
#    z 0.002180 0.000000 1.978580 
# 
# From -- ./inp_files/70266.got.cif
#   From: 2010.05.17/outbox.cif.g08.bks.cpg/sg14_36_cif.got.tgz:70266.got - 2010.06.03 17:49:19.
