data_PCOD9244189
_publ_section_title
;
Structure prediction by ZEFSAII (Michael W. Deem and Ramdas Pophale) SiO2 
 PCOD9244189
Probable space group: P 21/C
;
_chemical_formula_sum "Si O2"
_cell_formula_units_Z 32
_cell_length_a 17.123550
_cell_length_b 17.770609
_cell_length_c 10.482335
_cell_angle_alpha 90.000000
_cell_angle_beta 27.419850
_cell_angle_gamma 90.000000
_cell_volume 1468.894851
_symmetry_space_group_name_H-M "P 21/C"
_symmetry_group_IT_number 14
_symmetry_cell_setting 'monoclinic'
loop_
_space_group_symop_operation_xyz
x,y,z
-x,1/2+y,1/2-z
-x,-y,-z
x,1/2-y,1/2+z
loop_
_atom_site_type_symbol
_atom_site_label
_atom_site_fract_x
_atom_site_fract_y
_atom_site_fract_z
Si Si1 0.320753 0.947964 0.595803
Si Si2 0.602484 0.309064 0.301926
Si Si3 0.154587 0.308383 0.682854
Si Si4 0.235519 0.388318 0.818013
Si Si5 0.219303 0.960477 0.457965
Si Si6 0.017760 0.347698 0.381638
Si Si7 0.846977 0.916596 0.055351
Si Si8 0.468398 0.798047 0.373211
O O1 0.307513 0.973782 0.467462
O O2 0.473035 0.888668 0.385994
O O3 0.159056 0.892647 0.854914
O O4 0.299806 0.021311 0.713057
O O5 0.413771 0.345063 0.572770
O O6 0.631953 0.284603 0.112964
O O7 0.606577 0.242423 0.395841
O O8 0.728836 0.376218 0.154519
O O9 0.147970 0.363501 0.813620
O O10 0.015518 0.242930 0.889175
O O11 0.163379 0.354390 0.538967
O O12 0.340097 0.269405 0.423486
O O13 0.268717 0.477060 0.784431
O O14 0.116425 0.367521 0.109396
O O15 0.019166 0.962160 0.774290
O O16 0.120563 0.376384 0.356450
#
# Coordination Sequence:
#
# PCOD9244189 Si02
#       8
#     4   4   4   4   4   4   4   4
#     4  10  21  41  64  86 118 163 201 241 290 365
#     4  10  22  39  62  87 121 156 201 250 292 355
#     4  11  25  37  58  94 121 151 196 254 296 348
#     4  11  20  39  62  86 122 157 197 247 298 350
#     4  10  20  40  62  89 115 160 205 239 297 358
#     4  11  20  40  66  82 116 162 200 237 300 356
#     4  11  22  40  64  87 120 158 201 242 294 362
#     4  10  23  41  58  88 121 155 203 243 296 351
#
# _framework density 21.785084000000001
#
# number of rings (size 3 to 8) (size 9 to 14) (size 15 to 20)
#    0.000    1.500    3.750    1.875    3.500    1.000 
#    4.500    0.000    0.000    0.000    0.000    0.000 
#    0.000    0.000    0.000    0.000    0.000    0.000 
#
# Total GULP energy -178800.453434 kJ/mol
# GULP energy per Si atom -5587.514170 kJ/mol
# Density = 2.173550 g / cm^3
# Si number density = 21.785084 Si / 1000 Ang^3
#
#
#
# Elastic Constant Matrix: (Units=GPa)
#
#
# Indices 1 2 3 4 5 6 
#
# 1 48.6682 28.8297 9.5097 0.0000 28.2631 0.0000
# 2 28.8297 89.7624 -6.8050 0.0000 20.8359 0.0000
# 3 9.5097 -6.8050 48.5455 0.0000 15.3860 0.0000
# 4 0.0000 0.0000 0.0000 43.7373 0.0000 14.4107
# 5 28.2631 20.8359 15.3860 0.0000 36.4760 0.0000
# 6 0.0000 0.0000 0.0000 14.4107 0.0000 28.0854
#
#
#
# Elastic Compliance Matrix: (Units=1/GPa)
#
#
# Indices 1 2 3 4 5 6 
#
# 1 0.040483 -0.006622 -0.000134 0.000000 -0.027529 0.000000
# 2 -0.006622 0.014957 0.005166 0.000000 -0.005592 0.000000
# 3 -0.000134 0.005166 0.025686 0.000000 -0.013682 0.000000
# 4 0.000000 0.000000 0.000000 0.027516 0.000000 -0.014118
# 5 -0.027529 -0.005592 -0.013682 0.000000 0.057711 0.000000
# 6 0.000000 0.000000 0.000000 -0.014118 0.000000 0.042850
#
#
# Mechanical properties :
#
#
# Convention : Reuss Voigt Hill
#
# Bulk Modulus (GPa) = 12.82929 27.78277 20.30603
# Shear Modulus (GPa) = 20.97624 32.02252 26.49938
#
# Velocity S-wave (km/s) = 3.10638 3.83812 3.49148
# Velocity P-wave (km/s) = 4.33220 5.69407 5.05917
#
# Compressibility (1/GPa) = 0.07794664
#
# Stress axis : x y z
#
# Youngs Moduli (GPa) = 24.70159 66.85784 38.93166
#
# Poissons Ratio (x) = 0.44276 0.00520
# Poissons Ratio (y) = 0.16358 -0.20113
# Poissons Ratio (z) = 0.00330 -0.34540
#
# Static dielectric constant tensor:
#      x y z
#    x 1.787900 0.000000 -0.020930 
#    y 0.000000 1.842650 0.000000 
#    z -0.020930 0.000000 1.800730 
# 
# From -- ./inp_files/35322.got.cif
#   From: 2010.05.17/outbox.cif.g08.bks.cpg/sg14_18_cif.got.tgz:35322.got - 2010.06.03 17:49:19.
