data_PCOD9244231
_publ_section_title
;
Structure prediction by ZEFSAII (Michael W. Deem and Ramdas Pophale) SiO2 
 PCOD9244231
Probable space group: P 21/C
;
_chemical_formula_sum "Si O2"
_cell_formula_units_Z 26
_cell_length_a 7.279039
_cell_length_b 11.359788
_cell_length_c 14.318582
_cell_angle_alpha 90.000000
_cell_angle_beta 124.289919
_cell_angle_gamma 90.000000
_cell_volume 978.201050
_symmetry_space_group_name_H-M "P 21/C"
_symmetry_group_IT_number 14
_symmetry_cell_setting 'monoclinic'
loop_
_space_group_symop_operation_xyz
x,y,z
-x,1/2+y,1/2-z
-x,-y,-z
x,1/2-y,1/2+z
loop_
_atom_site_type_symbol
_atom_site_label
_atom_site_fract_x
_atom_site_fract_y
_atom_site_fract_z
Si Si1 0.888612 0.735290 0.869711
Si Si2 0.790294 0.226653 0.788442
Si Si3 0.453087 0.507666 0.854781
Si Si4 0.307948 0.864077 0.029981
Si Si5 0.444669 0.102587 0.148018
Si Si6 0.000000 0.000000 0.500000
Si Si7 0.718029 0.728259 0.117153
O O1 0.704519 0.781109 0.889352
O O2 0.005071 0.617903 0.937296
O O3 0.072000 0.838138 0.916886
O O4 0.774978 0.722251 0.737284
O O5 0.709705 0.194658 0.870655
O O6 0.695720 0.351550 0.725516
O O7 0.053228 0.245365 0.868958
O O8 0.696022 0.126064 0.692517
O O9 0.407026 0.453799 0.739161
O O10 0.720714 0.517457 0.932435
O O11 0.355645 0.407806 0.896016
O O12 0.500674 0.800492 0.027301
O O13 0.365614 0.000390 0.057708
#
# Coordination Sequence:
#
# PCOD9244231 Si02
#       7
#     4   4   4   4   4   2   4
#     4  11  21  41  64  93 128 167 218 268 323 398
#     4  11  22  42  65  92 129 172 218 264 331 390
#     4  10  21  40  65  93 131 170 218 270 324 389
#     4  11  22  42  65  89 125 175 213 268 324 391
#     4  10  20  40  64  89 124 174 208 264 329 381
#     4  12  18  38  70  90 126 174 214 266 326 388
#     4  11  24  42  62  97 132 167 214 276 329 383
#
# _framework density 26.579402999999999
#
# number of rings (size 3 to 8) (size 9 to 14) (size 15 to 20)
#    0.000    1.231    6.154    1.385    2.154    0.000 
#    2.769    1.538    0.000    0.000    0.000    0.000 
#    0.000    0.000    0.000    0.000    0.000    0.000 
#
# Total GULP energy -145221.971736 kJ/mol
# GULP energy per Si atom -5585.460451 kJ/mol
# Density = 2.651891 g / cm^3
# Si number density = 26.579403 Si / 1000 Ang^3
#
#
#
# Elastic Constant Matrix: (Units=GPa)
#
#
# Indices 1 2 3 4 5 6 
#
# 1 111.1642 22.3042 46.9308 0.0000 30.2247 0.0000
# 2 22.3042 95.1566 8.5084 0.0000 1.0927 0.0000
# 3 46.9308 8.5084 90.9679 0.0000 26.9723 0.0000
# 4 0.0000 0.0000 0.0000 42.6818 0.0000 14.9346
# 5 30.2247 1.0927 26.9723 0.0000 44.1216 0.0000
# 6 0.0000 0.0000 0.0000 14.9346 0.0000 23.2402
#
#
#
# Elastic Compliance Matrix: (Units=1/GPa)
#
#
# Indices 1 2 3 4 5 6 
#
# 1 0.013169 -0.002592 -0.004758 0.000000 -0.006048 0.000000
# 2 -0.002592 0.011114 -0.000180 0.000000 0.001610 0.000000
# 3 -0.004758 -0.000180 0.015263 0.000000 -0.006067 0.000000
# 4 0.000000 0.000000 0.000000 0.030226 0.000000 -0.019424
# 5 -0.006048 0.001610 -0.006067 0.000000 0.030477 0.000000
# 6 0.000000 0.000000 0.000000 -0.019424 0.000000 0.055511
#
#
# Mechanical properties :
#
#
# Convention : Reuss Voigt Hill
#
# Bulk Modulus (GPa) = 40.83851 50.30838 45.57344
# Shear Modulus (GPa) = 27.93585 36.64507 32.29046
#
# Velocity S-wave (km/s) = 3.24548 3.71712 3.48928
# Velocity P-wave (km/s) = 5.42607 6.11484 5.78072
#
# Compressibility (1/GPa) = 0.02448669
#
# Stress axis : x y z
#
# Youngs Moduli (GPa) = 75.93596 89.97584 65.51665
#
# Poissons Ratio (x) = 0.23320 0.31174
# Poissons Ratio (y) = 0.19681 0.01178
# Poissons Ratio (z) = 0.36132 0.01618
#
# Static dielectric constant tensor:
#      x y z
#    x 2.113240 0.000000 -0.062210 
#    y 0.000000 2.044800 0.000000 
#    z -0.062210 0.000000 2.020270 
# 
# From -- ./inp_files/72237.got.cif
#   From: 2010.05.17/outbox.cif.g08.bks.cpg/sg14_37_cif.got.tgz:72237.got - 2010.06.03 17:49:19.
