data_PCOD9244305
_publ_section_title
;
Structure prediction by ZEFSAII (Michael W. Deem and Ramdas Pophale) SiO2 
 PCOD9244305
Probable space group: P 21/C
;
_chemical_formula_sum "Si O2"
_cell_formula_units_Z 30
_cell_length_a 7.709507
_cell_length_b 7.126838
_cell_length_c 27.337125
_cell_angle_alpha 90.000000
_cell_angle_beta 130.339903
_cell_angle_gamma 90.000000
_cell_volume 1144.867850
_symmetry_space_group_name_H-M "P 21/C"
_symmetry_group_IT_number 14
_symmetry_cell_setting 'monoclinic'
loop_
_space_group_symop_operation_xyz
x,y,z
-x,1/2+y,1/2-z
-x,-y,-z
x,1/2-y,1/2+z
loop_
_atom_site_type_symbol
_atom_site_label
_atom_site_fract_x
_atom_site_fract_y
_atom_site_fract_z
Si Si1 0.616090 0.243914 0.862100
Si Si2 0.458711 0.332703 0.673321
Si Si3 0.668453 0.274982 0.116828
Si Si4 0.191197 0.317815 0.721976
Si Si5 0.755507 0.792871 0.561730
Si Si6 0.500000 0.000000 0.000000
Si Si7 0.855352 0.239344 0.305275
Si Si8 0.647851 0.090914 0.470798
O O1 0.353086 0.280081 0.798102
O O2 0.753126 0.309578 0.839678
O O3 0.699588 0.335494 0.927346
O O4 0.647292 0.020836 0.866885
O O5 0.516630 0.205088 0.638082
O O6 0.318930 0.257364 0.694467
O O7 0.710858 0.378643 0.740828
O O8 0.577128 0.456381 0.070565
O O9 0.599083 0.093936 0.073432
O O10 0.937050 0.265515 0.176931
O O11 0.179858 0.543822 0.714663
O O12 0.771907 0.592733 0.538339
O O13 0.807033 0.959779 0.532528
O O14 0.884631 0.792467 0.636301
O O15 0.477031 0.740267 0.522252
#
# Coordination Sequence:
#
# PCOD9244305 Si02
#       8
#     4   4   4   4   4   2   4   4
#     4  10  22  38  60  90 129 159 205 262 308 384
#     4  10  23  39  63  95 126 162 208 258 315 372
#     4  11  22  39  66  89 124 170 202 261 313 369
#     4  10  22  39  61  95 124 162 209 259 316 372
#     4  10  21  39  63  87 121 164 206 263 305 371
#     4  10  20  40  66  90 120 162 216 258 306 372
#     4  10  21  40  62  88 126 160 208 261 315 368
#     4  10  23  39  59  91 124 161 212 246 315 374
#
# _framework density 26.203899
#
# number of rings (size 3 to 8) (size 9 to 14) (size 15 to 20)
#    0.000    1.867    1.333    1.600    3.733    1.600 
#    0.000    0.667    8.800    0.000    0.000    0.000 
#    0.000    0.000    0.000    0.000    0.000    0.000 
#
# Total GULP energy -167148.213768 kJ/mol
# GULP energy per Si atom -5571.607126 kJ/mol
# Density = 2.614426 g / cm^3
# Si number density = 26.203899 Si / 1000 Ang^3
#
#
#
# Elastic Constant Matrix: (Units=GPa)
#
#
# Indices 1 2 3 4 5 6 
#
# 1 68.1954 4.5667 16.8944 0.0000 -15.1591 0.0000
# 2 4.5667 81.8782 -12.6425 0.0000 0.7045 0.0000
# 3 16.8944 -12.6425 18.0755 0.0000 -8.8807 0.0000
# 4 0.0000 0.0000 0.0000 35.5214 0.0000 -2.3923
# 5 -15.1591 0.7045 -8.8807 0.0000 46.0848 0.0000
# 6 0.0000 0.0000 0.0000 -2.3923 0.0000 16.5100
#
#
#
# Elastic Compliance Matrix: (Units=1/GPa)
#
#
# Indices 1 2 3 4 5 6 
#
# 1 0.020849 -0.004463 -0.021213 0.000000 0.002838 0.000000
# 2 -0.004463 0.014785 0.015110 0.000000 0.001218 0.000000
# 3 -0.021213 0.015110 0.090771 0.000000 0.010283 0.000000
# 4 0.000000 0.000000 0.000000 0.028430 0.000000 0.004119
# 5 0.002838 0.001218 0.010283 0.000000 0.024596 0.000000
# 6 0.000000 0.000000 0.000000 0.004119 0.000000 0.061166
#
#
# Mechanical properties :
#
#
# Convention : Reuss Voigt Hill
#
# Bulk Modulus (GPa) = 9.49909 20.64294 15.07101
# Shear Modulus (GPa) = 16.84531 30.24526 23.54529
#
# Velocity S-wave (km/s) = 2.53821 3.40108 3.00082
# Velocity P-wave (km/s) = 3.49613 4.82887 4.21551
#
# Compressibility (1/GPa) = 0.10527328
#
# Stress axis : x y z
#
# Youngs Moduli (GPa) = 47.96450 67.63704 11.01674
#
# Poissons Ratio (x) = 0.30184 0.23370
# Poissons Ratio (y) = 0.21405 -0.16647
# Poissons Ratio (z) = 1.01748 -1.02201
#
# Static dielectric constant tensor:
#      x y z
#    x 2.409070 0.000000 0.231190 
#    y 0.000000 3.224330 0.000000 
#    z 0.231190 0.000000 2.235000 
# 
# From -- ./inp_files/76519.got.cif
#   From: 2010.05.17/outbox.cif.g08.bks.cpg/sg14_39_cif.got.tgz:76519.got - 2010.06.03 17:49:19.
