data_PCOD9244676
_publ_section_title
;
Structure prediction by ZEFSAII (Michael W. Deem and Ramdas Pophale) SiO2 
 PCOD9244676
Probable space group: P 21/C
;
_chemical_formula_sum "Si O2"
_cell_formula_units_Z 26
_cell_length_a 15.015736
_cell_length_b 13.712418
_cell_length_c 11.946699
_cell_angle_alpha 90.000000
_cell_angle_beta 154.009589
_cell_angle_gamma 90.000000
_cell_volume 1077.957147
_symmetry_space_group_name_H-M "P 21/C"
_symmetry_group_IT_number 14
_symmetry_cell_setting 'monoclinic'
loop_
_space_group_symop_operation_xyz
x,y,z
-x,1/2+y,1/2-z
-x,-y,-z
x,1/2-y,1/2+z
loop_
_atom_site_type_symbol
_atom_site_label
_atom_site_fract_x
_atom_site_fract_y
_atom_site_fract_z
Si Si1 0.849281 0.335030 0.501014
Si Si2 0.228586 0.090072 0.562510
Si Si3 0.919101 0.894848 0.946811
Si Si4 0.464850 0.965741 0.247223
Si Si5 0.117135 0.633952 0.907892
Si Si6 0.500000 0.500000 0.000000
Si Si7 0.177836 0.071278 0.747360
O O1 0.677782 0.420727 0.311438
O O2 0.755358 0.231503 0.427948
O O3 0.975033 0.331023 0.529413
O O4 0.012592 0.367981 0.779743
O O5 0.395422 0.112784 0.656762
O O6 0.272998 0.114337 0.741367
O O7 0.220473 0.971283 0.541714
O O8 0.679228 0.910854 0.686795
O O9 0.008596 0.865733 0.166751
O O10 0.000000 0.000000 0.000000
O O11 0.567317 0.041715 0.446264
O O12 0.330826 0.010879 0.997856
O O13 0.938550 0.639776 0.798436
O O14 0.000000 0.000000 0.500000
#
# Coordination Sequence:
#
# PCOD9244676 Si02
#       7
#     4   4   4   4   4   2   4
#     4  12  25  41  69 100 139 180 229 286 346 409
#     4  11  23  44  67  96 137 181 224 279 351 407
#     4  12  21  44  70  98 135 184 229 288 346 411
#     4  12  22  42  69  99 134 180 229 279 343 409
#     4  11  24  43  70 101 136 181 232 289 343 413
#     4  12  20  38  74  94 130 178 230 278 346 400
#     4  10  20  42  69  88 129 183 217 270 342 404
#
# _framework density 24.119696999999999
#
# number of rings (size 3 to 8) (size 9 to 14) (size 15 to 20)
#    0.000    0.615    9.231    0.462    2.154    0.000 
#    2.769    0.000    6.769    0.000    0.000    0.000 
#    0.000    0.000    0.000    0.000    0.000    0.000 
#
# Total GULP energy -144745.653663 kJ/mol
# GULP energy per Si atom -5567.140525 kJ/mol
# Density = 2.406480 g / cm^3
# Si number density = 24.119697 Si / 1000 Ang^3
#
#
#
# Elastic Constant Matrix: (Units=GPa)
#
#
# Indices 1 2 3 4 5 6 
#
# 1 197.8175 -3.0575 40.8263 0.0000 -33.6266 0.0000
# 2 -3.0575 71.5814 -5.8534 0.0000 -3.3333 0.0000
# 3 40.8263 -5.8534 93.9915 0.0000 -14.3958 0.0000
# 4 0.0000 0.0000 0.0000 12.3221 0.0000 -2.7602
# 5 -33.6266 -3.3333 -14.3958 0.0000 48.3628 0.0000
# 6 0.0000 0.0000 0.0000 -2.7602 0.0000 11.7549
#
#
#
# Elastic Compliance Matrix: (Units=1/GPa)
#
#
# Indices 1 2 3 4 5 6 
#
# 1 0.006108 0.000261 -0.002078 0.000000 0.003646 0.000000
# 2 0.000261 0.014130 0.000989 0.000000 0.001449 0.000000
# 3 -0.002078 0.000989 0.011937 0.000000 0.002176 0.000000
# 4 0.000000 0.000000 0.000000 0.085661 0.000000 0.020114
# 5 0.003646 0.001449 0.002176 0.000000 0.023960 0.000000
# 6 0.000000 0.000000 0.000000 0.020114 0.000000 0.089794
#
#
# Mechanical properties :
#
#
# Convention : Reuss Voigt Hill
#
# Bulk Modulus (GPa) = 32.76916 47.46903 40.11909
# Shear Modulus (GPa) = 20.54070 36.58630 28.56350
#
# Velocity S-wave (km/s) = 2.92141 3.89892 3.44501
# Velocity P-wave (km/s) = 4.99951 6.32393 5.70031
#
# Compressibility (1/GPa) = 0.03051650
#
# Stress axis : x y z
#
# Youngs Moduli (GPa) = 163.72139 70.77351 83.77382
#
# Poissons Ratio (x) = -0.01845 0.17411
# Poissons Ratio (y) = -0.04269 -0.08283
# Poissons Ratio (z) = 0.34027 -0.06997
#
# Static dielectric constant tensor:
#      x y z
#    x 1.875060 0.000000 0.666540 
#    y 0.000000 1.214570 0.000000 
#    z 0.666540 0.000000 1.332250 
# 
# From -- ./inp_files/32838.got.cif
#   From: 2010.05.17/outbox.cif.g08.bks.cpg/sg14_17_cif.got.tgz:32838.got - 2010.06.03 17:49:19.
