data_PCOD9244039
_publ_section_title
;
Structure prediction by ZEFSAII (Michael W. Deem and Ramdas Pophale) SiO2 
 PCOD9244039
Probable space group: P 21/C
;
_chemical_formula_sum "Si O2"
_cell_formula_units_Z 20
_cell_length_a 12.797744
_cell_length_b 7.694073
_cell_length_c 15.440763
_cell_angle_alpha 90.000000
_cell_angle_beta 26.885051
_cell_angle_gamma 90.000000
_cell_volume 687.528922
_symmetry_space_group_name_H-M "P 21/C"
_symmetry_group_IT_number 14
_symmetry_cell_setting 'monoclinic'
loop_
_space_group_symop_operation_xyz
x,y,z
-x,1/2+y,1/2-z
-x,-y,-z
x,1/2-y,1/2+z
loop_
_atom_site_type_symbol
_atom_site_label
_atom_site_fract_x
_atom_site_fract_y
_atom_site_fract_z
Si Si1 0.742617 0.878330 0.791429
Si Si2 0.619448 0.892666 0.080826
Si Si3 0.172098 0.037319 0.506330
Si Si4 0.534677 0.072811 0.570010
Si Si5 0.145537 0.894238 0.963085
O O1 0.566301 0.769231 0.860694
O O2 0.968674 0.758070 0.615078
O O3 0.628052 0.878148 0.970996
O O4 0.093955 0.551569 0.830592
O O5 0.357507 0.935414 0.306689
O O6 0.738816 0.733306 0.044262
O O7 0.783286 0.044326 0.994218
O O8 0.217985 0.944810 0.566241
O O9 0.500000 0.000000 0.500000
O O10 0.388959 0.933697 0.735029
O O11 0.000000 0.000000 0.000000
#
# Coordination Sequence:
#
# PCOD9244039 Si02
#       5
#     4   4   4   4   4
#     4  11  22  39  68  99 127 175 221 275 336 390
#     4  11  22  39  65  97 134 171 222 273 332 392
#     4  11  23  40  63  97 132 170 221 275 328 397
#     4  10  20  39  64  95 127 172 217 266 326 396
#     4   9  21  40  65  94 128 170 222 263 325 396
#
# _framework density 29.089684999999999
#
# number of rings (size 3 to 8) (size 9 to 14) (size 15 to 20)
#    0.000    1.600    2.000    3.600    2.800    0.000 
#    0.000    9.000    0.000   25.200    0.000    0.000 
#    0.000    0.000    0.000    0.000    0.000    0.000 
#
# Total GULP energy -111570.673216 kJ/mol
# GULP energy per Si atom -5578.533661 kJ/mol
# Density = 2.902348 g / cm^3
# Si number density = 29.089685 Si / 1000 Ang^3
#
#
#
# Elastic Constant Matrix: (Units=GPa)
#
#
# Indices 1 2 3 4 5 6 
#
# 1 158.4566 0.4238 9.4095 0.0000 7.6878 0.0000
# 2 0.4238 63.7518 10.4848 0.0000 -0.1407 0.0000
# 3 9.4095 10.4848 119.0384 0.0000 7.5813 0.0000
# 4 0.0000 0.0000 0.0000 26.7069 0.0000 16.7197
# 5 7.6878 -0.1407 7.5813 0.0000 63.3409 0.0000
# 6 0.0000 0.0000 0.0000 16.7197 0.0000 38.3210
#
#
#
# Elastic Compliance Matrix: (Units=1/GPa)
#
#
# Indices 1 2 3 4 5 6 
#
# 1 0.006373 0.000032 -0.000461 0.000000 -0.000718 0.000000
# 2 0.000032 0.015919 -0.001417 0.000000 0.000201 0.000000
# 3 -0.000461 -0.001417 0.008624 0.000000 -0.000979 0.000000
# 4 0.000000 0.000000 0.000000 0.051515 0.000000 -0.022476
# 5 -0.000718 0.000201 -0.000979 0.000000 0.015992 0.000000
# 6 0.000000 0.000000 0.000000 -0.022476 0.000000 0.035902
#
#
# Mechanical properties :
#
#
# Convention : Reuss Voigt Hill
#
# Bulk Modulus (GPa) = 36.73288 42.43147 39.58217
# Shear Modulus (GPa) = 33.99218 47.06900 40.53059
#
# Velocity S-wave (km/s) = 3.42209 4.02688 3.73674
# Velocity P-wave (km/s) = 5.31687 6.01989 5.67927
#
# Compressibility (1/GPa) = 0.02722357
#
# Stress axis : x y z
#
# Youngs Moduli (GPa) = 156.91190 62.81723 115.95136
#
# Poissons Ratio (x) = -0.00200 0.05343
# Poissons Ratio (y) = -0.00499 0.16436
# Poissons Ratio (z) = 0.07231 0.08904
#
# Static dielectric constant tensor:
#      x y z
#    x -0.752050 0.000000 -0.477980 
#    y 0.000000 2.719810 0.000000 
#    z -0.477980 0.000000 2.254730 
# 
# From -- ./inp_files/38811.got.cif
#   From: 2010.05.17/outbox.cif.g08.bks.cpg/sg14_20_cif.got.tgz:38811.got - 2010.06.03 17:49:19.
