data_PCOD9244747
_publ_section_title
;
Structure prediction by ZEFSAII (Michael W. Deem and Ramdas Pophale) SiO2 
 PCOD9244747
Probable space group: P 21/C
;
_chemical_formula_sum "Si O2"
_cell_formula_units_Z 28
_cell_length_a 9.783159
_cell_length_b 13.659801
_cell_length_c 20.883366
_cell_angle_alpha 90.000000
_cell_angle_beta 154.426802
_cell_angle_gamma 90.000000
_cell_volume 1204.674323
_symmetry_space_group_name_H-M "P 21/C"
_symmetry_group_IT_number 14
_symmetry_cell_setting 'monoclinic'
loop_
_space_group_symop_operation_xyz
x,y,z
-x,1/2+y,1/2-z
-x,-y,-z
x,1/2-y,1/2+z
loop_
_atom_site_type_symbol
_atom_site_label
_atom_site_fract_x
_atom_site_fract_y
_atom_site_fract_z
Si Si1 0.333142 0.448647 0.719317
Si Si2 0.349545 0.378560 0.384694
Si Si3 0.975951 0.134789 0.531904
Si Si4 0.035922 0.778138 0.862889
Si Si5 0.863141 0.372513 0.283153
Si Si6 0.853061 0.824013 0.538635
Si Si7 0.625711 0.486645 0.721143
O O1 0.697533 0.440044 0.896753
O O2 0.195154 0.549840 0.685614
O O3 0.355531 0.439490 0.651842
O O4 0.162135 0.360887 0.683799
O O5 0.667216 0.329264 0.545749
O O6 0.448696 0.464585 0.377765
O O7 0.162032 0.292332 0.267118
O O8 0.098622 0.416263 0.329865
O O9 0.843604 0.211201 0.527295
O O10 0.089409 0.182020 0.513757
O O11 0.255208 0.078480 0.685820
O O12 0.030958 0.275136 0.379834
O O13 0.516585 0.347226 0.108026
O O14 0.084722 0.910450 0.661223
#
# Coordination Sequence:
#
# PCOD9244747 Si02
#       7
#     4   4   4   4   4   4   4
#     4  11  22  41  69  97 130 168 221 275 325 379
#     4  11  26  44  65  97 134 176 219 264 332 395
#     4  10  20  43  68  99 126 170 221 273 324 388
#     4  11  24  42  71  96 130 174 219 273 327 389
#     4  12  26  43  65  98 136 180 214 270 324 394
#     4  11  24  40  68  97 132 172 223 269 326 384
#     4  10  22  42  68  97 127 170 224 271 324 391
#
# _framework density 23.242798000000001
#
# number of rings (size 3 to 8) (size 9 to 14) (size 15 to 20)
#    0.000    1.143    4.286    1.714    6.000    4.000 
#    0.000    0.000    0.000    0.000    0.000    0.000 
#    0.000    0.000    0.000    0.000    0.000    0.000 
#
# Total GULP energy -156717.559612 kJ/mol
# GULP energy per Si atom -5597.055700 kJ/mol
# Density = 2.318990 g / cm^3
# Si number density = 23.242798 Si / 1000 Ang^3
#
#
#
# Elastic Constant Matrix: (Units=GPa)
#
#
# Indices 1 2 3 4 5 6 
#
# 1 89.6029 17.9169 31.7044 0.0000 27.1979 0.0000
# 2 17.9169 64.2906 20.8886 0.0000 -6.7982 0.0000
# 3 31.7044 20.8886 80.4941 0.0000 13.5511 0.0000
# 4 0.0000 0.0000 0.0000 31.3264 0.0000 2.5466
# 5 27.1979 -6.7982 13.5511 0.0000 28.7441 0.0000
# 6 0.0000 0.0000 0.0000 2.5466 0.0000 34.0078
#
#
#
# Elastic Compliance Matrix: (Units=1/GPa)
#
#
# Indices 1 2 3 4 5 6 
#
# 1 0.018864 -0.006263 -0.002770 0.000000 -0.018025 0.000000
# 2 -0.006263 0.020311 -0.005008 0.000000 0.013091 0.000000
# 3 -0.002770 -0.005008 0.015828 0.000000 -0.006025 0.000000
# 4 0.000000 0.000000 0.000000 0.032117 0.000000 -0.002405
# 5 -0.018025 0.013091 -0.006025 0.000000 0.057781 0.000000
# 6 0.000000 0.000000 0.000000 -0.002405 0.000000 0.029585
#
#
# Mechanical properties :
#
#
# Convention : Reuss Voigt Hill
#
# Bulk Modulus (GPa) = 37.14546 41.71193 39.42870
# Shear Modulus (GPa) = 23.63583 29.74084 26.68834
#
# Velocity S-wave (km/s) = 3.19236 3.58099 3.39225
# Velocity P-wave (km/s) = 5.44099 5.92310 5.68716
#
# Compressibility (1/GPa) = 0.02692119
#
# Stress axis : x y z
#
# Youngs Moduli (GPa) = 53.01081 49.23420 63.17794
#
# Poissons Ratio (x) = 0.30835 0.17503
# Poissons Ratio (y) = 0.33201 0.31638
# Poissons Ratio (z) = 0.14686 0.24655
#
# Static dielectric constant tensor:
#      x y z
#    x 1.878740 0.000000 -0.001540 
#    y 0.000000 1.864640 0.000000 
#    z -0.001540 0.000000 1.894520 
# 
# From -- ./inp_files/65875.got.cif
#   From: 2010.05.17/outbox.cif.g08.bks.cpg/sg14_33_cif.got.tgz:65875.got - 2010.06.03 17:49:19.
