data_PCOD9244089
_publ_section_title
;
Structure prediction by ZEFSAII (Michael W. Deem and Ramdas Pophale) SiO2 
 PCOD9244089
Probable space group: P 21/C
;
_chemical_formula_sum "Si O2"
_cell_formula_units_Z 32
_cell_length_a 17.402634
_cell_length_b 5.341994
_cell_length_c 30.366859
_cell_angle_alpha 90.000000
_cell_angle_beta 147.804131
_cell_angle_gamma 90.000000
_cell_volume 1504.163042
_symmetry_space_group_name_H-M "P 21/C"
_symmetry_group_IT_number 14
_symmetry_cell_setting 'monoclinic'
loop_
_space_group_symop_operation_xyz
x,y,z
-x,1/2+y,1/2-z
-x,-y,-z
x,1/2-y,1/2+z
loop_
_atom_site_type_symbol
_atom_site_label
_atom_site_fract_x
_atom_site_fract_y
_atom_site_fract_z
Si Si1 0.389983 0.897735 0.910663
Si Si2 0.607436 0.861628 0.185235
Si Si3 0.443966 0.033155 0.558255
Si Si4 0.174809 0.729407 0.928277
Si Si5 0.063286 0.096615 0.627429
Si Si6 0.329169 0.069907 0.069987
Si Si7 0.081324 0.006809 0.801497
Si Si8 0.035685 0.102147 0.969068
O O1 0.444274 0.622231 0.924348
O O2 0.228983 0.948246 0.847710
O O3 0.409466 0.025486 0.872139
O O4 0.500000 0.000000 0.000000
O O5 0.545438 0.587499 0.145276
O O6 0.769874 0.891198 0.278823
O O7 0.491565 0.994294 0.161221
O O8 0.350519 0.232236 0.541118
O O9 0.312095 0.889818 0.470218
O O10 0.110430 0.946999 0.866854
O O11 0.042845 0.562624 0.881813
O O12 0.258848 0.830572 0.011787
O O13 0.020691 0.372183 0.588620
O O14 0.034032 0.865849 0.579987
O O15 0.208305 0.142612 0.046341
O O16 0.970933 0.788134 0.732653
O O17 0.000000 0.000000 0.000000
#
# Coordination Sequence:
#
# PCOD9244089 Si02
#       8
#     4   4   4   4   4   4   4   4
#     4  11  25  41  63  93 132 179 239 283 337 388
#     4  10  23  39  64  99 126 182 224 281 329 390
#     4  10  20  39  67  87 128 176 233 271 330 399
#     4  10  22  40  63  89 125 179 227 268 335 397
#     4  11  24  42  71  99 137 168 223 272 330 405
#     4   9  20  40  66  94 126 170 221 260 325 412
#     4  12  29  42  60  91 134 174 224 292 346 382
#     4  11  24  45  72 104 133 171 212 269 334 409
#
# _framework density 21.274287999999999
#
# number of rings (size 3 to 8) (size 9 to 14) (size 15 to 20)
#    0.000    1.500    1.250    3.375   10.500    2.000 
#    0.000    1.250    0.000    0.000    0.000    0.000 
#    0.000    0.000    0.000    0.000    0.000    0.000 
#
# Total GULP energy -178370.620619 kJ/mol
# GULP energy per Si atom -5574.081894 kJ/mol
# Density = 2.122587 g / cm^3
# Si number density = 21.274288 Si / 1000 Ang^3
#
#
#
# Elastic Constant Matrix: (Units=GPa)
#
#
# Indices 1 2 3 4 5 6 
#
# 1 83.5032 -8.8786 49.8149 0.0000 28.4750 0.0000
# 2 -8.8786 50.4550 23.6129 0.0000 9.3571 0.0000
# 3 49.8149 23.6129 108.3288 0.0000 46.3364 0.0000
# 4 0.0000 0.0000 0.0000 32.6928 0.0000 -0.6108
# 5 28.4750 9.3571 46.3364 0.0000 33.9479 0.0000
# 6 0.0000 0.0000 0.0000 -0.6108 0.0000 29.0301
#
#
#
# Elastic Compliance Matrix: (Units=1/GPa)
#
#
# Indices 1 2 3 4 5 6 
#
# 1 0.020542 0.008785 -0.007101 0.000000 -0.009959 0.000000
# 2 0.008785 0.025847 -0.008349 0.000000 -0.003098 0.000000
# 3 -0.007101 -0.008349 0.025914 0.000000 -0.027112 0.000000
# 4 0.000000 0.000000 0.000000 0.030600 0.000000 0.000644
# 5 -0.009959 -0.003098 -0.027112 0.000000 0.075671 0.000000
# 6 0.000000 0.000000 0.000000 0.000644 0.000000 0.034461
#
#
# Mechanical properties :
#
#
# Convention : Reuss Voigt Hill
#
# Bulk Modulus (GPa) = 16.95692 41.26503 29.11098
# Shear Modulus (GPa) = 20.32337 30.98335 25.65336
#
# Velocity S-wave (km/s) = 3.09415 3.82039 3.47629
# Velocity P-wave (km/s) = 4.55554 6.23693 5.46133
#
# Compressibility (1/GPa) = 0.05897296
#
# Stress axis : x y z
#
# Youngs Moduli (GPa) = 48.68018 38.68863 38.58978
#
# Poissons Ratio (x) = -0.33989 0.27404
# Poissons Ratio (y) = -0.42767 0.32219
# Poissons Ratio (z) = 0.34569 0.32301
#
# Static dielectric constant tensor:
#      x y z
#    x 1.826610 0.000000 0.023020 
#    y 0.000000 2.016970 0.000000 
#    z 0.023020 0.000000 1.741920 
# 
# From -- ./inp_files/80337.got.cif
#   From: 2010.05.17/outbox.cif.g08.bks.cpg/sg14_41_cif.got.tgz:80337.got - 2010.06.03 17:49:19.
