data_PCOD9244398
_publ_section_title
;
Structure prediction by ZEFSAII (Michael W. Deem and Ramdas Pophale) SiO2 
 PCOD9244398
Probable space group: P 21/C
;
_chemical_formula_sum "Si O2"
_cell_formula_units_Z 22
_cell_length_a 6.659422
_cell_length_b 9.917735
_cell_length_c 14.086041
_cell_angle_alpha 90.000000
_cell_angle_beta 60.832609
_cell_angle_gamma 90.000000
_cell_volume 812.365571
_symmetry_space_group_name_H-M "P 21/C"
_symmetry_group_IT_number 14
_symmetry_cell_setting 'monoclinic'
loop_
_space_group_symop_operation_xyz
x,y,z
-x,1/2+y,1/2-z
-x,-y,-z
x,1/2-y,1/2+z
loop_
_atom_site_type_symbol
_atom_site_label
_atom_site_fract_x
_atom_site_fract_y
_atom_site_fract_z
Si Si1 0.836564 0.208432 0.834525
Si Si2 0.527465 0.968051 0.829155
Si Si3 0.441217 0.418031 0.895957
Si Si4 0.000000 0.000000 0.000000
Si Si5 0.085573 0.253163 0.602153
Si Si6 0.685236 0.218514 0.558572
O O1 0.685478 0.343810 0.851337
O O2 0.058812 0.215634 0.718389
O O3 0.680993 0.083235 0.839447
O O4 0.866191 0.213694 0.941886
O O5 0.607132 0.926264 0.705554
O O6 0.510997 0.830610 0.893945
O O7 0.260756 0.012137 0.889343
O O8 0.412948 0.571919 0.936505
O O9 0.258927 0.331359 0.997432
O O10 0.908117 0.907435 0.930890
O O11 0.828985 0.211551 0.621502
#
# Coordination Sequence:
#
# PCOD9244398 Si02
#       6
#     4   4   4   2   4   4
#     4  12  24  45  67  98 134 174 228 281 336 402
#     4  11  22  44  72  92 137 174 224 273 344 401
#     4  12  22  45  70  96 137 179 219 287 337 401
#     4  10  20  40  70  96 124 184 214 270 332 406
#     4  11  24  44  66  97 138 175 228 273 341 403
#     4  11  25  43  66 101 131 173 230 275 338 404
#
# _framework density 27.081403000000002
#
# number of rings (size 3 to 8) (size 9 to 14) (size 15 to 20)
#    0.000    0.727    7.273    1.636    0.000    0.000 
#    9.818    0.000    0.000    0.000    0.000    0.000 
#    0.000    0.000    0.000    0.000    0.000    0.000 
#
# Total GULP energy -122880.757341 kJ/mol
# GULP energy per Si atom -5585.488970 kJ/mol
# Density = 2.701976 g / cm^3
# Si number density = 27.081403 Si / 1000 Ang^3
#
#
#
# Elastic Constant Matrix: (Units=GPa)
#
#
# Indices 1 2 3 4 5 6 
#
# 1 59.0588 14.4146 27.0005 0.0000 -13.5783 0.0000
# 2 14.4146 141.8178 59.1695 0.0000 -14.5081 0.0000
# 3 27.0005 59.1695 224.9155 0.0000 -6.4040 0.0000
# 4 0.0000 0.0000 0.0000 53.5392 0.0000 -5.1311
# 5 -13.5783 -14.5081 -6.4040 0.0000 46.1733 0.0000
# 6 0.0000 0.0000 0.0000 -5.1311 0.0000 29.8114
#
#
#
# Elastic Compliance Matrix: (Units=1/GPa)
#
#
# Indices 1 2 3 4 5 6 
#
# 1 0.019181 -0.000585 -0.002001 0.000000 0.005179 0.000000
# 2 -0.000585 0.008169 -0.002019 0.000000 0.002115 0.000000
# 3 -0.002001 -0.002019 0.005203 0.000000 -0.000501 0.000000
# 4 0.000000 0.000000 0.000000 0.018991 0.000000 0.003269
# 5 0.005179 0.002115 -0.000501 0.000000 0.023776 0.000000
# 6 0.000000 0.000000 0.000000 0.003269 0.000000 0.034107
#
#
# Mechanical properties :
#
#
# Convention : Reuss Voigt Hill
#
# Bulk Modulus (GPa) = 42.83807 69.66236 56.25021
# Shear Modulus (GPa) = 39.55144 47.58527 43.56836
#
# Velocity S-wave (km/s) = 3.82575 4.19635 4.01533
# Velocity P-wave (km/s) = 5.94708 7.01842 6.50485
#
# Compressibility (1/GPa) = 0.02334372
#
# Stress axis : x y z
#
# Youngs Moduli (GPa) = 52.13569 122.40869 192.19049
#
# Poissons Ratio (x) = 0.07158 0.38463
# Poissons Ratio (y) = 0.03049 0.38798
# Poissons Ratio (z) = 0.10434 0.24711
#
# Static dielectric constant tensor:
#      x y z
#    x 2.102220 0.000000 0.056670 
#    y 0.000000 1.980080 0.000000 
#    z 0.056670 0.000000 2.099910 
# 
# From -- ./inp_files/39534.got.cif
#   From: 2010.05.17/outbox.cif.g08.bks.cpg/sg14_20_cif.got.tgz:39534.got - 2010.06.03 17:49:19.
