data_PCOD9244621
_publ_section_title
;
Structure prediction by ZEFSAII (Michael W. Deem and Ramdas Pophale) SiO2 
 PCOD9244621
Probable space group: P 21/C
;
_chemical_formula_sum "Si O2"
_cell_formula_units_Z 20
_cell_length_a 15.932932
_cell_length_b 5.296655
_cell_length_c 18.802205
_cell_angle_alpha 90.000000
_cell_angle_beta 29.823601
_cell_angle_gamma 90.000000
_cell_volume 789.136300
_symmetry_space_group_name_H-M "P 21/C"
_symmetry_group_IT_number 14
_symmetry_cell_setting 'monoclinic'
loop_
_space_group_symop_operation_xyz
x,y,z
-x,1/2+y,1/2-z
-x,-y,-z
x,1/2-y,1/2+z
loop_
_atom_site_type_symbol
_atom_site_label
_atom_site_fract_x
_atom_site_fract_y
_atom_site_fract_z
Si Si1 0.674356 0.372448 0.696681
Si Si2 0.957467 0.534896 0.824461
Si Si3 0.471927 0.742871 0.444841
Si Si4 0.233702 0.638224 0.733253
Si Si5 0.660146 0.635963 0.571597
O O1 0.557027 0.557199 0.830088
O O2 0.793022 0.245772 0.668023
O O3 0.750321 0.509045 0.572925
O O4 0.536374 0.180156 0.766007
O O5 0.983323 0.263470 0.770698
O O6 0.066422 0.558238 0.815916
O O7 0.764716 0.612635 0.979315
O O8 0.343491 0.827832 0.601558
O O9 0.632881 0.589570 0.356682
O O10 0.359468 0.541787 0.482510
#
# Coordination Sequence:
#
# PCOD9244621 Si02
#       5
#     4   4   4   4   4
#     4  11  22  39  68  98 135 176 234 283 341 412
#     4  12  27  46  70 102 142 185 232 287 349 411
#     4  10  20  42  65  97 131 176 234 275 337 410
#     4  10  23  39  67  98 134 178 229 284 335 412
#     4  11  23  40  69  98 136 183 228 286 345 411
#
# _framework density 25.344166000000001
#
# number of rings (size 3 to 8) (size 9 to 14) (size 15 to 20)
#    0.000    1.200    4.000    1.800    2.800    0.800 
#    0.000    1.000    0.000    0.000    0.000    0.000 
#    0.000    0.000    0.000    0.000    0.000    0.000 
#
# Total GULP energy -111938.054186 kJ/mol
# GULP energy per Si atom -5596.902709 kJ/mol
# Density = 2.528648 g / cm^3
# Si number density = 25.344166 Si / 1000 Ang^3
#
#
#
# Elastic Constant Matrix: (Units=GPa)
#
#
# Indices 1 2 3 4 5 6 
#
# 1 165.1967 23.5700 28.2188 0.0000 -16.8569 0.0000
# 2 23.5700 44.7464 12.7163 0.0000 -1.6299 0.0000
# 3 28.2188 12.7163 45.5506 0.0000 -12.0845 0.0000
# 4 0.0000 0.0000 0.0000 40.5481 0.0000 5.6708
# 5 -16.8569 -1.6299 -12.0845 0.0000 48.5119 0.0000
# 6 0.0000 0.0000 0.0000 5.6708 0.0000 37.4172
#
#
#
# Elastic Compliance Matrix: (Units=1/GPa)
#
#
# Indices 1 2 3 4 5 6 
#
# 1 0.007168 -0.002798 -0.003238 0.000000 0.001590 0.000000
# 2 -0.002798 0.025405 -0.005772 0.000000 -0.001556 0.000000
# 3 -0.003238 -0.005772 0.027006 0.000000 0.005408 0.000000
# 4 0.000000 0.000000 0.000000 0.025196 0.000000 -0.003819
# 5 0.001590 -0.001556 0.005408 0.000000 0.022461 0.000000
# 6 0.000000 0.000000 0.000000 -0.003819 0.000000 0.027304
#
#
# Mechanical properties :
#
#
# Convention : Reuss Voigt Hill
#
# Bulk Modulus (GPa) = 27.80559 42.72266 35.26413
# Shear Modulus (GPa) = 29.38698 38.02800 33.70749
#
# Velocity S-wave (km/s) = 3.40886 3.87778 3.65086
# Velocity P-wave (km/s) = 5.14673 6.07809 5.63170
#
# Compressibility (1/GPa) = 0.03596399
#
# Stress axis : x y z
#
# Youngs Moduli (GPa) = 139.51154 39.36160 37.02942
#
# Poissons Ratio (x) = 0.11012 0.11989
# Poissons Ratio (y) = 0.39030 0.21374
# Poissons Ratio (z) = 0.45169 0.22720
#
# Static dielectric constant tensor:
#      x y z
#    x 2.009550 0.000000 0.045860 
#    y 0.000000 2.094960 0.000000 
#    z 0.045860 0.000000 1.995480 
# 
# From -- ./inp_files/56466.got.cif
#   From: 2010.05.17/outbox.cif.g08.bks.cpg/sg14_29_cif.got.tgz:56466.got - 2010.06.03 17:49:19.
