data_PCOD9244507
_publ_section_title
;
Structure prediction by ZEFSAII (Michael W. Deem and Ramdas Pophale) SiO2 
 PCOD9244507
Probable space group: P 21/C
;
_chemical_formula_sum "Si O2"
_cell_formula_units_Z 32
_cell_length_a 8.303559
_cell_length_b 22.234346
_cell_length_c 8.478195
_cell_angle_alpha 90.000000
_cell_angle_beta 55.812651
_cell_angle_gamma 90.000000
_cell_volume 1294.806916
_symmetry_space_group_name_H-M "P 21/C"
_symmetry_group_IT_number 14
_symmetry_cell_setting 'monoclinic'
loop_
_space_group_symop_operation_xyz
x,y,z
-x,1/2+y,1/2-z
-x,-y,-z
x,1/2-y,1/2+z
loop_
_atom_site_type_symbol
_atom_site_label
_atom_site_fract_x
_atom_site_fract_y
_atom_site_fract_z
Si Si1 0.639737 0.753196 0.456783
Si Si2 0.366762 0.425342 0.888933
Si Si3 0.725746 0.002652 0.816944
Si Si4 0.244704 0.614994 0.492994
Si Si5 0.132360 0.315863 0.915455
Si Si6 0.285233 0.814743 0.265336
Si Si7 0.941068 0.563751 0.451396
Si Si8 0.431848 0.120020 0.678465
O O1 0.804444 0.766567 0.492379
O O2 0.726450 0.698408 0.308215
O O3 0.441502 0.738257 0.658776
O O4 0.605836 0.813565 0.374296
O O5 0.294457 0.488130 0.856438
O O6 0.537763 0.398208 0.685228
O O7 0.189696 0.378714 0.965576
O O8 0.455031 0.423032 0.014391
O O9 0.806951 0.062568 0.851995
O O10 0.865845 0.951426 0.817469
O O11 0.500000 0.000000 0.000000
O O12 0.226634 0.672177 0.615451
O O13 0.113219 0.608386 0.409633
O O14 0.903332 0.307833 0.022755
O O15 0.404551 0.869510 0.280262
O O16 0.754039 0.592577 0.635162
O O17 0.000000 0.500000 0.500000
#
# Coordination Sequence:
#
# PCOD9244507 Si02
#       8
#     4   4   4   4   4   4   4   4
#     4  11  24  46  65 101 140 185 240 301 348 436
#     4  10  21  41  66 101 140 176 240 293 344 428
#     4   9  19  38  69  97 135 188 226 289 368 413
#     4  10  20  41  67 101 142 190 228 288 366 421
#     4  11  25  42  68  99 137 185 239 291 363 422
#     4  12  25  45  71 101 150 187 238 298 367 429
#     4  10  22  43  70 102 140 190 238 291 375 434
#     4  11  24  44  66 101 140 183 243 297 354 440
#
# _framework density 24.714110000000002
#
# number of rings (size 3 to 8) (size 9 to 14) (size 15 to 20)
#    0.000    1.500    2.500    3.000    1.750    1.000 
#    4.500   15.625    0.000    0.000    0.000    0.000 
#    0.000    0.000    0.000    0.000    0.000    0.000 
#
# Total GULP energy -178709.735762 kJ/mol
# GULP energy per Si atom -5584.679243 kJ/mol
# Density = 2.465786 g / cm^3
# Si number density = 24.714110 Si / 1000 Ang^3
#
#
#
# Elastic Constant Matrix: (Units=GPa)
#
#
# Indices 1 2 3 4 5 6 
#
# 1 127.5188 26.0308 28.8187 0.0000 -3.2908 0.0000
# 2 26.0308 44.4033 8.8644 0.0000 -3.0477 0.0000
# 3 28.8187 8.8644 64.4802 0.0000 -13.6112 0.0000
# 4 0.0000 0.0000 0.0000 36.1571 0.0000 -4.7818
# 5 -3.2908 -3.0477 -13.6112 0.0000 32.2602 0.0000
# 6 0.0000 0.0000 0.0000 -4.7818 0.0000 -9.7918
#
#
#
# Elastic Compliance Matrix: (Units=1/GPa)
#
#
# Indices 1 2 3 4 5 6 
#
# 1 0.009712 -0.004994 -0.003891 0.000000 -0.001123 0.000000
# 2 -0.004994 0.025749 -0.000990 0.000000 0.001505 0.000000
# 3 -0.003891 -0.000990 0.018970 0.000000 0.007513 0.000000
# 4 0.000000 0.000000 0.000000 0.025979 0.000000 -0.012687
# 5 -0.001123 0.001505 0.007513 0.000000 0.034196 0.000000
# 6 0.000000 0.000000 0.000000 -0.012687 0.000000 -0.095930
#
#
# Mechanical properties :
#
#
# Convention : Reuss Voigt Hill
#
# Bulk Modulus (GPa) = 28.83427 40.42556 34.62991
# Shear Modulus (GPa) = 100.02842 23.23764 61.63303
#
# Velocity S-wave (km/s) = 6.36884 3.06969 4.99925
# Velocity P-wave (km/s) = 8.11019 5.38115 6.88230
#
# Compressibility (1/GPa) = 0.03468095
#
# Stress axis : x y z
#
# Youngs Moduli (GPa) = 102.96817 38.83596 52.71529
#
# Poissons Ratio (x) = 0.19393 0.20512
# Poissons Ratio (y) = 0.51419 0.05220
# Poissons Ratio (z) = 0.40066 0.03846
#
# Static dielectric constant tensor:
#      x y z
#    x 2.026440 0.000000 -0.198180 
#    y 0.000000 2.006000 0.000000 
#    z -0.198180 0.000000 2.892410 
# 
# From -- ./inp_files/11071.got.cif
#   From: 2010.05.17/outbox.cif.g08.bks.cpg/sg14_6_cif.got.tgz:11071.got - 2010.06.03 17:49:19.
