data_PCOD9244868
_publ_section_title
;
Structure prediction by ZEFSAII (Michael W. Deem and Ramdas Pophale) SiO2 
 PCOD9244868
Probable space group: P 21/C
;
_chemical_formula_sum "Si O2"
_cell_formula_units_Z 24
_cell_length_a 12.812507
_cell_length_b 5.369902
_cell_length_c 23.354949
_cell_angle_alpha 90.000000
_cell_angle_beta 135.867558
_cell_angle_gamma 90.000000
_cell_volume 1118.891135
_symmetry_space_group_name_H-M "P 21/C"
_symmetry_group_IT_number 14
_symmetry_cell_setting 'monoclinic'
loop_
_space_group_symop_operation_xyz
x,y,z
-x,1/2+y,1/2-z
-x,-y,-z
x,1/2-y,1/2+z
loop_
_atom_site_type_symbol
_atom_site_label
_atom_site_fract_x
_atom_site_fract_y
_atom_site_fract_z
Si Si1 0.152515 0.642043 0.067139
Si Si2 0.709710 0.072693 0.790104
Si Si3 0.343865 0.877547 0.913888
Si Si4 0.600527 0.765517 0.854818
Si Si5 0.694041 0.366573 0.476503
Si Si6 0.359001 0.353085 0.850051
O O1 0.151630 0.789295 0.126790
O O2 0.299204 0.466100 0.125072
O O3 0.181198 0.793653 0.020400
O O4 0.000000 0.500000 0.000000
O O5 0.577036 0.243294 0.713458
O O6 0.636009 0.959001 0.818389
O O7 0.727558 0.889519 0.744125
O O8 0.353992 0.608982 0.886104
O O9 0.292539 0.107249 0.854376
O O10 0.255634 0.844375 0.938611
O O11 0.500000 0.000000 0.000000
O O12 0.650889 0.858852 0.937002
O O13 0.536324 0.211171 0.407837
#
# Coordination Sequence:
#
# PCOD9244868 Si02
#       6
#     4   4   4   4   4   4
#     4  11  25  39  60  94 130 172 215 264 337 388
#     4  11  20  35  60  94 122 165 212 270 318 394
#     4  10  21  33  57  95 129 159 207 268 326 369
#     4  11  20  35  63  86 126 164 211 262 332 375
#     4  10  21  35  58  92 130 165 209 271 323 389
#     4  11  21  34  60  97 126 162 209 269 322 372
#
# _framework density 21.449808000000001
#
# number of rings (size 3 to 8) (size 9 to 14) (size 15 to 20)
#    0.000    1.333    3.333    5.000    4.667    2.667 
#    0.000    0.000    0.000    0.000    8.667    0.000 
#    0.000    0.000    0.000    0.000    0.000    0.000 
#
# Total GULP energy -133726.437386 kJ/mol
# GULP energy per Si atom -5571.934891 kJ/mol
# Density = 2.140099 g / cm^3
# Si number density = 21.449808 Si / 1000 Ang^3
#
#
#
# Elastic Constant Matrix: (Units=GPa)
#
#
# Indices 1 2 3 4 5 6 
#
# 1 57.3660 21.3496 43.6092 0.0000 -32.4199 0.0000
# 2 21.3496 83.5189 22.4820 0.0000 -14.6295 0.0000
# 3 43.6092 22.4820 79.5533 0.0000 -23.9267 0.0000
# 4 0.0000 0.0000 0.0000 41.2243 0.0000 -13.5894
# 5 -32.4199 -14.6295 -23.9267 0.0000 29.8956 0.0000
# 6 0.0000 0.0000 0.0000 -13.5894 0.0000 13.0614
#
#
#
# Elastic Compliance Matrix: (Units=1/GPa)
#
#
# Indices 1 2 3 4 5 6 
#
# 1 0.058924 -0.001848 -0.016900 0.000000 0.049469 0.000000
# 2 -0.001848 0.013492 -0.001866 0.000000 0.003105 0.000000
# 3 -0.016900 -0.001866 0.021830 0.000000 -0.001769 0.000000
# 4 0.000000 0.000000 0.000000 0.036920 0.000000 0.038413
# 5 0.049469 0.003105 -0.001769 0.000000 0.087200 0.000000
# 6 0.000000 0.000000 0.000000 0.038413 0.000000 0.116527
#
#
# Mechanical properties :
#
#
# Convention : Reuss Voigt Hill
#
# Bulk Modulus (GPa) = 18.86162 43.92443 31.39302
# Shear Modulus (GPa) = 12.69702 25.70276 19.19989
#
# Velocity S-wave (km/s) = 2.43562 3.46537 2.99508
# Velocity P-wave (km/s) = 4.08927 6.04433 5.16023
#
# Compressibility (1/GPa) = 0.05301773
#
# Stress axis : x y z
#
# Youngs Moduli (GPa) = 16.97097 74.11861 45.80935
#
# Poissons Ratio (x) = 0.13698 0.77417
# Poissons Ratio (y) = 0.03136 0.08548
# Poissons Ratio (z) = 0.28681 0.13830
#
# Static dielectric constant tensor:
#      x y z
#    x 1.824570 0.000000 -0.027370 
#    y 0.000000 1.929150 0.000000 
#    z -0.027370 0.000000 1.818080 
# 
# From -- ./inp_files/72787.got.cif
#   From: 2010.05.17/outbox.cif.g08.bks.cpg/sg14_37_cif.got.tgz:72787.got - 2010.06.03 17:49:19.
