data_PCOD9244450
_publ_section_title
;
Structure prediction by ZEFSAII (Michael W. Deem and Ramdas Pophale) SiO2 
 PCOD9244450
Probable space group: P 21/C
;
_chemical_formula_sum "Si O2"
_cell_formula_units_Z 32
_cell_length_a 18.503445
_cell_length_b 13.019568
_cell_length_c 12.622045
_cell_angle_alpha 90.000000
_cell_angle_beta 28.734397
_cell_angle_gamma 90.000000
_cell_volume 1461.834417
_symmetry_space_group_name_H-M "P 21/C"
_symmetry_group_IT_number 14
_symmetry_cell_setting 'monoclinic'
loop_
_space_group_symop_operation_xyz
x,y,z
-x,1/2+y,1/2-z
-x,-y,-z
x,1/2-y,1/2+z
loop_
_atom_site_type_symbol
_atom_site_label
_atom_site_fract_x
_atom_site_fract_y
_atom_site_fract_z
Si Si1 0.444957 0.076632 0.381878
Si Si2 0.892847 0.645046 0.165766
Si Si3 0.076082 0.659373 0.411586
Si Si4 0.558668 0.693484 0.562611
Si Si5 0.147591 0.542501 0.943630
Si Si6 0.573510 0.358887 0.056017
Si Si7 0.458728 0.638813 0.473794
Si Si8 0.878586 0.971977 0.288948
O O1 0.474114 0.184075 0.403691
O O2 0.267276 0.060594 0.591025
O O3 0.491985 0.971838 0.380758
O O4 0.512587 0.083717 0.175533
O O5 0.724250 0.684250 0.400800
O O6 0.872608 0.550250 0.112495
O O7 0.997226 0.734553 0.983076
O O8 0.991454 0.605869 0.137812
O O9 0.050732 0.574125 0.353531
O O10 0.996902 0.618793 0.620027
O O11 0.254043 0.657655 0.197640
O O12 0.438636 0.651327 0.800842
O O13 0.549480 0.626389 0.467203
O O14 0.287738 0.612645 0.727102
O O15 0.169076 0.495921 0.031477
O O16 0.498467 0.256994 0.107745
#
# Coordination Sequence:
#
# PCOD9244450 Si02
#       8
#     4   4   4   4   4   4   4   4
#     4  10  21  39  64  94 128 169 217 265 322 373
#     4  11  23  42  63  93 131 160 212 274 316 373
#     4  10  20  41  63  88 129 165 205 266 317 379
#     4  11  23  41  67  93 128 171 214 268 319 384
#     4  11  24  41  65  97 125 169 215 262 322 386
#     4  10  22  41  64  89 130 170 211 267 319 380
#     4  11  22  41  66  96 128 173 219 259 322 390
#     4  10  21  39  64  92 122 170 211 255 327 382
#
# _framework density 21.890304
#
# number of rings (size 3 to 8) (size 9 to 14) (size 15 to 20)
#    0.000    1.500    2.500    3.000    0.000    3.000 
#    6.750    0.000    0.000    0.000    0.000    0.000 
#    0.000    0.000    0.000    0.000    0.000    0.000 
#
# Total GULP energy -178501.765976 kJ/mol
# GULP energy per Si atom -5578.180187 kJ/mol
# Density = 2.184048 g / cm^3
# Si number density = 21.890304 Si / 1000 Ang^3
#
#
#
# Elastic Constant Matrix: (Units=GPa)
#
#
# Indices 1 2 3 4 5 6 
#
# 1 39.3453 -1.2249 1.1685 0.0000 9.3629 0.0000
# 2 -1.2249 95.2028 -2.6439 0.0000 8.8178 0.0000
# 3 1.1685 -2.6439 71.6585 0.0000 13.6989 0.0000
# 4 0.0000 0.0000 0.0000 35.1504 0.0000 -2.4151
# 5 9.3629 8.8178 13.6989 0.0000 24.1753 0.0000
# 6 0.0000 0.0000 0.0000 -2.4151 0.0000 18.6298
#
#
#
# Elastic Compliance Matrix: (Units=1/GPa)
#
#
# Indices 1 2 3 4 5 6 
#
# 1 0.028440 0.001603 0.002033 0.000000 -0.012751 0.000000
# 2 0.001603 0.011071 0.001428 0.000000 -0.005468 0.000000
# 3 0.002033 0.001428 0.015953 0.000000 -0.010348 0.000000
# 4 0.000000 0.000000 0.000000 0.028705 0.000000 0.003721
# 5 -0.012751 -0.005468 -0.010348 0.000000 0.054161 0.000000
# 6 0.000000 0.000000 0.000000 0.003721 0.000000 0.054160
#
#
# Mechanical properties :
#
#
# Convention : Reuss Voigt Hill
#
# Bulk Modulus (GPa) = 15.24584 22.31178 18.77881
# Shear Modulus (GPa) = 24.48284 29.51822 27.00053
#
# Velocity S-wave (km/s) = 3.34793 3.67612 3.51586
# Velocity P-wave (km/s) = 4.68237 5.31349 5.00788
#
# Compressibility (1/GPa) = 0.06559166
#
# Stress axis : x y z
#
# Youngs Moduli (GPa) = 35.16178 90.32926 62.68498
#
# Poissons Ratio (x) = -0.14484 -0.12745
# Poissons Ratio (y) = -0.05638 -0.08949
# Poissons Ratio (z) = -0.07149 -0.12895
#
# Static dielectric constant tensor:
#      x y z
#    x 1.795160 0.000000 -0.008310 
#    y 0.000000 1.892850 0.000000 
#    z -0.008310 0.000000 1.793260 
# 
# From -- ./inp_files/34171.got.cif
#   From: 2010.05.17/outbox.cif.g08.bks.cpg/sg14_18_cif.got.tgz:34171.got - 2010.06.03 17:49:19.
