data_PCOD9244543
_publ_section_title
;
Structure prediction by ZEFSAII (Michael W. Deem and Ramdas Pophale) SiO2 
 PCOD9244543
Probable space group: P 21/C
;
_chemical_formula_sum "Si O2"
_cell_formula_units_Z 28
_cell_length_a 9.120913
_cell_length_b 13.445575
_cell_length_c 11.350797
_cell_angle_alpha 90.000000
_cell_angle_beta 120.073777
_cell_angle_gamma 90.000000
_cell_volume 1204.623511
_symmetry_space_group_name_H-M "P 21/C"
_symmetry_group_IT_number 14
_symmetry_cell_setting 'monoclinic'
loop_
_space_group_symop_operation_xyz
x,y,z
-x,1/2+y,1/2-z
-x,-y,-z
x,1/2-y,1/2+z
loop_
_atom_site_type_symbol
_atom_site_label
_atom_site_fract_x
_atom_site_fract_y
_atom_site_fract_z
Si Si1 0.809361 0.871516 0.151819
Si Si2 0.285420 0.557704 0.546082
Si Si3 0.177321 0.629531 0.752388
Si Si4 0.324930 0.438911 0.910518
Si Si5 0.487421 0.900788 0.727624
Si Si6 0.811312 0.961502 0.411558
Si Si7 0.545717 0.283387 0.560558
O O1 0.790577 0.909382 0.278038
O O2 0.995219 0.824540 0.209651
O O3 0.648975 0.803039 0.056380
O O4 0.805539 0.968925 0.063412
O O5 0.196367 0.615245 0.618672
O O6 0.432700 0.495703 0.672189
O O7 0.355205 0.635973 0.479645
O O8 0.187855 0.517599 0.808431
O O9 0.332716 0.687219 0.879070
O O10 0.384730 0.373033 0.824870
O O11 0.500000 0.500000 0.000000
O O12 0.256371 0.396815 0.005189
O O13 0.462866 0.812960 0.806519
O O14 0.303947 0.940317 0.620291
O O15 0.000000 0.000000 0.500000
#
# Coordination Sequence:
#
# PCOD9244543 Si02
#       7
#     4   4   4   4   4   4   4
#     4  11  21  43  69  99 135 185 229 275 336 421
#     4  10  20  41  69  93 130 176 231 273 339 418
#     4  11  24  40  63 105 136 173 225 294 343 395
#     4   9  20  35  61  95 131 171 221 269 322 400
#     4   9  18  38  63  94 123 179 227 264 331 405
#     4  11  18  33  65 103 128 163 224 275 314 396
#     4  11  22  42  68  95 135 177 223 285 350 404
#
# _framework density 23.243777000000001
#
# number of rings (size 3 to 8) (size 9 to 14) (size 15 to 20)
#    0.000    1.714    4.286    1.286    0.000    2.286 
#    0.000    7.143    0.000    0.000    0.000    0.000 
#    0.000    0.000    0.000    0.000    0.000    0.000 
#
# Total GULP energy -156253.189643 kJ/mol
# GULP energy per Si atom -5580.471059 kJ/mol
# Density = 2.319087 g / cm^3
# Si number density = 23.243777 Si / 1000 Ang^3
#
#
#
# Elastic Constant Matrix: (Units=GPa)
#
#
# Indices 1 2 3 4 5 6 
#
# 1 150.7080 43.8255 75.7612 0.0000 1.5567 0.0000
# 2 43.8255 79.5162 39.3405 0.0000 2.2036 0.0000
# 3 75.7612 39.3405 116.6878 0.0000 -7.6429 0.0000
# 4 0.0000 0.0000 0.0000 24.7368 0.0000 -4.3153
# 5 1.5567 2.2036 -7.6429 0.0000 48.5849 0.0000
# 6 0.0000 0.0000 0.0000 -4.3153 0.0000 22.1119
#
#
#
# Elastic Compliance Matrix: (Units=1/GPa)
#
#
# Indices 1 2 3 4 5 6 
#
# 1 0.010427 -0.002795 -0.005902 0.000000 -0.001136 0.000000
# 2 -0.002795 0.015952 -0.003642 0.000000 -0.001207 0.000000
# 3 -0.005902 -0.003642 0.013795 0.000000 0.002524 0.000000
# 4 0.000000 0.000000 0.000000 0.041850 0.000000 0.008167
# 5 -0.001136 -0.001207 0.002524 0.000000 0.021071 0.000000
# 6 0.000000 0.000000 0.000000 0.008167 0.000000 0.046819
#
#
# Mechanical properties :
#
#
# Convention : Reuss Voigt Hill
#
# Bulk Modulus (GPa) = 64.53609 73.86295 69.19952
# Shear Modulus (GPa) = 27.81528 31.61903 29.71715
#
# Velocity S-wave (km/s) = 3.46305 3.69226 3.57949
# Velocity P-wave (km/s) = 6.61933 7.07273 6.84978
#
# Compressibility (1/GPa) = 0.01549520
#
# Stress axis : x y z
#
# Youngs Moduli (GPa) = 95.90716 62.68730 72.49043
#
# Poissons Ratio (x) = 0.17524 0.42781
# Poissons Ratio (y) = 0.26810 0.26403
# Poissons Ratio (z) = 0.56601 0.22832
#
# Static dielectric constant tensor:
#      x y z
#    x 1.858340 0.000000 -0.032990 
#    y 0.000000 2.062800 0.000000 
#    z -0.032990 0.000000 1.957070 
# 
# From -- ./inp_files/25582.got.cif
#   From: 2010.05.17/outbox.cif.g08.bks.cpg/sg14_13_cif.got.tgz:25582.got - 2010.06.03 17:49:19.
