data_PCOD9244117
_publ_section_title
;
Structure prediction by ZEFSAII (Michael W. Deem and Ramdas Pophale) SiO2 
 PCOD9244117
Probable space group: P 21/C
;
_chemical_formula_sum "Si O2"
_cell_formula_units_Z 28
_cell_length_a 15.640142
_cell_length_b 13.810446
_cell_length_c 9.282848
_cell_angle_alpha 90.000000
_cell_angle_beta 33.069623
_cell_angle_gamma 90.000000
_cell_volume 1094.082214
_symmetry_space_group_name_H-M "P 21/C"
_symmetry_group_IT_number 14
_symmetry_cell_setting 'monoclinic'
loop_
_space_group_symop_operation_xyz
x,y,z
-x,1/2+y,1/2-z
-x,-y,-z
x,1/2-y,1/2+z
loop_
_atom_site_type_symbol
_atom_site_label
_atom_site_fract_x
_atom_site_fract_y
_atom_site_fract_z
Si Si1 0.211592 0.750812 0.245841
Si Si2 0.391613 0.257951 0.585192
Si Si3 0.978921 0.308200 0.227121
Si Si4 0.477843 0.618918 0.347206
Si Si5 0.268578 0.539416 0.088399
Si Si6 0.965737 0.981100 0.819669
Si Si7 0.801503 0.689817 0.405221
O O1 0.051816 0.752967 0.377642
O O2 0.169018 0.728947 0.469786
O O3 0.301845 0.653059 0.069776
O O4 0.293632 0.854942 0.111625
O O5 0.474189 0.192966 0.348160
O O6 0.471021 0.341814 0.567211
O O7 0.256556 0.304804 0.674616
O O8 0.342900 0.181966 0.778948
O O9 0.970750 0.421393 0.222968
O O10 0.123201 0.286141 0.130141
O O11 0.576055 0.522181 0.171429
O O12 0.170101 0.496635 0.365448
O O13 0.134177 0.533528 0.155896
O O14 0.919147 0.893421 0.784081
#
# Coordination Sequence:
#
# PCOD9244117 Si02
#       7
#     4   4   4   4   4   4   4
#     4  11  24  44  64  91 134 175 215 259 316 397
#     4  10  22  37  66  96 129 167 212 274 321 375
#     4  11  23  41  66  97 127 169 209 271 330 381
#     4  11  22  44  62  92 132 177 218 256 316 393
#     4  10  21  41  69  96 126 176 216 264 327 385
#     4  10  20  39  69  97 127 164 218 271 331 389
#     4  11  20  40  65 100 129 158 214 278 329 382
#
# _framework density 25.592226
#
# number of rings (size 3 to 8) (size 9 to 14) (size 15 to 20)
#    0.000    1.429    2.857    3.429    2.000    0.000 
#    7.714    5.714    0.000    0.000    0.000    0.000 
#    0.000    0.000    0.000    0.000    0.000    0.000 
#
# Total GULP energy -156371.902558 kJ/mol
# GULP energy per Si atom -5584.710806 kJ/mol
# Density = 2.553398 g / cm^3
# Si number density = 25.592226 Si / 1000 Ang^3
#
#
#
# Elastic Constant Matrix: (Units=GPa)
#
#
# Indices 1 2 3 4 5 6 
#
# 1 148.3885 16.6045 33.2894 0.0000 23.2877 0.0000
# 2 16.6045 69.9630 6.6693 0.0000 8.0014 0.0000
# 3 33.2894 6.6693 48.8730 0.0000 13.3978 0.0000
# 4 0.0000 0.0000 0.0000 38.6357 0.0000 -1.6067
# 5 23.2877 8.0014 13.3978 0.0000 43.7721 0.0000
# 6 0.0000 0.0000 0.0000 -1.6067 0.0000 31.0346
#
#
#
# Elastic Compliance Matrix: (Units=1/GPa)
#
#
# Indices 1 2 3 4 5 6 
#
# 1 0.008384 -0.001216 -0.004784 0.000000 -0.002774 0.000000
# 2 -0.001216 0.014860 -0.000690 0.000000 -0.001858 0.000000
# 3 -0.004784 -0.000690 0.025196 0.000000 -0.005041 0.000000
# 4 0.000000 0.000000 0.000000 0.025939 0.000000 0.001343
# 5 -0.002774 -0.001858 -0.005041 0.000000 0.026204 0.000000
# 6 0.000000 0.000000 0.000000 0.001343 0.000000 0.032292
#
#
# Mechanical properties :
#
#
# Convention : Reuss Voigt Hill
#
# Bulk Modulus (GPa) = 28.52356 42.26120 35.39238
# Shear Modulus (GPa) = 31.65738 36.73258 34.19498
#
# Velocity S-wave (km/s) = 3.52091 3.79265 3.65930
# Velocity P-wave (km/s) = 5.26295 5.97729 5.63146
#
# Compressibility (1/GPa) = 0.03505874
#
# Stress axis : x y z
#
# Youngs Moduli (GPa) = 119.27828 67.29365 39.68914
#
# Poissons Ratio (x) = 0.08186 0.18988
# Poissons Ratio (y) = 0.14510 0.02738
# Poissons Ratio (z) = 0.57065 0.04643
#
# Static dielectric constant tensor:
#      x y z
#    x 1.962000 0.000000 -0.106980 
#    y 0.000000 1.965230 0.000000 
#    z -0.106980 0.000000 2.297210 
# 
# From -- ./inp_files/16402.got.cif
#   From: 2010.05.17/outbox.cif.g08.bks.cpg/sg14_9_cif.got.tgz:16402.got - 2010.06.03 17:49:19.
