data_PCOD9244532
_publ_section_title
;
Structure prediction by ZEFSAII (Michael W. Deem and Ramdas Pophale) SiO2 
 PCOD9244532
Probable space group: P 21/C
;
_chemical_formula_sum "Si O2"
_cell_formula_units_Z 28
_cell_length_a 16.009479
_cell_length_b 8.057910
_cell_length_c 17.322862
_cell_angle_alpha 90.000000
_cell_angle_beta 33.659971
_cell_angle_gamma 90.000000
_cell_volume 1238.611734
_symmetry_space_group_name_H-M "P 21/C"
_symmetry_group_IT_number 14
_symmetry_cell_setting 'monoclinic'
loop_
_space_group_symop_operation_xyz
x,y,z
-x,1/2+y,1/2-z
-x,-y,-z
x,1/2-y,1/2+z
loop_
_atom_site_type_symbol
_atom_site_label
_atom_site_fract_x
_atom_site_fract_y
_atom_site_fract_z
Si Si1 0.829955 0.096418 0.857065
Si Si2 0.012498 0.215937 0.338709
Si Si3 0.227447 0.795736 0.749292
Si Si4 0.395427 0.998202 0.728868
Si Si5 0.093395 0.181012 0.943075
Si Si6 0.464265 0.664051 0.326873
Si Si7 0.773664 0.025513 0.619030
O O1 0.963423 0.157019 0.810475
O O2 0.793437 0.237104 0.821405
O O3 0.676899 0.078746 0.023013
O O4 0.883772 0.928849 0.774991
O O5 0.855588 0.137594 0.491790
O O6 0.092356 0.295661 0.351474
O O7 0.243016 0.632415 0.790679
O O8 0.364075 0.916911 0.669152
O O9 0.068967 0.871921 0.900772
O O10 0.231277 0.078531 0.872341
O O11 0.506141 0.152921 0.660120
O O12 0.432829 0.850823 0.759595
O O13 0.115159 0.370305 0.954999
O O14 0.614402 0.556518 0.223193
#
# Coordination Sequence:
#
# PCOD9244532 Si02
#       7
#     4   4   4   4   4   4   4
#     4  12  26  39  65  98 134 160 207 277 322 371
#     4  11  23  42  63  96 130 164 211 267 324 368
#     4  11  21  40  65  97 126 166 212 262 318 370
#     4  11  24  41  68  89 128 174 218 256 304 404
#     4  10  20  41  68  93 121 174 217 254 309 391
#     4  11  25  43  64  97 124 171 217 259 322 373
#     4  10  20  45  69  86 127 175 212 252 308 400
#
# _framework density 22.605955000000002
#
# number of rings (size 3 to 8) (size 9 to 14) (size 15 to 20)
#    0.000    1.143    2.857    4.714    4.000    1.143 
#    0.000    1.429    0.000    0.000    0.000    0.000 
#    0.000    0.000    0.000    0.000    0.000    0.000 
#
# Total GULP energy -156546.858674 kJ/mol
# GULP energy per Si atom -5590.959238 kJ/mol
# Density = 2.255450 g / cm^3
# Si number density = 22.605955 Si / 1000 Ang^3
#
#
#
# Elastic Constant Matrix: (Units=GPa)
#
#
# Indices 1 2 3 4 5 6 
#
# 1 107.4739 24.0271 30.8005 0.0000 -4.9395 0.0000
# 2 24.0271 88.7099 8.7450 0.0000 -9.4522 0.0000
# 3 30.8005 8.7450 58.3675 0.0000 -3.2750 0.0000
# 4 0.0000 0.0000 0.0000 9.6981 0.0000 -11.6503
# 5 -4.9395 -9.4522 -3.2750 0.0000 27.2237 0.0000
# 6 0.0000 0.0000 0.0000 -11.6503 0.0000 32.6914
#
#
#
# Elastic Compliance Matrix: (Units=1/GPa)
#
#
# Indices 1 2 3 4 5 6 
#
# 1 0.011514 -0.002502 -0.005671 0.000000 0.000538 0.000000
# 2 -0.002502 0.012388 -0.000322 0.000000 0.003808 0.000000
# 3 -0.005671 -0.000322 0.020246 0.000000 0.001295 0.000000
# 4 0.000000 0.000000 0.000000 0.180303 0.000000 0.064255
# 5 0.000538 0.003808 0.001295 0.000000 0.038308 0.000000
# 6 0.000000 0.000000 0.000000 0.064255 0.000000 0.053488
#
#
# Mechanical properties :
#
#
# Convention : Reuss Voigt Hill
#
# Bulk Modulus (GPa) = 36.82131 42.41074 39.61602
# Shear Modulus (GPa) = 14.60750 26.65454 20.63102
#
# Velocity S-wave (km/s) = 2.54476 3.43752 3.02427
# Velocity P-wave (km/s) = 4.99581 5.87852 5.45505
#
# Compressibility (1/GPa) = 0.02715819
#
# Stress axis : x y z
#
# Youngs Moduli (GPa) = 86.85176 80.72366 49.39202
#
# Poissons Ratio (x) = 0.20198 0.28009
# Poissons Ratio (y) = 0.21732 0.01590
# Poissons Ratio (z) = 0.49252 0.02599
#
# Static dielectric constant tensor:
#      x y z
#    x 1.851460 0.000000 -0.003920 
#    y 0.000000 1.901230 0.000000 
#    z -0.003920 0.000000 1.788420 
# 
# From -- ./inp_files/46716.got.cif
#   From: 2010.05.17/outbox.cif.g08.bks.cpg/sg14_24_cif.got.tgz:46716.got - 2010.06.03 17:49:19.
