data_PCOD9244022
_publ_section_title
;
Structure prediction by ZEFSAII (Michael W. Deem and Ramdas Pophale) SiO2 
 PCOD9244022
Probable space group: P 21/C
;
_chemical_formula_sum "Si O2"
_cell_formula_units_Z 28
_cell_length_a 23.241492
_cell_length_b 7.870448
_cell_length_c 13.875467
_cell_angle_alpha 90.000000
_cell_angle_beta 26.990748
_cell_angle_gamma 90.000000
_cell_volume 1151.914297
_symmetry_space_group_name_H-M "P 21/C"
_symmetry_group_IT_number 14
_symmetry_cell_setting 'monoclinic'
loop_
_space_group_symop_operation_xyz
x,y,z
-x,1/2+y,1/2-z
-x,-y,-z
x,1/2-y,1/2+z
loop_
_atom_site_type_symbol
_atom_site_label
_atom_site_fract_x
_atom_site_fract_y
_atom_site_fract_z
Si Si1 0.921455 0.162340 0.988513
Si Si2 0.347039 0.543603 0.384663
Si Si3 0.635041 0.011884 0.748451
Si Si4 0.106000 0.043594 0.561812
Si Si5 0.344431 0.867773 0.691443
Si Si6 0.534664 0.778586 0.743525
Si Si7 0.939892 0.156804 0.647777
O O1 0.910774 0.354892 0.958473
O O2 0.035917 0.065105 0.767959
O O3 0.787348 0.081622 0.160224
O O4 0.936017 0.188402 0.079972
O O5 0.375265 0.498495 0.230103
O O6 0.366042 0.372262 0.419313
O O7 0.454767 0.664092 0.270587
O O8 0.203461 0.604820 0.612312
O O9 0.747073 0.917290 0.638502
O O10 0.610189 0.934203 0.680537
O O11 0.672254 0.207176 0.709965
O O12 0.500000 0.000000 0.000000
O O13 0.030218 0.169780 0.604781
O O14 0.433589 0.798491 0.472695
O O15 0.000000 0.000000 0.500000
#
# Coordination Sequence:
#
# PCOD9244022 Si02
#       7
#     4   4   4   4   4   4   4
#     4  10  20  39  64  90 126 164 206 262 321 377
#     4  12  23  41  66  93 126 168 214 266 324 380
#     4   9  21  39  62  90 128 165 208 258 315 376
#     4  10  21  38  65  91 125 168 209 259 314 376
#     4  10  20  41  63  90 128 166 208 263 330 373
#     4  11  24  40  64  93 129 166 217 264 318 390
#     4  10  22  38  65  89 124 168 211 250 320 385
#
# _framework density 24.307362999999999
#
# number of rings (size 3 to 8) (size 9 to 14) (size 15 to 20)
#    0.000    1.714    2.857    1.286    6.000    0.000 
#    0.000    0.714    0.000    0.000    0.000    0.000 
#    0.000    0.000    0.000    0.000    0.000    0.000 
#
# Total GULP energy -156400.030873 kJ/mol
# GULP energy per Si atom -5585.715388 kJ/mol
# Density = 2.425204 g / cm^3
# Si number density = 24.307363 Si / 1000 Ang^3
#
#
#
# Elastic Constant Matrix: (Units=GPa)
#
#
# Indices 1 2 3 4 5 6 
#
# 1 148.5103 4.9961 39.9104 0.0000 -23.7346 0.0000
# 2 4.9961 27.9997 6.1788 0.0000 -9.6857 0.0000
# 3 39.9104 6.1788 107.8392 0.0000 -18.7630 0.0000
# 4 0.0000 0.0000 0.0000 19.7737 0.0000 10.5150
# 5 -23.7346 -9.6857 -18.7630 0.0000 42.7221 0.0000
# 6 0.0000 0.0000 0.0000 10.5150 0.0000 28.7169
#
#
#
# Elastic Compliance Matrix: (Units=1/GPa)
#
#
# Indices 1 2 3 4 5 6 
#
# 1 0.007901 0.000293 -0.002345 0.000000 0.003426 0.000000
# 2 0.000293 0.038821 -0.000837 0.000000 0.008596 0.000000
# 3 -0.002345 -0.000837 0.010751 0.000000 0.003229 0.000000
# 4 0.000000 0.000000 0.000000 0.062800 0.000000 -0.022995
# 5 0.003426 0.008596 0.003229 0.000000 0.028678 0.000000
# 6 0.000000 0.000000 0.000000 -0.022995 0.000000 0.043243
#
#
# Mechanical properties :
#
#
# Convention : Reuss Voigt Hill
#
# Bulk Modulus (GPa) = 19.34433 42.94662 31.14548
# Shear Modulus (GPa) = 23.23390 33.79346 28.51368
#
# Velocity S-wave (km/s) = 3.09502 3.73266 3.42869
# Velocity P-wave (km/s) = 4.55496 6.02358 5.34000
#
# Compressibility (1/GPa) = 0.05169473
#
# Stress axis : x y z
#
# Youngs Moduli (GPa) = 126.55941 25.75939 93.01740
#
# Poissons Ratio (x) = -0.00754 0.21812
# Poissons Ratio (y) = -0.03705 0.07785
# Poissons Ratio (z) = 0.29677 0.02156
#
# Static dielectric constant tensor:
#      x y z
#    x 1.991280 0.000000 0.016420 
#    y 0.000000 2.050940 0.000000 
#    z 0.016420 0.000000 1.900460 
# 
# From -- ./inp_files/51114.got.cif
#   From: 2010.05.17/outbox.cif.g08.bks.cpg/sg14_26_cif.got.tgz:51114.got - 2010.06.03 17:49:19.
