data_PCOD9244968
_publ_section_title
;
Structure prediction by ZEFSAII (Michael W. Deem and Ramdas Pophale) SiO2 
 PCOD9244968
Probable space group: P 21/C
;
_chemical_formula_sum "Si O2"
_cell_formula_units_Z 24
_cell_length_a 19.167171
_cell_length_b 5.373690
_cell_length_c 16.564357
_cell_angle_alpha 90.000000
_cell_angle_beta 38.121328
_cell_angle_gamma 90.000000
_cell_volume 1053.226364
_symmetry_space_group_name_H-M "P 21/C"
_symmetry_group_IT_number 14
_symmetry_cell_setting 'monoclinic'
loop_
_space_group_symop_operation_xyz
x,y,z
-x,1/2+y,1/2-z
-x,-y,-z
x,1/2-y,1/2+z
loop_
_atom_site_type_symbol
_atom_site_label
_atom_site_fract_x
_atom_site_fract_y
_atom_site_fract_z
Si Si1 0.905527 0.056483 0.255679
Si Si2 0.685475 0.882450 0.833753
Si Si3 0.483826 0.707564 0.085815
Si Si4 0.152488 0.440122 0.612271
Si Si5 0.895079 0.188149 0.605467
Si Si6 0.725785 0.485695 0.656234
O O1 0.837577 0.285468 0.358207
O O2 0.924733 0.097245 0.142695
O O3 0.027932 0.063027 0.185397
O O4 0.849173 0.794127 0.326457
O O5 0.718763 0.668453 0.739798
O O6 0.595656 0.068709 0.873153
O O7 0.797346 0.038373 0.740775
O O8 0.613022 0.794316 0.977068
O O9 0.404117 0.608164 0.229312
O O10 0.500000 0.500000 0.000000
O O11 0.238056 0.399333 0.460814
O O12 0.826312 0.290390 0.589982
O O13 0.000000 0.000000 0.500000
#
# Coordination Sequence:
#
# PCOD9244968 Si02
#       6
#     4   4   4   4   4   4
#     4  10  24  40  56  86 129 172 200 252 320 379
#     4   9  18  33  57  89 120 153 202 265 314 363
#     4   8  16  33  55  90 113 151 203 265 310 364
#     4  10  23  40  59  82 127 169 209 245 310 394
#     4  11  24  35  61  95 131 165 212 268 322 383
#     4  10  21  35  63  92 118 160 214 262 307 381
#
# _framework density 22.787126000000001
#
# number of rings (size 3 to 8) (size 9 to 14) (size 15 to 20)
#    0.000    2.333    0.000    1.000   14.000    1.333 
#    0.000    0.000    0.000    0.000   26.000    0.000 
#    0.000    0.000    0.000    0.000    0.000    0.000 
#
# Total GULP energy -133796.643814 kJ/mol
# GULP energy per Si atom -5574.860159 kJ/mol
# Density = 2.273526 g / cm^3
# Si number density = 22.787126 Si / 1000 Ang^3
#
#
#
# Elastic Constant Matrix: (Units=GPa)
#
#
# Indices 1 2 3 4 5 6 
#
# 1 42.7403 11.5760 27.5226 0.0000 -5.0055 0.0000
# 2 11.5760 86.0075 42.2798 0.0000 -0.2522 0.0000
# 3 27.5226 42.2798 130.4750 0.0000 -10.9419 0.0000
# 4 0.0000 0.0000 0.0000 44.1828 0.0000 -1.0960
# 5 -5.0055 -0.2522 -10.9419 0.0000 37.1820 0.0000
# 6 0.0000 0.0000 0.0000 -1.0960 0.0000 27.9524
#
#
#
# Elastic Compliance Matrix: (Units=1/GPa)
#
#
# Indices 1 2 3 4 5 6 
#
# 1 0.027310 -0.001101 -0.005225 0.000000 0.002131 0.000000
# 2 -0.001101 0.013932 -0.004395 0.000000 -0.001347 0.000000
# 3 -0.005225 -0.004395 0.010386 0.000000 0.002323 0.000000
# 4 0.000000 0.000000 0.000000 0.022655 0.000000 0.000888
# 5 0.002131 -0.001347 0.002323 0.000000 0.027856 0.000000
# 6 0.000000 0.000000 0.000000 0.000888 0.000000 0.035810
#
#
# Mechanical properties :
#
#
# Convention : Reuss Voigt Hill
#
# Bulk Modulus (GPa) = 33.12977 46.88662 40.00819
# Shear Modulus (GPa) = 29.50679 33.71975 31.61327
#
# Velocity S-wave (km/s) = 3.60236 3.85095 3.72873
# Velocity P-wave (km/s) = 5.64562 6.35561 6.01110
#
# Compressibility (1/GPa) = 0.03018433
#
# Stress axis : x y z
#
# Youngs Moduli (GPa) = 36.61703 71.77847 96.28691
#
# Poissons Ratio (x) = 0.07901 0.50313
# Poissons Ratio (y) = 0.04031 0.42321
# Poissons Ratio (z) = 0.19134 0.31549
#
# Static dielectric constant tensor:
#      x y z
#    x 2.010860 0.000000 -0.045180 
#    y 0.000000 2.085680 0.000000 
#    z -0.045180 0.000000 1.855180 
# 
# From -- ./inp_files/61565.got.cif
#   From: 2010.05.17/outbox.cif.g08.bks.cpg/sg14_31_cif.got.tgz:61565.got - 2010.06.03 17:49:19.
