data_PCOD9244522
_publ_section_title
;
Structure prediction by ZEFSAII (Michael W. Deem and Ramdas Pophale) SiO2 
 PCOD9244522
Probable space group: P 21/C
;
_chemical_formula_sum "Si O2"
_cell_formula_units_Z 16
_cell_length_a 12.844999
_cell_length_b 5.106974
_cell_length_c 13.994493
_cell_angle_alpha 90.000000
_cell_angle_beta 45.681822
_cell_angle_gamma 90.000000
_cell_volume 656.820948
_symmetry_space_group_name_H-M "P 21/C"
_symmetry_group_IT_number 14
_symmetry_cell_setting 'monoclinic'
loop_
_space_group_symop_operation_xyz
x,y,z
-x,1/2+y,1/2-z
-x,-y,-z
x,1/2-y,1/2+z
loop_
_atom_site_type_symbol
_atom_site_label
_atom_site_fract_x
_atom_site_fract_y
_atom_site_fract_z
Si Si1 0.513321 0.418719 0.358078
Si Si2 0.670784 0.935124 0.316733
Si Si3 0.092105 0.518758 0.174129
Si Si4 0.726908 0.180734 0.086294
O O1 0.543267 0.151634 0.393800
O O2 0.592852 0.368882 0.204946
O O3 0.348434 0.497297 0.444730
O O4 0.393244 0.352983 0.653646
O O5 0.774846 0.975935 0.338939
O O6 0.757790 0.015401 0.162275
O O7 0.010740 0.243895 0.215178
O O8 0.148627 0.645689 0.039295
#
# Coordination Sequence:
#
# PCOD9244522 Si02
#       4
#     4   4   4   4
#     4  10  20  41  68 100 118 162 207 268 336 354
#     4  10  22  42  65  97 124 167 209 263 326 361
#     4  12  29  43  61  95 132 177 216 251 307 383
#     4  10  23  42  70  94 133 155 215 267 317 388
#
# _framework density 24.359760999999999
#
# number of rings (size 3 to 8) (size 9 to 14) (size 15 to 20)
#    1.500    0.000    2.500    1.500    3.500    4.000 
#    0.000    0.000    0.000    0.000    0.000    0.000 
#    0.000    0.000    0.000    0.000    0.000    0.000 
#
# Total GULP energy -89571.866276 kJ/mol
# GULP energy per Si atom -5598.241642 kJ/mol
# Density = 2.430432 g / cm^3
# Si number density = 24.359761 Si / 1000 Ang^3
#
#
#
# Elastic Constant Matrix: (Units=GPa)
#
#
# Indices 1 2 3 4 5 6 
#
# 1 55.2230 39.6855 22.8307 0.0000 8.0151 0.0000
# 2 39.6855 147.4863 12.6212 0.0000 -0.2140 0.0000
# 3 22.8307 12.6212 71.3555 0.0000 7.5369 0.0000
# 4 0.0000 0.0000 0.0000 42.5099 0.0000 -2.5506
# 5 8.0151 -0.2140 7.5369 0.0000 30.1788 0.0000
# 6 0.0000 0.0000 0.0000 -2.5506 0.0000 45.6677
#
#
#
# Elastic Compliance Matrix: (Units=1/GPa)
#
#
# Indices 1 2 3 4 5 6 
#
# 1 0.026350 -0.006524 -0.006710 0.000000 -0.005369 0.000000
# 2 -0.006524 0.008504 0.000405 0.000000 0.001692 0.000000
# 3 -0.006710 0.000405 0.016332 0.000000 -0.002294 0.000000
# 4 0.000000 0.000000 0.000000 0.023603 0.000000 0.001318
# 5 -0.005369 0.001692 -0.002294 0.000000 0.035147 0.000000
# 6 0.000000 0.000000 0.000000 0.001318 0.000000 0.021971
#
#
# Mechanical properties :
#
#
# Convention : Reuss Voigt Hill
#
# Bulk Modulus (GPa) = 39.17396 47.14885 43.16140
# Shear Modulus (GPa) = 30.10717 36.93310 33.52013
#
# Velocity S-wave (km/s) = 3.51941 3.89800 3.71353
# Velocity P-wave (km/s) = 5.71238 6.29734 6.01198
#
# Compressibility (1/GPa) = 0.02552716
#
# Stress axis : x y z
#
# Youngs Moduli (GPa) = 37.95068 117.59787 61.22967
#
# Poissons Ratio (x) = 0.76719 0.41084
# Poissons Ratio (y) = 0.24758 -0.02477
# Poissons Ratio (z) = 0.25464 -0.04757
#
# Static dielectric constant tensor:
#      x y z
#    x 1.864300 0.000000 0.069560 
#    y 0.000000 1.937460 0.000000 
#    z 0.069560 0.000000 2.102520 
# 
# From -- ./inp_files/38431.got.cif
#   From: 2010.05.17/outbox.cif.g08.bks.cpg/sg14_20_cif.got.tgz:38431.got - 2010.06.03 17:49:19.
