data_PCOD9244442
_publ_section_title
;
Structure prediction by ZEFSAII (Michael W. Deem and Ramdas Pophale) SiO2 
 PCOD9244442
Probable space group: P 21/C
;
_chemical_formula_sum "Si O2"
_cell_formula_units_Z 32
_cell_length_a 11.485251
_cell_length_b 14.604274
_cell_length_c 9.514246
_cell_angle_alpha 90.000000
_cell_angle_beta 131.246147
_cell_angle_gamma 90.000000
_cell_volume 1199.901971
_symmetry_space_group_name_H-M "P 21/C"
_symmetry_group_IT_number 14
_symmetry_cell_setting 'monoclinic'
loop_
_space_group_symop_operation_xyz
x,y,z
-x,1/2+y,1/2-z
-x,-y,-z
x,1/2-y,1/2+z
loop_
_atom_site_type_symbol
_atom_site_label
_atom_site_fract_x
_atom_site_fract_y
_atom_site_fract_z
Si Si1 0.961952 0.091958 0.128955
Si Si2 0.812368 0.710252 0.872245
Si Si3 0.311322 0.584449 0.797459
Si Si4 0.277258 0.110075 0.233868
Si Si5 0.644283 0.085333 0.179124
Si Si6 0.842418 0.934524 0.168529
Si Si7 0.154656 0.761443 0.753536
Si Si8 0.559330 0.582628 0.757363
O O1 0.120389 0.124286 0.194999
O O2 0.867261 0.171479 0.131737
O O3 0.984498 0.999484 0.237464
O O4 0.850857 0.066898 0.912642
O O5 0.675874 0.784008 0.732195
O O6 0.867654 0.654654 0.779429
O O7 0.722002 0.635759 0.895932
O O8 0.972727 0.748569 0.066350
O O9 0.349698 0.478463 0.864591
O O10 0.256866 0.669440 0.850571
O O11 0.438870 0.611437 0.781853
O O12 0.247886 0.090043 0.045464
O O13 0.750535 0.174346 0.281556
O O14 0.747295 0.006864 0.185745
O O15 0.581183 0.028501 0.262416
O O16 0.515844 0.105759 0.956952
#
# Coordination Sequence:
#
# PCOD9244442 Si02
#       8
#     4   4   4   4   4   4   4   4
#     4  10  21  38  63  89 121 164 217 252 310 375
#     4  11  25  35  65 100 130 156 212 266 326 363
#     4  11  21  41  66  91 126 171 219 255 315 381
#     4  11  22  38  62  96 121 166 217 265 300 377
#     4   9  19  40  70  85 122 172 222 248 311 387
#     4   9  19  39  61  88 121 165 205 255 305 382
#     4  11  23  40  65  98 128 165 208 269 319 376
#     4  10  20  41  62  96 121 170 218 255 308 390
#
# _framework density 26.668845000000001
#
# number of rings (size 3 to 8) (size 9 to 14) (size 15 to 20)
#    0.000    1.750    5.000    1.500    1.750    5.500 
#    0.000    0.000    0.000    1.500    0.000    0.000 
#    0.000    0.000    0.000    0.000    0.000    0.000 
#
# Total GULP energy -178573.311760 kJ/mol
# GULP energy per Si atom -5580.415993 kJ/mol
# Density = 2.660815 g / cm^3
# Si number density = 26.668845 Si / 1000 Ang^3
#
#
#
# Elastic Constant Matrix: (Units=GPa)
#
#
# Indices 1 2 3 4 5 6 
#
# 1 76.4398 14.3019 7.6768 0.0000 2.7639 0.0000
# 2 14.3019 150.9819 18.7474 0.0000 -3.5560 0.0000
# 3 7.6768 18.7474 66.8021 0.0000 11.2139 0.0000
# 4 0.0000 0.0000 0.0000 18.6518 0.0000 -3.8014
# 5 2.7639 -3.5560 11.2139 0.0000 27.1729 0.0000
# 6 0.0000 0.0000 0.0000 -3.8014 0.0000 40.1971
#
#
#
# Elastic Compliance Matrix: (Units=1/GPa)
#
#
# Indices 1 2 3 4 5 6 
#
# 1 0.013445 -0.001171 -0.001033 0.000000 -0.001095 0.000000
# 2 -0.001171 0.007049 -0.002169 0.000000 0.001937 0.000000
# 3 -0.001033 -0.002169 0.016898 0.000000 -0.007152 0.000000
# 4 0.000000 0.000000 0.000000 0.054668 0.000000 0.005170
# 5 -0.001095 0.001937 -0.007152 0.000000 0.040118 0.000000
# 6 0.000000 0.000000 0.000000 0.005170 0.000000 0.025366
#
#
# Mechanical properties :
#
#
# Convention : Reuss Voigt Hill
#
# Bulk Modulus (GPa) = 34.90862 41.74177 38.32519
# Shear Modulus (GPa) = 28.43543 34.10420 31.26982
#
# Velocity S-wave (km/s) = 3.26888 3.57992 3.42793
# Velocity P-wave (km/s) = 5.23120 5.72482 5.48357
#
# Compressibility (1/GPa) = 0.02864622
#
# Stress axis : x y z
#
# Youngs Moduli (GPa) = 74.37937 141.86090 59.18026
#
# Poissons Ratio (x) = 0.16613 0.06111
# Poissons Ratio (y) = 0.08711 0.12835
# Poissons Ratio (z) = 0.07681 0.30767
#
# Static dielectric constant tensor:
#      x y z
#    x 2.116850 0.000000 -0.018030 
#    y 0.000000 2.274090 0.000000 
#    z -0.018030 0.000000 2.145760 
# 
# From -- ./inp_files/30063.got.cif
#   From: 2010.05.17/outbox.cif.g08.bks.cpg/sg14_16_cif.got.tgz:30063.got - 2010.06.03 17:49:19.
