data_PCOD9244515
_publ_section_title
;
Structure prediction by ZEFSAII (Michael W. Deem and Ramdas Pophale) SiO2 
 PCOD9244515
Probable space group: P 21/C
;
_chemical_formula_sum "Si O2"
_cell_formula_units_Z 32
_cell_length_a 19.166747
_cell_length_b 5.171347
_cell_length_c 32.684972
_cell_angle_alpha 90.000000
_cell_angle_beta 27.153723
_cell_angle_gamma 90.000000
_cell_volume 1478.516750
_symmetry_space_group_name_H-M "P 21/C"
_symmetry_group_IT_number 14
_symmetry_cell_setting 'monoclinic'
loop_
_space_group_symop_operation_xyz
x,y,z
-x,1/2+y,1/2-z
-x,-y,-z
x,1/2-y,1/2+z
loop_
_atom_site_type_symbol
_atom_site_label
_atom_site_fract_x
_atom_site_fract_y
_atom_site_fract_z
Si Si1 0.501018 0.978576 0.451381
Si Si2 0.612101 0.735598 0.775067
Si Si3 0.858932 0.096785 0.600472
Si Si4 0.848525 0.159328 0.189708
Si Si5 0.980448 0.978995 0.204472
Si Si6 0.841748 0.515770 0.862609
Si Si7 0.624102 0.009361 0.845765
Si Si8 0.421113 0.718970 0.303081
O O1 0.323126 0.945197 0.533687
O O2 0.602484 0.737095 0.385114
O O3 0.500000 0.000000 0.500000
O O4 0.557724 0.242257 0.402074
O O5 0.699006 0.504042 0.753030
O O6 0.467508 0.663826 0.822893
O O7 0.745797 0.873767 0.678121
O O8 0.549902 0.931726 0.841457
O O9 0.916674 0.254093 0.610474
O O10 0.745218 0.258172 0.630062
O O11 0.000000 0.000000 0.500000
O O12 0.792971 0.415245 0.242842
O O13 0.935705 0.012475 0.180355
O O14 0.105282 0.198173 0.151688
O O15 0.852620 0.014845 0.307212
O O16 0.042390 0.693918 0.180093
O O17 0.473702 0.420534 0.277842
#
# Coordination Sequence:
#
# PCOD9244515 Si02
#       8
#     4   4   4   4   4   4   4   4
#     4  12  24  42  66  99 135 170 222 283 334 388
#     4  10  22  42  70  95 133 178 227 272 342 414
#     4  10  23  42  67 104 133 173 227 282 339 409
#     4  11  22  43  69  95 133 175 231 270 339 404
#     4  10  23  41  67  90 130 181 219 265 331 400
#     4  10  23  42  62  94 132 175 222 267 332 401
#     4  11  24  39  65 100 131 170 223 274 329 398
#     4  10  20  41  67  93 129 172 214 269 336 406
#
# _framework density 21.643314
#
# number of rings (size 3 to 8) (size 9 to 14) (size 15 to 20)
#    0.000    1.500    2.500    1.875    3.500    2.500 
#    2.250    1.250    0.000    0.000    0.000    0.000 
#    0.000    0.000    0.000    0.000    0.000    0.000 
#
# Total GULP energy -178449.479916 kJ/mol
# GULP energy per Si atom -5576.546247 kJ/mol
# Density = 2.159405 g / cm^3
# Si number density = 21.643314 Si / 1000 Ang^3
#
#
#
# Elastic Constant Matrix: (Units=GPa)
#
#
# Indices 1 2 3 4 5 6 
#
# 1 143.5578 24.3257 48.9169 0.0000 24.0989 0.0000
# 2 24.3257 91.9184 24.2622 0.0000 19.3654 0.0000
# 3 48.9169 24.2622 67.3011 0.0000 29.8777 0.0000
# 4 0.0000 0.0000 0.0000 25.2243 0.0000 12.3907
# 5 24.0989 19.3654 29.8777 0.0000 26.9310 0.0000
# 6 0.0000 0.0000 0.0000 12.3907 0.0000 25.9989
#
#
#
# Elastic Compliance Matrix: (Units=1/GPa)
#
#
# Indices 1 2 3 4 5 6 
#
# 1 0.009325 -0.000623 -0.006005 0.000000 -0.001234 0.000000
# 2 -0.000623 0.012900 -0.000645 0.000000 -0.008004 0.000000
# 3 -0.006005 -0.000645 0.033231 0.000000 -0.031030 0.000000
# 4 0.000000 0.000000 0.000000 0.051762 0.000000 -0.024669
# 5 -0.001234 -0.008004 -0.031030 0.000000 0.078417 0.000000
# 6 0.000000 0.000000 0.000000 -0.024669 0.000000 0.050220
#
#
# Mechanical properties :
#
#
# Convention : Reuss Voigt Hill
#
# Bulk Modulus (GPa) = 24.44322 55.30963 39.87643
# Shear Modulus (GPa) = 18.93664 29.31568 24.12616
#
# Velocity S-wave (km/s) = 2.96115 3.68433 3.34236
# Velocity P-wave (km/s) = 4.79681 6.61133 5.77577
#
# Compressibility (1/GPa) = 0.04091113
#
# Stress axis : x y z
#
# Youngs Moduli (GPa) = 107.24111 77.51665 30.09203
#
# Poissons Ratio (x) = 0.04826 0.18071
# Poissons Ratio (y) = 0.06677 0.01941
# Poissons Ratio (z) = 0.64401 0.04999
#
# Static dielectric constant tensor:
#      x y z
#    x 1.898710 0.000000 -0.020900 
#    y 0.000000 1.852950 0.000000 
#    z -0.020900 0.000000 1.810820 
# 
# From -- ./inp_files/80291.got.cif
#   From: 2010.05.17/outbox.cif.g08.bks.cpg/sg14_41_cif.got.tgz:80291.got - 2010.06.03 17:49:19.
