data_PCOD9244639
_publ_section_title
;
Structure prediction by ZEFSAII (Michael W. Deem and Ramdas Pophale) SiO2 
 PCOD9244639
Probable space group: P 21/C
;
_chemical_formula_sum "Si O2"
_cell_formula_units_Z 32
_cell_length_a 9.341525
_cell_length_b 16.610258
_cell_length_c 21.735378
_cell_angle_alpha 90.000000
_cell_angle_beta 27.483630
_cell_angle_gamma 90.000000
_cell_volume 1556.426127
_symmetry_space_group_name_H-M "P 21/C"
_symmetry_group_IT_number 14
_symmetry_cell_setting 'monoclinic'
loop_
_space_group_symop_operation_xyz
x,y,z
-x,1/2+y,1/2-z
-x,-y,-z
x,1/2-y,1/2+z
loop_
_atom_site_type_symbol
_atom_site_label
_atom_site_fract_x
_atom_site_fract_y
_atom_site_fract_z
Si Si1 0.138431 0.546732 0.389478
Si Si2 0.700927 0.453937 0.210365
Si Si3 0.966503 0.274522 0.531040
Si Si4 0.938709 0.939328 0.194529
Si Si5 0.384748 0.313916 0.257412
Si Si6 0.248900 0.855299 0.186278
Si Si7 0.578407 0.531931 0.037610
Si Si8 0.300444 0.208568 0.517833
O O1 0.504480 0.530635 0.262096
O O2 0.069713 0.639740 0.422178
O O3 0.990269 0.503087 0.386577
O O4 0.000000 0.500000 0.500000
O O5 0.588420 0.389206 0.203299
O O6 0.622604 0.408731 0.305365
O O7 0.062000 0.473311 0.080310
O O8 0.629533 0.247560 0.636145
O O9 0.210088 0.278175 0.383036
O O10 0.086791 0.216868 0.538940
O O11 0.864886 0.853202 0.192142
O O12 0.160035 0.918627 0.166903
O O13 0.627386 0.978080 0.340117
O O14 0.480470 0.787475 0.070352
O O15 0.939986 0.810545 0.333845
O O16 0.501922 0.627091 0.066321
O O17 0.500000 0.500000 0.000000
#
# Coordination Sequence:
#
# PCOD9244639 Si02
#       8
#     4   4   4   4   4   4   4   4
#     4  11  23  43  66  94 132 173 221 274 330 390
#     4  10  20  42  66  93 129 169 219 269 323 397
#     4  12  22  43  68  95 127 180 222 272 321 409
#     4  11  25  42  66  95 139 167 213 287 329 383
#     4  11  24  41  66  95 134 167 222 273 330 385
#     4  11  22  44  66  97 135 173 218 275 331 402
#     4  11  22  43  68  97 130 171 222 273 329 394
#     4  11  22  41  71  92 128 177 228 261 331 404
#
# _framework density 20.559922
#
# number of rings (size 3 to 8) (size 9 to 14) (size 15 to 20)
#    0.000    1.000    8.750    0.000    3.500    4.000 
#    2.250    2.500    0.000    0.000    0.000    0.000 
#    0.000    0.000    0.000    0.000    0.000    0.000 
#
# Total GULP energy -178402.539857 kJ/mol
# GULP energy per Si atom -5575.079371 kJ/mol
# Density = 2.051313 g / cm^3
# Si number density = 20.559922 Si / 1000 Ang^3
#
#
#
# Elastic Constant Matrix: (Units=GPa)
#
#
# Indices 1 2 3 4 5 6 
#
# 1 66.0527 3.9895 -9.4022 0.0000 6.4250 0.0000
# 2 3.9895 32.5819 -17.1550 0.0000 -5.9166 0.0000
# 3 -9.4022 -17.1550 51.9322 0.0000 -0.6930 0.0000
# 4 0.0000 0.0000 0.0000 37.6402 0.0000 -10.4594
# 5 6.4250 -5.9166 -0.6930 0.0000 29.1441 0.0000
# 6 0.0000 0.0000 0.0000 -10.4594 0.0000 37.4253
#
#
#
# Elastic Compliance Matrix: (Units=1/GPa)
#
#
# Indices 1 2 3 4 5 6 
#
# 1 0.015924 -0.001375 0.002379 0.000000 -0.003733 0.000000
# 2 -0.001375 0.039153 0.012799 0.000000 0.008556 0.000000
# 3 0.002379 0.012799 0.023950 0.000000 0.002643 0.000000
# 4 0.000000 0.000000 0.000000 0.028804 0.000000 0.008050
# 5 -0.003733 0.008556 0.002643 0.000000 0.036935 0.000000
# 6 0.000000 0.000000 0.000000 0.008050 0.000000 0.028970
#
#
# Mechanical properties :
#
#
# Convention : Reuss Voigt Hill
#
# Bulk Modulus (GPa) = 9.37810 11.71460 10.54635
# Shear Modulus (GPa) = 27.52175 32.38423 29.95299
#
# Velocity S-wave (km/s) = 3.66267 3.97308 3.82103
# Velocity P-wave (km/s) = 4.73900 5.17274 4.96062
#
# Compressibility (1/GPa) = 0.10663140
#
# Stress axis : x y z
#
# Youngs Moduli (GPa) = 62.79726 25.54107 41.75417
#
# Poissons Ratio (x) = 0.03512 -0.09933
# Poissons Ratio (y) = 0.08636 -0.53440
# Poissons Ratio (z) = -0.14939 -0.32689
#
# Static dielectric constant tensor:
#      x y z
#    x 1.745500 0.000000 -0.018810 
#    y 0.000000 1.706030 0.000000 
#    z -0.018810 0.000000 1.785940 
# 
# From -- ./inp_files/66028.got.cif
#   From: 2010.05.17/outbox.cif.g08.bks.cpg/sg14_34_cif.got.tgz:66028.got - 2010.06.03 17:49:19.
