data_PCOD9244581
_publ_section_title
;
Structure prediction by ZEFSAII (Michael W. Deem and Ramdas Pophale) SiO2 
 PCOD9244581
Probable space group: P 21/C
;
_chemical_formula_sum "Si O2"
_cell_formula_units_Z 30
_cell_length_a 19.379921
_cell_length_b 9.003658
_cell_length_c 15.949168
_cell_angle_alpha 90.000000
_cell_angle_beta 150.239898
_cell_angle_gamma 90.000000
_cell_volume 1381.383216
_symmetry_space_group_name_H-M "P 21/C"
_symmetry_group_IT_number 14
_symmetry_cell_setting 'monoclinic'
loop_
_space_group_symop_operation_xyz
x,y,z
-x,1/2+y,1/2-z
-x,-y,-z
x,1/2-y,1/2+z
loop_
_atom_site_type_symbol
_atom_site_label
_atom_site_fract_x
_atom_site_fract_y
_atom_site_fract_z
Si Si1 0.951187 0.984343 0.253710
Si Si2 0.750116 0.941085 0.632194
Si Si3 0.790068 0.272594 0.679929
Si Si4 0.195765 0.214086 0.472858
Si Si5 0.410148 0.807903 0.886471
Si Si6 0.959735 0.784262 0.424620
Si Si7 0.500000 0.000000 0.500000
Si Si8 0.702543 0.899040 0.256888
O O1 0.883081 0.870456 0.116643
O O2 0.990663 0.878278 0.373802
O O3 0.836826 0.101810 0.165182
O O4 0.079652 0.084882 0.360705
O O5 0.723816 0.828353 0.527284
O O6 0.884828 0.868680 0.819133
O O7 0.625807 0.957747 0.566769
O O8 0.776729 0.108409 0.628473
O O9 0.651408 0.317181 0.583716
O O10 0.909273 0.264120 0.877452
O O11 0.289840 0.205442 0.654272
O O12 0.403638 0.636008 0.858422
O O13 0.326102 0.931215 0.747357
O O14 0.571193 0.853391 0.062346
O O15 0.842675 0.875301 0.352873
#
# Coordination Sequence:
#
# PCOD9244581 Si02
#       8
#     4   4   4   4   4   4   2   4
#     4  11  22  39  61  93 132 167 212 270 333 398
#     4  10  23  39  63  93 132 170 211 279 333 392
#     4  11  20  38  64  95 124 168 219 268 318 398
#     4  11  24  39  61  94 135 169 213 276 344 394
#     4  10  22  38  67  91 125 170 216 270 319 389
#     4  11  20  38  68  93 123 170 227 266 327 398
#     4  10  20  42  62  90 128 166 218 266 324 394
#     4  11  21  40  64  92 127 172 223 268 327 398
#
# _framework density 21.717362000000001
#
# number of rings (size 3 to 8) (size 9 to 14) (size 15 to 20)
#    0.000    1.333    4.000    2.400    0.000    0.000 
#    0.000    8.000    0.000    0.000    0.000    0.000 
#    0.000    0.000    0.000    0.000    0.000    0.000 
#
# Total GULP energy -167044.945013 kJ/mol
# GULP energy per Si atom -5568.164834 kJ/mol
# Density = 2.166793 g / cm^3
# Si number density = 21.717362 Si / 1000 Ang^3
#
#
#
# Elastic Constant Matrix: (Units=GPa)
#
#
# Indices 1 2 3 4 5 6 
#
# 1 33.5265 14.8532 -2.4825 0.0000 12.8547 0.0000
# 2 14.8532 95.8748 5.8725 0.0000 2.6631 0.0000
# 3 -2.4825 5.8725 30.0078 0.0000 1.4095 0.0000
# 4 0.0000 0.0000 0.0000 29.0155 0.0000 -5.0577
# 5 12.8547 2.6631 1.4095 0.0000 28.9012 0.0000
# 6 0.0000 0.0000 0.0000 -5.0577 0.0000 23.7639
#
#
#
# Elastic Compliance Matrix: (Units=1/GPa)
#
#
# Indices 1 2 3 4 5 6 
#
# 1 0.039474 -0.005957 0.005242 0.000000 -0.017264 0.000000
# 2 -0.005957 0.011478 -0.002820 0.000000 0.001729 0.000000
# 3 0.005242 -0.002820 0.034487 0.000000 -0.003754 0.000000
# 4 0.000000 0.000000 0.000000 0.035792 0.000000 0.007618
# 5 -0.017264 0.001729 -0.003754 0.000000 0.042303 0.000000
# 6 0.000000 0.000000 0.000000 0.007618 0.000000 0.043702
#
#
# Mechanical properties :
#
#
# Convention : Reuss Voigt Hill
#
# Bulk Modulus (GPa) = 12.76024 21.76616 17.26320
# Shear Modulus (GPa) = 20.79626 25.74718 23.27172
#
# Velocity S-wave (km/s) = 3.09785 3.44693 3.27704
# Velocity P-wave (km/s) = 4.32249 5.08783 4.72069
#
# Compressibility (1/GPa) = 0.07836843
#
# Stress axis : x y z
#
# Youngs Moduli (GPa) = 25.33328 87.12433 28.99678
#
# Poissons Ratio (x) = 0.51900 -0.15201
# Poissons Ratio (y) = 0.15091 0.08178
# Poissons Ratio (z) = -0.13280 0.24571
#
# Static dielectric constant tensor:
#      x y z
#    x 1.804170 0.000000 -0.011090 
#    y 0.000000 1.861560 0.000000 
#    z -0.011090 0.000000 1.777210 
# 
# From -- ./inp_files/61095.got.cif
#   From: 2010.05.17/outbox.cif.g08.bks.cpg/sg14_31_cif.got.tgz:61095.got - 2010.06.03 17:49:19.
