data_PCOD9244672
_publ_section_title
;
Structure prediction by ZEFSAII (Michael W. Deem and Ramdas Pophale) SiO2 
 PCOD9244672
Probable space group: P 21/C
;
_chemical_formula_sum "Si O2"
_cell_formula_units_Z 24
_cell_length_a 10.845258
_cell_length_b 21.965686
_cell_length_c 7.998077
_cell_angle_alpha 90.000000
_cell_angle_beta 32.758970
_cell_angle_gamma 90.000000
_cell_volume 1030.985833
_symmetry_space_group_name_H-M "P 21/C"
_symmetry_group_IT_number 14
_symmetry_cell_setting 'monoclinic'
loop_
_space_group_symop_operation_xyz
x,y,z
-x,1/2+y,1/2-z
-x,-y,-z
x,1/2-y,1/2+z
loop_
_atom_site_type_symbol
_atom_site_label
_atom_site_fract_x
_atom_site_fract_y
_atom_site_fract_z
Si Si1 0.520419 0.681474 0.786243
Si Si2 0.312169 0.932072 0.378352
Si Si3 0.047239 0.366343 0.895345
Si Si4 0.664951 0.928979 0.670091
Si Si5 0.903279 0.256568 0.254117
Si Si6 0.780824 0.815144 0.319494
O O1 0.416876 0.613579 0.893654
O O2 0.591375 0.698727 0.892793
O O3 0.735212 0.671494 0.417539
O O4 0.345592 0.731975 0.915736
O O5 0.063163 0.906682 0.622023
O O6 0.323344 0.002611 0.410059
O O7 0.450902 0.924981 0.042814
O O8 0.122943 0.413079 0.951278
O O9 0.880521 0.314445 0.157057
O O10 0.689002 0.877889 0.501549
O O11 0.103230 0.280731 0.151048
O O12 0.001446 0.197155 0.048094
#
# Coordination Sequence:
#
# PCOD9244672 Si02
#       6
#     4   4   4   4   4   4
#     4  11  24  42  64  93 130 170 215 268 328 387
#     4  10  20  42  68  96 130 171 216 268 323 385
#     4  10  22  42  67  94 127 170 218 266 321 387
#     4   9  22  40  67  98 129 169 219 268 321 385
#     4  11  25  42  62  91 128 168 213 265 324 386
#     4  11  24  42  63  94 128 170 215 266 326 387
#
# _framework density 23.278690000000001
#
# number of rings (size 3 to 8) (size 9 to 14) (size 15 to 20)
#    0.000    1.667    0.000    3.500    0.000   12.667 
#    0.000    8.333    0.000    0.000    0.000    0.000 
#    0.000    0.000    0.000    0.000    0.000    0.000 
#
# Total GULP energy -133660.661370 kJ/mol
# GULP energy per Si atom -5569.194224 kJ/mol
# Density = 2.322571 g / cm^3
# Si number density = 23.278690 Si / 1000 Ang^3
#
#
#
# Elastic Constant Matrix: (Units=GPa)
#
#
# Indices 1 2 3 4 5 6 
#
# 1 117.3977 45.6581 23.8393 0.0000 1.8347 0.0000
# 2 45.6581 147.8724 67.0915 0.0000 1.6954 0.0000
# 3 23.8393 67.0915 68.6128 0.0000 5.0118 0.0000
# 4 0.0000 0.0000 0.0000 37.1940 0.0000 9.2676
# 5 1.8347 1.6954 5.0118 0.0000 21.8407 0.0000
# 6 0.0000 0.0000 0.0000 9.2676 0.0000 39.2854
#
#
#
# Elastic Compliance Matrix: (Units=1/GPa)
#
#
# Indices 1 2 3 4 5 6 
#
# 1 0.009709 -0.002654 -0.000746 0.000000 -0.000438 0.000000
# 2 -0.002654 0.012952 -0.011885 0.000000 0.001945 0.000000
# 3 -0.000746 -0.011885 0.026833 0.000000 -0.005172 0.000000
# 4 0.000000 0.000000 0.000000 0.028565 0.000000 -0.006739
# 5 -0.000438 0.001945 -0.005172 0.000000 0.046859 0.000000
# 6 0.000000 0.000000 0.000000 -0.006739 0.000000 0.027044
#
#
# Mechanical properties :
#
#
# Convention : Reuss Voigt Hill
#
# Bulk Modulus (GPa) = 52.84349 67.45118 60.14734
# Shear Modulus (GPa) = 26.47751 32.81694 29.64722
#
# Velocity S-wave (km/s) = 3.37622 3.75873 3.57259
# Velocity P-wave (km/s) = 6.16020 6.91923 6.55072
#
# Compressibility (1/GPa) = 0.01892381
#
# Stress axis : x y z
#
# Youngs Moduli (GPa) = 103.00087 77.20736 37.26794
#
# Poissons Ratio (x) = 0.20493 0.02779
# Poissons Ratio (y) = 0.27340 0.44292
# Poissons Ratio (z) = 0.07681 0.91759
#
# Static dielectric constant tensor:
#      x y z
#    x 1.922520 0.000000 -0.028140 
#    y 0.000000 1.897320 0.000000 
#    z -0.028140 0.000000 1.969130 
# 
# From -- ./inp_files/14511.got.cif
#   From: 2010.05.17/outbox.cif.g08.bks.cpg/sg14_8_cif.got.tgz:14511.got - 2010.06.03 17:49:19.
