data_PCOD9244356
_publ_section_title
;
Structure prediction by ZEFSAII (Michael W. Deem and Ramdas Pophale) SiO2 
 PCOD9244356
Probable space group: P 21/C
;
_chemical_formula_sum "Si O2"
_cell_formula_units_Z 26
_cell_length_a 28.116617
_cell_length_b 5.935135
_cell_length_c 13.712851
_cell_angle_alpha 90.000000
_cell_angle_beta 29.453845
_cell_angle_gamma 90.000000
_cell_volume 1125.230020
_symmetry_space_group_name_H-M "P 21/C"
_symmetry_group_IT_number 14
_symmetry_cell_setting 'monoclinic'
loop_
_space_group_symop_operation_xyz
x,y,z
-x,1/2+y,1/2-z
-x,-y,-z
x,1/2-y,1/2+z
loop_
_atom_site_type_symbol
_atom_site_label
_atom_site_fract_x
_atom_site_fract_y
_atom_site_fract_z
Si Si1 0.391926 0.233373 0.357171
Si Si2 0.425592 0.421617 0.498792
Si Si3 0.948786 0.054181 0.944851
Si Si4 0.274270 0.504218 0.910152
Si Si5 0.910197 0.213909 0.705316
Si Si6 0.500000 0.500000 0.000000
Si Si7 0.129284 0.330254 0.588428
O O1 0.370511 0.333996 0.501295
O O2 0.309434 0.088123 0.451223
O O3 0.425425 0.426266 0.222294
O O4 0.483980 0.066283 0.200315
O O5 0.363327 0.581631 0.683481
O O6 0.459142 0.214743 0.506169
O O7 0.041728 0.157738 0.724287
O O8 0.870307 0.989764 0.005289
O O9 0.909012 0.231043 0.093717
O O10 0.996028 0.843960 0.918895
O O11 0.187810 0.677284 0.077042
O O12 0.227198 0.295637 0.936219
O O13 0.904390 0.962131 0.754373
#
# Coordination Sequence:
#
# PCOD9244356 Si02
#       7
#     4   4   4   4   4   2   4
#     4  11  23  44  68  95 130 178 221 270 332 394
#     4  11  23  44  70  95 131 176 221 270 335 394
#     4  10  21  39  67  87 126 166 212 250 313 390
#     4  10  25  39  62  98 131 158 217 277 310 384
#     4  10  22  42  61  93 123 167 208 261 316 374
#     4  10  20  40  68  92 124 166 220 264 318 394
#     4  11  21  41  63  94 125 168 209 260 322 378
#
# _framework density 23.106383999999998
#
# number of rings (size 3 to 8) (size 9 to 14) (size 15 to 20)
#    0.000    1.538    3.077    2.308    2.154    4.923 
#    2.769    0.000    0.000    0.000    0.000    0.000 
#    0.000    0.000    0.000    0.000    0.000    0.000 
#
# Total GULP energy -144877.210057 kJ/mol
# GULP energy per Si atom -5572.200387 kJ/mol
# Density = 2.305379 g / cm^3
# Si number density = 23.106384 Si / 1000 Ang^3
#
#
#
# Elastic Constant Matrix: (Units=GPa)
#
#
# Indices 1 2 3 4 5 6 
#
# 1 105.7920 -0.3041 19.0180 0.0000 12.2010 0.0000
# 2 -0.3041 15.5693 7.9976 0.0000 -2.0726 0.0000
# 3 19.0180 7.9976 44.8828 0.0000 9.2939 0.0000
# 4 0.0000 0.0000 0.0000 30.4624 0.0000 0.2285
# 5 12.2010 -2.0726 9.2939 0.0000 38.8413 0.0000
# 6 0.0000 0.0000 0.0000 0.2285 0.0000 19.4214
#
#
#
# Elastic Compliance Matrix: (Units=1/GPa)
#
#
# Indices 1 2 3 4 5 6 
#
# 1 0.010494 0.002179 -0.004394 0.000000 -0.002129 0.000000
# 2 0.002179 0.073087 -0.015374 0.000000 0.006894 0.000000
# 3 -0.004394 -0.015374 0.028161 0.000000 -0.006178 0.000000
# 4 0.000000 0.000000 0.000000 0.032830 0.000000 -0.000386
# 5 -0.002129 0.006894 -0.006178 0.000000 0.028261 0.000000
# 6 0.000000 0.000000 0.000000 -0.000386 0.000000 0.051494
#
#
# Mechanical properties :
#
#
# Convention : Reuss Voigt Hill
#
# Bulk Modulus (GPa) = 13.06110 24.40744 18.73427
# Shear Modulus (GPa) = 17.54221 27.04719 22.29470
#
# Velocity S-wave (km/s) = 2.75834 3.42504 3.10961
# Velocity P-wave (km/s) = 3.97611 5.12125 4.58457
#
# Compressibility (1/GPa) = 0.07656323
#
# Stress axis : x y z
#
# Youngs Moduli (GPa) = 95.29071 13.68237 35.51014
#
# Poissons Ratio (x) = -0.02981 0.15603
# Poissons Ratio (y) = -0.20761 0.54593
# Poissons Ratio (z) = 0.41871 0.21035
#
# Static dielectric constant tensor:
#      x y z
#    x 1.877550 0.000000 -0.007750 
#    y 0.000000 1.898850 0.000000 
#    z -0.007750 0.000000 1.880790 
# 
# From -- ./inp_files/52155.got.cif
#   From: 2010.05.17/outbox.cif.g08.bks.cpg/sg14_27_cif.got.tgz:52155.got - 2010.06.03 17:49:19.
