data_PCOD9244306
_publ_section_title
;
Structure prediction by ZEFSAII (Michael W. Deem and Ramdas Pophale) SiO2 
 PCOD9244306
Probable space group: P 21/C
;
_chemical_formula_sum "Si O2"
_cell_formula_units_Z 28
_cell_length_a 20.864637
_cell_length_b 5.124261
_cell_length_c 13.359675
_cell_angle_alpha 90.000000
_cell_angle_beta 53.088433
_cell_angle_gamma 90.000000
_cell_volume 1142.065178
_symmetry_space_group_name_H-M "P 21/C"
_symmetry_group_IT_number 14
_symmetry_cell_setting 'monoclinic'
loop_
_space_group_symop_operation_xyz
x,y,z
-x,1/2+y,1/2-z
-x,-y,-z
x,1/2-y,1/2+z
loop_
_atom_site_type_symbol
_atom_site_label
_atom_site_fract_x
_atom_site_fract_y
_atom_site_fract_z
Si Si1 0.811278 0.756168 0.990574
Si Si2 0.015845 0.465180 0.667512
Si Si3 0.716471 0.758223 0.758854
Si Si4 0.596215 0.473573 0.114013
Si Si5 0.853244 0.039790 0.245911
Si Si6 0.577911 0.975337 0.266160
Si Si7 0.269490 0.881249 0.080983
O O1 0.894997 0.882791 0.947572
O O2 0.835552 0.584988 0.872015
O O3 0.752975 0.980177 0.001335
O O4 0.758466 0.607037 0.122672
O O5 0.014528 0.740614 0.726587
O O6 0.947793 0.474453 0.646110
O O7 0.792112 0.592000 0.727237
O O8 0.641314 0.591721 0.791813
O O9 0.689052 0.941376 0.874721
O O10 0.594424 0.761262 0.162502
O O11 0.516403 0.441253 0.122048
O O12 0.587580 0.264524 0.212702
O O13 0.676703 0.374425 0.985363
O O14 0.818363 0.329261 0.288984
#
# Coordination Sequence:
#
# PCOD9244306 Si02
#       7
#     4   4   4   4   4   4   4
#     4  10  21  41  64  86 127 173 207 263 319 374
#     4  10  20  40  66  90 123 172 214 257 317 373
#     4  11  24  38  63  96 129 163 219 258 323 375
#     4  10  22  41  69  90 128 169 216 253 317 377
#     4  10  23  39  62  94 127 163 217 260 318 382
#     4  10  22  42  65  96 124 172 210 260 314 383
#     4  11  22  39  63  93 126 170 210 267 309 390
#
# _framework density 24.516991000000001
#
# number of rings (size 3 to 8) (size 9 to 14) (size 15 to 20)
#    0.000    1.714    2.857    0.857    4.000    2.286 
#    0.000    1.429    0.000    0.000    0.000    0.000 
#    0.000    0.000    0.000    0.000    0.000    0.000 
#
# Total GULP energy -156511.288059 kJ/mol
# GULP energy per Si atom -5589.688859 kJ/mol
# Density = 2.446119 g / cm^3
# Si number density = 24.516991 Si / 1000 Ang^3
#
#
#
# Elastic Constant Matrix: (Units=GPa)
#
#
# Indices 1 2 3 4 5 6 
#
# 1 201.7900 10.9110 42.0585 0.0000 -9.0908 0.0000
# 2 10.9110 59.0995 2.3189 0.0000 -2.5810 0.0000
# 3 42.0585 2.3189 62.1165 0.0000 -17.8711 0.0000
# 4 0.0000 0.0000 0.0000 20.3845 0.0000 -7.8081
# 5 -9.0908 -2.5810 -17.8711 0.0000 35.0244 0.0000
# 6 0.0000 0.0000 0.0000 -7.8081 0.0000 35.9333
#
#
#
# Elastic Compliance Matrix: (Units=1/GPa)
#
#
# Indices 1 2 3 4 5 6 
#
# 1 0.005832 -0.000944 -0.004100 0.000000 -0.000648 0.000000
# 2 -0.000944 0.017134 0.000343 0.000000 0.001192 0.000000
# 3 -0.004100 0.000343 0.021757 0.000000 0.010063 0.000000
# 4 0.000000 0.000000 0.000000 0.053511 0.000000 0.011628
# 5 -0.000648 0.001192 0.010063 0.000000 0.033606 0.000000
# 6 0.000000 0.000000 0.000000 0.011628 0.000000 0.030356
#
#
# Mechanical properties :
#
#
# Convention : Reuss Voigt Hill
#
# Bulk Modulus (GPa) = 28.31271 48.17589 38.24430
# Shear Modulus (GPa) = 27.26713 36.11628 31.69170
#
# Velocity S-wave (km/s) = 3.33854 3.84228 3.59923
# Velocity P-wave (km/s) = 5.14144 6.27509 5.73634
#
# Compressibility (1/GPa) = 0.03531983
#
# Stress axis : x y z
#
# Youngs Moduli (GPa) = 171.46616 58.36500 45.96213
#
# Poissons Ratio (x) = 0.05510 0.18844
# Poissons Ratio (y) = 0.16189 -0.01575
# Poissons Ratio (z) = 0.70300 -0.02000
#
# Static dielectric constant tensor:
#      x y z
#    x 1.964980 0.000000 0.009810 
#    y 0.000000 1.966440 0.000000 
#    z 0.009810 0.000000 1.991690 
# 
# From -- ./inp_files/34699.got.cif
#   From: 2010.05.17/outbox.cif.g08.bks.cpg/sg14_18_cif.got.tgz:34699.got - 2010.06.03 17:49:19.
