data_PCOD9244684
_publ_section_title
;
Structure prediction by ZEFSAII (Michael W. Deem and Ramdas Pophale) SiO2 
 PCOD9244684
Probable space group: P 21/C
;
_chemical_formula_sum "Si O2"
_cell_formula_units_Z 32
_cell_length_a 12.892278
_cell_length_b 17.611634
_cell_length_c 5.412259
_cell_angle_alpha 90.000000
_cell_angle_beta 98.559435
_cell_angle_gamma 90.000000
_cell_volume 1215.188285
_symmetry_space_group_name_H-M "P 21/C"
_symmetry_group_IT_number 14
_symmetry_cell_setting 'monoclinic'
loop_
_space_group_symop_operation_xyz
x,y,z
-x,1/2+y,1/2-z
-x,-y,-z
x,1/2-y,1/2+z
loop_
_atom_site_type_symbol
_atom_site_label
_atom_site_fract_x
_atom_site_fract_y
_atom_site_fract_z
Si Si1 0.545424 0.209616 0.615492
Si Si2 0.754633 0.058671 0.014040
Si Si3 0.342166 0.444798 0.865689
Si Si4 0.708273 0.710383 0.987837
Si Si5 0.055261 0.468634 0.266158
Si Si6 0.437355 0.567970 0.206794
Si Si7 0.188671 0.774990 0.966897
Si Si8 0.954562 0.788351 0.303092
O O1 0.569192 0.270694 0.407422
O O2 0.418895 0.206086 0.563766
O O3 0.585279 0.130105 0.515838
O O4 0.645038 0.079007 0.104458
O O5 0.818682 0.135655 0.995638
O O6 0.827650 0.002824 0.197549
O O7 0.729574 0.011169 0.763285
O O8 0.269849 0.374564 0.911190
O O9 0.436997 0.424590 0.705426
O O10 0.409627 0.482731 0.107912
O O11 0.735613 0.769318 0.216346
O O12 0.056301 0.376982 0.260409
O O13 0.000000 0.500000 0.500000
O O14 0.000000 0.500000 0.000000
O O15 0.241910 0.760870 0.723558
O O16 0.078300 0.732630 0.879645
O O17 0.915317 0.763462 0.560461
#
# Coordination Sequence:
#
# PCOD9244684 Si02
#       8
#     4   4   4   4   4   4   4   4
#     4   9  19  36  60  92 131 180 240 286 342 411
#     4  12  27  42  73 107 144 189 248 296 357 437
#     4  10  24  45  67 101 146 195 242 297 359 421
#     4   9  19  38  65  90 122 180 239 294 346 404
#     4  12  26  47  77 109 146 191 239 302 370 438
#     4  10  24  43  68  98 149 198 239 298 357 418
#     4  10  22  41  66  99 143 181 224 290 357 427
#     4  10  20  42  70 100 139 184 227 285 367 439
#
# _framework density 26.333365000000001
#
# number of rings (size 3 to 8) (size 9 to 14) (size 15 to 20)
#    0.000    1.750    0.000    4.125    7.000    1.000 
#    0.000    1.250    0.000    0.000    0.000    0.000 
#    0.000    0.000    0.000    0.000    0.000    0.000 
#
# Total GULP energy -179175.325124 kJ/mol
# GULP energy per Si atom -5599.228910 kJ/mol
# Density = 2.627343 g / cm^3
# Si number density = 26.333365 Si / 1000 Ang^3
#
#
#
# Elastic Constant Matrix: (Units=GPa)
#
#
# Indices 1 2 3 4 5 6 
#
# 1 78.7522 28.5959 17.9688 0.0000 -32.4963 0.0000
# 2 28.5959 222.3323 65.3527 0.0000 -5.3670 0.0000
# 3 17.9688 65.3527 166.7411 0.0000 -11.3369 0.0000
# 4 0.0000 0.0000 0.0000 51.3361 0.0000 5.7457
# 5 -32.4963 -5.3670 -11.3369 0.0000 36.8175 0.0000
# 6 0.0000 0.0000 0.0000 5.7457 0.0000 26.4969
#
#
#
# Elastic Compliance Matrix: (Units=1/GPa)
#
#
# Indices 1 2 3 4 5 6 
#
# 1 0.021056 -0.002221 -0.000160 0.000000 0.018212 0.000000
# 2 -0.002221 0.005318 -0.001967 0.000000 -0.001791 0.000000
# 3 -0.000160 -0.001967 0.006901 0.000000 0.001697 0.000000
# 4 0.000000 0.000000 0.000000 0.019964 0.000000 -0.004329
# 5 0.018212 -0.001791 0.001697 0.000000 0.043496 0.000000
# 6 0.000000 0.000000 0.000000 -0.004329 0.000000 0.038679
#
#
# Mechanical properties :
#
#
# Convention : Reuss Voigt Hill
#
# Bulk Modulus (GPa) = 40.68645 76.85117 58.76881
# Shear Modulus (GPa) = 32.82894 46.65731 39.74313
#
# Velocity S-wave (km/s) = 3.53465 4.21384 3.88910
# Velocity P-wave (km/s) = 5.66943 7.27479 6.52169
#
# Compressibility (1/GPa) = 0.02457821
#
# Stress axis : x y z
#
# Youngs Moduli (GPa) = 47.49229 188.02615 144.90956
#
# Poissons Ratio (x) = 0.41770 0.02321
# Poissons Ratio (y) = 0.10550 0.28502
# Poissons Ratio (z) = 0.00761 0.36983
#
# Static dielectric constant tensor:
#      x y z
#    x 2.615600 0.000000 -0.034920 
#    y 0.000000 2.056990 0.000000 
#    z -0.034920 0.000000 2.067930 
# 
# From -- ./inp_files/3815.got.cif
#   From: 2010.05.17/outbox.cif.g08.bks.cpg/sg14_2_cif.got.tgz:3815.got - 2010.06.03 17:49:19.
