data_PCOD9244200
_publ_section_title
;
Structure prediction by ZEFSAII (Michael W. Deem and Ramdas Pophale) SiO2 
 PCOD9244200
Probable space group: P 21/C
;
_chemical_formula_sum "Si O2"
_cell_formula_units_Z 32
_cell_length_a 6.083270
_cell_length_b 10.824256
_cell_length_c 20.357499
_cell_angle_alpha 90.000000
_cell_angle_beta 111.470145
_cell_angle_gamma 90.000000
_cell_volume 1247.459758
_symmetry_space_group_name_H-M "P 21/C"
_symmetry_group_IT_number 14
_symmetry_cell_setting 'monoclinic'
loop_
_space_group_symop_operation_xyz
x,y,z
-x,1/2+y,1/2-z
-x,-y,-z
x,1/2-y,1/2+z
loop_
_atom_site_type_symbol
_atom_site_label
_atom_site_fract_x
_atom_site_fract_y
_atom_site_fract_z
Si Si1 0.980357 0.605299 0.578337
Si Si2 0.545396 0.639030 0.849882
Si Si3 0.112519 0.338055 0.579908
Si Si4 0.900896 0.513219 0.224327
Si Si5 0.620244 0.252131 0.899087
Si Si6 0.147406 0.222319 0.792461
Si Si7 0.318070 0.852964 0.467515
Si Si8 0.013395 0.542835 0.090453
O O1 0.845835 0.636070 0.494683
O O2 0.916184 0.676836 0.639246
O O3 0.985963 0.459949 0.594310
O O4 0.259354 0.620417 0.589335
O O5 0.663127 0.776752 0.857490
O O6 0.337626 0.568038 0.785340
O O7 0.437331 0.643316 0.910942
O O8 0.766115 0.547751 0.875232
O O9 0.906840 0.236339 0.560750
O O10 0.962257 0.654310 0.254250
O O11 0.096344 0.406249 0.250739
O O12 0.887808 0.551338 0.146770
O O13 0.422689 0.258780 0.823375
O O14 0.855645 0.333586 0.915146
O O15 0.523671 0.298190 0.957665
O O16 0.197493 0.983519 0.474915
#
# Coordination Sequence:
#
# PCOD9244200 Si02
#       8
#     4   4   4   4   4   4   4   4
#     4  10  22  41  65  97 138 168 215 268 332 410
#     4  10  20  40  65  92 131 170 213 267 328 397
#     4   9  20  39  66 102 136 172 204 264 341 414
#     4  11  26  44  64  93 129 173 236 283 327 394
#     4  11  21  39  64  96 127 167 214 262 334 397
#     4  12  26  45  67  93 128 180 232 286 331 394
#     4   9  20  34  64 102 133 162 200 263 331 412
#     4  10  20  40  62  93 128 161 211 267 331 397
#
# _framework density 25.652128999999999
#
# number of rings (size 3 to 8) (size 9 to 14) (size 15 to 20)
#    0.000    1.750    2.500    1.125    0.000    6.500 
#    0.000    3.750    0.000    0.000    0.000    0.000 
#    0.000    0.000    0.000    0.000    0.000    0.000 
#
# Total GULP energy -178225.659076 kJ/mol
# GULP energy per Si atom -5569.551846 kJ/mol
# Density = 2.559374 g / cm^3
# Si number density = 25.652129 Si / 1000 Ang^3
#
#
#
# Elastic Constant Matrix: (Units=GPa)
#
#
# Indices 1 2 3 4 5 6 
#
# 1 51.1314 23.3089 11.5951 0.0000 -6.1986 0.0000
# 2 23.3089 140.0425 26.9384 0.0000 1.2019 0.0000
# 3 11.5951 26.9384 51.8080 0.0000 -8.2154 0.0000
# 4 0.0000 0.0000 0.0000 38.0831 0.0000 -3.8066
# 5 -6.1986 1.2019 -8.2154 0.0000 30.0194 0.0000
# 6 0.0000 0.0000 0.0000 -3.8066 0.0000 36.5544
#
#
#
# Elastic Compliance Matrix: (Units=1/GPa)
#
#
# Indices 1 2 3 4 5 6 
#
# 1 0.022099 -0.003202 -0.002652 0.000000 0.003966 0.000000
# 2 -0.003202 0.008464 -0.004018 0.000000 -0.002100 0.000000
# 3 -0.002652 -0.004018 0.022918 0.000000 0.005885 0.000000
# 4 0.000000 0.000000 0.000000 0.026535 0.000000 0.002763
# 5 0.003966 -0.002100 0.005885 0.000000 0.035825 0.000000
# 6 0.000000 0.000000 0.000000 0.002763 0.000000 0.027644
#
#
# Mechanical properties :
#
#
# Convention : Reuss Voigt Hill
#
# Bulk Modulus (GPa) = 29.64019 40.74075 35.19047
# Shear Modulus (GPa) = 28.65733 33.00734 30.83233
#
# Velocity S-wave (km/s) = 3.34601 3.59099 3.47066
# Velocity P-wave (km/s) = 5.14854 5.75414 5.45974
#
# Compressibility (1/GPa) = 0.03373797
#
# Stress axis : x y z
#
# Youngs Moduli (GPa) = 45.25016 118.14073 43.63416
#
# Poissons Ratio (x) = 0.37830 0.11573
# Poissons Ratio (y) = 0.14490 0.17530
# Poissons Ratio (z) = 0.12001 0.47463
#
# Static dielectric constant tensor:
#      x y z
#    x 2.050590 0.000000 -0.058490 
#    y 0.000000 2.261140 0.000000 
#    z -0.058490 0.000000 2.117910 
# 
# From -- ./inp_files/71275.got.cif
#   From: 2010.05.17/outbox.cif.g08.bks.cpg/sg14_36_cif.got.tgz:71275.got - 2010.06.03 17:49:19.
