data_PCOD9244311
_publ_section_title
;
Structure prediction by ZEFSAII (Michael W. Deem and Ramdas Pophale) SiO2 
 PCOD9244311
Probable space group: P 21/C
;
_chemical_formula_sum "Si O2"
_cell_formula_units_Z 32
_cell_length_a 5.602910
_cell_length_b 15.806954
_cell_length_c 17.490018
_cell_angle_alpha 90.000000
_cell_angle_beta 65.776523
_cell_angle_gamma 90.000000
_cell_volume 1412.615956
_symmetry_space_group_name_H-M "P 21/C"
_symmetry_group_IT_number 14
_symmetry_cell_setting 'monoclinic'
loop_
_space_group_symop_operation_xyz
x,y,z
-x,1/2+y,1/2-z
-x,-y,-z
x,1/2-y,1/2+z
loop_
_atom_site_type_symbol
_atom_site_label
_atom_site_fract_x
_atom_site_fract_y
_atom_site_fract_z
Si Si1 0.631258 0.815247 0.605666
Si Si2 0.167409 0.626820 0.967242
Si Si3 0.008385 0.124033 0.680528
Si Si4 0.703761 0.038927 0.035129
Si Si5 0.656948 0.280202 0.467867
Si Si6 0.500058 0.041308 0.787887
Si Si7 0.543164 0.488010 0.878430
Si Si8 0.175366 0.208332 0.797851
O O1 0.589644 0.734295 0.555955
O O2 0.637742 0.779982 0.690658
O O3 0.900234 0.862032 0.548804
O O4 0.423253 0.888546 0.613230
O O5 0.309661 0.536415 0.953438
O O6 0.109452 0.645888 0.885962
O O7 0.351150 0.700186 0.975144
O O8 0.209555 0.047661 0.640544
O O9 0.134067 0.200070 0.712644
O O10 0.777654 0.086732 0.763898
O O11 0.581387 0.019305 0.133678
O O12 0.698225 0.136682 0.012008
O O13 0.500000 0.000000 0.000000
O O14 0.000000 0.000000 0.000000
O O15 0.903936 0.277263 0.377762
O O16 0.519888 0.995799 0.703552
O O17 0.292449 0.117178 0.805550
#
# Coordination Sequence:
#
# PCOD9244311 Si02
#       8
#     4   4   4   4   4   4   4   4
#     4  11  23  41  66  99 131 176 227 279 347 419
#     4  10  23  42  67  94 134 172 228 281 349 411
#     4  10  21  41  69  91 128 180 221 282 345 404
#     4  12  25  44  74 101 139 185 231 292 350 424
#     4  11  24  41  66 101 131 174 223 286 341 419
#     4  10  22  43  65  92 130 177 228 276 349 415
#     4  10  23  43  65  94 131 178 227 283 349 419
#     4  10  20  40  66  90 129 169 221 271 344 407
#
# _framework density 22.653006999999999
#
# number of rings (size 3 to 8) (size 9 to 14) (size 15 to 20)
#    0.000    1.500    1.250    3.375    3.500    6.000 
#   11.250    0.000    0.000    0.000    0.000    0.000 
#    0.000    0.000    0.000    0.000    0.000    0.000 
#
# Total GULP energy -178808.007138 kJ/mol
# GULP energy per Si atom -5587.750223 kJ/mol
# Density = 2.260145 g / cm^3
# Si number density = 22.653007 Si / 1000 Ang^3
#
#
#
# Elastic Constant Matrix: (Units=GPa)
#
#
# Indices 1 2 3 4 5 6 
#
# 1 84.8544 22.2450 20.9802 0.0000 11.8678 0.0000
# 2 22.2450 109.1792 32.9938 0.0000 20.1901 0.0000
# 3 20.9802 32.9938 72.8946 0.0000 13.7164 0.0000
# 4 0.0000 0.0000 0.0000 38.7738 0.0000 7.4778
# 5 11.8678 20.1901 13.7164 0.0000 36.7610 0.0000
# 6 0.0000 0.0000 0.0000 7.4778 0.0000 21.9463
#
#
#
# Elastic Compliance Matrix: (Units=1/GPa)
#
#
# Indices 1 2 3 4 5 6 
#
# 1 0.013165 -0.001414 -0.002684 0.000000 -0.002472 0.000000
# 2 -0.001414 0.011448 -0.003955 0.000000 -0.004355 0.000000
# 3 -0.002684 -0.003955 0.016896 0.000000 -0.003265 0.000000
# 4 0.000000 0.000000 0.000000 0.027605 0.000000 -0.009406
# 5 -0.002472 -0.004355 -0.003265 0.000000 0.031611 0.000000
# 6 0.000000 0.000000 0.000000 -0.009406 0.000000 0.048771
#
#
# Mechanical properties :
#
#
# Convention : Reuss Voigt Hill
#
# Bulk Modulus (GPa) = 39.36654 46.59627 42.98141
# Shear Modulus (GPa) = 28.72431 32.21016 30.46723
#
# Velocity S-wave (km/s) = 3.56478 3.77489 3.67134
# Velocity P-wave (km/s) = 5.86168 6.29396 6.08166
#
# Compressibility (1/GPa) = 0.02540228
#
# Stress axis : x y z
#
# Youngs Moduli (GPa) = 75.95937 87.35146 59.18727
#
# Poissons Ratio (x) = 0.12353 0.15885
# Poissons Ratio (y) = 0.10742 0.23409
# Poissons Ratio (z) = 0.20386 0.34548
#
# Static dielectric constant tensor:
#      x y z
#    x 1.936900 0.000000 0.014790 
#    y 0.000000 1.855180 0.000000 
#    z 0.014790 0.000000 1.831930 
# 
# From -- ./inp_files/53470.got.cif
#   From: 2010.05.17/outbox.cif.g08.bks.cpg/sg14_27_cif.got.tgz:53470.got - 2010.06.03 17:49:19.
