data_PCOD9244257
_publ_section_title
;
Structure prediction by ZEFSAII (Michael W. Deem and Ramdas Pophale) SiO2 
 PCOD9244257
Probable space group: P 21/C
;
_chemical_formula_sum "Si O2"
_cell_formula_units_Z 32
_cell_length_a 13.904149
_cell_length_b 16.982852
_cell_length_c 11.618317
_cell_angle_alpha 90.000000
_cell_angle_beta 149.916089
_cell_angle_gamma 90.000000
_cell_volume 1375.206917
_symmetry_space_group_name_H-M "P 21/C"
_symmetry_group_IT_number 14
_symmetry_cell_setting 'monoclinic'
loop_
_space_group_symop_operation_xyz
x,y,z
-x,1/2+y,1/2-z
-x,-y,-z
x,1/2-y,1/2+z
loop_
_atom_site_type_symbol
_atom_site_label
_atom_site_fract_x
_atom_site_fract_y
_atom_site_fract_z
Si Si1 0.684680 0.308096 0.485973
Si Si2 0.078276 0.375872 0.890058
Si Si3 0.221403 0.992120 0.696275
Si Si4 0.489916 0.125237 0.552062
Si Si5 0.703181 0.131758 0.539940
Si Si6 0.537096 0.902474 0.909108
Si Si7 0.664950 0.724780 0.709012
Si Si8 0.854853 0.978095 0.748694
O O1 0.579918 0.340903 0.263388
O O2 0.761830 0.217793 0.554809
O O3 0.529345 0.295725 0.424155
O O4 0.857354 0.366359 0.697441
O O5 0.075509 0.404776 0.756522
O O6 0.220822 0.438764 0.098543
O O7 0.171522 0.295006 0.030199
O O8 0.327915 0.917289 0.751873
O O9 0.347201 0.020088 0.935152
O O10 0.000000 0.000000 0.500000
O O11 0.655811 0.125998 0.626787
O O12 0.340047 0.188043 0.344086
O O13 0.361852 0.047732 0.440149
O O14 0.506435 0.112776 0.267820
O O15 0.843101 0.058616 0.662515
O O16 0.656151 0.832009 0.089144
O O17 0.000000 0.000000 0.000000
#
# Coordination Sequence:
#
# PCOD9244257 Si02
#       8
#     4   4   4   4   4   4   4   4
#     4  11  23  44  70  98 133 181 234 281 345 410
#     4  11  23  41  68  95 134 177 223 282 343 405
#     4  10  21  36  62  98 128 172 218 273 346 409
#     4  11  24  44  71  95 138 191 231 284 354 409
#     4  11  24  44  67 101 138 184 229 294 347 413
#     4  10  20  40  64  95 134 166 222 284 339 405
#     4  10  22  43  68  98 130 176 228 288 338 406
#     4  12  26  44  66 104 145 179 233 284 349 424
#
# _framework density 23.269226
#
# number of rings (size 3 to 8) (size 9 to 14) (size 15 to 20)
#    0.000    1.250    3.750    1.875    1.750    2.000 
#    0.000    1.250    0.000    0.000    0.000    0.000 
#    0.000    0.000    0.000    0.000    0.000    0.000 
#
# Total GULP energy -178481.241509 kJ/mol
# GULP energy per Si atom -5577.538797 kJ/mol
# Density = 2.321626 g / cm^3
# Si number density = 23.269226 Si / 1000 Ang^3
#
#
#
# Elastic Constant Matrix: (Units=GPa)
#
#
# Indices 1 2 3 4 5 6 
#
# 1 31.8277 0.3879 13.1217 0.0000 4.0809 0.0000
# 2 0.3879 87.7731 40.4065 0.0000 -10.6408 0.0000
# 3 13.1217 40.4065 116.2126 0.0000 -11.3291 0.0000
# 4 0.0000 0.0000 0.0000 36.5241 0.0000 -6.4967
# 5 4.0809 -10.6408 -11.3291 0.0000 35.7191 0.0000
# 6 0.0000 0.0000 0.0000 -6.4967 0.0000 18.2765
#
#
#
# Elastic Compliance Matrix: (Units=1/GPa)
#
#
# Indices 1 2 3 4 5 6 
#
# 1 0.034036 0.001474 -0.004842 0.000000 -0.004985 0.000000
# 2 0.001474 0.013871 -0.004750 0.000000 0.002457 0.000000
# 3 -0.004842 -0.004750 0.011061 0.000000 0.002646 0.000000
# 4 0.000000 0.000000 0.000000 0.029227 0.000000 0.010389
# 5 -0.004985 0.002457 0.002646 0.000000 0.030137 0.000000
# 6 0.000000 0.000000 0.000000 0.010389 0.000000 0.058408
#
#
# Mechanical properties :
#
#
# Convention : Reuss Voigt Hill
#
# Bulk Modulus (GPa) = 23.40064 38.18285 30.79175
# Shear Modulus (GPa) = 24.12894 30.23044 27.17969
#
# Velocity S-wave (km/s) = 3.22366 3.60830 3.42139
# Velocity P-wave (km/s) = 4.89227 5.81417 5.37302
#
# Compressibility (1/GPa) = 0.04273387
#
# Stress axis : x y z
#
# Youngs Moduli (GPa) = 29.38024 72.09312 90.40740
#
# Poissons Ratio (x) = -0.10627 0.43772
# Poissons Ratio (y) = -0.04331 0.42941
# Poissons Ratio (z) = 0.14225 0.34242
#
# Static dielectric constant tensor:
#      x y z
#    x 1.943100 0.000000 -0.010380 
#    y 0.000000 1.974090 0.000000 
#    z -0.010380 0.000000 1.848040 
# 
# From -- ./inp_files/33056.got.cif
#   From: 2010.05.17/outbox.cif.g08.bks.cpg/sg14_17_cif.got.tgz:33056.got - 2010.06.03 17:49:19.
