data_PCOD9244079
_publ_section_title
;
Structure prediction by ZEFSAII (Michael W. Deem and Ramdas Pophale) SiO2 
 PCOD9244079
Probable space group: P 21/C
;
_chemical_formula_sum "Si O2"
_cell_formula_units_Z 24
_cell_length_a 5.380640
_cell_length_b 8.899658
_cell_length_c 22.375138
_cell_angle_alpha 90.000000
_cell_angle_beta 81.685617
_cell_angle_gamma 90.000000
_cell_volume 1060.191151
_symmetry_space_group_name_H-M "P 21/C"
_symmetry_group_IT_number 14
_symmetry_cell_setting 'monoclinic'
loop_
_space_group_symop_operation_xyz
x,y,z
-x,1/2+y,1/2-z
-x,-y,-z
x,1/2-y,1/2+z
loop_
_atom_site_type_symbol
_atom_site_label
_atom_site_fract_x
_atom_site_fract_y
_atom_site_fract_z
Si Si1 0.292233 0.591952 0.942768
Si Si2 0.888598 0.255172 0.167787
Si Si3 0.033503 0.813266 0.565410
Si Si4 0.466630 0.734809 0.714766
Si Si5 0.276690 0.488208 0.154993
Si Si6 0.002121 0.406398 0.339919
O O1 0.137764 0.686094 0.898849
O O2 0.562185 0.587357 0.903200
O O3 0.194244 0.418655 0.949596
O O4 0.246796 0.665924 0.008220
O O5 0.630532 0.269404 0.213834
O O6 0.091276 0.367653 0.189656
O O7 0.973042 0.084421 0.167542
O O8 0.997799 0.645291 0.590001
O O9 0.105910 0.893957 0.624841
O O10 0.741096 0.670570 0.693073
O O11 0.255289 0.643452 0.684195
O O12 0.443242 0.907842 0.692499
#
# Coordination Sequence:
#
# PCOD9244079 Si02
#       6
#     4   4   4   4   4   4
#     4  10  20  39  66  92 127 170 221 264 327 394
#     4  11  26  37  64  97 130 166 219 274 332 383
#     4   9  20  40  65  92 126 171 222 267 321 398
#     4  11  25  43  67  89 136 173 219 262 328 403
#     4  10  21  41  63  95 122 178 218 265 323 398
#     4  11  25  44  65  99 128 174 216 278 331 378
#
# _framework density 22.637429000000001
#
# number of rings (size 3 to 8) (size 9 to 14) (size 15 to 20)
#    0.000    1.667    1.667    1.500    7.000    0.667 
#    0.000    0.833    0.000    0.000    0.000    0.000 
#    0.000    0.000    0.000    0.000    0.000    0.000 
#
# Total GULP energy -134060.429517 kJ/mol
# GULP energy per Si atom -5585.851230 kJ/mol
# Density = 2.258591 g / cm^3
# Si number density = 22.637429 Si / 1000 Ang^3
#
#
#
# Elastic Constant Matrix: (Units=GPa)
#
#
# Indices 1 2 3 4 5 6 
#
# 1 89.8576 17.8300 24.1679 0.0000 -10.7710 0.0000
# 2 17.8300 94.2871 28.7273 0.0000 7.6845 0.0000
# 3 24.1679 28.7273 98.4230 0.0000 -10.0327 0.0000
# 4 0.0000 0.0000 0.0000 18.9755 0.0000 -6.8022
# 5 -10.7710 7.6845 -10.0327 0.0000 33.8752 0.0000
# 6 0.0000 0.0000 0.0000 -6.8022 0.0000 19.3352
#
#
#
# Elastic Compliance Matrix: (Units=1/GPa)
#
#
# Indices 1 2 3 4 5 6 
#
# 1 0.012559 -0.002050 -0.002094 0.000000 0.003838 0.000000
# 2 -0.002050 0.012460 -0.003596 0.000000 -0.004543 0.000000
# 3 -0.002094 -0.003596 0.012105 0.000000 0.003735 0.000000
# 4 0.000000 0.000000 0.000000 0.060305 0.000000 0.021215
# 5 0.003838 -0.004543 0.003735 0.000000 0.032877 0.000000
# 6 0.000000 0.000000 0.000000 0.021215 0.000000 0.059183
#
#
# Mechanical properties :
#
#
# Convention : Reuss Voigt Hill
#
# Bulk Modulus (GPa) = 46.20568 47.11313 46.65940
# Shear Modulus (GPa) = 23.56457 28.56001 26.06229
#
# Velocity S-wave (km/s) = 3.22989 3.55579 3.39675
# Velocity P-wave (km/s) = 5.86217 6.14129 6.00335
#
# Compressibility (1/GPa) = 0.02164236
#
# Stress axis : x y z
#
# Youngs Moduli (GPa) = 79.62575 80.25985 82.61079
#
# Poissons Ratio (x) = 0.16450 0.17302
# Poissons Ratio (y) = 0.16320 0.29711
# Poissons Ratio (z) = 0.16677 0.28865
#
# Static dielectric constant tensor:
#      x y z
#    x 1.867440 0.000000 0.038770 
#    y 0.000000 1.871250 0.000000 
#    z 0.038770 0.000000 1.847460 
# 
# From -- ./inp_files/70971.got.cif
#   From: 2010.05.17/outbox.cif.g08.bks.cpg/sg14_36_cif.got.tgz:70971.got - 2010.06.03 17:49:19.
