data_PCOD9244160
_publ_section_title
;
Structure prediction by ZEFSAII (Michael W. Deem and Ramdas Pophale) SiO2 
 PCOD9244160
Probable space group: P 21/C
;
_chemical_formula_sum "Si O2"
_cell_formula_units_Z 28
_cell_length_a 25.677304
_cell_length_b 7.391518
_cell_length_c 13.860524
_cell_angle_alpha 90.000000
_cell_angle_beta 26.204543
_cell_angle_gamma 90.000000
_cell_volume 1161.633561
_symmetry_space_group_name_H-M "P 21/C"
_symmetry_group_IT_number 14
_symmetry_cell_setting 'monoclinic'
loop_
_space_group_symop_operation_xyz
x,y,z
-x,1/2+y,1/2-z
-x,-y,-z
x,1/2-y,1/2+z
loop_
_atom_site_type_symbol
_atom_site_label
_atom_site_fract_x
_atom_site_fract_y
_atom_site_fract_z
Si Si1 0.724100 0.873204 0.142064
Si Si2 0.634807 0.019587 0.489647
Si Si3 0.630784 0.853982 0.086673
Si Si4 0.122085 0.074075 0.688813
Si Si5 0.802925 0.129104 0.710420
Si Si6 0.928377 0.349851 0.358019
Si Si7 0.979522 0.278875 0.075222
O O1 0.650060 0.919328 0.360351
O O2 0.660015 0.914807 0.147570
O O3 0.775120 0.671148 0.041292
O O4 0.837332 0.002973 0.969232
O O5 0.650305 0.860244 0.541286
O O6 0.504797 0.102701 0.710794
O O7 0.727901 0.182885 0.345869
O O8 0.712710 0.967468 0.877704
O O9 0.000718 0.088231 0.829852
O O10 0.121005 0.872775 0.730600
O O11 0.089349 0.197993 0.835671
O O12 0.862534 0.170860 0.507548
O O13 0.904480 0.104559 0.623680
O O14 0.015430 0.326070 0.123957
#
# Coordination Sequence:
#
# PCOD9244160 Si02
#       7
#     4   4   4   4   4   4   4
#     4  11  24  42  65  98 127 169 218 269 319 387
#     4  11  25  44  68  96 129 166 221 274 324 389
#     4  12  23  45  68  94 127 174 213 274 332 382
#     4  10  22  37  61  92 126 170 212 259 319 377
#     4  10  22  42  64  94 127 167 215 265 326 378
#     4  10  21  38  62  91 129 167 210 262 316 384
#     4  10  20  40  60  88 130 167 209 263 314 391
#
# _framework density 24.103988999999999
#
# number of rings (size 3 to 8) (size 9 to 14) (size 15 to 20)
#    0.000    1.429    2.857    2.143    2.000    4.000 
#    0.000    0.714    0.000    0.000    0.000    0.000 
#    0.000    0.000    0.000    0.000    0.000    0.000 
#
# Total GULP energy -156613.393099 kJ/mol
# GULP energy per Si atom -5593.335468 kJ/mol
# Density = 2.404913 g / cm^3
# Si number density = 24.103989 Si / 1000 Ang^3
#
#
#
# Elastic Constant Matrix: (Units=GPa)
#
#
# Indices 1 2 3 4 5 6 
#
# 1 117.2531 5.0511 27.7207 0.0000 9.5229 0.0000
# 2 5.0511 65.2924 -5.3578 0.0000 2.6783 0.0000
# 3 27.7207 -5.3578 80.1638 0.0000 4.6338 0.0000
# 4 0.0000 0.0000 0.0000 46.1909 0.0000 2.8723
# 5 9.5229 2.6783 4.6338 0.0000 36.4165 0.0000
# 6 0.0000 0.0000 0.0000 2.8723 0.0000 34.8080
#
#
#
# Elastic Compliance Matrix: (Units=1/GPa)
#
#
# Indices 1 2 3 4 5 6 
#
# 1 0.009494 -0.000917 -0.003229 0.000000 -0.002004 0.000000
# 2 -0.000917 0.015548 0.001419 0.000000 -0.001084 0.000000
# 3 -0.003229 0.001419 0.013744 0.000000 -0.001009 0.000000
# 4 0.000000 0.000000 0.000000 0.021761 0.000000 -0.001796
# 5 -0.002004 -0.001084 -0.001009 0.000000 0.028192 0.000000
# 6 0.000000 0.000000 0.000000 -0.001796 0.000000 0.028877
#
#
# Mechanical properties :
#
#
# Convention : Reuss Voigt Hill
#
# Bulk Modulus (GPa) = 30.00094 35.28193 32.64144
# Shear Modulus (GPa) = 37.26325 39.16945 38.21635
#
# Velocity S-wave (km/s) = 3.93611 4.03553 3.98613
# Velocity P-wave (km/s) = 5.75593 6.03184 5.89550
#
# Compressibility (1/GPa) = 0.03333228
#
# Stress axis : x y z
#
# Youngs Moduli (GPa) = 105.32809 64.31865 72.75883
#
# Poissons Ratio (x) = 0.05899 0.23490
# Poissons Ratio (y) = 0.09661 -0.10324
# Poissons Ratio (z) = 0.34005 -0.09127
#
# Static dielectric constant tensor:
#      x y z
#    x 1.886570 0.000000 0.025490 
#    y 0.000000 2.034050 0.000000 
#    z 0.025490 0.000000 1.879670 
# 
# From -- ./inp_files/36153.got.cif
#   From: 2010.05.17/outbox.cif.g08.bks.cpg/sg14_19_cif.got.tgz:36153.got - 2010.06.03 17:49:19.
