data_PCOD9244645
_publ_section_title
;
Structure prediction by ZEFSAII (Michael W. Deem and Ramdas Pophale) SiO2 
 PCOD9244645
Probable space group: P 21/C
;
_chemical_formula_sum "Si O2"
_cell_formula_units_Z 30
_cell_length_a 25.305923
_cell_length_b 7.992845
_cell_length_c 9.347466
_cell_angle_alpha 90.000000
_cell_angle_beta 41.156025
_cell_angle_gamma 90.000000
_cell_volume 1244.277170
_symmetry_space_group_name_H-M "P 21/C"
_symmetry_group_IT_number 14
_symmetry_cell_setting 'monoclinic'
loop_
_space_group_symop_operation_xyz
x,y,z
-x,1/2+y,1/2-z
-x,-y,-z
x,1/2-y,1/2+z
loop_
_atom_site_type_symbol
_atom_site_label
_atom_site_fract_x
_atom_site_fract_y
_atom_site_fract_z
Si Si1 0.370306 0.055310 0.529850
Si Si2 0.870588 0.544070 0.747769
Si Si3 0.696414 0.084542 0.608762
Si Si4 0.953106 0.772186 0.814086
Si Si5 0.761995 0.044839 0.982869
Si Si6 0.500000 0.000000 0.500000
Si Si7 0.063698 0.665659 0.837737
Si Si8 0.650378 0.938242 0.989179
O O1 0.446378 0.990167 0.460985
O O2 0.372652 0.255912 0.520610
O O3 0.366091 0.977630 0.381102
O O4 0.286915 0.008613 0.777703
O O5 0.901143 0.644337 0.824996
O O6 0.902582 0.628720 0.536846
O O7 0.905536 0.356588 0.690436
O O8 0.774681 0.533201 0.944514
O O9 0.729112 0.269568 0.513177
O O10 0.659282 0.066614 0.841237
O O11 0.022157 0.687379 0.769493
O O12 0.001269 0.871348 0.592295
O O13 0.856303 0.054328 0.817008
O O14 0.733822 0.932275 0.907684
O O15 0.416239 0.008236 0.762073
#
# Coordination Sequence:
#
# PCOD9244645 Si02
#       8
#     4   4   4   4   4   2   4   4
#     4  11  25  48  74 113 145 188 238 296 353 434
#     4  10  24  42  62 101 144 187 249 312 360 435
#     4  11  24  42  75 102 146 192 245 293 361 437
#     4  10  20  42  66  98 142 196 252 314 374 414
#     4  10  24  45  72 103 144 192 245 296 367 429
#     4  10  26  48  74 104 154 174 220 286 358 432
#     4  10  23  42  66  98 144 189 248 308 363 443
#     4  11  25  48  74 113 145 188 238 296 353 434
#
# _framework density 24.110382999999999
#
# number of rings (size 3 to 8) (size 9 to 14) (size 15 to 20)
#    0.000    1.600    0.000    4.000    9.333    4.800 
#    0.000   10.667    0.000    0.000    0.000    0.000 
#    0.000    0.000    0.000    0.000    0.000    0.000 
#
# Total GULP energy -167664.972552 kJ/mol
# GULP energy per Si atom -5588.832418 kJ/mol
# Density = 2.405551 g / cm^3
# Si number density = 24.110383 Si / 1000 Ang^3
#
#
#
# Elastic Constant Matrix: (Units=GPa)
#
#
# Indices 1 2 3 4 5 6 
#
# 1 171.7462 18.8110 65.6520 0.0000 4.5014 0.0000
# 2 18.8110 37.9865 13.4447 0.0000 -5.2416 0.0000
# 3 65.6520 13.4447 96.4624 0.0000 2.1693 0.0000
# 4 0.0000 0.0000 0.0000 5.0833 0.0000 10.9197
# 5 4.5014 -5.2416 2.1693 0.0000 44.5871 0.0000
# 6 0.0000 0.0000 0.0000 10.9197 0.0000 3.7423
#
#
#
# Elastic Compliance Matrix: (Units=1/GPa)
#
#
# Indices 1 2 3 4 5 6 
#
# 1 0.008064 -0.002285 -0.005151 0.000000 -0.000832 0.000000
# 2 -0.002285 0.028878 -0.002554 0.000000 0.003750 0.000000
# 3 -0.005151 -0.002554 0.014239 0.000000 -0.000473 0.000000
# 4 0.000000 0.000000 0.000000 -0.037342 0.000000 0.108961
# 5 -0.000832 0.003750 -0.000473 0.000000 0.022976 0.000000
# 6 0.000000 0.000000 0.000000 0.108961 0.000000 -0.050723
#
#
# Mechanical properties :
#
#
# Convention : Reuss Voigt Hill
#
# Bulk Modulus (GPa) = 32.05051 55.77895 43.91473
# Shear Modulus (GPa) = 303.55511 24.56839 164.06175
#
# Velocity S-wave (km/s) = 11.23279 3.19564 8.25796
# Velocity P-wave (km/s) = 13.47428 6.06640 10.44886
#
# Compressibility (1/GPa) = 0.03120075
#
# Stress axis : x y z
#
# Youngs Moduli (GPa) = 124.01425 34.62841 70.22940
#
# Poissons Ratio (x) = 0.07912 0.36174
# Poissons Ratio (y) = 0.28335 0.17938
# Poissons Ratio (z) = 0.63878 0.08845
#
# Static dielectric constant tensor:
#      x y z
#    x 1.861730 0.000000 0.000290 
#    y 0.000000 2.008270 0.000000 
#    z 0.000290 0.000000 1.854880 
# 
# From -- ./inp_files/19745.got.cif
#   From: 2010.05.17/outbox.cif.g08.bks.cpg/sg14_10_cif.got.tgz:19745.got - 2010.06.03 17:49:19.
