data_PCOD9244849
_publ_section_title
;
Structure prediction by ZEFSAII (Michael W. Deem and Ramdas Pophale) SiO2 
 PCOD9244849
Probable space group: P 21/C
;
_chemical_formula_sum "Si O2"
_cell_formula_units_Z 32
_cell_length_a 7.222356
_cell_length_b 19.361314
_cell_length_c 14.762896
_cell_angle_alpha 90.000000
_cell_angle_beta 144.044252
_cell_angle_gamma 90.000000
_cell_volume 1212.109677
_symmetry_space_group_name_H-M "P 21/C"
_symmetry_group_IT_number 14
_symmetry_cell_setting 'monoclinic'
loop_
_space_group_symop_operation_xyz
x,y,z
-x,1/2+y,1/2-z
-x,-y,-z
x,1/2-y,1/2+z
loop_
_atom_site_type_symbol
_atom_site_label
_atom_site_fract_x
_atom_site_fract_y
_atom_site_fract_z
Si Si1 0.498374 0.589522 0.864499
Si Si2 0.089059 0.587043 0.210198
Si Si3 0.725564 0.212997 0.100644
Si Si4 0.457689 0.096033 0.888611
Si Si5 0.912577 0.513469 0.619227
Si Si6 0.575337 0.159582 0.293730
Si Si7 0.174172 0.864943 0.419547
Si Si8 0.251372 0.233817 0.562299
O O1 0.539352 0.665025 0.837538
O O2 0.248753 0.539869 0.719082
O O3 0.340821 0.600520 0.900902
O O4 0.842902 0.567479 0.033388
O O5 0.062608 0.660833 0.254235
O O6 0.056935 0.532097 0.276497
O O7 0.399344 0.600873 0.272648
O O8 0.417948 0.233092 0.039758
O O9 0.871794 0.285320 0.128361
O O10 0.616863 0.168970 0.971147
O O11 0.297520 0.076202 0.923452
O O12 0.169237 0.101121 0.705313
O O13 0.713962 0.036713 0.976454
O O14 0.606253 0.130923 0.406169
O O15 0.896558 0.206456 0.411654
O O16 0.293764 0.210091 0.157409
#
# Coordination Sequence:
#
# PCOD9244849 Si02
#       8
#     4   4   4   4   4   4   4   4
#     4   9  18  32  55  79 103 133 184 218 262 305
#     4   9  18  34  52  80 103 138 177 221 260 315
#     4   9  19  31  54  76 105 133 178 215 262 316
#     4   9  19  32  51  78 106 132 175 219 261 302
#     4   9  17  33  55  78  99 140 182 222 250 305
#     4  10  21  34  50  79 113 140 173 214 283 325
#     4  10  21  31  53  79 107 140 167 219 269 321
#     4   9  20  33  52  76 107 142 170 219 265 328
#
# _framework density 26.400248999999999
#
# number of rings (size 3 to 8) (size 9 to 14) (size 15 to 20)
#    0.000    2.750    0.000    0.375   12.250    0.000 
#    0.000    2.500    0.000    3.000    3.250    0.000 
#    0.000    0.000    0.000    0.000    0.000    0.000 
#
# Total GULP energy -178912.502581 kJ/mol
# GULP energy per Si atom -5591.015706 kJ/mol
# Density = 2.634016 g / cm^3
# Si number density = 26.400249 Si / 1000 Ang^3
#
#
#
# Elastic Constant Matrix: (Units=GPa)
#
#
# Indices 1 2 3 4 5 6 
#
# 1 53.6450 14.2270 10.3128 0.0000 -6.1883 0.0000
# 2 14.2270 77.0465 10.9094 0.0000 -3.2636 0.0000
# 3 10.3128 10.9094 69.9545 0.0000 -17.7189 0.0000
# 4 0.0000 0.0000 0.0000 52.3189 0.0000 16.0795
# 5 -6.1883 -3.2636 -17.7189 0.0000 38.9246 0.0000
# 6 0.0000 0.0000 0.0000 16.0795 0.0000 16.3696
#
#
#
# Elastic Compliance Matrix: (Units=1/GPa)
#
#
# Indices 1 2 3 4 5 6 
#
# 1 0.020138 -0.003359 -0.001928 0.000000 0.002043 0.000000
# 2 -0.003359 0.013834 -0.001700 0.000000 -0.000148 0.000000
# 3 -0.001928 -0.001700 0.016650 0.000000 0.007130 0.000000
# 4 0.000000 0.000000 0.000000 0.027379 0.000000 -0.026894
# 5 0.002043 -0.000148 0.007130 0.000000 0.029249 0.000000
# 6 0.000000 0.000000 0.000000 -0.026894 0.000000 0.087506
#
#
# Mechanical properties :
#
#
# Convention : Reuss Voigt Hill
#
# Bulk Modulus (GPa) = 27.28546 30.17161 28.72853
# Shear Modulus (GPa) = 22.63002 32.53573 27.58287
#
# Velocity S-wave (km/s) = 2.93096 3.51437 3.23584
# Velocity P-wave (km/s) = 4.67030 5.28404 4.98662
#
# Compressibility (1/GPa) = 0.03664956
#
# Stress axis : x y z
#
# Youngs Moduli (GPa) = 49.65711 72.28651 60.05891
#
# Poissons Ratio (x) = 0.24282 0.11577
# Poissons Ratio (y) = 0.16680 0.10208
# Poissons Ratio (z) = 0.09572 0.12286
#
# Static dielectric constant tensor:
#      x y z
#    x 2.105300 0.000000 0.049840 
#    y 0.000000 2.065660 0.000000 
#    z 0.049840 0.000000 2.145310 
# 
# From -- ./inp_files/42066.got.cif
#   From: 2010.05.17/outbox.cif.g08.bks.cpg/sg14_22_cif.got.tgz:42066.got - 2010.06.03 17:49:19.
