data_PCOD9244771
_publ_section_title
;
Structure prediction by ZEFSAII (Michael W. Deem and Ramdas Pophale) SiO2 
 PCOD9244771
Probable space group: P 21/C
;
_chemical_formula_sum "Si O2"
_cell_formula_units_Z 16
_cell_length_a 10.448908
_cell_length_b 11.491691
_cell_length_c 11.454304
_cell_angle_alpha 90.000000
_cell_angle_beta 36.676382
_cell_angle_gamma 90.000000
_cell_volume 821.508639
_symmetry_space_group_name_H-M "P 21/C"
_symmetry_group_IT_number 14
_symmetry_cell_setting 'monoclinic'
loop_
_space_group_symop_operation_xyz
x,y,z
-x,1/2+y,1/2-z
-x,-y,-z
x,1/2-y,1/2+z
loop_
_atom_site_type_symbol
_atom_site_label
_atom_site_fract_x
_atom_site_fract_y
_atom_site_fract_z
Si Si1 0.368019 0.937448 0.950282
Si Si2 0.346549 0.175407 0.078005
Si Si3 0.449819 0.068201 0.419031
Si Si4 0.015628 0.516979 0.126697
O O1 0.537480 0.848071 0.882742
O O2 0.363548 0.927690 0.814914
O O3 0.440699 0.069736 0.930059
O O4 0.144697 0.931129 0.183897
O O5 0.389681 0.300623 0.996618
O O6 0.095609 0.142072 0.268467
O O7 0.500000 0.000000 0.500000
O O8 0.250400 0.005148 0.502134
O O9 0.000000 0.500000 0.000000
#
# Coordination Sequence:
#
# PCOD9244771 Si02
#       4
#     4   4   4   4
#     4   9  21  44  62  90 128 177 205 255 332 376
#     4   9  21  42  65  90 131 168 216 254 320 392
#     4  12  25  38  66 102 129 160 220 272 311 378
#     4  10  20  44  65  89 125 175 211 249 330 384
#
# _framework density 19.476361000000001
#
# number of rings (size 3 to 8) (size 9 to 14) (size 15 to 20)
#    1.500    0.500    2.500    0.000    3.500    3.000 
#    4.500    0.000    0.000    0.000    0.000    0.000 
#    0.000    0.000    0.000    0.000    0.000    0.000 
#
# Total GULP energy -89073.809412 kJ/mol
# GULP energy per Si atom -5567.113088 kJ/mol
# Density = 1.943203 g / cm^3
# Si number density = 19.476361 Si / 1000 Ang^3
#
#
#
# Elastic Constant Matrix: (Units=GPa)
#
#
# Indices 1 2 3 4 5 6 
#
# 1 104.2096 15.9766 49.8407 0.0000 23.2950 0.0000
# 2 15.9766 70.2343 33.3311 0.0000 20.3053 0.0000
# 3 49.8407 33.3311 124.6900 0.0000 26.7514 0.0000
# 4 0.0000 0.0000 0.0000 15.9776 0.0000 -4.7086
# 5 23.2950 20.3053 26.7514 0.0000 39.1191 0.0000
# 6 0.0000 0.0000 0.0000 -4.7086 0.0000 9.1261
#
#
#
# Elastic Compliance Matrix: (Units=1/GPa)
#
#
# Indices 1 2 3 4 5 6 
#
# 1 0.012589 0.000519 -0.004107 0.000000 -0.004957 0.000000
# 2 0.000519 0.017834 -0.003425 0.000000 -0.007224 0.000000
# 3 -0.004107 -0.003425 0.011334 0.000000 -0.003527 0.000000
# 4 0.000000 0.000000 0.000000 0.073810 0.000000 0.038082
# 5 -0.004957 -0.007224 -0.003527 0.000000 0.034676 0.000000
# 6 0.000000 0.000000 0.000000 0.038082 0.000000 0.129224
#
#
# Mechanical properties :
#
#
# Convention : Reuss Voigt Hill
#
# Bulk Modulus (GPa) = 36.06186 55.27006 45.66596
# Shear Modulus (GPa) = 16.51596 26.17694 21.34645
#
# Velocity S-wave (km/s) = 2.91520 3.67009 3.31421
# Velocity P-wave (km/s) = 5.46691 6.81168 6.17601
#
# Compressibility (1/GPa) = 0.02773013
#
# Stress axis : x y z
#
# Youngs Moduli (GPa) = 79.43443 56.07338 88.23200
#
# Poissons Ratio (x) = -0.02908 0.36238
# Poissons Ratio (y) = -0.04119 0.30216
# Poissons Ratio (z) = 0.32625 0.19203
#
# Static dielectric constant tensor:
#      x y z
#    x 1.684300 0.000000 -0.008600 
#    y 0.000000 1.658170 0.000000 
#    z -0.008600 0.000000 1.754590 
# 
# From -- ./inp_files/23670.got.cif
#   From: 2010.05.17/outbox.cif.g08.bks.cpg/sg14_12_cif.got.tgz:23670.got - 2010.06.03 17:49:19.
