data_PCOD9244995
_publ_section_title
;
Structure prediction by ZEFSAII (Michael W. Deem and Ramdas Pophale) SiO2 
 PCOD9244995
Probable space group: P 21/C
;
_chemical_formula_sum "Si O2"
_cell_formula_units_Z 32
_cell_length_a 7.725909
_cell_length_b 8.875680
_cell_length_c 27.874426
_cell_angle_alpha 90.000000
_cell_angle_beta 42.264613
_cell_angle_gamma 90.000000
_cell_volume 1285.539230
_symmetry_space_group_name_H-M "P 21/C"
_symmetry_group_IT_number 14
_symmetry_cell_setting 'monoclinic'
loop_
_space_group_symop_operation_xyz
x,y,z
-x,1/2+y,1/2-z
-x,-y,-z
x,1/2-y,1/2+z
loop_
_atom_site_type_symbol
_atom_site_label
_atom_site_fract_x
_atom_site_fract_y
_atom_site_fract_z
Si Si1 0.980960 0.044879 0.261542
Si Si2 0.782059 0.095299 0.963481
Si Si3 0.036222 0.257392 0.553987
Si Si4 0.851171 0.357204 0.183538
Si Si5 0.711905 0.736116 0.591881
Si Si6 0.526621 0.103212 0.111378
Si Si7 0.548913 0.628202 0.220372
Si Si8 0.980751 0.195428 0.824590
O O1 0.247629 0.126097 0.190584
O O2 0.844315 0.182918 0.317327
O O3 0.019784 0.921318 0.295737
O O4 0.919076 0.943658 0.227980
O O5 0.021673 0.180410 0.938550
O O6 0.790788 0.144658 0.906438
O O7 0.555295 0.129169 0.048290
O O8 0.842110 0.917449 0.955332
O O9 0.018974 0.142660 0.601415
O O10 0.750477 0.302219 0.592446
O O11 0.206497 0.195704 0.475519
O O12 0.601368 0.461559 0.227089
O O13 0.729691 0.192514 0.210808
O O14 0.573798 0.575104 0.611918
O O15 0.588766 0.846028 0.655864
O O16 0.780071 0.718738 0.199567
#
# Coordination Sequence:
#
# PCOD9244995 Si02
#       8
#     4   4   4   4   4   4   4   4
#     4  11  23  37  55  81 115 144 189 229 271 330
#     4   8  17  32  59  79 108 143 182 228 274 326
#     4   9  17  30  57  86 110 141 175 225 284 325
#     4  11  22  33  56  85 111 145 183 229 270 335
#     4   8  15  32  54  82 112 135 176 231 275 324
#     4   9  16  35  56  85 108 138 187 230 266 329
#     4  10  21  36  54  81 112 142 184 229 276 325
#     4  10  23  37  53  81 110 150 179 230 277 325
#
# _framework density 24.89228
#
# number of rings (size 3 to 8) (size 9 to 14) (size 15 to 20)
#    0.000    2.500    1.250    3.000    5.250    1.000 
#    0.000    0.000    0.000    0.750    0.000    0.000 
#    0.000    0.000    0.000    0.000    0.000    0.000 
#
# Total GULP energy -178940.734649 kJ/mol
# GULP energy per Si atom -5591.897958 kJ/mol
# Density = 2.483562 g / cm^3
# Si number density = 24.892280 Si / 1000 Ang^3
#
#
#
# Elastic Constant Matrix: (Units=GPa)
#
#
# Indices 1 2 3 4 5 6 
#
# 1 81.2948 29.4724 31.2736 0.0000 28.2260 0.0000
# 2 29.4724 50.0679 18.0853 0.0000 29.6470 0.0000
# 3 31.2736 18.0853 122.3801 0.0000 45.1632 0.0000
# 4 0.0000 0.0000 0.0000 41.1298 0.0000 11.4785
# 5 28.2260 29.6470 45.1632 0.0000 35.5728 0.0000
# 6 0.0000 0.0000 0.0000 11.4785 0.0000 37.4155
#
#
#
# Elastic Compliance Matrix: (Units=1/GPa)
#
#
# Indices 1 2 3 4 5 6 
#
# 1 0.017390 -0.004086 -0.000009 0.000000 -0.010383 0.000000
# 2 -0.004086 0.052293 0.015435 0.000000 -0.059937 0.000000
# 3 -0.000009 0.015435 0.020015 0.000000 -0.038268 0.000000
# 4 0.000000 0.000000 0.000000 0.026590 0.000000 -0.008157
# 5 -0.010383 -0.059937 -0.038268 0.000000 0.134888 0.000000
# 6 0.000000 0.000000 0.000000 -0.008157 0.000000 0.029229
#
#
# Mechanical properties :
#
#
# Convention : Reuss Voigt Hill
#
# Bulk Modulus (GPa) = 8.89831 45.71173 27.30502
# Shear Modulus (GPa) = 16.93857 34.48437 25.71147
#
# Velocity S-wave (km/s) = 2.61142 3.72606 3.21738
# Velocity P-wave (km/s) = 3.56022 6.07577 4.97947
#
# Compressibility (1/GPa) = 0.11238093
#
# Stress axis : x y z
#
# Youngs Moduli (GPa) = 57.50305 19.12289 49.96251
#
# Poissons Ratio (x) = 0.07813 0.00043
# Poissons Ratio (y) = 0.23494 -0.77119
# Poissons Ratio (z) = 0.00049 -0.29517
#
# Static dielectric constant tensor:
#      x y z
#    x 2.054380 0.000000 0.017080 
#    y 0.000000 1.938370 0.000000 
#    z 0.017080 0.000000 1.961270 
# 
# From -- ./inp_files/76354.got.cif
#   From: 2010.05.17/outbox.cif.g08.bks.cpg/sg14_39_cif.got.tgz:76354.got - 2010.06.03 17:49:19.
