data_PCOD9244907
_publ_section_title
;
Structure prediction by ZEFSAII (Michael W. Deem and Ramdas Pophale) SiO2 
 PCOD9244907
Probable space group: P 21/C
;
_chemical_formula_sum "Si O2"
_cell_formula_units_Z 30
_cell_length_a 11.391692
_cell_length_b 5.107421
_cell_length_c 19.942759
_cell_angle_alpha 90.000000
_cell_angle_beta 70.973736
_cell_angle_gamma 90.000000
_cell_volume 1096.924154
_symmetry_space_group_name_H-M "P 21/C"
_symmetry_group_IT_number 14
_symmetry_cell_setting 'monoclinic'
loop_
_space_group_symop_operation_xyz
x,y,z
-x,1/2+y,1/2-z
-x,-y,-z
x,1/2-y,1/2+z
loop_
_atom_site_type_symbol
_atom_site_label
_atom_site_fract_x
_atom_site_fract_y
_atom_site_fract_z
Si Si1 0.500000 0.500000 0.500000
Si Si2 0.772105 0.521602 0.534292
Si Si3 0.648413 0.446318 0.901112
Si Si4 0.627571 0.788581 0.671357
Si Si5 0.474045 0.207210 0.168400
Si Si6 0.161407 0.719728 0.243068
Si Si7 0.127861 0.517509 0.036026
Si Si8 0.939615 0.717635 0.174094
O O1 0.643836 0.511561 0.514549
O O2 0.453330 0.761191 0.548384
O O3 0.741393 0.675981 0.608488
O O4 0.825948 0.229235 0.527075
O O5 0.873570 0.712956 0.481686
O O6 0.585096 0.726589 0.893011
O O7 0.712399 0.334413 0.821312
O O8 0.761628 0.480195 0.929790
O O9 0.618824 0.755921 0.752633
O O10 0.582917 0.078258 0.658948
O O11 0.523335 0.580722 0.667726
O O12 0.123465 0.495679 0.302127
O O13 0.054213 0.721858 0.206321
O O14 0.152509 0.990800 0.283716
O O15 0.005367 0.629351 0.093720
#
# Coordination Sequence:
#
# PCOD9244907 Si02
#       8
#     2   4   4   4   4   4   4   4
#     4  10  22  32  52  76 128 142 174 216 272 328
#     4  11  21  34  50  78 109 148 179 213 268 338
#     4  10  21  35  53  85 110 153 178 222 271 334
#     4  10  21  37  53  75 101 153 188 227 260 305
#     4  10  21  36  56  72 108 143 195 227 257 306
#     4   9  18  30  53  71 105 137 183 212 272 317
#     4  10  22  32  54  79 110 139 181 214 285 330
#     4   9  17  34  48  74 102 137 172 231 261 324
#
# _framework density 27.349201999999998
#
# number of rings (size 3 to 8) (size 9 to 14) (size 15 to 20)
#    0.000    2.133    1.333    1.600    1.867    8.533 
#    0.000    0.000    0.000    0.000    0.000    5.600 
#    0.000    0.000    0.000    0.000    0.000    0.000 
#
# Total GULP energy -167773.354314 kJ/mol
# GULP energy per Si atom -5592.445144 kJ/mol
# Density = 2.728695 g / cm^3
# Si number density = 27.349202 Si / 1000 Ang^3
#
#
#
# Elastic Constant Matrix: (Units=GPa)
#
#
# Indices 1 2 3 4 5 6 
#
# 1 115.5461 29.1246 22.0510 0.0000 -7.7007 0.0000
# 2 29.1246 124.4447 16.7168 0.0000 -17.6095 0.0000
# 3 22.0510 16.7168 87.7566 0.0000 -12.9832 0.0000
# 4 0.0000 0.0000 0.0000 31.8484 0.0000 -4.8414
# 5 -7.7007 -17.6095 -12.9832 0.0000 36.2337 0.0000
# 6 0.0000 0.0000 0.0000 -4.8414 0.0000 21.7437
#
#
#
# Elastic Compliance Matrix: (Units=1/GPa)
#
#
# Indices 1 2 3 4 5 6 
#
# 1 0.009539 -0.001912 -0.001975 0.000000 0.000390 0.000000
# 2 -0.001912 0.009111 -0.000697 0.000000 0.003772 0.000000
# 3 -0.001975 -0.000697 0.012579 0.000000 0.003749 0.000000
# 4 0.000000 0.000000 0.000000 0.032499 0.000000 0.007236
# 5 0.000390 0.003772 0.003749 0.000000 0.030858 0.000000
# 6 0.000000 0.000000 0.000000 0.007236 0.000000 0.047601
#
#
# Mechanical properties :
#
#
# Convention : Reuss Voigt Hill
#
# Bulk Modulus (GPa) = 45.32971 51.50359 48.41665
# Shear Modulus (GPa) = 31.50430 35.28883 33.39657
#
# Velocity S-wave (km/s) = 3.39769 3.59598 3.49824
# Velocity P-wave (km/s) = 5.65710 6.00951 5.83596
#
# Compressibility (1/GPa) = 0.02206059
#
# Stress axis : x y z
#
# Youngs Moduli (GPa) = 104.82795 109.76333 79.49881
#
# Poissons Ratio (x) = 0.20987 0.15701
# Poissons Ratio (y) = 0.20043 0.05541
# Poissons Ratio (z) = 0.20704 0.07651
#
# Static dielectric constant tensor:
#      x y z
#    x 2.196860 0.000000 0.032740 
#    y 0.000000 1.962100 0.000000 
#    z 0.032740 0.000000 1.955480 
# 
# From -- ./inp_files/73553.got.cif
#   From: 2010.05.17/outbox.cif.g08.bks.cpg/sg14_37_cif.got.tgz:73553.got - 2010.06.03 17:49:19.
