data_PCOD9244530
_publ_section_title
;
Structure prediction by ZEFSAII (Michael W. Deem and Ramdas Pophale) SiO2 
 PCOD9244530
Probable space group: P 21/C
;
_chemical_formula_sum "Si O2"
_cell_formula_units_Z 20
_cell_length_a 10.697793
_cell_length_b 9.699729
_cell_length_c 13.242460
_cell_angle_alpha 90.000000
_cell_angle_beta 34.060293
_cell_angle_gamma 90.000000
_cell_volume 769.592618
_symmetry_space_group_name_H-M "P 21/C"
_symmetry_group_IT_number 14
_symmetry_cell_setting 'monoclinic'
loop_
_space_group_symop_operation_xyz
x,y,z
-x,1/2+y,1/2-z
-x,-y,-z
x,1/2-y,1/2+z
loop_
_atom_site_type_symbol
_atom_site_label
_atom_site_fract_x
_atom_site_fract_y
_atom_site_fract_z
Si Si1 0.514778 0.412646 0.836260
Si Si2 0.233931 0.293940 0.605611
Si Si3 0.858868 0.248080 0.238141
Si Si4 0.741792 0.065444 0.993804
Si Si5 0.164382 0.332167 0.346831
O O1 0.648248 0.323549 0.829842
O O2 0.565384 0.365650 0.688332
O O3 0.273158 0.358938 0.031322
O O4 0.367503 0.438251 0.232368
O O5 0.354022 0.412569 0.463360
O O6 0.252653 0.282700 0.711392
O O7 0.978209 0.333690 0.749619
O O8 0.779814 0.378504 0.355753
O O9 0.037241 0.235095 0.026754
O O10 0.968099 0.085956 0.912871
#
# Coordination Sequence:
#
# PCOD9244530 Si02
#       5
#     4   4   4   4   4
#     4  11  21  41  65  92 130 169 209 258 320 382
#     4  11  22  37  66  95 125 169 212 260 309 382
#     4  10  21  41  64  91 127 165 209 265 309 377
#     4  10  21  41  65  92 128 164 213 262 314 376
#     4  10  20  41  68  92 124 170 213 257 324 371
#
# _framework density 25.987774000000002
#
# number of rings (size 3 to 8) (size 9 to 14) (size 15 to 20)
#    0.000    1.600    4.000    1.800    0.000    3.200 
#    3.600    2.000    0.000    0.000    0.000    0.000 
#    0.000    0.000    0.000    0.000    0.000    0.000 
#
# Total GULP energy -111366.265178 kJ/mol
# GULP energy per Si atom -5568.313259 kJ/mol
# Density = 2.592862 g / cm^3
# Si number density = 25.987774 Si / 1000 Ang^3
#
#
#
# Elastic Constant Matrix: (Units=GPa)
#
#
# Indices 1 2 3 4 5 6 
#
# 1 106.9851 40.4384 37.8957 0.0000 34.6534 0.0000
# 2 40.4384 75.4848 49.2173 0.0000 31.5130 0.0000
# 3 37.8957 49.2173 133.7162 0.0000 37.7273 0.0000
# 4 0.0000 0.0000 0.0000 40.5755 0.0000 14.7335
# 5 34.6534 31.5130 37.7273 0.0000 43.0589 0.0000
# 6 0.0000 0.0000 0.0000 14.7335 0.0000 41.2220
#
#
#
# Elastic Compliance Matrix: (Units=1/GPa)
#
#
# Indices 1 2 3 4 5 6 
#
# 1 0.013380 -0.003769 -0.000192 0.000000 -0.007841 0.000000
# 2 -0.003769 0.021989 -0.004438 0.000000 -0.009172 0.000000
# 3 -0.000192 -0.004438 0.010901 0.000000 -0.006149 0.000000
# 4 0.000000 0.000000 0.000000 0.028321 0.000000 -0.010123
# 5 -0.007841 -0.009172 -0.006149 0.000000 0.041634 0.000000
# 6 0.000000 0.000000 0.000000 -0.010123 0.000000 0.027877
#
#
# Mechanical properties :
#
#
# Convention : Reuss Voigt Hill
#
# Bulk Modulus (GPa) = 33.93039 63.47655 48.70347
# Shear Modulus (GPa) = 29.28702 37.54691 33.41697
#
# Velocity S-wave (km/s) = 3.36066 3.80516 3.58980
# Velocity P-wave (km/s) = 5.30503 6.61697 5.99698
#
# Compressibility (1/GPa) = 0.02947210
#
# Stress axis : x y z
#
# Youngs Moduli (GPa) = 74.74115 45.47698 91.73166
#
# Poissons Ratio (x) = 0.17139 0.01764
# Poissons Ratio (y) = 0.28169 0.40709
# Poissons Ratio (z) = 0.01437 0.20182
#
# Static dielectric constant tensor:
#      x y z
#    x 2.143540 0.000000 -0.077840 
#    y 0.000000 2.220260 0.000000 
#    z -0.077840 0.000000 2.080000 
# 
# From -- ./inp_files/28802.got.cif
#   From: 2010.05.17/outbox.cif.g08.bks.cpg/sg14_15_cif.got.tgz:28802.got - 2010.06.03 17:49:19.
