data_PCOD9244801
_publ_section_title
;
Structure prediction by ZEFSAII (Michael W. Deem and Ramdas Pophale) SiO2 
 PCOD9244801
Probable space group: P 21/C
;
_chemical_formula_sum "Si O2"
_cell_formula_units_Z 22
_cell_length_a 12.386439
_cell_length_b 8.578712
_cell_length_c 20.720931
_cell_angle_alpha 90.000000
_cell_angle_beta 22.045056
_cell_angle_gamma 90.000000
_cell_volume 826.413819
_symmetry_space_group_name_H-M "P 21/C"
_symmetry_group_IT_number 14
_symmetry_cell_setting 'monoclinic'
loop_
_space_group_symop_operation_xyz
x,y,z
-x,1/2+y,1/2-z
-x,-y,-z
x,1/2-y,1/2+z
loop_
_atom_site_type_symbol
_atom_site_label
_atom_site_fract_x
_atom_site_fract_y
_atom_site_fract_z
Si Si1 0.061025 0.821870 0.988767
Si Si2 0.479467 0.839119 0.378359
Si Si3 0.500000 0.000000 0.500000
Si Si4 0.681297 0.632254 0.110662
Si Si5 0.750148 0.083012 0.900184
Si Si6 0.775019 0.742716 0.425062
O O1 0.810221 0.795608 0.179940
O O2 0.967627 0.695349 0.986324
O O3 0.404046 0.831659 0.809588
O O4 0.000000 0.000000 0.000000
O O5 0.493028 0.962520 0.428682
O O6 0.314187 0.695291 0.503933
O O7 0.331696 0.951863 0.405263
O O8 0.593093 0.812552 0.466187
O O9 0.640230 0.739589 0.069855
O O10 0.948262 0.149861 0.734695
O O11 0.908270 0.930198 0.842020
O O12 0.500000 0.000000 0.000000
#
# Coordination Sequence:
#
# PCOD9244801 Si02
#       6
#     4   4   2   4   4   4
#     4  10  24  47  74 113 159 211 269 333 403 483
#     4  10  23  46  75 109 155 202 269 328 399 483
#     4  10  20  44  70 110 146 206 246 326 386 464
#     4  10  24  47  79 106 158 215 266 337 395 482
#     4  12  26  45  71 113 147 206 250 330 402 469
#     4  11  25  43  76 104 157 194 267 317 399 477
#
# _framework density 26.621046
#
# number of rings (size 3 to 8) (size 9 to 14) (size 15 to 20)
#    0.000    1.455    1.818    2.182    2.545    8.727 
#    9.818    4.545    0.000    0.000    0.000    0.000 
#    0.000    0.000    0.000    0.000    0.000    0.000 
#
# Total GULP energy -122495.256543 kJ/mol
# GULP energy per Si atom -5567.966206 kJ/mol
# Density = 2.656046 g / cm^3
# Si number density = 26.621046 Si / 1000 Ang^3
#
#
#
# Elastic Constant Matrix: (Units=GPa)
#
#
# Indices 1 2 3 4 5 6 
#
# 1 80.2057 10.8761 13.2588 0.0000 -9.8660 0.0000
# 2 10.8761 157.9622 9.5593 0.0000 5.0787 0.0000
# 3 13.2588 9.5593 117.1459 0.0000 -7.2352 0.0000
# 4 0.0000 0.0000 0.0000 55.1043 0.0000 2.8905
# 5 -9.8660 5.0787 -7.2352 0.0000 48.3762 0.0000
# 6 0.0000 0.0000 0.0000 2.8905 0.0000 37.1872
#
#
#
# Elastic Compliance Matrix: (Units=1/GPa)
#
#
# Indices 1 2 3 4 5 6 
#
# 1 0.013116 -0.000910 -0.001251 0.000000 0.002583 0.000000
# 2 -0.000910 0.006452 -0.000481 0.000000 -0.000935 0.000000
# 3 -0.001251 -0.000481 0.008786 0.000000 0.001109 0.000000
# 4 0.000000 0.000000 0.000000 0.018222 0.000000 -0.001416
# 5 0.002583 -0.000935 0.001109 0.000000 0.021462 0.000000
# 6 0.000000 0.000000 0.000000 -0.001416 0.000000 0.027001
#
#
# Mechanical properties :
#
#
# Convention : Reuss Voigt Hill
#
# Bulk Modulus (GPa) = 43.34730 46.96693 45.15712
# Shear Modulus (GPa) = 46.29044 49.57485 47.93264
#
# Velocity S-wave (km/s) = 4.17450 4.32005 4.24790
# Velocity P-wave (km/s) = 6.28917 6.52418 6.40775
#
# Compressibility (1/GPa) = 0.02306949
#
# Stress axis : x y z
#
# Youngs Moduli (GPa) = 76.24322 154.97869 113.82130
#
# Poissons Ratio (x) = 0.14110 0.14235
# Poissons Ratio (y) = 0.06942 0.05478
# Poissons Ratio (z) = 0.09535 0.07458
#
# Static dielectric constant tensor:
#      x y z
#    x 8.308220 0.000000 -7.016690 
#    y 0.000000 2.050920 0.000000 
#    z -7.016690 0.000000 9.788920 
# 
# From -- ./inp_files/73713.got.cif
#   From: 2010.05.17/outbox.cif.g08.bks.cpg/sg14_37_cif.got.tgz:73713.got - 2010.06.03 17:49:19.
