data_PCOD9244281
_publ_section_title
;
Structure prediction by ZEFSAII (Michael W. Deem and Ramdas Pophale) SiO2 
 PCOD9244281
Probable space group: P 21/C
;
_chemical_formula_sum "Si O2"
_cell_formula_units_Z 24
_cell_length_a 16.027126
_cell_length_b 9.163793
_cell_length_c 15.410190
_cell_angle_alpha 90.000000
_cell_angle_beta 27.226701
_cell_angle_gamma 90.000000
_cell_volume 1035.480083
_symmetry_space_group_name_H-M "P 21/C"
_symmetry_group_IT_number 14
_symmetry_cell_setting 'monoclinic'
loop_
_space_group_symop_operation_xyz
x,y,z
-x,1/2+y,1/2-z
-x,-y,-z
x,1/2-y,1/2+z
loop_
_atom_site_type_symbol
_atom_site_label
_atom_site_fract_x
_atom_site_fract_y
_atom_site_fract_z
Si Si1 0.194485 0.467671 0.247923
Si Si2 0.139224 0.085078 0.062982
Si Si3 0.923083 0.145851 0.743439
Si Si4 0.482432 0.060938 0.336682
Si Si5 0.295988 0.825725 0.411414
Si Si6 0.918547 0.249968 0.559206
O O1 0.200529 0.606031 0.305944
O O2 0.025258 0.512925 0.341163
O O3 0.120654 0.319142 0.359808
O O4 0.375591 0.453773 0.025285
O O5 0.103813 0.257313 0.095073
O O6 0.105826 0.011207 0.187377
O O7 0.329739 0.030766 0.847940
O O8 0.901949 0.149642 0.659504
O O9 0.780451 0.245033 0.931518
O O10 0.354660 0.986118 0.382790
O O11 0.531940 0.227952 0.275076
O O12 0.158140 0.815316 0.458402
#
# Coordination Sequence:
#
# PCOD9244281 Si02
#       6
#     4   4   4   4   4   4
#     4  10  20  40  65  92 123 163 221 256 298 381
#     4  10  21  40  67  92 126 167 210 257 322 366
#     4  10  21  42  64  93 128 163 212 262 310 379
#     4  11  23  39  67  94 126 167 211 261 319 367
#     4  11  23  41  63  94 129 165 215 261 316 373
#     4  10  20  40  66  92 126 168 209 263 310 378
#
# _framework density 23.177652999999999
#
# number of rings (size 3 to 8) (size 9 to 14) (size 15 to 20)
#    0.000    1.667    6.667    0.000    2.333    0.667 
#    0.000    4.167    0.000    0.000    0.000    1.167 
#    0.000    0.000    0.000    0.000    0.000    0.000 
#
# Total GULP energy -134124.139760 kJ/mol
# GULP energy per Si atom -5588.505823 kJ/mol
# Density = 2.312490 g / cm^3
# Si number density = 23.177653 Si / 1000 Ang^3
#
#
#
# Elastic Constant Matrix: (Units=GPa)
#
#
# Indices 1 2 3 4 5 6 
#
# 1 96.1517 31.0797 39.4379 0.0000 17.6109 0.0000
# 2 31.0797 55.6426 31.2717 0.0000 3.2852 0.0000
# 3 39.4379 31.2717 169.6927 0.0000 26.9349 0.0000
# 4 0.0000 0.0000 0.0000 39.5157 0.0000 5.5231
# 5 17.6109 3.2852 26.9349 0.0000 30.6416 0.0000
# 6 0.0000 0.0000 0.0000 5.5231 0.0000 31.0220
#
#
#
# Elastic Compliance Matrix: (Units=1/GPa)
#
#
# Indices 1 2 3 4 5 6 
#
# 1 0.014285 -0.007041 -0.000975 0.000000 -0.006598 0.000000
# 2 -0.007041 0.023562 -0.003425 0.000000 0.004531 0.000000
# 3 -0.000975 -0.003425 0.007674 0.000000 -0.005818 0.000000
# 4 0.000000 0.000000 0.000000 0.025952 0.000000 -0.004620
# 5 -0.006598 0.004531 -0.005818 0.000000 0.041056 0.000000
# 6 0.000000 0.000000 0.000000 -0.004620 0.000000 0.033058
#
#
# Mechanical properties :
#
#
# Convention : Reuss Voigt Hill
#
# Bulk Modulus (GPa) = 44.17232 58.34063 51.25647
# Shear Modulus (GPa) = 28.40655 34.88239 31.64447
#
# Velocity S-wave (km/s) = 3.50466 3.88364 3.69901
# Velocity P-wave (km/s) = 5.95620 6.73320 6.35658
#
# Compressibility (1/GPa) = 0.02263861
#
# Stress axis : x y z
#
# Youngs Moduli (GPa) = 70.00553 42.44099 130.30523
#
# Poissons Ratio (x) = 0.29884 0.12704
# Poissons Ratio (y) = 0.49293 0.44628
# Poissons Ratio (z) = 0.06825 0.14536
#
# Static dielectric constant tensor:
#      x y z
#    x 1.939180 0.000000 -0.018770 
#    y 0.000000 1.911740 0.000000 
#    z -0.018770 0.000000 1.893730 
# 
# From -- ./inp_files/46863.got.cif
#   From: 2010.05.17/outbox.cif.g08.bks.cpg/sg14_24_cif.got.tgz:46863.got - 2010.06.03 17:49:19.
