data_PCOD9244691
_publ_section_title
;
Structure prediction by ZEFSAII (Michael W. Deem and Ramdas Pophale) SiO2 
 PCOD9244691
Probable space group: P 21/C
;
_chemical_formula_sum "Si O2"
_cell_formula_units_Z 22
_cell_length_a 12.264175
_cell_length_b 5.334485
_cell_length_c 14.093095
_cell_angle_alpha 90.000000
_cell_angle_beta 74.256196
_cell_angle_gamma 90.000000
_cell_volume 887.423651
_symmetry_space_group_name_H-M "P 21/C"
_symmetry_group_IT_number 14
_symmetry_cell_setting 'monoclinic'
loop_
_space_group_symop_operation_xyz
x,y,z
-x,1/2+y,1/2-z
-x,-y,-z
x,1/2-y,1/2+z
loop_
_atom_site_type_symbol
_atom_site_label
_atom_site_fract_x
_atom_site_fract_y
_atom_site_fract_z
Si Si1 0.368386 0.749084 0.192220
Si Si2 0.992087 0.740329 0.810314
Si Si3 0.767570 0.529695 0.929786
Si Si4 0.500000 0.500000 0.500000
Si Si5 0.924325 0.248134 0.026356
Si Si6 0.404256 0.939401 0.386353
O O1 0.280073 0.572662 0.157706
O O2 0.345803 0.849638 0.303250
O O3 0.484683 0.588516 0.171415
O O4 0.403703 0.962421 0.108786
O O5 0.867480 0.725775 0.887261
O O6 0.004522 0.476110 0.757219
O O7 0.097268 0.760667 0.857107
O O8 0.825606 0.300155 0.975784
O O9 0.669878 0.620104 0.026154
O O10 0.437954 0.718165 0.449835
O O11 0.000000 0.500000 0.000000
O O12 0.000000 0.000000 0.000000
#
# Coordination Sequence:
#
# PCOD9244691 Si02
#       6
#     4   4   4   2   4   4
#     4  11  23  46  69 105 145 190 247 299 374 439
#     4  11  24  47  72 109 148 188 247 313 373 444
#     4  10  24  44  69 104 139 195 245 304 378 452
#     4  10  20  42  70  92 142 182 230 308 346 434
#     4  10  22  47  69 100 144 184 236 308 368 430
#     4  11  23  46  68 105 145 190 247 296 375 434
#
# _framework density 24.790866000000001
#
# number of rings (size 3 to 8) (size 9 to 14) (size 15 to 20)
#    0.000    1.455    1.818    4.364    2.545    0.000 
#   42.545    0.000    0.000    0.000    0.000    0.000 
#    0.000    0.000    0.000    0.000    0.000    0.000 
#
# Total GULP energy -122483.007137 kJ/mol
# GULP energy per Si atom -5567.409415 kJ/mol
# Density = 2.473444 g / cm^3
# Si number density = 24.790866 Si / 1000 Ang^3
#
#
#
# Elastic Constant Matrix: (Units=GPa)
#
#
# Indices 1 2 3 4 5 6 
#
# 1 103.9506 6.3618 22.5098 0.0000 15.4152 0.0000
# 2 6.3618 99.0905 22.2153 0.0000 7.3943 0.0000
# 3 22.5098 22.2153 149.3674 0.0000 17.8361 0.0000
# 4 0.0000 0.0000 0.0000 42.3560 0.0000 6.7719
# 5 15.4152 7.3943 17.8361 0.0000 37.9545 0.0000
# 6 0.0000 0.0000 0.0000 6.7719 0.0000 -5.9778
#
#
#
# Elastic Compliance Matrix: (Units=1/GPa)
#
#
# Indices 1 2 3 4 5 6 
#
# 1 0.010415 -0.000146 -0.001108 0.000000 -0.003681 0.000000
# 2 -0.000146 0.010511 -0.001381 0.000000 -0.001339 0.000000
# 3 -0.001108 -0.001381 0.007397 0.000000 -0.002757 0.000000
# 4 0.000000 0.000000 0.000000 0.019989 0.000000 0.022644
# 5 -0.003681 -0.001339 -0.002757 0.000000 0.029399 0.000000
# 6 0.000000 0.000000 0.000000 0.022644 0.000000 -0.141634
#
#
# Mechanical properties :
#
#
# Convention : Reuss Voigt Hill
#
# Bulk Modulus (GPa) = 43.38102 50.50914 46.94508
# Shear Modulus (GPa) = -98.09627 34.95465 -31.57081
#
# Velocity S-wave (km/s) = -6.29726 3.75905 -3.57246
# Velocity P-wave (km/s) = 5.94450 6.26569 1.40031
#
# Compressibility (1/GPa) = 0.02305155
#
# Stress axis : x y z
#
# Youngs Moduli (GPa) = 96.01816 95.14050 135.19813
#
# Poissons Ratio (x) = 0.01384 0.14985
# Poissons Ratio (y) = 0.01397 0.18676
# Poissons Ratio (z) = 0.10642 0.13143
#
# Static dielectric constant tensor:
#      x y z
#    x 1.344100 0.000000 -0.295340 
#    y 0.000000 2.326080 0.000000 
#    z -0.295340 0.000000 1.953270 
# 
# From -- ./inp_files/42577.got.cif
#   From: 2010.05.17/outbox.cif.g08.bks.cpg/sg14_22_cif.got.tgz:42577.got - 2010.06.03 17:49:19.
