data_PCOD9244827
_publ_section_title
;
Structure prediction by ZEFSAII (Michael W. Deem and Ramdas Pophale) SiO2 
 PCOD9244827
Probable space group: P 21/C
;
_chemical_formula_sum "Si O2"
_cell_formula_units_Z 24
_cell_length_a 32.119386
_cell_length_b 6.878086
_cell_length_c 16.285250
_cell_angle_alpha 90.000000
_cell_angle_beta 18.689700
_cell_angle_gamma 90.000000
_cell_volume 1152.868193
_symmetry_space_group_name_H-M "P 21/C"
_symmetry_group_IT_number 14
_symmetry_cell_setting 'monoclinic'
loop_
_space_group_symop_operation_xyz
x,y,z
-x,1/2+y,1/2-z
-x,-y,-z
x,1/2-y,1/2+z
loop_
_atom_site_type_symbol
_atom_site_label
_atom_site_fract_x
_atom_site_fract_y
_atom_site_fract_z
Si Si1 0.654099 0.442325 0.047046
Si Si2 0.012363 0.420113 0.113564
Si Si3 0.409772 0.170328 0.743793
Si Si4 0.574302 0.694289 0.970623
Si Si5 0.180094 0.645333 0.671239
Si Si6 0.824291 0.892159 0.095399
O O1 0.381563 0.159151 0.359417
O O2 0.523900 0.314105 0.288698
O O3 0.743404 0.339060 0.948503
O O4 0.738458 0.454895 0.807305
O O5 0.906877 0.335153 0.246914
O O6 0.935627 0.510995 0.333066
O O7 0.089464 0.580654 0.916555
O O8 0.110541 0.258328 0.963547
O O9 0.438844 0.258331 0.599676
O O10 0.525088 0.029218 0.558206
O O11 0.285844 0.027419 0.964093
O O12 0.719885 0.709806 0.730791
#
# Coordination Sequence:
#
# PCOD9244827 Si02
#       6
#     4   4   4   4   4   4
#     4  11  24  40  69  99 123 172 223 268 333 388
#     4  11  24  44  65  94 137 174 216 269 323 391
#     4  10  20  46  67  93 127 172 222 268 325 390
#     4  10  24  41  67  94 133 167 216 280 324 382
#     4  10  22  45  68  91 131 176 219 269 318 396
#     4  12  25  42  64 101 134 172 214 275 331 382
#
# _framework density 20.817646
#
# number of rings (size 3 to 8) (size 9 to 14) (size 15 to 20)
#    0.000    1.333    3.333    1.500    2.333    2.000 
#    3.000    0.000    0.000    0.000    0.000    0.000 
#    0.000    0.000    0.000    0.000    0.000    0.000 
#
# Total GULP energy -134183.998918 kJ/mol
# GULP energy per Si atom -5590.999955 kJ/mol
# Density = 2.077026 g / cm^3
# Si number density = 20.817646 Si / 1000 Ang^3
#
#
#
# Elastic Constant Matrix: (Units=GPa)
#
#
# Indices 1 2 3 4 5 6 
#
# 1 60.6429 15.1960 5.2447 0.0000 -3.5803 0.0000
# 2 15.1960 32.7964 9.7377 0.0000 5.4316 0.0000
# 3 5.2447 9.7377 64.4331 0.0000 7.9466 0.0000
# 4 0.0000 0.0000 0.0000 37.3790 0.0000 3.7824
# 5 -3.5803 5.4316 7.9466 0.0000 42.1403 0.0000
# 6 0.0000 0.0000 0.0000 3.7824 0.0000 9.2013
#
#
#
# Elastic Compliance Matrix: (Units=1/GPa)
#
#
# Indices 1 2 3 4 5 6 
#
# 1 0.018992 -0.009123 -0.000523 0.000000 0.002888 0.000000
# 2 -0.009123 0.036755 -0.004231 0.000000 -0.004715 0.000000
# 3 -0.000523 -0.004231 0.016525 0.000000 -0.002615 0.000000
# 4 0.000000 0.000000 0.000000 0.027914 0.000000 -0.011475
# 5 0.002888 -0.004715 -0.002615 0.000000 0.025077 0.000000
# 6 0.000000 0.000000 0.000000 -0.011475 0.000000 0.113398
#
#
# Mechanical properties :
#
#
# Convention : Reuss Voigt Hill
#
# Bulk Modulus (GPa) = 22.46291 24.24770 23.35531
# Shear Modulus (GPa) = 17.77762 26.25705 22.01733
#
# Velocity S-wave (km/s) = 2.92544 3.55531 3.25565
# Velocity P-wave (km/s) = 4.71431 5.34103 5.03743
#
# Compressibility (1/GPa) = 0.04451782
#
# Stress axis : x y z
#
# Youngs Moduli (GPa) = 52.65456 27.20716 60.51616
#
# Poissons Ratio (x) = 0.24820 0.03167
# Poissons Ratio (y) = 0.48035 0.25603
# Poissons Ratio (z) = 0.02756 0.11511
#
# Static dielectric constant tensor:
#      x y z
#    x 1.746260 0.000000 0.015460 
#    y 0.000000 1.719870 0.000000 
#    z 0.015460 0.000000 1.750830 
# 
# From -- ./inp_files/52225.got.cif
#   From: 2010.05.17/outbox.cif.g08.bks.cpg/sg14_27_cif.got.tgz:52225.got - 2010.06.03 17:49:19.
