data_PCOD9244205
_publ_section_title
;
Structure prediction by ZEFSAII (Michael W. Deem and Ramdas Pophale) SiO2 
 PCOD9244205
Probable space group: P 21/C
;
_chemical_formula_sum "Si O2"
_cell_formula_units_Z 24
_cell_length_a 13.695029
_cell_length_b 8.699412
_cell_length_c 16.511851
_cell_angle_alpha 90.000000
_cell_angle_beta 146.192971
_cell_angle_gamma 90.000000
_cell_volume 1094.545526
_symmetry_space_group_name_H-M "P 21/C"
_symmetry_group_IT_number 14
_symmetry_cell_setting 'monoclinic'
loop_
_space_group_symop_operation_xyz
x,y,z
-x,1/2+y,1/2-z
-x,-y,-z
x,1/2-y,1/2+z
loop_
_atom_site_type_symbol
_atom_site_label
_atom_site_fract_x
_atom_site_fract_y
_atom_site_fract_z
Si Si1 0.122929 0.366991 0.047941
Si Si2 0.292908 0.335549 0.319294
Si Si3 0.463733 0.969319 0.708442
Si Si4 0.833719 0.175609 0.231119
Si Si5 0.634527 0.344734 0.444344
Si Si6 0.507215 0.136037 0.569869
O O1 0.016958 0.290463 0.901606
O O2 0.181181 0.267539 0.166706
O O3 0.293577 0.454063 0.132171
O O4 0.000000 0.500000 0.000000
O O5 0.206926 0.495012 0.285177
O O6 0.483427 0.361827 0.408817
O O7 0.337830 0.236638 0.428669
O O8 0.420106 0.796418 0.651628
O O9 0.620580 0.002427 0.880180
O O10 0.502004 0.062189 0.653502
O O11 0.684550 0.268594 0.177259
O O12 0.804537 0.199901 0.114691
O O13 0.500000 0.000000 0.500000
#
# Coordination Sequence:
#
# PCOD9244205 Si02
#       6
#     4   4   4   4   4   4
#     4   9  21  41  59  83 120 160 196 237 296 359
#     4   9  19  38  62  84 117 159 196 235 299 355
#     4  11  23  37  61  89 119 153 203 247 289 349
#     4  10  20  40  63  83 121 160 194 239 305 357
#     4  10  21  36  59  89 114 151 207 238 288 350
#     4  11  20  37  61  88 119 149 199 254 285 342
#
# _framework density 21.926908999999998
#
# number of rings (size 3 to 8) (size 9 to 14) (size 15 to 20)
#    0.000    2.000    3.333    2.000    9.333    0.000 
#    6.000    0.833    0.000    0.000    0.000    0.000 
#    0.000    0.000    0.000    0.000    0.000    0.000 
#
# Total GULP energy -133865.734760 kJ/mol
# GULP energy per Si atom -5577.738948 kJ/mol
# Density = 2.187700 g / cm^3
# Si number density = 21.926909 Si / 1000 Ang^3
#
#
#
# Elastic Constant Matrix: (Units=GPa)
#
#
# Indices 1 2 3 4 5 6 
#
# 1 46.3290 -2.0145 3.8321 0.0000 -12.9115 0.0000
# 2 -2.0145 56.2278 13.5187 0.0000 -5.0824 0.0000
# 3 3.8321 13.5187 128.4895 0.0000 -20.8866 0.0000
# 4 0.0000 0.0000 0.0000 17.5824 0.0000 -15.9881
# 5 -12.9115 -5.0824 -20.8866 0.0000 28.2858 0.0000
# 6 0.0000 0.0000 0.0000 -15.9881 0.0000 25.8362
#
#
#
# Elastic Compliance Matrix: (Units=1/GPa)
#
#
# Indices 1 2 3 4 5 6 
#
# 1 0.025077 0.001769 0.001112 0.000000 0.012586 0.000000
# 2 0.001769 0.018483 -0.001507 0.000000 0.003015 0.000000
# 3 0.001112 -0.001507 0.009031 0.000000 0.006905 0.000000
# 4 0.000000 0.000000 0.000000 0.130065 0.000000 0.080488
# 5 0.012586 0.003015 0.006905 0.000000 0.046739 0.000000
# 6 0.000000 0.000000 0.000000 0.080488 0.000000 0.088513
#
#
# Mechanical properties :
#
#
# Convention : Reuss Voigt Hill
#
# Bulk Modulus (GPa) = 18.07087 29.07988 23.57537
# Shear Modulus (GPa) = 14.98769 28.72154 21.85461
#
# Velocity S-wave (km/s) = 2.61728 3.62315 3.16049
# Velocity P-wave (km/s) = 4.17047 5.54923 4.90850
#
# Compressibility (1/GPa) = 0.05533769
#
# Stress axis : x y z
#
# Youngs Moduli (GPa) = 39.87680 54.10344 110.73453
#
# Poissons Ratio (x) = -0.09569 -0.12312
# Poissons Ratio (y) = -0.07053 0.16690
# Poissons Ratio (z) = -0.04434 0.08155
#
# Static dielectric constant tensor:
#      x y z
#    x 1.793450 0.000000 -0.028170 
#    y 0.000000 1.836530 0.000000 
#    z -0.028170 0.000000 1.952640 
# 
# From -- ./inp_files/60205.got.cif
#   From: 2010.05.17/outbox.cif.g08.bks.cpg/sg14_31_cif.got.tgz:60205.got - 2010.06.03 17:49:19.
