data_PCOD9244335
_publ_section_title
;
Structure prediction by ZEFSAII (Michael W. Deem and Ramdas Pophale) SiO2 
 PCOD9244335
Probable space group: P 21/C
;
_chemical_formula_sum "Si O2"
_cell_formula_units_Z 26
_cell_length_a 23.546767
_cell_length_b 5.820965
_cell_length_c 14.695819
_cell_angle_alpha 90.000000
_cell_angle_beta 153.068110
_cell_angle_gamma 90.000000
_cell_volume 912.330336
_symmetry_space_group_name_H-M "P 21/C"
_symmetry_group_IT_number 14
_symmetry_cell_setting 'monoclinic'
loop_
_space_group_symop_operation_xyz
x,y,z
-x,1/2+y,1/2-z
-x,-y,-z
x,1/2-y,1/2+z
loop_
_atom_site_type_symbol
_atom_site_label
_atom_site_fract_x
_atom_site_fract_y
_atom_site_fract_z
Si Si1 0.952886 0.276308 0.557741
Si Si2 0.442004 0.025650 0.030868
Si Si3 0.780583 0.002340 0.948175
Si Si4 0.500000 0.000000 0.500000
Si Si5 0.624131 0.705393 0.368232
Si Si6 0.174010 0.007621 0.274543
Si Si7 0.837739 0.873975 0.405749
O O1 0.874298 0.319957 0.536815
O O2 0.858747 0.294266 0.334968
O O3 0.064572 0.440142 0.689725
O O4 0.969395 0.006581 0.584440
O O5 0.431093 0.091388 0.121805
O O6 0.518738 0.777248 0.142531
O O7 0.505441 0.244593 0.072856
O O8 0.300093 0.007641 0.791451
O O9 0.651811 0.004311 0.707040
O O10 0.727348 0.965677 0.972773
O O11 0.843902 0.763780 0.008219
O O12 0.694390 0.944910 0.490335
O O13 0.168871 0.206110 0.189918
#
# Coordination Sequence:
#
# PCOD9244335 Si02
#       7
#     4   4   4   2   4   4   4
#     4  10  20  40  67  85 118 174 211 266 305 388
#     4  10  23  38  66  90 133 166 216 265 337 388
#     4  10  23  37  58  91 127 155 217 251 320 388
#     4  10  22  42  62  92 122 170 214 262 306 410
#     4  11  23  41  57  98 132 163 202 281 324 386
#     4   9  21  41  62  91 124 159 222 257 319 382
#     4   9  20  38  63  92 112 168 213 258 314 391
#
# _framework density 28.498452
#
# number of rings (size 3 to 8) (size 9 to 14) (size 15 to 20)
#    0.000    2.154    0.000    2.308    6.462    1.231 
#    2.769    0.000    0.000    0.000    0.000    0.000 
#    0.000    0.000    0.000    0.000    0.000    0.000 
#
# Total GULP energy -144966.480270 kJ/mol
# GULP energy per Si atom -5575.633857 kJ/mol
# Density = 2.843359 g / cm^3
# Si number density = 28.498452 Si / 1000 Ang^3
#
#
#
# Elastic Constant Matrix: (Units=GPa)
#
#
# Indices 1 2 3 4 5 6 
#
# 1 174.5038 28.2295 24.6572 0.0000 15.3077 0.0000
# 2 28.2295 42.3087 -1.7944 0.0000 26.5729 0.0000
# 3 24.6572 -1.7944 86.0867 0.0000 13.8860 0.0000
# 4 0.0000 0.0000 0.0000 50.5977 0.0000 7.1920
# 5 15.3077 26.5729 13.8860 0.0000 52.2009 0.0000
# 6 0.0000 0.0000 0.0000 7.1920 0.0000 31.7490
#
#
#
# Elastic Compliance Matrix: (Units=1/GPa)
#
#
# Indices 1 2 3 4 5 6 
#
# 1 0.006829 -0.005559 -0.002304 0.000000 0.001440 0.000000
# 2 -0.005559 0.040459 0.005741 0.000000 -0.020493 0.000000
# 3 -0.002304 0.005741 0.013330 0.000000 -0.005793 0.000000
# 4 0.000000 0.000000 0.000000 0.020421 0.000000 -0.004626
# 5 0.001440 -0.020493 -0.005793 0.000000 0.030707 0.000000
# 6 0.000000 0.000000 0.000000 -0.004626 0.000000 0.032545
#
#
# Mechanical properties :
#
#
# Convention : Reuss Voigt Hill
#
# Bulk Modulus (GPa) = 17.73836 45.00931 31.37384
# Shear Modulus (GPa) = 29.88159 43.69666 36.78912
#
# Velocity S-wave (km/s) = 3.24162 3.91998 3.59683
# Velocity P-wave (km/s) = 4.49985 6.02630 5.31812
#
# Compressibility (1/GPa) = 0.05637499
#
# Stress axis : x y z
#
# Youngs Moduli (GPa) = 146.43410 24.71624 75.01755
#
# Poissons Ratio (x) = 0.13739 0.17285
# Poissons Ratio (y) = 0.81397 -0.43068
# Poissons Ratio (z) = 0.33740 -0.14190
#
# Static dielectric constant tensor:
#      x y z
#    x 2.076290 0.000000 -0.023880 
#    y 0.000000 2.143650 0.000000 
#    z -0.023880 0.000000 2.180970 
# 
# From -- ./inp_files/61623.got.cif
#   From: 2010.05.17/outbox.cif.g08.bks.cpg/sg14_31_cif.got.tgz:61623.got - 2010.06.03 17:49:19.
