data_PCOD9244087
_publ_section_title
;
Structure prediction by ZEFSAII (Michael W. Deem and Ramdas Pophale) SiO2 
 PCOD9244087
Probable space group: P 21/C
;
_chemical_formula_sum "Si O2"
_cell_formula_units_Z 12
_cell_length_a 8.712936
_cell_length_b 9.368856
_cell_length_c 9.322803
_cell_angle_alpha 90.000000
_cell_angle_beta 147.484253
_cell_angle_gamma 90.000000
_cell_volume 409.073569
_symmetry_space_group_name_H-M "P 21/C"
_symmetry_group_IT_number 14
_symmetry_cell_setting 'monoclinic'
loop_
_space_group_symop_operation_xyz
x,y,z
-x,1/2+y,1/2-z
-x,-y,-z
x,1/2-y,1/2+z
loop_
_atom_site_type_symbol
_atom_site_label
_atom_site_fract_x
_atom_site_fract_y
_atom_site_fract_z
Si Si1 0.320459 0.442814 0.727024
Si Si2 0.754607 0.402209 0.603831
Si Si3 0.004729 0.192084 0.569726
O O1 0.426654 0.513750 0.662848
O O2 0.273784 0.271256 0.701873
O O3 0.000000 0.500000 0.500000
O O4 0.500000 0.500000 0.000000
O O5 0.911069 0.542854 0.792852
O O6 0.921507 0.290383 0.637090
O O7 0.750836 0.317109 0.753005
#
# Coordination Sequence:
#
# PCOD9244087 Si02
#       3
#     4   4   4
#     4  10  22  44  67  97 137 183 233 285 346 416
#     4  10  20  39  67 102 141 185 237 291 356 423
#     4  10  20  39  68 101 140 185 236 294 354 422
#
# _framework density 29.334576999999999
#
# number of rings (size 3 to 8) (size 9 to 14) (size 15 to 20)
#    0.000    2.000    3.333    0.000    0.000    0.000 
#   12.000    0.000    0.000   32.000    0.000    0.000 
#    0.000    0.000    0.000    0.000    0.000    0.000 
#
# Total GULP energy -67015.736387 kJ/mol
# GULP energy per Si atom -5584.644699 kJ/mol
# Density = 2.926781 g / cm^3
# Si number density = 29.334577 Si / 1000 Ang^3
#
#
#
# Elastic Constant Matrix: (Units=GPa)
#
#
# Indices 1 2 3 4 5 6 
#
# 1 70.0628 48.9168 51.1818 0.0000 -20.8488 0.0000
# 2 48.9168 155.0763 43.4541 0.0000 -38.5304 0.0000
# 3 51.1818 43.4541 307.6633 0.0000 -49.6222 0.0000
# 4 0.0000 0.0000 0.0000 57.0135 0.0000 -44.2070
# 5 -20.8488 -38.5304 -49.6222 0.0000 58.8375 0.0000
# 6 0.0000 0.0000 0.0000 -44.2070 0.0000 63.3911
#
#
#
# Elastic Compliance Matrix: (Units=1/GPa)
#
#
# Indices 1 2 3 4 5 6 
#
# 1 0.020178 -0.005283 -0.002333 0.000000 0.001723 0.000000
# 2 -0.005283 0.009112 0.000292 0.000000 0.004341 0.000000
# 3 -0.002333 0.000292 0.004045 0.000000 0.002776 0.000000
# 4 0.000000 0.000000 0.000000 0.038190 0.000000 0.026632
# 5 0.001723 0.004341 0.002776 0.000000 0.022791 0.000000
# 6 0.000000 0.000000 0.000000 0.026632 0.000000 0.034348
#
#
# Mechanical properties :
#
#
# Convention : Reuss Voigt Hill
#
# Bulk Modulus (GPa) = 53.51222 91.10087 72.30654
# Shear Modulus (GPa) = 33.43588 61.79840 47.61714
#
# Velocity S-wave (km/s) = 3.37977 4.59483 4.03332
# Velocity P-wave (km/s) = 5.78896 7.69891 6.81121
#
# Compressibility (1/GPa) = 0.01868732
#
# Stress axis : x y z
#
# Youngs Moduli (GPa) = 49.55792 109.74848 247.22794
#
# Poissons Ratio (x) = 0.57983 0.57671
# Poissons Ratio (y) = 0.26183 -0.07223
# Poissons Ratio (z) = 0.11560 -0.03206
#
# Static dielectric constant tensor:
#      x y z
#    x 2.512980 0.000000 0.202080 
#    y 0.000000 2.563290 0.000000 
#    z 0.202080 0.000000 2.230160 
# 
# From -- ./inp_files/4705.got.cif
#   From: 2010.05.17/outbox.cif.g08.bks.cpg/sg14_3_cif.got.tgz:4705.got - 2010.06.03 17:49:19.
