data_PCOD9244870
_publ_section_title
;
Structure prediction by ZEFSAII (Michael W. Deem and Ramdas Pophale) SiO2 
 PCOD9244870
Probable space group: P 21/C
;
_chemical_formula_sum "Si O2"
_cell_formula_units_Z 20
_cell_length_a 5.677374
_cell_length_b 11.560074
_cell_length_c 11.418437
_cell_angle_alpha 90.000000
_cell_angle_beta 72.037595
_cell_angle_gamma 90.000000
_cell_volume 712.875340
_symmetry_space_group_name_H-M "P 21/C"
_symmetry_group_IT_number 14
_symmetry_cell_setting 'monoclinic'
loop_
_space_group_symop_operation_xyz
x,y,z
-x,1/2+y,1/2-z
-x,-y,-z
x,1/2-y,1/2+z
loop_
_atom_site_type_symbol
_atom_site_label
_atom_site_fract_x
_atom_site_fract_y
_atom_site_fract_z
Si Si1 0.818954 0.162498 0.583531
Si Si2 0.480024 0.912657 0.143265
Si Si3 0.248777 0.597673 0.291888
Si Si4 0.246375 0.369137 0.719666
Si Si5 0.635437 0.685007 0.981158
O O1 0.714339 0.120746 0.724221
O O2 0.811243 0.304113 0.601056
O O3 0.613370 0.121551 0.522161
O O4 0.104109 0.132111 0.516839
O O5 0.729517 0.970162 0.158377
O O6 0.338867 0.027952 0.117265
O O7 0.546495 0.798882 0.064361
O O8 0.538899 0.619187 0.215562
O O9 0.042908 0.610932 0.225541
O O10 0.278056 0.244562 0.657097
#
# Coordination Sequence:
#
# PCOD9244870 Si02
#       5
#     4   4   4   4   4
#     4  10  22  33  51  83 106 133 173 215 257 311
#     4  10  21  33  59  73 110 138 167 216 266 295
#     4   8  18  31  50  76 103 128 170 209 261 302
#     4   8  17  30  50  77  98 129 165 215 265 298
#     4  10  21  34  52  81 106 131 177 215 256 309
#
# _framework density 28.055394
#
# number of rings (size 3 to 8) (size 9 to 14) (size 15 to 20)
#    1.200    1.600    0.000    0.600    5.600    1.600 
#    0.000    0.000    0.000    2.400    0.000    0.000 
#    0.000    0.000    0.000    0.000    0.000    0.000 
#
# Total GULP energy -111562.549311 kJ/mol
# GULP energy per Si atom -5578.127466 kJ/mol
# Density = 2.799154 g / cm^3
# Si number density = 28.055394 Si / 1000 Ang^3
#
#
#
# Elastic Constant Matrix: (Units=GPa)
#
#
# Indices 1 2 3 4 5 6 
#
# 1 331.8018 15.4409 46.8715 0.0000 -7.1373 0.0000
# 2 15.4409 80.8891 17.4153 0.0000 10.6285 0.0000
# 3 46.8715 17.4153 49.2778 0.0000 -21.1561 0.0000
# 4 0.0000 0.0000 0.0000 30.7430 0.0000 3.0566
# 5 -7.1373 10.6285 -21.1561 0.0000 37.3887 0.0000
# 6 0.0000 0.0000 0.0000 3.0566 0.0000 40.8236
#
#
#
# Elastic Compliance Matrix: (Units=1/GPa)
#
#
# Indices 1 2 3 4 5 6 
#
# 1 0.003573 0.000534 -0.004438 0.000000 -0.001981 0.000000
# 2 0.000534 0.015914 -0.010607 0.000000 -0.010424 0.000000
# 3 -0.004438 -0.010607 0.038561 0.000000 0.023988 0.000000
# 4 0.000000 0.000000 0.000000 0.032772 0.000000 -0.002454
# 5 -0.001981 -0.010424 0.023988 0.000000 0.042904 0.000000
# 6 0.000000 0.000000 0.000000 -0.002454 0.000000 0.024679
#
#
# Mechanical properties :
#
#
# Convention : Reuss Voigt Hill
#
# Bulk Modulus (GPa) = 34.45134 69.04711 51.74923
# Shear Modulus (GPa) = 25.36766 47.27381 36.32073
#
# Velocity S-wave (km/s) = 3.01025 4.10935 3.60197
# Velocity P-wave (km/s) = 4.93848 6.86878 5.98200
#
# Compressibility (1/GPa) = 0.02902644
#
# Stress axis : x y z
#
# Youngs Moduli (GPa) = 279.85377 62.83754 25.93285
#
# Poissons Ratio (x) = -0.03353 0.11508
# Poissons Ratio (y) = -0.14932 0.27507
# Poissons Ratio (z) = 1.24190 0.66651
#
# Static dielectric constant tensor:
#      x y z
#    x 2.230710 0.000000 0.105410 
#    y 0.000000 2.224400 0.000000 
#    z 0.105410 0.000000 2.418870 
# 
# From -- ./inp_files/20949.got.cif
#   From: 2010.05.17/outbox.cif.g08.bks.cpg/sg14_11_cif.got.tgz:20949.got - 2010.06.03 17:49:19.
