data_PCOD9244748
_publ_section_title
;
Structure prediction by ZEFSAII (Michael W. Deem and Ramdas Pophale) SiO2 
 PCOD9244748
Probable space group: P 21/C
;
_chemical_formula_sum "Si O2"
_cell_formula_units_Z 30
_cell_length_a 11.756694
_cell_length_b 7.642048
_cell_length_c 13.993373
_cell_angle_alpha 90.000000
_cell_angle_beta 64.772523
_cell_angle_gamma 90.000000
_cell_volume 1137.325814
_symmetry_space_group_name_H-M "P 21/C"
_symmetry_group_IT_number 14
_symmetry_cell_setting 'monoclinic'
loop_
_space_group_symop_operation_xyz
x,y,z
-x,1/2+y,1/2-z
-x,-y,-z
x,1/2-y,1/2+z
loop_
_atom_site_type_symbol
_atom_site_label
_atom_site_fract_x
_atom_site_fract_y
_atom_site_fract_z
Si Si1 0.663884 0.443225 0.077704
Si Si2 0.089752 0.714589 0.083575
Si Si3 0.393106 0.003210 0.676684
Si Si4 0.413975 0.969361 0.889338
Si Si5 0.863511 0.326613 0.717763
Si Si6 0.000000 0.500000 0.500000
Si Si7 0.838883 0.955048 0.669328
Si Si8 0.671142 0.868347 0.891056
O O1 0.534995 0.536902 0.092498
O O2 0.621981 0.238487 0.104496
O O3 0.714161 0.549933 0.150692
O O4 0.794158 0.418799 0.973811
O O5 0.074736 0.709746 0.202507
O O6 0.953575 0.658301 0.091316
O O7 0.110920 0.893264 0.019020
O O8 0.345462 0.166892 0.632494
O O9 0.405728 0.043705 0.785440
O O10 0.284851 0.857905 0.710361
O O11 0.555248 0.968860 0.881298
O O12 0.337384 0.079590 0.995620
O O13 0.883062 0.153630 0.649191
O O14 0.922914 0.475350 0.631058
O O15 0.798400 0.922596 0.792496
#
# Coordination Sequence:
#
# PCOD9244748 Si02
#       8
#     4   4   4   4   4   2   4   4
#     4  11  23  44  72 106 148 202 249 323 393 461
#     4  12  27  48  75 113 152 209 266 318 393 477
#     4  11  23  46  74 110 153 199 255 323 401 460
#     4  10  20  43  69 102 151 194 245 317 390 461
#     4  12  27  48  77 112 155 207 259 323 395 473
#     4  12  26  52  78 110 166 210 260 334 390 462
#     4  12  23  45  74 107 150 195 259 315 383 466
#     4  10  23  40  71 107 142 201 255 307 386 476
#
# _framework density 26.377665
#
# number of rings (size 3 to 8) (size 9 to 14) (size 15 to 20)
#    0.000    0.800    4.000    2.800    0.000    1.600 
#    2.400    0.000    0.000    0.000    0.000    0.000 
#    0.000    0.000    0.000    0.000    0.000    0.000 
#
# Total GULP energy -167369.370465 kJ/mol
# GULP energy per Si atom -5578.979016 kJ/mol
# Density = 2.631763 g / cm^3
# Si number density = 26.377665 Si / 1000 Ang^3
#
#
#
# Elastic Constant Matrix: (Units=GPa)
#
#
# Indices 1 2 3 4 5 6 
#
# 1 111.1377 23.4024 59.0289 0.0000 9.6857 0.0000
# 2 23.4024 57.8703 19.0771 0.0000 5.5142 0.0000
# 3 59.0289 19.0771 139.2518 0.0000 20.2592 0.0000
# 4 0.0000 0.0000 0.0000 14.7272 0.0000 -3.7289
# 5 9.6857 5.5142 20.2592 0.0000 45.2036 0.0000
# 6 0.0000 0.0000 0.0000 -3.7289 0.0000 37.9598
#
#
#
# Elastic Compliance Matrix: (Units=1/GPa)
#
#
# Indices 1 2 3 4 5 6 
#
# 1 0.012215 -0.003381 -0.004700 0.000000 -0.000098 0.000000
# 2 -0.003381 0.019091 -0.001015 0.000000 -0.001150 0.000000
# 3 -0.004700 -0.001015 0.009786 0.000000 -0.003255 0.000000
# 4 0.000000 0.000000 0.000000 0.069634 0.000000 0.006840
# 5 -0.000098 -0.001150 -0.003255 0.000000 0.023742 0.000000
# 6 0.000000 0.000000 0.000000 0.006840 0.000000 0.027016
#
#
# Mechanical properties :
#
#
# Convention : Reuss Voigt Hill
#
# Bulk Modulus (GPa) = 43.66818 56.80852 50.23835
# Shear Modulus (GPa) = 26.69371 33.36154 30.02763
#
# Velocity S-wave (km/s) = 3.18462 3.56021 3.37764
# Velocity P-wave (km/s) = 5.48756 6.20351 5.85648
#
# Compressibility (1/GPa) = 0.02289997
#
# Stress axis : x y z
#
# Youngs Moduli (GPa) = 81.86747 52.37979 102.18274
#
# Poissons Ratio (x) = 0.17708 0.48030
# Poissons Ratio (y) = 0.27677 0.10373
# Poissons Ratio (z) = 0.38481 0.05317
#
# Static dielectric constant tensor:
#      x y z
#    x 2.062550 0.000000 0.001730 
#    y 0.000000 2.270400 0.000000 
#    z 0.001730 0.000000 1.601140 
# 
# From -- ./inp_files/43671.got.cif
#   From: 2010.05.17/outbox.cif.g08.bks.cpg/sg14_22_cif.got.tgz:43671.got - 2010.06.03 17:49:19.
