data_PCOD9244473
_publ_section_title
;
Structure prediction by ZEFSAII (Michael W. Deem and Ramdas Pophale) SiO2 
 PCOD9244473
Probable space group: P 21/C
;
_chemical_formula_sum "Si O2"
_cell_formula_units_Z 24
_cell_length_a 15.300253
_cell_length_b 11.354882
_cell_length_c 12.584928
_cell_angle_alpha 90.000000
_cell_angle_beta 153.882137
_cell_angle_gamma 90.000000
_cell_volume 962.500312
_symmetry_space_group_name_H-M "P 21/C"
_symmetry_group_IT_number 14
_symmetry_cell_setting 'monoclinic'
loop_
_space_group_symop_operation_xyz
x,y,z
-x,1/2+y,1/2-z
-x,-y,-z
x,1/2-y,1/2+z
loop_
_atom_site_type_symbol
_atom_site_label
_atom_site_fract_x
_atom_site_fract_y
_atom_site_fract_z
Si Si1 0.252219 0.131455 0.549646
Si Si2 0.204876 0.055103 0.179960
Si Si3 0.721688 0.613104 0.481537
Si Si4 0.347557 0.561394 0.414165
Si Si5 0.998437 0.784059 0.544118
Si Si6 0.285766 0.909203 0.449299
O O1 0.194417 0.255126 0.431975
O O2 0.488184 0.130658 0.834214
O O3 0.124801 0.127703 0.517565
O O4 0.204725 0.017797 0.429211
O O5 0.230137 0.054299 0.080642
O O6 0.345789 0.969945 0.402272
O O7 0.175198 0.192202 0.181744
O O8 0.000000 0.000000 0.000000
O O9 0.759861 0.532432 0.625032
O O10 0.484242 0.628930 0.224065
O O11 0.500000 0.500000 0.500000
O O12 0.175100 0.645306 0.177549
O O13 0.135153 0.696191 0.765139
#
# Coordination Sequence:
#
# PCOD9244473 Si02
#       6
#     4   4   4   4   4   4
#     4  10  23  41  66  98 128 172 218 262 328 384
#     4   9  20  37  62  97 121 164 219 262 320 372
#     4  10  21  41  65  93 131 171 215 271 322 384
#     4  11  25  45  64  95 137 173 216 265 329 388
#     4  10  22  41  65  91 135 162 217 269 311 393
#     4  10  20  41  64  96 128 169 217 270 320 386
#
# _framework density 24.935057
#
# number of rings (size 3 to 8) (size 9 to 14) (size 15 to 20)
#    0.000    2.000    1.667    0.500    7.000    3.333 
#   18.000    0.000    0.000    0.000    0.000    0.000 
#    0.000    0.000    0.000    0.000    0.000    0.000 
#
# Total GULP energy -133797.319495 kJ/mol
# GULP energy per Si atom -5574.888312 kJ/mol
# Density = 2.487830 g / cm^3
# Si number density = 24.935057 Si / 1000 Ang^3
#
#
#
# Elastic Constant Matrix: (Units=GPa)
#
#
# Indices 1 2 3 4 5 6 
#
# 1 111.5828 28.3149 -11.1751 0.0000 10.2735 0.0000
# 2 28.3149 90.5010 -2.4295 0.0000 11.5508 0.0000
# 3 -11.1751 -2.4295 58.4544 0.0000 10.7238 0.0000
# 4 0.0000 0.0000 0.0000 -8.2889 0.0000 -10.8587
# 5 10.2735 11.5508 10.7238 0.0000 33.3864 0.0000
# 6 0.0000 0.0000 0.0000 -10.8587 0.0000 31.5357
#
#
#
# Elastic Compliance Matrix: (Units=1/GPa)
#
#
# Indices 1 2 3 4 5 6 
#
# 1 0.010166 -0.002742 0.002369 0.000000 -0.002940 0.000000
# 2 -0.002742 0.012392 0.000662 0.000000 -0.003656 0.000000
# 3 0.002369 0.000662 0.018876 0.000000 -0.007021 0.000000
# 4 0.000000 0.000000 0.000000 -0.083140 0.000000 -0.028628
# 5 -0.002940 -0.003656 -0.007021 0.000000 0.034377 0.000000
# 6 0.000000 0.000000 0.000000 -0.028628 0.000000 0.021853
#
#
# Mechanical properties :
#
#
# Convention : Reuss Voigt Hill
#
# Bulk Modulus (GPa) = 23.80327 32.21765 28.01046
# Shear Modulus (GPa) = 178.89800 27.71515 103.30658
#
# Velocity S-wave (km/s) = 8.47947 3.33752 6.44362
# Velocity P-wave (km/s) = 10.26817 5.27264 8.16199
#
# Compressibility (1/GPa) = 0.04201104
#
# Stress axis : x y z
#
# Youngs Moduli (GPa) = 98.37054 80.69880 52.97805
#
# Poissons Ratio (x) = 0.22125 -0.12550
# Poissons Ratio (y) = 0.26969 -0.03505
# Poissons Ratio (z) = -0.23303 -0.05339
#
# Static dielectric constant tensor:
#      x y z
#    x 2.004240 0.000000 -0.078770 
#    y 0.000000 2.046530 0.000000 
#    z -0.078770 0.000000 2.118340 
# 
# From -- ./inp_files/47027.got.cif
#   From: 2010.05.17/outbox.cif.g08.bks.cpg/sg14_24_cif.got.tgz:47027.got - 2010.06.03 17:49:19.
