data_PCOD9244613
_publ_section_title
;
Structure prediction by ZEFSAII (Michael W. Deem and Ramdas Pophale) SiO2 
 PCOD9244613
Probable space group: P 21/C
;
_chemical_formula_sum "Si O2"
_cell_formula_units_Z 24
_cell_length_a 7.468329
_cell_length_b 17.541659
_cell_length_c 13.381871
_cell_angle_alpha 90.000000
_cell_angle_beta 36.335554
_cell_angle_gamma 90.000000
_cell_volume 1038.745017
_symmetry_space_group_name_H-M "P 21/C"
_symmetry_group_IT_number 14
_symmetry_cell_setting 'monoclinic'
loop_
_space_group_symop_operation_xyz
x,y,z
-x,1/2+y,1/2-z
-x,-y,-z
x,1/2-y,1/2+z
loop_
_atom_site_type_symbol
_atom_site_label
_atom_site_fract_x
_atom_site_fract_y
_atom_site_fract_z
Si Si1 0.601645 0.756942 0.752915
Si Si2 0.847286 0.170955 0.892705
Si Si3 0.147845 0.338110 0.059059
Si Si4 0.691484 0.420894 0.905502
Si Si5 0.869785 0.983437 0.164402
Si Si6 0.755188 0.398568 0.089232
O O1 0.894032 0.719584 0.670073
O O2 0.710897 0.792524 0.598494
O O3 0.374370 0.686453 0.834800
O O4 0.445442 0.810106 0.908096
O O5 0.894475 0.189510 0.753321
O O6 0.944491 0.082743 0.863107
O O7 0.994730 0.410140 0.069414
O O8 0.435952 0.358972 0.997870
O O9 0.882774 0.439266 0.722432
O O10 0.500000 0.500000 0.000000
O O11 0.875837 0.401851 0.921536
O O12 0.532813 0.953132 0.290345
O O13 0.000000 0.000000 0.000000
#
# Coordination Sequence:
#
# PCOD9244613 Si02
#       6
#     4   4   4   4   4   4
#     4  11  23  43  63 101 134 171 225 271 339 403
#     4  11  24  43  66  98 137 170 227 277 332 409
#     4  12  23  41  70  93 136 177 218 281 335 395
#     4  10  20  42  65  89 132 176 211 275 331 387
#     4  10  21  44  66  94 137 170 225 276 329 396
#     4  10  23  41  63 101 124 175 224 262 336 404
#
# _framework density 23.104804000000001
#
# number of rings (size 3 to 8) (size 9 to 14) (size 15 to 20)
#    0.000    1.333    6.667    1.000    2.333    2.667 
#    9.000    0.833    0.000    0.000    0.000    0.000 
#    0.000    0.000    0.000    0.000    0.000    0.000 
#
# Total GULP energy -133847.925840 kJ/mol
# GULP energy per Si atom -5576.996910 kJ/mol
# Density = 2.305222 g / cm^3
# Si number density = 23.104804 Si / 1000 Ang^3
#
#
#
# Elastic Constant Matrix: (Units=GPa)
#
#
# Indices 1 2 3 4 5 6 
#
# 1 62.1229 1.9940 15.1107 0.0000 17.0954 0.0000
# 2 1.9940 34.4205 30.4657 0.0000 3.9677 0.0000
# 3 15.1107 30.4657 172.7303 0.0000 35.6438 0.0000
# 4 0.0000 0.0000 0.0000 34.4246 0.0000 11.0737
# 5 17.0954 3.9677 35.6438 0.0000 42.0721 0.0000
# 6 0.0000 0.0000 0.0000 11.0737 0.0000 29.1616
#
#
#
# Elastic Compliance Matrix: (Units=1/GPa)
#
#
# Indices 1 2 3 4 5 6 
#
# 1 0.018125 -0.000165 -0.000048 0.000000 -0.007308 0.000000
# 2 -0.000165 0.034613 -0.006581 0.000000 0.002378 0.000000
# 3 -0.000048 -0.006581 0.008268 0.000000 -0.006364 0.000000
# 4 0.000000 0.000000 0.000000 0.033091 0.000000 -0.012566
# 5 -0.007308 0.002378 -0.006364 0.000000 0.031906 0.000000
# 6 0.000000 0.000000 0.000000 -0.012566 0.000000 0.039063
#
#
# Mechanical properties :
#
#
# Convention : Reuss Voigt Hill
#
# Bulk Modulus (GPa) = 21.08946 40.49052 30.78999
# Shear Modulus (GPa) = 25.71209 35.91187 30.81198
#
# Velocity S-wave (km/s) = 3.33955 3.94674 3.65578
# Velocity P-wave (km/s) = 4.90079 6.19127 5.58344
#
# Compressibility (1/GPa) = 0.04741706
#
# Stress axis : x y z
#
# Youngs Moduli (GPa) = 55.17131 28.89091 120.95310
#
# Poissons Ratio (x) = 0.00476 0.00586
# Poissons Ratio (y) = 0.00908 0.79603
# Poissons Ratio (z) = 0.00267 0.19014
#
# Static dielectric constant tensor:
#      x y z
#    x 1.899030 0.000000 -0.033320 
#    y 0.000000 1.903320 0.000000 
#    z -0.033320 0.000000 2.215320 
# 
# From -- ./inp_files/26549.got.cif
#   From: 2010.05.17/outbox.cif.g08.bks.cpg/sg14_14_cif.got.tgz:26549.got - 2010.06.03 17:49:19.
