data_PCOD9244850
_publ_section_title
;
Structure prediction by ZEFSAII (Michael W. Deem and Ramdas Pophale) SiO2 
 PCOD9244850
Probable space group: P 21/C
;
_chemical_formula_sum "Si O2"
_cell_formula_units_Z 28
_cell_length_a 11.986506
_cell_length_b 6.171427
_cell_length_c 22.695116
_cell_angle_alpha 90.000000
_cell_angle_beta 113.274938
_cell_angle_gamma 90.000000
_cell_volume 1542.219467
_symmetry_space_group_name_H-M "P 21/C"
_symmetry_group_IT_number 14
_symmetry_cell_setting 'monoclinic'
loop_
_space_group_symop_operation_xyz
x,y,z
-x,1/2+y,1/2-z
-x,-y,-z
x,1/2-y,1/2+z
loop_
_atom_site_type_symbol
_atom_site_label
_atom_site_fract_x
_atom_site_fract_y
_atom_site_fract_z
Si Si1 0.682367 0.716439 0.808503
Si Si2 0.867162 0.505451 0.396836
Si Si3 0.336219 0.825797 0.612603
Si Si4 0.526403 0.308486 0.552874
Si Si5 0.306740 0.521147 0.983425
Si Si6 0.470279 0.009793 0.817101
Si Si7 0.070610 0.305455 0.979167
O O1 0.812958 0.835747 0.835164
O O2 0.683985 0.561083 0.865677
O O3 0.647472 0.565791 0.745975
O O4 0.567993 0.876567 0.797833
O O5 0.759009 0.334689 0.378799
O O6 0.877969 0.650587 0.458277
O O7 0.985633 0.353029 0.422289
O O8 0.468928 0.739664 0.654189
O O9 0.310239 0.813723 0.538545
O O10 0.500000 0.500000 0.500000
O O11 0.408801 0.155728 0.521153
O O12 0.542416 0.392507 0.622743
O O13 0.642594 0.159425 0.560301
O O14 0.175544 0.410253 0.960692
O O15 0.000000 0.500000 0.000000
#
# Coordination Sequence:
#
# PCOD9244850 Si02
#       7
#     4   4   4   4   4   4   4
#     4  11  20  33  53  81 120 154 191 248 291 361
#     4  10  21  31  53  85 117 148 187 249 301 340
#     4  11  18  34  53  82 121 148 187 239 292 357
#     4  11  23  35  54  83 127 159 188 237 295 372
#     4  11  21  35  55  81 125 157 192 235 297 361
#     4  11  21  33  53  81 117 163 193 230 306 361
#     4  11  20  35  57  82 120 151 195 245 299 346
#
# _framework density 18.155652
#
# number of rings (size 3 to 8) (size 9 to 14) (size 15 to 20)
#    0.000    1.143    7.143    0.857    0.000    0.000 
#    0.000    0.000    0.000    0.000    0.000    0.000 
#   42.857    0.000    0.000    0.000    0.000    0.000 
#
# Total GULP energy -155901.837734 kJ/mol
# GULP energy per Si atom -5567.922776 kJ/mol
# Density = 1.811433 g / cm^3
# Si number density = 18.155652 Si / 1000 Ang^3
#
#
#
# Elastic Constant Matrix: (Units=GPa)
#
#
# Indices 1 2 3 4 5 6 
#
# 1 94.8307 41.9914 36.5391 0.0000 7.3830 0.0000
# 2 41.9914 73.1095 24.0203 0.0000 6.0105 0.0000
# 3 36.5391 24.0203 90.4389 0.0000 7.0626 0.0000
# 4 0.0000 0.0000 0.0000 32.9709 0.0000 11.1386
# 5 7.3830 6.0105 7.0626 0.0000 21.8786 0.0000
# 6 0.0000 0.0000 0.0000 11.1386 0.0000 19.7893
#
#
#
# Elastic Compliance Matrix: (Units=1/GPa)
#
#
# Indices 1 2 3 4 5 6 
#
# 1 0.015590 -0.007427 -0.004180 0.000000 -0.001871 0.000000
# 2 -0.007427 0.018706 -0.001808 0.000000 -0.002049 0.000000
# 3 -0.004180 -0.001808 0.013415 0.000000 -0.002423 0.000000
# 4 0.000000 0.000000 0.000000 0.037451 0.000000 -0.021080
# 5 -0.001871 -0.002049 -0.002423 0.000000 0.047683 0.000000
# 6 0.000000 0.000000 0.000000 -0.021080 0.000000 0.062397
#
#
# Mechanical properties :
#
#
# Convention : Reuss Voigt Hill
#
# Bulk Modulus (GPa) = 47.88741 51.49785 49.69263
# Shear Modulus (GPa) = 21.83080 25.31631 23.57355
#
# Velocity S-wave (km/s) = 3.47136 3.73822 3.60726
# Velocity P-wave (km/s) = 6.51923 6.85993 6.69175
#
# Compressibility (1/GPa) = 0.02088232
#
# Stress axis : x y z
#
# Youngs Moduli (GPa) = 64.14300 53.45768 74.54162
#
# Poissons Ratio (x) = 0.39704 0.31158
# Poissons Ratio (y) = 0.47640 0.13474
# Poissons Ratio (z) = 0.26811 0.09663
#
# Static dielectric constant tensor:
#      x y z
#    x 1.708710 0.000000 -0.010280 
#    y 0.000000 1.731580 0.000000 
#    z -0.010280 0.000000 1.659300 
# 
# From -- ./inp_files/66521.got.cif
#   From: 2010.05.17/outbox.cif.g08.bks.cpg/sg14_34_cif.got.tgz:66521.got - 2010.06.03 17:49:19.
