data_PCOD9244725
_publ_section_title
;
Structure prediction by ZEFSAII (Michael W. Deem and Ramdas Pophale) SiO2 
 PCOD9244725
Probable space group: P 21/C
;
_chemical_formula_sum "Si O2"
_cell_formula_units_Z 30
_cell_length_a 9.741698
_cell_length_b 26.099874
_cell_length_c 8.782957
_cell_angle_alpha 90.000000
_cell_angle_beta 32.776580
_cell_angle_gamma 90.000000
_cell_volume 1208.936989
_symmetry_space_group_name_H-M "P 21/C"
_symmetry_group_IT_number 14
_symmetry_cell_setting 'monoclinic'
loop_
_space_group_symop_operation_xyz
x,y,z
-x,1/2+y,1/2-z
-x,-y,-z
x,1/2-y,1/2+z
loop_
_atom_site_type_symbol
_atom_site_label
_atom_site_fract_x
_atom_site_fract_y
_atom_site_fract_z
Si Si1 0.500000 0.500000 0.000000
Si Si2 0.335426 0.583102 0.596353
Si Si3 0.156116 0.886379 0.736083
Si Si4 0.676640 0.650610 0.070989
Si Si5 0.091797 0.688703 0.846061
Si Si6 0.628292 0.573641 0.618011
Si Si7 0.996084 0.942689 0.167766
Si Si8 0.254185 0.791054 0.844337
O O1 0.621016 0.523943 0.730126
O O2 0.756645 0.522558 0.855739
O O3 0.484384 0.609239 0.317921
O O4 0.527520 0.563186 0.543042
O O5 0.193979 0.633062 0.796512
O O6 0.133147 0.547045 0.701092
O O7 0.904518 0.901083 0.877577
O O8 0.177671 0.930533 0.850883
O O9 0.414607 0.891488 0.401126
O O10 0.138886 0.830790 0.829472
O O11 0.546294 0.690594 0.080499
O O12 0.791061 0.681104 0.107937
O O13 0.879214 0.614484 0.801342
O O14 0.191806 0.733868 0.855423
O O15 0.169245 0.701369 0.598748
#
# Coordination Sequence:
#
# PCOD9244725 Si02
#       8
#     2   4   4   4   4   4   4   4
#     4  10  24  44  68 106 128 170 228 286 334 414
#     4  10  23  43  65  93 131 183 214 278 337 406
#     4  11  23  44  68  95 135 181 216 272 339 396
#     4  10  20  43  64  87 134 178 218 271 342 391
#     4  10  24  37  61  93 130 171 229 274 326 387
#     4  11  27  42  71 100 135 174 227 276 339 407
#     4  10  21  43  71  90 132 175 220 274 347 400
#     4  11  22  38  60  94 124 178 223 275 322 394
#
# _framework density 24.815189
#
# number of rings (size 3 to 8) (size 9 to 14) (size 15 to 20)
#    0.000    1.600    4.000    1.600    5.600    5.867 
#    0.000    0.667    0.000    0.000    0.000    0.000 
#    0.000    0.000    0.000    0.000    0.000    0.000 
#
# Total GULP energy -167296.687459 kJ/mol
# GULP energy per Si atom -5576.556249 kJ/mol
# Density = 2.475871 g / cm^3
# Si number density = 24.815189 Si / 1000 Ang^3
#
#
#
# Elastic Constant Matrix: (Units=GPa)
#
#
# Indices 1 2 3 4 5 6 
#
# 1 202.5406 50.8488 6.7401 0.0000 -29.0786 0.0000
# 2 50.8488 61.3654 1.1253 0.0000 -6.2854 0.0000
# 3 6.7401 1.1253 38.6936 0.0000 1.3156 0.0000
# 4 0.0000 0.0000 0.0000 20.9012 0.0000 -5.8044
# 5 -29.0786 -6.2854 1.3156 0.0000 26.1120 0.0000
# 6 0.0000 0.0000 0.0000 -5.8044 0.0000 55.0527
#
#
#
# Elastic Compliance Matrix: (Units=1/GPa)
#
#
# Indices 1 2 3 4 5 6 
#
# 1 0.007315 -0.005326 -0.001355 0.000000 0.006932 0.000000
# 2 -0.005326 0.020601 0.000362 0.000000 -0.000991 0.000000
# 3 -0.001355 0.000362 0.026163 0.000000 -0.002740 0.000000
# 4 0.000000 0.000000 0.000000 0.049287 0.000000 0.005197
# 5 0.006932 -0.000991 -0.002740 0.000000 0.045916 0.000000
# 6 0.000000 0.000000 0.000000 0.005197 0.000000 0.018712
#
#
# Mechanical properties :
#
#
# Convention : Reuss Voigt Hill
#
# Bulk Modulus (GPa) = 24.13080 46.66978 35.40029
# Shear Modulus (GPa) = 25.71416 36.67221 31.19319
#
# Velocity S-wave (km/s) = 3.22254 3.84840 3.54929
# Velocity P-wave (km/s) = 4.85713 6.21247 5.57613
#
# Compressibility (1/GPa) = 0.04144081
#
# Stress axis : x y z
#
# Youngs Moduli (GPa) = 136.70907 48.54074 38.22235
#
# Poissons Ratio (x) = 0.25855 0.05179
# Poissons Ratio (y) = 0.72816 -0.01385
# Poissons Ratio (z) = 0.18524 -0.01759
#
# Static dielectric constant tensor:
#      x y z
#    x -0.461410 0.000000 5.283890 
#    y 0.000000 -0.162580 0.000000 
#    z 5.283890 0.000000 -9.142350 
# 
# From -- ./inp_files/6782.got.cif
#   From: 2010.05.17/outbox.cif.g08.bks.cpg/sg14_4_cif.got.tgz:6782.got - 2010.06.03 17:49:19.
