data_PCOD9244822
_publ_section_title
;
Structure prediction by ZEFSAII (Michael W. Deem and Ramdas Pophale) SiO2 
 PCOD9244822
Probable space group: P 21/C
;
_chemical_formula_sum "Si O2"
_cell_formula_units_Z 30
_cell_length_a 15.355617
_cell_length_b 8.251609
_cell_length_c 13.069245
_cell_angle_alpha 90.000000
_cell_angle_beta 133.432452
_cell_angle_gamma 90.000000
_cell_volume 1202.552153
_symmetry_space_group_name_H-M "P 21/C"
_symmetry_group_IT_number 14
_symmetry_cell_setting 'monoclinic'
loop_
_space_group_symop_operation_xyz
x,y,z
-x,1/2+y,1/2-z
-x,-y,-z
x,1/2-y,1/2+z
loop_
_atom_site_type_symbol
_atom_site_label
_atom_site_fract_x
_atom_site_fract_y
_atom_site_fract_z
Si Si1 0.500000 0.500000 0.000000
Si Si2 0.753797 0.610961 0.313573
Si Si3 0.732092 0.571542 0.676824
Si Si4 0.083211 0.492255 0.724306
Si Si5 0.131103 0.669238 0.354729
Si Si6 0.395733 0.732131 0.083937
Si Si7 0.430248 0.986418 0.781245
Si Si8 0.724974 0.783225 0.491370
O O1 0.620496 0.555586 0.169775
O O2 0.414096 0.606674 0.006653
O O3 0.782025 0.792659 0.293898
O O4 0.851539 0.506895 0.332386
O O5 0.757638 0.640626 0.437803
O O6 0.830695 0.466570 0.697978
O O7 0.647033 0.463587 0.679527
O O8 0.667031 0.690514 0.541840
O O9 0.071417 0.675239 0.753341
O O10 0.957777 0.401171 0.633247
O O11 0.169003 0.388082 0.871192
O O12 0.258066 0.734695 0.497396
O O13 0.459345 0.898432 0.105462
O O14 0.456140 0.672240 0.237753
O O15 0.352777 0.090852 0.636414
#
# Coordination Sequence:
#
# PCOD9244822 Si02
#       8
#     2   4   4   4   4   4   4   4
#     4  12  20  44  76 104 150 184 246 310 372 438
#     4  10  21  43  75 106 144 197 240 310 377 432
#     4  10  23  45  67 104 146 188 242 302 367 432
#     4  11  23  47  69 103 151 192 250 302 364 437
#     4  12  26  47  73 103 148 202 245 305 372 448
#     4  12  26  45  74 110 147 196 240 306 377 445
#     4  11  25  46  71 111 148 186 243 310 373 446
#     4  10  20  45  74 102 143 194 245 298 366 437
#
# _framework density 24.946940999999999
#
# number of rings (size 3 to 8) (size 9 to 14) (size 15 to 20)
#    0.000    1.067    5.333    2.400    1.867    1.600 
#    4.800    3.333    0.000    0.000    0.000    0.000 
#    0.000    0.000    0.000    0.000    0.000    0.000 
#
# Total GULP energy -167410.113039 kJ/mol
# GULP energy per Si atom -5580.337101 kJ/mol
# Density = 2.489016 g / cm^3
# Si number density = 24.946941 Si / 1000 Ang^3
#
#
#
# Elastic Constant Matrix: (Units=GPa)
#
#
# Indices 1 2 3 4 5 6 
#
# 1 115.5677 13.8700 41.0351 0.0000 -1.6832 0.0000
# 2 13.8700 61.9868 22.4687 0.0000 -5.1179 0.0000
# 3 41.0351 22.4687 78.1707 0.0000 -4.3968 0.0000
# 4 0.0000 0.0000 0.0000 36.9157 0.0000 9.4702
# 5 -1.6832 -5.1179 -4.3968 0.0000 42.0664 0.0000
# 6 0.0000 0.0000 0.0000 9.4702 0.0000 35.4943
#
#
#
# Elastic Compliance Matrix: (Units=1/GPa)
#
#
# Indices 1 2 3 4 5 6 
#
# 1 0.010646 -0.000412 -0.005481 0.000000 -0.000197 0.000000
# 2 -0.000412 0.018141 -0.004904 0.000000 0.001678 0.000000
# 3 -0.005481 -0.004904 0.017134 0.000000 0.000975 0.000000
# 4 0.000000 0.000000 0.000000 0.029079 0.000000 -0.007759
# 5 -0.000197 0.001678 0.000975 0.000000 0.024070 0.000000
# 6 0.000000 0.000000 0.000000 -0.007759 0.000000 0.030244
#
#
# Mechanical properties :
#
#
# Convention : Reuss Voigt Hill
#
# Bulk Modulus (GPa) = 41.10571 45.60807 43.35689
# Shear Modulus (GPa) = 31.44354 34.78539 33.11446
#
# Velocity S-wave (km/s) = 3.55409 3.73818 3.64730
# Velocity P-wave (km/s) = 5.77538 6.07896 5.92911
#
# Compressibility (1/GPa) = 0.02432752
#
# Stress axis : x y z
#
# Youngs Moduli (GPa) = 93.93493 55.12503 58.36303
#
# Poissons Ratio (x) = 0.02269 0.31990
# Poissons Ratio (y) = 0.03866 0.28620
# Poissons Ratio (z) = 0.51487 0.27032
#
# Static dielectric constant tensor:
#      x y z
#    x 2.051650 0.000000 -0.160740 
#    y 0.000000 1.858660 0.000000 
#    z -0.160740 0.000000 2.304300 
# 
# From -- ./inp_files/46477.got.cif
#   From: 2010.05.17/outbox.cif.g08.bks.cpg/sg14_24_cif.got.tgz:46477.got - 2010.06.03 17:49:19.
