data_PCOD9244763
_publ_section_title
;
Structure prediction by ZEFSAII (Michael W. Deem and Ramdas Pophale) SiO2 
 PCOD9244763
Probable space group: P 21/C
;
_chemical_formula_sum "Si O2"
_cell_formula_units_Z 22
_cell_length_a 9.920287
_cell_length_b 10.701828
_cell_length_c 12.659272
_cell_angle_alpha 90.000000
_cell_angle_beta 143.075005
_cell_angle_gamma 90.000000
_cell_volume 807.418078
_symmetry_space_group_name_H-M "P 21/C"
_symmetry_group_IT_number 14
_symmetry_cell_setting 'monoclinic'
loop_
_space_group_symop_operation_xyz
x,y,z
-x,1/2+y,1/2-z
-x,-y,-z
x,1/2-y,1/2+z
loop_
_atom_site_type_symbol
_atom_site_label
_atom_site_fract_x
_atom_site_fract_y
_atom_site_fract_z
Si Si1 0.429434 0.294022 0.957030
Si Si2 0.810017 0.055821 0.032338
Si Si3 0.188140 0.317826 0.594086
Si Si4 0.500000 0.500000 0.500000
Si Si5 0.132718 0.421801 0.933169
Si Si6 0.298953 0.819174 0.568528
O O1 0.234673 0.322589 0.748730
O O2 0.357163 0.382939 0.007735
O O3 0.656000 0.320856 0.032030
O O4 0.426325 0.147435 0.979822
O O5 0.553387 0.041428 0.910698
O O6 0.928271 0.063094 0.221910
O O7 0.809622 0.187018 0.971021
O O8 0.896506 0.940005 0.019997
O O9 0.086441 0.192699 0.481539
O O10 0.454453 0.316423 0.730334
O O11 0.168322 0.554863 0.008907
#
# Coordination Sequence:
#
# PCOD9244763 Si02
#       6
#     4   4   4   2   4   4
#     4   9  22  37  66  88 127 162 213 249 322 383
#     4  11  22  40  64  90 128 163 214 262 316 371
#     4  10  22  40  63  90 126 167 207 256 319 388
#     4  10  20  44  62  92 124 182 198 264 322 386
#     4  12  21  39  67  93 126 164 211 270 308 374
#     4   9  22  38  59  93 121 168 207 248 320 379
#
# _framework density 27.247347000000001
#
# number of rings (size 3 to 8) (size 9 to 14) (size 15 to 20)
#    1.091    0.727    1.818    2.727    0.000    0.727 
#    0.000    2.727    0.000    0.000    0.000    0.000 
#    0.000    0.000    0.000    0.000    0.000    0.000 
#
# Total GULP energy -122532.875181 kJ/mol
# GULP energy per Si atom -5569.676145 kJ/mol
# Density = 2.718533 g / cm^3
# Si number density = 27.247347 Si / 1000 Ang^3
#
#
#
# Elastic Constant Matrix: (Units=GPa)
#
#
# Indices 1 2 3 4 5 6 
#
# 1 82.1818 39.8262 -25.2074 0.0000 -28.1327 0.0000
# 2 39.8262 248.6953 27.3363 0.0000 -32.6032 0.0000
# 3 -25.2074 27.3363 78.2166 0.0000 -17.9828 0.0000
# 4 0.0000 0.0000 0.0000 37.7890 0.0000 -18.0336
# 5 -28.1327 -32.6032 -17.9828 0.0000 23.3516 0.0000
# 6 0.0000 0.0000 0.0000 -18.0336 0.0000 41.0539
#
#
#
# Elastic Compliance Matrix: (Units=1/GPa)
#
#
# Indices 1 2 3 4 5 6 
#
# 1 0.070750 -0.000756 0.051545 0.000000 0.123874 0.000000
# 2 -0.000756 0.004932 -0.000721 0.000000 0.005419 0.000000
# 3 0.051545 -0.000721 0.053095 0.000000 0.101980 0.000000
# 4 0.000000 0.000000 0.000000 0.033481 0.000000 0.014707
# 5 0.123874 0.005419 0.101980 0.000000 0.278160 0.000000
# 6 0.000000 0.000000 0.000000 0.014707 0.000000 0.030819
#
#
# Mechanical properties :
#
#
# Convention : Reuss Voigt Hill
#
# Bulk Modulus (GPa) = 4.36848 54.77823 29.57335
# Shear Modulus (GPa) = 11.17555 44.91482 28.04518
#
# Velocity S-wave (km/s) = 2.02742 4.06447 3.21172
# Velocity P-wave (km/s) = 2.66220 6.49417 4.96294
#
# Compressibility (1/GPa) = 0.22891238
#
# Stress axis : x y z
#
# Youngs Moduli (GPa) = 14.13431 202.76501 18.83406
#
# Poissons Ratio (x) = 0.15333 -0.97081
# Poissons Ratio (y) = 0.01069 0.01359
# Poissons Ratio (z) = -0.72856 0.14628
#
# Static dielectric constant tensor:
#      x y z
#    x 2.317640 0.000000 0.149640 
#    y 0.000000 2.125260 0.000000 
#    z 0.149640 0.000000 2.211040 
# 
# From -- ./inp_files/54337.got.cif
#   From: 2010.05.17/outbox.cif.g08.bks.cpg/sg14_28_cif.got.tgz:54337.got - 2010.06.03 17:49:19.
