data_PCOD9244813
_publ_section_title
;
Structure prediction by ZEFSAII (Michael W. Deem and Ramdas Pophale) SiO2 
 PCOD9244813
Probable space group: P 21/C
;
_chemical_formula_sum "Si O2"
_cell_formula_units_Z 26
_cell_length_a 10.698843
_cell_length_b 9.168759
_cell_length_c 11.259134
_cell_angle_alpha 90.000000
_cell_angle_beta 61.485667
_cell_angle_gamma 90.000000
_cell_volume 970.491776
_symmetry_space_group_name_H-M "P 21/C"
_symmetry_group_IT_number 14
_symmetry_cell_setting 'monoclinic'
loop_
_space_group_symop_operation_xyz
x,y,z
-x,1/2+y,1/2-z
-x,-y,-z
x,1/2-y,1/2+z
loop_
_atom_site_type_symbol
_atom_site_label
_atom_site_fract_x
_atom_site_fract_y
_atom_site_fract_z
Si Si1 0.785364 0.708985 0.693466
Si Si2 0.964384 0.992159 0.666267
Si Si3 0.733633 0.018771 0.413190
Si Si4 0.500000 0.000000 0.000000
Si Si5 0.471113 0.704104 0.849131
Si Si6 0.786271 0.261999 0.672949
Si Si7 0.182640 0.005720 0.031107
O O1 0.868790 0.857755 0.668135
O O2 0.755848 0.634144 0.835525
O O3 0.624287 0.705795 0.720183
O O4 0.856274 0.614242 0.557909
O O5 0.129665 0.971197 0.563766
O O6 0.096140 0.853980 0.347662
O O7 0.943486 0.995719 0.817511
O O8 0.590985 0.068861 0.545312
O O9 0.758499 0.133366 0.296235
O O10 0.483562 0.847196 0.927521
O O11 0.329356 0.035909 0.037571
O O12 0.366848 0.690778 0.782855
O O13 0.806286 0.351833 0.542569
#
# Coordination Sequence:
#
# PCOD9244813 Si02
#       7
#     4   4   4   2   4   4   4
#     4  11  26  42  71 108 143 190 244 301 367 442
#     4  12  25  47  74 103 148 198 245 298 369 444
#     4  11  26  45  67 102 151 193 240 302 366 436
#     4  10  20  44  74  96 136 188 230 308 360 418
#     4  11  24  42  72 106 140 187 246 309 365 439
#     4  10  24  42  72 102 137 190 244 304 367 424
#     4  10  24  44  71 105 142 181 243 306 364 432
#
# _framework density 26.790543
#
# number of rings (size 3 to 8) (size 9 to 14) (size 15 to 20)
#    0.000    1.231    1.538    3.231    4.308    6.769 
#    0.000    0.000    0.000    0.000    0.000    0.000 
#    0.000    0.000    0.000    0.000    0.000    0.000 
#
# Total GULP energy -145106.109856 kJ/mol
# GULP energy per Si atom -5581.004225 kJ/mol
# Density = 2.672957 g / cm^3
# Si number density = 26.790543 Si / 1000 Ang^3
#
#
#
# Elastic Constant Matrix: (Units=GPa)
#
#
# Indices 1 2 3 4 5 6 
#
# 1 155.4465 44.8329 64.8602 0.0000 -48.3623 0.0000
# 2 44.8329 105.2947 47.0495 0.0000 -12.0022 0.0000
# 3 64.8602 47.0495 220.6065 0.0000 -59.2438 0.0000
# 4 0.0000 0.0000 0.0000 25.3010 0.0000 -1.1208
# 5 -48.3623 -12.0022 -59.2438 0.0000 76.0024 0.0000
# 6 0.0000 0.0000 0.0000 -1.1208 0.0000 16.1336
#
#
#
# Elastic Compliance Matrix: (Units=1/GPa)
#
#
# Indices 1 2 3 4 5 6 
#
# 1 0.009079 -0.002986 -0.000769 0.000000 0.004707 0.000000
# 2 -0.002986 0.011480 -0.002016 0.000000 -0.001658 0.000000
# 3 -0.000769 -0.002016 0.006288 0.000000 0.004094 0.000000
# 4 0.000000 0.000000 0.000000 0.039646 0.000000 0.002754
# 5 0.004707 -0.001658 0.004094 0.000000 0.019082 0.000000
# 6 0.000000 0.000000 0.000000 0.002754 0.000000 0.062174
#
#
# Mechanical properties :
#
#
# Convention : Reuss Voigt Hill
#
# Bulk Modulus (GPa) = 65.32895 88.31476 76.82185
# Shear Modulus (GPa) = 30.41484 45.12774 37.77129
#
# Velocity S-wave (km/s) = 3.37305 4.10868 3.75890
# Velocity P-wave (km/s) = 6.29349 7.45284 6.89756
#
# Compressibility (1/GPa) = 0.01530715
#
# Stress axis : x y z
#
# Youngs Moduli (GPa) = 110.14060 87.10612 159.02238
#
# Poissons Ratio (x) = 0.26009 0.12222
# Poissons Ratio (y) = 0.32887 0.32058
# Poissons Ratio (z) = 0.08465 0.17560
#
# Static dielectric constant tensor:
#      x y z
#    x 2.200790 0.000000 -0.059170 
#    y 0.000000 2.195700 0.000000 
#    z -0.059170 0.000000 2.159970 
# 
# From -- ./inp_files/28726.got.cif
#   From: 2010.05.17/outbox.cif.g08.bks.cpg/sg14_15_cif.got.tgz:28726.got - 2010.06.03 17:49:19.
