data_PCOD9244072
_publ_section_title
;
Structure prediction by ZEFSAII (Michael W. Deem and Ramdas Pophale) SiO2 
 PCOD9244072
Probable space group: P 21/C
;
_chemical_formula_sum "Si O2"
_cell_formula_units_Z 28
_cell_length_a 20.684963
_cell_length_b 9.096091
_cell_length_c 13.722544
_cell_angle_alpha 90.000000
_cell_angle_beta 146.804589
_cell_angle_gamma 90.000000
_cell_volume 1413.595937
_symmetry_space_group_name_H-M "P 21/C"
_symmetry_group_IT_number 14
_symmetry_cell_setting 'monoclinic'
loop_
_space_group_symop_operation_xyz
x,y,z
-x,1/2+y,1/2-z
-x,-y,-z
x,1/2-y,1/2+z
loop_
_atom_site_type_symbol
_atom_site_label
_atom_site_fract_x
_atom_site_fract_y
_atom_site_fract_z
Si Si1 0.892991 0.623197 0.172139
Si Si2 0.263699 0.168455 0.150852
Si Si3 0.510885 0.326756 0.038535
Si Si4 0.724039 0.296900 0.678654
Si Si5 0.858231 0.508532 0.324847
Si Si6 0.687143 0.384861 0.416516
Si Si7 0.120835 0.821238 0.447752
O O1 0.825836 0.602249 0.189053
O O2 0.920708 0.461520 0.165739
O O3 0.010039 0.719528 0.334258
O O4 0.810984 0.705082 0.992390
O O5 0.380727 0.229974 0.351348
O O6 0.187102 0.084236 0.134896
O O7 0.295661 0.045826 0.109248
O O8 0.606162 0.253308 0.086825
O O9 0.565885 0.321170 0.216293
O O10 0.500000 0.500000 0.000000
O O11 0.694750 0.381642 0.542477
O O12 0.795424 0.148945 0.739965
O O13 0.808972 0.370443 0.866514
O O14 0.000000 0.500000 0.500000
O O15 0.789817 0.279681 0.502371
#
# Coordination Sequence:
#
# PCOD9244072 Si02
#       7
#     4   4   4   4   4   4   4
#     4  12  25  39  66  94 131 171 209 267 323 389
#     4  11  24  43  63  94 132 168 216 267 319 384
#     4   9  19  41  63  88 126 170 208 263 319 379
#     4  11  21  38  68  93 124 170 217 261 318 384
#     4  12  21  40  64  93 127 173 211 253 333 384
#     4  10  20  39  66  89 122 169 215 259 316 382
#     4  11  22  40  60  96 128 164 211 263 320 381
#
# _framework density 19.807641
#
# number of rings (size 3 to 8) (size 9 to 14) (size 15 to 20)
#    0.000    1.143    7.143    1.714    0.000    2.286 
#    0.000    6.429    0.000    0.000    0.000    0.000 
#    0.000    0.000    0.000    0.000    0.000    0.000 
#
# Total GULP energy -156376.487241 kJ/mol
# GULP energy per Si atom -5584.874544 kJ/mol
# Density = 1.976256 g / cm^3
# Si number density = 19.807641 Si / 1000 Ang^3
#
#
#
# Elastic Constant Matrix: (Units=GPa)
#
#
# Indices 1 2 3 4 5 6 
#
# 1 64.4037 4.8466 32.4962 0.0000 -14.6513 0.0000
# 2 4.8466 49.8395 9.1565 0.0000 -3.8173 0.0000
# 3 32.4962 9.1565 109.0446 0.0000 2.9532 0.0000
# 4 0.0000 0.0000 0.0000 29.7234 0.0000 -6.6111
# 5 -14.6513 -3.8173 2.9532 0.0000 35.0212 0.0000
# 6 0.0000 0.0000 0.0000 -6.6111 0.0000 23.3179
#
#
#
# Elastic Compliance Matrix: (Units=1/GPa)
#
#
# Indices 1 2 3 4 5 6 
#
# 1 0.020914 -0.000134 -0.006473 0.000000 0.009281 0.000000
# 2 -0.000134 0.020578 -0.001751 0.000000 0.002335 0.000000
# 3 -0.006473 -0.001751 0.011351 0.000000 -0.003856 0.000000
# 4 0.000000 0.000000 0.000000 0.035908 0.000000 0.010181
# 5 0.009281 0.002335 -0.003856 0.000000 0.033016 0.000000
# 6 0.000000 0.000000 0.000000 0.010181 0.000000 0.045772
#
#
# Mechanical properties :
#
#
# Convention : Reuss Voigt Hill
#
# Bulk Modulus (GPa) = 27.67960 35.14293 31.41126
# Shear Modulus (GPa) = 25.47148 29.39841 27.43494
#
# Velocity S-wave (km/s) = 3.58989 3.85670 3.72569
# Velocity P-wave (km/s) = 5.58459 6.13293 5.86517
#
# Compressibility (1/GPa) = 0.03612768
#
# Stress axis : x y z
#
# Youngs Moduli (GPa) = 47.81383 48.59561 88.09796
#
# Poissons Ratio (x) = 0.00650 0.57024
# Poissons Ratio (y) = 0.00640 0.15429
# Poissons Ratio (z) = 0.30949 0.08511
#
# Static dielectric constant tensor:
#      x y z
#    x 1.692700 0.000000 -0.011310 
#    y 0.000000 1.702900 0.000000 
#    z -0.011310 0.000000 1.750340 
# 
# From -- ./inp_files/50127.got.cif
#   From: 2010.05.17/outbox.cif.g08.bks.cpg/sg14_26_cif.got.tgz:50127.got - 2010.06.03 17:49:19.
