data_PCOD9244528
_publ_section_title
;
Structure prediction by ZEFSAII (Michael W. Deem and Ramdas Pophale) SiO2 
 PCOD9244528
Probable space group: P 21/C
;
_chemical_formula_sum "Si O2"
_cell_formula_units_Z 28
_cell_length_a 9.334699
_cell_length_b 9.719766
_cell_length_c 14.754429
_cell_angle_alpha 90.000000
_cell_angle_beta 120.478005
_cell_angle_gamma 90.000000
_cell_volume 1153.711138
_symmetry_space_group_name_H-M "P 21/C"
_symmetry_group_IT_number 14
_symmetry_cell_setting 'monoclinic'
loop_
_space_group_symop_operation_xyz
x,y,z
-x,1/2+y,1/2-z
-x,-y,-z
x,1/2-y,1/2+z
loop_
_atom_site_type_symbol
_atom_site_label
_atom_site_fract_x
_atom_site_fract_y
_atom_site_fract_z
Si Si1 0.216377 0.954060 0.302857
Si Si2 0.089128 0.923425 0.445515
Si Si3 0.347185 0.231428 0.962124
Si Si4 0.415213 0.479881 0.111352
Si Si5 0.080003 0.470538 0.431153
Si Si6 0.298601 0.861276 0.875685
Si Si7 0.249471 0.376669 0.237446
O O1 0.135254 0.009598 0.369885
O O2 0.390661 0.014071 0.323461
O O3 0.247677 0.792722 0.333946
O O4 0.073305 0.963615 0.185130
O O5 0.934870 0.832853 0.356586
O O6 0.276951 0.900971 0.546953
O O7 0.000000 0.000000 0.500000
O O8 0.186030 0.169451 0.960010
O O9 0.310939 0.211847 0.843348
O O10 0.400198 0.376113 0.021566
O O11 0.505941 0.139817 0.041528
O O12 0.363289 0.395338 0.184967
O O13 0.203053 0.588279 0.434356
O O14 0.000000 0.500000 0.500000
O O15 0.249834 0.969990 0.782171
#
# Coordination Sequence:
#
# PCOD9244528 Si02
#       7
#     4   4   4   4   4   4   4
#     4  11  23  43  63  99 131 170 218 266 325 381
#     4  10  21  40  63  90 124 168 209 263 322 375
#     4  10  22  43  65  93 131 172 217 262 324 392
#     4  10  24  40  66  98 130 169 222 264 323 389
#     4  11  24  40  66  98 130 167 214 273 320 385
#     4  10  23  43  66  91 132 175 217 263 321 389
#     4  10  20  41  68  89 130 177 210 268 326 373
#
# _framework density 24.269507999999998
#
# number of rings (size 3 to 8) (size 9 to 14) (size 15 to 20)
#    0.000    1.714    2.857    2.143    6.000    2.286 
#    5.143    2.857    0.000    0.000    0.000    0.000 
#    0.000    0.000    0.000    0.000    0.000    0.000 
#
# Total GULP energy -156318.073854 kJ/mol
# GULP energy per Si atom -5582.788352 kJ/mol
# Density = 2.421427 g / cm^3
# Si number density = 24.269508 Si / 1000 Ang^3
#
#
#
# Elastic Constant Matrix: (Units=GPa)
#
#
# Indices 1 2 3 4 5 6 
#
# 1 163.4213 3.1130 50.3487 0.0000 18.8135 0.0000
# 2 3.1130 77.8829 2.9459 0.0000 9.5793 0.0000
# 3 50.3487 2.9459 106.2025 0.0000 9.9937 0.0000
# 4 0.0000 0.0000 0.0000 13.4726 0.0000 12.4982
# 5 18.8135 9.5793 9.9937 0.0000 62.4580 0.0000
# 6 0.0000 0.0000 0.0000 12.4982 0.0000 17.3534
#
#
#
# Elastic Compliance Matrix: (Units=1/GPa)
#
#
# Indices 1 2 3 4 5 6 
#
# 1 0.007335 0.000040 -0.003320 0.000000 -0.001684 0.000000
# 2 0.000040 0.013090 -0.000195 0.000000 -0.001988 0.000000
# 3 -0.003320 -0.000195 0.011065 0.000000 -0.000741 0.000000
# 4 0.000000 0.000000 0.000000 0.223658 0.000000 -0.161082
# 5 -0.001684 -0.001988 -0.000741 0.000000 0.016942 0.000000
# 6 0.000000 0.000000 0.000000 -0.161082 0.000000 0.173640
#
#
# Mechanical properties :
#
#
# Convention : Reuss Voigt Hill
#
# Bulk Modulus (GPa) = 40.75005 51.14687 45.94846
# Shear Modulus (GPa) = 10.84929 38.06340 24.45635
#
# Velocity S-wave (km/s) = 2.11661 3.96455 3.17787
# Velocity P-wave (km/s) = 4.77498 6.48669 5.69551
#
# Compressibility (1/GPa) = 0.02453985
#
# Stress axis : x y z
#
# Youngs Moduli (GPa) = 136.32904 76.39340 90.37458
#
# Poissons Ratio (x) = -0.00302 0.30005
# Poissons Ratio (y) = -0.00539 0.01760
# Poissons Ratio (z) = 0.45262 0.01488
#
# Static dielectric constant tensor:
#      x y z
#    x 1.967880 0.000000 -0.036760 
#    y 0.000000 2.056720 0.000000 
#    z -0.036760 0.000000 2.034050 
# 
# From -- ./inp_files/40161.got.cif
#   From: 2010.05.17/outbox.cif.g08.bks.cpg/sg14_21_cif.got.tgz:40161.got - 2010.06.03 17:49:19.
