data_PCOD9244903
_publ_section_title
;
Structure prediction by ZEFSAII (Michael W. Deem and Ramdas Pophale) SiO2 
 PCOD9244903
Probable space group: P 21/C
;
_chemical_formula_sum "Si O2"
_cell_formula_units_Z 32
_cell_length_a 11.921713
_cell_length_b 7.951905
_cell_length_c 13.421491
_cell_angle_alpha 90.000000
_cell_angle_beta 95.573100
_cell_angle_gamma 90.000000
_cell_volume 1266.347445
_symmetry_space_group_name_H-M "P 21/C"
_symmetry_group_IT_number 14
_symmetry_cell_setting 'monoclinic'
loop_
_space_group_symop_operation_xyz
x,y,z
-x,1/2+y,1/2-z
-x,-y,-z
x,1/2-y,1/2+z
loop_
_atom_site_type_symbol
_atom_site_label
_atom_site_fract_x
_atom_site_fract_y
_atom_site_fract_z
Si Si1 0.268412 0.180217 0.247524
Si Si2 0.571719 0.244451 0.485337
Si Si3 0.580614 0.916152 0.886190
Si Si4 0.718375 0.467356 0.864925
Si Si5 0.163794 0.050687 0.062594
Si Si6 0.174723 0.795297 0.464219
Si Si7 0.098478 0.290000 0.371356
Si Si8 0.109133 0.657314 0.264961
O O1 0.383919 0.088718 0.227118
O O2 0.285390 0.356746 0.190951
O O3 0.218735 0.207765 0.350944
O O4 0.166011 0.087527 0.179269
O O5 0.487597 0.264302 0.570757
O O6 0.532994 0.403137 0.413805
O O7 0.604500 0.099606 0.408063
O O8 0.694894 0.255373 0.547448
O O9 0.703953 0.918254 0.948094
O O10 0.773777 0.342731 0.787592
O O11 0.809745 0.456044 0.963650
O O12 0.095821 0.175351 0.987896
O O13 0.138061 0.862280 0.029137
O O14 0.110746 0.791815 0.355173
O O15 0.100802 0.474717 0.318047
O O16 0.993966 0.191155 0.317298
#
# Coordination Sequence:
#
# PCOD9244903 Si02
#       8
#     4   4   4   4   4   4   4   4
#     4   9  18  32  50  74 101 125 158 207 247 278
#     4   8  15  31  54  73  95 130 164 194 236 293
#     4   8  15  31  54  73  95 130 164 194 236 293
#     4   9  18  32  50  74 101 125 158 207 247 278
#     4   8  17  34  51  69  98 132 163 195 237 294
#     4   8  17  34  51  69  98 132 163 195 237 294
#     4  10  21  35  51  71  99 132 164 201 243 288
#     4  10  21  35  51  71  99 132 164 201 243 288
#
# _framework density 25.269525999999999
#
# number of rings (size 3 to 8) (size 9 to 14) (size 15 to 20)
#    1.500    1.750    0.000    0.000    0.000    4.500 
#    0.000    6.250    0.000    0.000    0.000    0.000 
#    0.000    0.000    0.000    0.000    0.000    0.000 
#
# Total GULP energy -178135.804916 kJ/mol
# GULP energy per Si atom -5566.743904 kJ/mol
# Density = 2.521201 g / cm^3
# Si number density = 25.269526 Si / 1000 Ang^3
#
#
#
# Elastic Constant Matrix: (Units=GPa)
#
#
# Indices 1 2 3 4 5 6 
#
# 1 64.1269 4.1856 -2.5721 0.0000 -28.8147 0.0000
# 2 4.1856 59.7314 15.9543 0.0000 -5.1431 0.0000
# 3 -2.5721 15.9543 44.7993 0.0000 -5.7501 0.0000
# 4 0.0000 0.0000 0.0000 25.2661 0.0000 -7.5702
# 5 -28.8147 -5.1431 -5.7501 0.0000 30.7953 0.0000
# 6 0.0000 0.0000 0.0000 -7.5702 0.0000 16.6891
#
#
#
# Elastic Compliance Matrix: (Units=1/GPa)
#
#
# Indices 1 2 3 4 5 6 
#
# 1 0.028061 -0.001097 0.005480 0.000000 0.027096 0.000000
# 2 -0.001097 0.018654 -0.006596 0.000000 0.000857 0.000000
# 3 0.005480 -0.006596 0.026128 0.000000 0.008904 0.000000
# 4 0.000000 0.000000 0.000000 0.045804 0.000000 0.020777
# 5 0.027096 0.000857 0.008904 0.000000 0.059632 0.000000
# 6 0.000000 0.000000 0.000000 0.020777 0.000000 0.069344
#
#
# Mechanical properties :
#
#
# Convention : Reuss Voigt Hill
#
# Bulk Modulus (GPa) = 14.61642 22.64369 18.63005
# Shear Modulus (GPa) = 18.19144 24.62274 21.40709
#
# Velocity S-wave (km/s) = 2.68600 3.12493 2.91374
# Velocity P-wave (km/s) = 3.92635 4.69048 4.32532
#
# Compressibility (1/GPa) = 0.06841620
#
# Stress axis : x y z
#
# Youngs Moduli (GPa) = 35.63699 53.60734 38.27265
#
# Poissons Ratio (x) = 0.05880 -0.20972
# Poissons Ratio (y) = 0.03909 0.25245
# Poissons Ratio (z) = -0.19527 0.35360
#
# Static dielectric constant tensor:
#      x y z
#    x 2.010860 0.000000 -0.039480 
#    y 0.000000 2.083520 0.000000 
#    z -0.039480 0.000000 2.045690 
# 
# From -- ./inp_files/46282.got.cif
#   From: 2010.05.17/outbox.cif.g08.bks.cpg/sg14_24_cif.got.tgz:46282.got - 2010.06.03 17:49:19.
