data_PCOD9244884
_publ_section_title
;
Structure prediction by ZEFSAII (Michael W. Deem and Ramdas Pophale) SiO2 
 PCOD9244884
Probable space group: P 21/C
;
_chemical_formula_sum "Si O2"
_cell_formula_units_Z 24
_cell_length_a 22.049316
_cell_length_b 9.371694
_cell_length_c 10.399977
_cell_angle_alpha 90.000000
_cell_angle_beta 153.445253
_cell_angle_gamma 90.000000
_cell_volume 960.736641
_symmetry_space_group_name_H-M "P 21/C"
_symmetry_group_IT_number 14
_symmetry_cell_setting 'monoclinic'
loop_
_space_group_symop_operation_xyz
x,y,z
-x,1/2+y,1/2-z
-x,-y,-z
x,1/2-y,1/2+z
loop_
_atom_site_type_symbol
_atom_site_label
_atom_site_fract_x
_atom_site_fract_y
_atom_site_fract_z
Si Si1 0.111613 0.168673 0.683566
Si Si2 0.831685 0.218484 0.570472
Si Si3 0.200677 0.477595 0.797210
Si Si4 0.463306 0.726637 0.513550
Si Si5 0.988336 0.058500 0.683220
Si Si6 0.498845 0.079517 0.183605
O O1 0.197491 0.308633 0.819709
O O2 0.113985 0.102561 0.828860
O O3 0.950570 0.207098 0.373763
O O4 0.114150 0.052275 0.576546
O O5 0.686017 0.289397 0.298491
O O6 0.898802 0.190966 0.560263
O O7 0.814617 0.063370 0.600781
O O8 0.070700 0.501260 0.461129
O O9 0.340978 0.537656 0.008090
O O10 0.522726 0.676224 0.487262
O O11 0.534122 0.835038 0.748125
O O12 0.436532 0.577016 0.539466
#
# Coordination Sequence:
#
# PCOD9244884 Si02
#       6
#     4   4   4   4   4   4
#     4  10  21  34  55  87 121 155 201 243 297 369
#     4  10  22  35  61  80 121 161 192 245 306 363
#     4  10  22  37  59  83 122 159 198 247 313 358
#     4  10  23  43  68  91 129 158 221 254 327 366
#     4  10  21  34  55  88 118 158 200 244 298 366
#     4  10  23  45  66  96 121 171 206 273 310 388
#
# _framework density 24.980831999999999
#
# number of rings (size 3 to 8) (size 9 to 14) (size 15 to 20)
#    0.000    2.000    0.000    3.000   14.000    2.000 
#    6.000    0.000    0.000    0.000    0.000    0.000 
#    0.000    0.000    0.000    0.000    0.000    0.000 
#
# Total GULP energy -134016.383763 kJ/mol
# GULP energy per Si atom -5584.015990 kJ/mol
# Density = 2.492397 g / cm^3
# Si number density = 24.980832 Si / 1000 Ang^3
#
#
#
# Elastic Constant Matrix: (Units=GPa)
#
#
# Indices 1 2 3 4 5 6 
#
# 1 34.2704 -2.0813 -10.0248 0.0000 -15.3403 0.0000
# 2 -2.0813 63.0784 -20.1604 0.0000 -4.3695 0.0000
# 3 -10.0248 -20.1604 42.5251 0.0000 2.5513 0.0000
# 4 0.0000 0.0000 0.0000 37.7341 0.0000 -1.3977
# 5 -15.3403 -4.3695 2.5513 0.0000 29.0912 0.0000
# 6 0.0000 0.0000 0.0000 -1.3977 0.0000 19.5676
#
#
#
# Elastic Compliance Matrix: (Units=1/GPa)
#
#
# Indices 1 2 3 4 5 6 
#
# 1 0.043366 0.006886 0.012117 0.000000 0.022839 0.000000
# 2 0.006886 0.019899 0.010716 0.000000 0.005680 0.000000
# 3 0.012117 0.010716 0.031136 0.000000 0.005268 0.000000
# 4 0.000000 0.000000 0.000000 0.026572 0.000000 0.001898
# 5 0.022839 0.005680 0.005268 0.000000 0.046809 0.000000
# 6 0.000000 0.000000 0.000000 0.001898 0.000000 0.051240
#
#
# Mechanical properties :
#
#
# Convention : Reuss Voigt Hill
#
# Bulk Modulus (GPa) = 6.50032 8.37122 7.43577
# Shear Modulus (GPa) = 23.71201 28.75460 26.23330
#
# Velocity S-wave (km/s) = 3.08426 3.39642 3.24410
# Velocity P-wave (km/s) = 3.91042 4.32888 4.12496
#
# Compressibility (1/GPa) = 0.15383865
#
# Stress axis : x y z
#
# Youngs Moduli (GPa) = 23.05972 50.25401 32.11689
#
# Poissons Ratio (x) = -0.34603 -0.38916
# Poissons Ratio (y) = -0.15878 -0.34417
# Poissons Ratio (z) = -0.27942 -0.53853
#
# Static dielectric constant tensor:
#      x y z
#    x 2.062970 0.000000 -0.047370 
#    y 0.000000 2.010990 0.000000 
#    z -0.047370 0.000000 2.047760 
# 
# From -- ./inp_files/35785.got.cif
#   From: 2010.05.17/outbox.cif.g08.bks.cpg/sg14_18_cif.got.tgz:35785.got - 2010.06.03 17:49:19.
