data_PCOD9244973
_publ_section_title
;
Structure prediction by ZEFSAII (Michael W. Deem and Ramdas Pophale) SiO2 
 PCOD9244973
Probable space group: P 21/C
;
_chemical_formula_sum "Si O2"
_cell_formula_units_Z 30
_cell_length_a 28.528282
_cell_length_b 5.127413
_cell_length_c 17.058881
_cell_angle_alpha 90.000000
_cell_angle_beta 35.804136
_cell_angle_gamma 90.000000
_cell_volume 1459.796665
_symmetry_space_group_name_H-M "P 21/C"
_symmetry_group_IT_number 14
_symmetry_cell_setting 'monoclinic'
loop_
_space_group_symop_operation_xyz
x,y,z
-x,1/2+y,1/2-z
-x,-y,-z
x,1/2-y,1/2+z
loop_
_atom_site_type_symbol
_atom_site_label
_atom_site_fract_x
_atom_site_fract_y
_atom_site_fract_z
Si Si1 0.621859 0.331545 0.750393
Si Si2 0.500000 0.500000 0.000000
Si Si3 0.202572 0.203941 0.117839
Si Si4 0.965607 0.750363 0.088750
Si Si5 0.202701 0.697861 0.006615
Si Si6 0.617894 0.851265 0.099364
Si Si7 0.504089 0.062085 0.123975
Si Si8 0.966282 0.328979 0.833323
O O1 0.595905 0.557046 0.844884
O O2 0.707655 0.212046 0.650344
O O3 0.622145 0.423024 0.660109
O O4 0.537824 0.166111 0.872633
O O5 0.473673 0.689395 0.958132
O O6 0.130282 0.234730 0.276018
O O7 0.195101 0.430531 0.063935
O O8 0.195464 0.933498 0.079317
O O9 0.290663 0.231892 0.035249
O O10 0.998833 0.751845 0.131314
O O11 0.000000 0.500000 0.000000
O O12 0.000000 0.000000 0.000000
O O13 0.128668 0.710135 0.047745
O O14 0.562530 0.641580 0.220127
O O15 0.575973 0.943902 0.077117
O O16 0.991398 0.627551 0.783926
#
# Coordination Sequence:
#
# PCOD9244973 Si02
#       8
#     4   2   4   4   4   4   4   4
#     4  10  21  38  61  87 126 164 213 270 330 379
#     4  10  24  38  58  86 132 170 204 266 340 382
#     4  11  22  41  66  96 130 170 222 277 329 386
#     4  12  25  43  66  98 140 175 210 279 354 398
#     4  11  21  40  69  97 122 167 234 277 310 389
#     4  10  21  35  65  93 118 168 228 270 312 386
#     4  11  19  39  61  92 122 171 216 270 321 391
#     4  12  22  42  71  97 125 177 231 271 322 409
#
# _framework density 20.550806999999999
#
# number of rings (size 3 to 8) (size 9 to 14) (size 15 to 20)
#    0.000    1.067    5.333    2.000    0.000    0.000 
#    2.400    1.333    0.000    0.000    0.000    0.000 
#    0.000    0.000    0.000    0.000    0.000    0.000 
#
# Total GULP energy -167104.160077 kJ/mol
# GULP energy per Si atom -5570.138669 kJ/mol
# Density = 2.050403 g / cm^3
# Si number density = 20.550807 Si / 1000 Ang^3
#
#
#
# Elastic Constant Matrix: (Units=GPa)
#
#
# Indices 1 2 3 4 5 6 
#
# 1 101.5371 -23.4302 52.8550 0.0000 -37.5308 0.0000
# 2 -23.4302 132.4560 -2.4956 0.0000 18.2256 0.0000
# 3 52.8550 -2.4956 130.0127 0.0000 -19.2690 0.0000
# 4 0.0000 0.0000 0.0000 375.7075 0.0000 -247.1563
# 5 -37.5308 18.2256 -19.2690 0.0000 39.2530 0.0000
# 6 0.0000 0.0000 0.0000 -247.1563 0.0000 195.9343
#
#
#
# Elastic Compliance Matrix: (Units=1/GPa)
#
#
# Indices 1 2 3 4 5 6 
#
# 1 0.018076 0.001147 -0.005224 0.000000 0.014186 0.000000
# 2 0.001147 0.008160 -0.000764 0.000000 -0.003067 0.000000
# 3 -0.005224 -0.000764 0.009828 0.000000 0.000184 0.000000
# 4 0.000000 0.000000 0.000000 0.015640 0.000000 0.019729
# 5 0.014186 -0.003067 0.000184 0.000000 0.040554 0.000000
# 6 0.000000 0.000000 0.000000 0.019729 0.000000 0.029990
#
#
# Mechanical properties :
#
#
# Convention : Reuss Voigt Hill
#
# Bulk Modulus (GPa) = 37.90479 46.42935 42.16707
# Shear Modulus (GPa) = 35.53012 144.65072 90.09042
#
# Velocity S-wave (km/s) = 4.16251 8.39879 6.62820
# Velocity P-wave (km/s) = 6.44875 10.80252 8.89609
#
# Compressibility (1/GPa) = 0.02638189
#
# Stress axis : x y z
#
# Youngs Moduli (GPa) = 55.32094 122.54533 101.74974
#
# Poissons Ratio (x) = -0.14057 0.53156
# Poissons Ratio (y) = -0.06346 0.07777
# Poissons Ratio (z) = 0.28901 0.09366
#
# Static dielectric constant tensor:
#      x y z
#    x 1.649650 0.000000 -0.086400 
#    y 0.000000 0.865550 0.000000 
#    z -0.086400 0.000000 1.664030 
# 
# From -- ./inp_files/62449.got.cif
#   From: 2010.05.17/outbox.cif.g08.bks.cpg/sg14_32_cif.got.tgz:62449.got - 2010.06.03 17:49:19.
