data_PCOD9244166
_publ_section_title
;
Structure prediction by ZEFSAII (Michael W. Deem and Ramdas Pophale) SiO2 
 PCOD9244166
Probable space group: P 21/C
;
_chemical_formula_sum "Si O2"
_cell_formula_units_Z 20
_cell_length_a 9.421564
_cell_length_b 11.261446
_cell_length_c 13.534138
_cell_angle_alpha 90.000000
_cell_angle_beta 44.089500
_cell_angle_gamma 90.000000
_cell_volume 999.126413
_symmetry_space_group_name_H-M "P 21/C"
_symmetry_group_IT_number 14
_symmetry_cell_setting 'monoclinic'
loop_
_space_group_symop_operation_xyz
x,y,z
-x,1/2+y,1/2-z
-x,-y,-z
x,1/2-y,1/2+z
loop_
_atom_site_type_symbol
_atom_site_label
_atom_site_fract_x
_atom_site_fract_y
_atom_site_fract_z
Si Si1 0.875566 0.067822 0.196156
Si Si2 0.124435 0.567821 0.071722
Si Si3 0.264209 0.117553 0.890259
Si Si4 0.264209 0.117553 0.345532
Si Si5 0.347192 0.750000 0.326404
O O1 0.844976 0.062641 0.327512
O O2 0.779679 0.186300 0.195543
O O3 0.767108 0.960461 0.191973
O O4 0.115280 0.063991 0.046993
O O5 0.884720 0.563991 0.162273
O O6 0.232893 0.460461 0.959080
O O7 0.220322 0.686300 0.975222
O O8 0.183869 0.250000 0.908066
O O9 0.500508 0.147744 0.792785
O O10 0.500508 0.147744 0.206707
#
# Coordination Sequence:
#
# PCOD9244166 Si02
#       5
#     4   4   4   4   4
#     4  11  22  40  65  88 118 165 201 238 303 362
#     4  11  22  40  65  88 118 165 201 238 303 362
#     4   9  22  40  59  87 128 151 196 253 295 345
#     4   9  22  40  59  87 128 151 196 253 295 345
#     4  10  20  40  60  92 122 150 198 254 294 350
#
# _framework density 20.017486000000002
#
# number of rings (size 3 to 8) (size 9 to 14) (size 15 to 20)
#    1.200    0.800    2.000    1.200    0.000    6.400 
#    0.000    0.000    0.000    7.200    0.000    0.000 
#    0.000    0.000    0.000    0.000    0.000    0.000 
#
# Total GULP energy -111365.378451 kJ/mol
# GULP energy per Si atom -5568.268923 kJ/mol
# Density = 1.997192 g / cm^3
# Si number density = 20.017486 Si / 1000 Ang^3
#
#
#
# Elastic Constant Matrix: (Units=GPa)
#
#
# Indices 1 2 3 4 5 6 
#
# 1 92.4656 40.4135 86.2455 0.0000 6.1394 0.0000
# 2 40.4135 75.8359 60.9495 0.0000 32.7291 0.0000
# 3 86.2455 60.9495 112.5507 0.0000 25.8689 0.0000
# 4 0.0000 0.0000 0.0000 47.4120 0.0000 -32.7054
# 5 6.1394 32.7291 25.8689 0.0000 36.4798 0.0000
# 6 0.0000 0.0000 0.0000 -32.7054 0.0000 67.9321
#
#
#
# Elastic Compliance Matrix: (Units=1/GPa)
#
#
# Indices 1 2 3 4 5 6 
#
# 1 0.049740 -0.003329 -0.041904 0.000000 0.024331 0.000000
# 2 -0.003329 0.032118 -0.009973 0.000000 -0.021183 0.000000
# 3 -0.041904 -0.009973 0.051037 0.000000 -0.020192 0.000000
# 4 0.000000 0.000000 0.000000 0.031579 0.000000 0.015204
# 5 0.024331 -0.021183 -0.020192 0.000000 0.056642 0.000000
# 6 0.000000 0.000000 0.000000 0.015204 0.000000 0.022040
#
#
# Mechanical properties :
#
#
# Convention : Reuss Voigt Hill
#
# Bulk Modulus (GPa) = 44.47975 72.89658 58.68816
# Shear Modulus (GPa) = 13.84804 36.58102 25.21453
#
# Velocity S-wave (km/s) = 2.63306 4.27951 3.55297
# Velocity P-wave (km/s) = 5.61361 7.80477 6.79806
#
# Compressibility (1/GPa) = 0.02248214
#
# Stress axis : x y z
#
# Youngs Moduli (GPa) = 20.10473 31.13508 19.59370
#
# Poissons Ratio (x) = 0.10365 0.82106
# Poissons Ratio (y) = 0.06693 0.19541
# Poissons Ratio (z) = 0.84247 0.31051
#
# Static dielectric constant tensor:
#      x y z
#    x 1.731220 0.000000 -0.087530 
#    y 0.000000 1.758030 0.000000 
#    z -0.087530 0.000000 1.676300 
# 
# From -- ./inp_files/23717.got.cif
#   From: 2010.05.17/outbox.cif.g08.bks.cpg/sg14_12_cif.got.tgz:23717.got - 2010.06.03 17:49:19.
