data_PCOD9244717
_publ_section_title
;
Structure prediction by ZEFSAII (Michael W. Deem and Ramdas Pophale) SiO2 
 PCOD9244717
Probable space group: P 21/C
;
_chemical_formula_sum "Si O2"
_cell_formula_units_Z 22
_cell_length_a 6.771731
_cell_length_b 11.070552
_cell_length_c 11.763252
_cell_angle_alpha 90.000000
_cell_angle_beta 112.359398
_cell_angle_gamma 90.000000
_cell_volume 815.551960
_symmetry_space_group_name_H-M "P 21/C"
_symmetry_group_IT_number 14
_symmetry_cell_setting 'monoclinic'
loop_
_space_group_symop_operation_xyz
x,y,z
-x,1/2+y,1/2-z
-x,-y,-z
x,1/2-y,1/2+z
loop_
_atom_site_type_symbol
_atom_site_label
_atom_site_fract_x
_atom_site_fract_y
_atom_site_fract_z
Si Si1 0.425687 0.786650 0.050236
Si Si2 0.615739 0.894517 0.418118
Si Si3 0.416527 0.900831 0.740554
Si Si4 0.845653 0.685931 0.745780
Si Si5 0.500000 0.500000 0.500000
Si Si6 0.075400 0.041335 0.316381
O O1 0.403883 0.721654 0.165273
O O2 0.652545 0.862557 0.118432
O O3 0.294224 0.902905 0.990125
O O4 0.467512 0.690160 0.962303
O O5 0.760514 0.827257 0.355926
O O6 0.778022 0.958491 0.539698
O O7 0.487499 0.997446 0.322864
O O8 0.170136 0.935867 0.700472
O O9 0.525723 0.920081 0.884245
O O10 0.042680 0.596978 0.765230
O O11 0.869765 0.828616 0.729358
#
# Coordination Sequence:
#
# PCOD9244717 Si02
#       6
#     4   4   4   4   2   4
#     4  11  23  42  65  93 135 169 216 276 337 386
#     4  10  21  43  69  89 124 175 219 272 324 397
#     4  11  23  42  64  98 128 171 223 267 331 401
#     4  10  20  43  61  95 127 169 218 269 326 395
#     4  12  24  38  64  94 138 166 208 274 326 392
#     4  10  22  41  67  91 126 168 218 274 323 393
#
# _framework density 26.975594999999998
#
# number of rings (size 3 to 8) (size 9 to 14) (size 15 to 20)
#    0.000    1.455    3.636    3.818    0.000    2.909 
#    9.818    1.818    0.000    0.000    0.000    0.000 
#    0.000    0.000    0.000    0.000    0.000    0.000 
#
# Total GULP energy -122507.227920 kJ/mol
# GULP energy per Si atom -5568.510360 kJ/mol
# Density = 2.691420 g / cm^3
# Si number density = 26.975595 Si / 1000 Ang^3
#
#
#
# Elastic Constant Matrix: (Units=GPa)
#
#
# Indices 1 2 3 4 5 6 
#
# 1 28.3045 17.2357 16.5022 0.0000 -0.1851 0.0000
# 2 17.2357 200.0270 65.0414 0.0000 -18.2814 0.0000
# 3 16.5022 65.0414 172.2483 0.0000 -24.6392 0.0000
# 4 0.0000 0.0000 0.0000 50.1547 0.0000 -3.4151
# 5 -0.1851 -18.2814 -24.6392 0.0000 41.2869 0.0000
# 6 0.0000 0.0000 0.0000 -3.4151 0.0000 46.4594
#
#
#
# Elastic Compliance Matrix: (Units=1/GPa)
#
#
# Indices 1 2 3 4 5 6 
#
# 1 0.038711 -0.002573 -0.003144 0.000000 -0.002842 0.000000
# 2 -0.002573 0.005940 -0.001773 0.000000 0.001560 0.000000
# 3 -0.003144 -0.001773 0.007284 0.000000 0.003548 0.000000
# 4 0.000000 0.000000 0.000000 0.020039 0.000000 0.001473
# 5 -0.002842 0.001560 0.003548 0.000000 0.027016 0.000000
# 6 0.000000 0.000000 0.000000 0.001473 0.000000 0.021632
#
#
# Mechanical properties :
#
#
# Convention : Reuss Voigt Hill
#
# Bulk Modulus (GPa) = 27.05987 66.45982 46.75984
# Shear Modulus (GPa) = 33.80186 47.70025 40.75105
#
# Velocity S-wave (km/s) = 3.54369 4.20965 3.89094
# Velocity P-wave (km/s) = 5.17655 6.95116 6.12843
#
# Compressibility (1/GPa) = 0.03695509
#
# Stress axis : x y z
#
# Youngs Moduli (GPa) = 25.83235 168.34207 137.29083
#
# Poissons Ratio (x) = 0.43317 0.43159
# Poissons Ratio (y) = 0.06647 0.24346
# Poissons Ratio (z) = 0.08121 0.29853
#
# Static dielectric constant tensor:
#      x y z
#    x 2.102770 0.000000 -0.519290 
#    y 0.000000 0.818760 0.000000 
#    z -0.519290 0.000000 0.622320 
# 
# From -- ./inp_files/23891.got.cif
#   From: 2010.05.17/outbox.cif.g08.bks.cpg/sg14_12_cif.got.tgz:23891.got - 2010.06.03 17:49:19.
