data_PCOD9244926
_publ_section_title
;
Structure prediction by ZEFSAII (Michael W. Deem and Ramdas Pophale) SiO2 
 PCOD9244926
Probable space group: P 21/C
;
_chemical_formula_sum "Si O2"
_cell_formula_units_Z 24
_cell_length_a 23.002364
_cell_length_b 5.225769
_cell_length_c 23.263166
_cell_angle_alpha 90.000000
_cell_angle_beta 23.339468
_cell_angle_gamma 90.000000
_cell_volume 1107.852494
_symmetry_space_group_name_H-M "P 21/C"
_symmetry_group_IT_number 14
_symmetry_cell_setting 'monoclinic'
loop_
_space_group_symop_operation_xyz
x,y,z
-x,1/2+y,1/2-z
-x,-y,-z
x,1/2-y,1/2+z
loop_
_atom_site_type_symbol
_atom_site_label
_atom_site_fract_x
_atom_site_fract_y
_atom_site_fract_z
Si Si1 0.645279 0.000944 0.829450
Si Si2 0.832225 0.053435 0.008737
Si Si3 0.588760 0.054814 0.752646
Si Si4 0.343216 0.194594 0.419246
Si Si5 0.938468 0.450197 0.780436
Si Si6 0.826895 0.973604 0.145689
O O1 0.756587 0.769413 0.741553
O O2 0.591205 0.947442 0.813485
O O3 0.734448 0.270283 0.745865
O O4 0.500000 0.000000 0.000000
O O5 0.747280 0.320248 0.094285
O O6 0.814889 0.931368 0.087253
O O7 0.754001 0.907926 0.026420
O O8 0.001490 0.048419 0.835537
O O9 0.454919 0.249144 0.868995
O O10 0.558186 0.885769 0.724655
O O11 0.228627 0.997480 0.551055
O O12 0.978579 0.153720 0.752695
O O13 0.000000 0.000000 0.000000
#
# Coordination Sequence:
#
# PCOD9244926 Si02
#       6
#     4   4   4   4   4   4
#     4  11  25  46  68  98 135 175 225 282 332 387
#     4  10  21  38  59  87 127 166 205 264 321 383
#     4  11  21  37  63  91 129 169 211 260 323 392
#     4  11  20  36  58  92 125 163 207 251 326 384
#     4  10  21  35  56  85 123 158 199 251 306 375
#     4  11  24  44  70  95 128 177 229 276 332 395
#
# _framework density 21.663535
#
# number of rings (size 3 to 8) (size 9 to 14) (size 15 to 20)
#    0.000    1.333    5.000    1.000    0.000    1.333 
#    0.000    8.333    0.000    0.000    0.000    0.000 
#    0.000    0.000    0.000    0.000    0.000    0.000 
#
# Total GULP energy -133686.645803 kJ/mol
# GULP energy per Si atom -5570.276908 kJ/mol
# Density = 2.161423 g / cm^3
# Si number density = 21.663535 Si / 1000 Ang^3
#
#
#
# Elastic Constant Matrix: (Units=GPa)
#
#
# Indices 1 2 3 4 5 6 
#
# 1 53.8660 13.8998 41.3026 0.0000 4.4003 0.0000
# 2 13.8998 66.7292 36.2159 0.0000 4.1399 0.0000
# 3 41.3026 36.2159 159.1884 0.0000 16.9107 0.0000
# 4 0.0000 0.0000 0.0000 28.5557 0.0000 -0.3682
# 5 4.4003 4.1399 16.9107 0.0000 30.3762 0.0000
# 6 0.0000 0.0000 0.0000 -0.3682 0.0000 15.2367
#
#
#
# Elastic Compliance Matrix: (Units=1/GPa)
#
#
# Indices 1 2 3 4 5 6 
#
# 1 0.023363 -0.001799 -0.005653 0.000000 0.000008 0.000000
# 2 -0.001799 0.017236 -0.003436 0.000000 -0.000176 0.000000
# 3 -0.005653 -0.003436 0.008921 0.000000 -0.003679 0.000000
# 4 0.000000 0.000000 0.000000 0.035030 0.000000 0.000846
# 5 0.000008 -0.000176 -0.003679 0.000000 0.034992 0.000000
# 6 0.000000 0.000000 0.000000 0.000846 0.000000 0.065651
#
#
# Mechanical properties :
#
#
# Convention : Reuss Voigt Hill
#
# Bulk Modulus (GPa) = 36.04344 51.40223 43.72283
# Shear Modulus (GPa) = 23.12483 27.39141 25.25812
#
# Velocity S-wave (km/s) = 3.27074 3.55970 3.41827
# Velocity P-wave (km/s) = 5.56216 6.37764 5.98381
#
# Compressibility (1/GPa) = 0.02774430
#
# Stress axis : x y z
#
# Youngs Moduli (GPa) = 42.80297 58.01702 112.09266
#
# Poissons Ratio (x) = 0.10436 0.63369
# Poissons Ratio (y) = 0.07699 0.38514
# Poissons Ratio (z) = 0.24198 0.19934
#
# Static dielectric constant tensor:
#      x y z
#    x 1.799400 0.000000 -0.048040 
#    y 0.000000 1.930450 0.000000 
#    z -0.048040 0.000000 1.895690 
# 
# From -- ./inp_files/71624.got.cif
#   From: 2010.05.17/outbox.cif.g08.bks.cpg/sg14_36_cif.got.tgz:71624.got - 2010.06.03 17:49:19.
