data_PCOD9244865
_publ_section_title
;
Structure prediction by ZEFSAII (Michael W. Deem and Ramdas Pophale) SiO2 
 PCOD9244865
Probable space group: P 21/C
;
_chemical_formula_sum "Si O2"
_cell_formula_units_Z 32
_cell_length_a 13.290292
_cell_length_b 26.018284
_cell_length_c 4.909584
_cell_angle_alpha 90.000000
_cell_angle_beta 116.829639
_cell_angle_gamma 90.000000
_cell_volume 1514.936026
_symmetry_space_group_name_H-M "P 21/C"
_symmetry_group_IT_number 14
_symmetry_cell_setting 'monoclinic'
loop_
_space_group_symop_operation_xyz
x,y,z
-x,1/2+y,1/2-z
-x,-y,-z
x,1/2-y,1/2+z
loop_
_atom_site_type_symbol
_atom_site_label
_atom_site_fract_x
_atom_site_fract_y
_atom_site_fract_z
Si Si1 0.460901 0.715429 0.107055
Si Si2 0.157847 0.112182 0.944970
Si Si3 0.160650 0.961778 0.286999
Si Si4 0.947894 0.561429 0.164178
Si Si5 0.459698 0.939724 0.158487
Si Si6 0.340334 0.464648 0.713628
Si Si7 0.718497 0.785305 0.011949
Si Si8 0.352883 0.888505 0.540411
O O1 0.449806 0.765016 0.286392
O O2 0.589457 0.695753 0.308390
O O3 0.371367 0.672053 0.073416
O O4 0.059395 0.091277 0.628071
O O5 0.192088 0.170993 0.952883
O O6 0.127067 0.094493 0.212058
O O7 0.268015 0.079703 0.988591
O O8 0.233905 0.913789 0.481974
O O9 0.101582 0.003129 0.415802
O O10 0.251508 0.997487 0.247118
O O11 0.067953 0.943747 0.956843
O O12 0.579136 0.942219 0.454182
O O13 0.382394 0.906126 0.270358
O O14 0.410051 0.997526 0.103588
O O15 0.445929 0.914233 0.850637
O O16 0.730432 0.764249 0.331160
#
# Coordination Sequence:
#
# PCOD9244865 Si02
#       8
#     4   4   4   4   4   4   4   4
#     4  10  21  36  55  81 109 139 180 226 272 331
#     4  11  21  36  58  80 108 145 181 228 276 319
#     4   9  21  37  56  82 114 150 184 224 270 324
#     4  10  22  37  56  83 112 144 190 229 266 322
#     4  10  21  33  51  83 115 146 181 217 262 334
#     4   9  20  34  53  82 117 147 178 216 269 330
#     4  10  21  37  58  82 108 139 179 227 280 329
#     4  11  21  36  57  78 111 151 185 224 275 327
#
# _framework density 21.123004000000002
#
# number of rings (size 3 to 8) (size 9 to 14) (size 15 to 20)
#    0.000    2.000    0.000    3.000    0.000   17.000 
#    0.000    0.000    0.000    4.500    0.000    0.000 
#    0.000    0.000    0.000    0.000    0.000    0.000 
#
# Total GULP energy -178889.953256 kJ/mol
# GULP energy per Si atom -5590.311039 kJ/mol
# Density = 2.107493 g / cm^3
# Si number density = 21.123004 Si / 1000 Ang^3
#
#
#
# Elastic Constant Matrix: (Units=GPa)
#
#
# Indices 1 2 3 4 5 6 
#
# 1 41.4421 3.5919 9.6992 0.0000 7.0646 0.0000
# 2 3.5919 57.5097 13.7258 0.0000 16.1946 0.0000
# 3 9.6992 13.7258 53.4158 0.0000 -0.3055 0.0000
# 4 0.0000 0.0000 0.0000 13.3524 0.0000 -4.3676
# 5 7.0646 16.1946 -0.3055 0.0000 38.5702 0.0000
# 6 0.0000 0.0000 0.0000 -4.3676 0.0000 19.8511
#
#
#
# Elastic Compliance Matrix: (Units=1/GPa)
#
#
# Indices 1 2 3 4 5 6 
#
# 1 0.026117 0.001056 -0.005044 0.000000 -0.005267 0.000000
# 2 0.001056 0.021267 -0.005709 0.000000 -0.009168 0.000000
# 3 -0.005044 -0.005709 0.021124 0.000000 0.003488 0.000000
# 4 0.000000 0.000000 0.000000 0.080700 0.000000 0.017755
# 5 -0.005267 -0.009168 0.003488 0.000000 0.030768 0.000000
# 6 0.000000 0.000000 0.000000 0.017755 0.000000 0.054281
#
#
# Mechanical properties :
#
#
# Convention : Reuss Voigt Hill
#
# Bulk Modulus (GPa) = 20.36097 22.93350 21.64723
# Shear Modulus (GPa) = 18.51699 22.71147 20.61423
#
# Velocity S-wave (km/s) = 2.96400 3.28258 3.12735
# Velocity P-wave (km/s) = 4.62319 5.02472 4.82813
#
# Compressibility (1/GPa) = 0.04911358
#
# Stress axis : x y z
#
# Youngs Moduli (GPa) = 38.28955 47.02207 47.34006
#
# Poissons Ratio (x) = -0.04964 0.23877
# Poissons Ratio (y) = -0.04042 0.27026
# Poissons Ratio (z) = 0.19312 0.26844
#
# Static dielectric constant tensor:
#      x y z
#    x 1.834180 0.000000 -0.001810 
#    y 0.000000 1.751650 0.000000 
#    z -0.001810 0.000000 1.743790 
# 
# From -- ./inp_files/3980.got.cif
#   From: 2010.05.17/outbox.cif.g08.bks.cpg/sg14_2_cif.got.tgz:3980.got - 2010.06.03 17:49:19.
