data_PCOD9244761
_publ_section_title
;
Structure prediction by ZEFSAII (Michael W. Deem and Ramdas Pophale) SiO2 
 PCOD9244761
Probable space group: P 21/C
;
_chemical_formula_sum "Si O2"
_cell_formula_units_Z 30
_cell_length_a 11.852679
_cell_length_b 14.283615
_cell_length_c 9.822829
_cell_angle_alpha 90.000000
_cell_angle_beta 56.466156
_cell_angle_gamma 90.000000
_cell_volume 1386.206489
_symmetry_space_group_name_H-M "P 21/C"
_symmetry_group_IT_number 14
_symmetry_cell_setting 'monoclinic'
loop_
_space_group_symop_operation_xyz
x,y,z
-x,1/2+y,1/2-z
-x,-y,-z
x,1/2-y,1/2+z
loop_
_atom_site_type_symbol
_atom_site_label
_atom_site_fract_x
_atom_site_fract_y
_atom_site_fract_z
Si Si1 0.858223 0.698168 0.520186
Si Si2 0.205994 0.678736 0.920305
Si Si3 0.808071 0.052184 0.824866
Si Si4 0.853185 0.120076 0.081818
Si Si5 0.692294 0.949224 0.305424
Si Si6 0.903706 0.647376 0.192184
Si Si7 0.598710 0.014028 0.632638
Si Si8 0.500000 0.000000 0.000000
O O1 0.761513 0.634140 0.676840
O O2 0.833494 0.688294 0.375795
O O3 0.854372 0.800354 0.589524
O O4 0.008858 0.657212 0.445132
O O5 0.184664 0.639031 0.782147
O O6 0.238098 0.788329 0.887925
O O7 0.317158 0.610894 0.910662
O O8 0.063732 0.668080 0.092334
O O9 0.875612 0.962338 0.710330
O O10 0.882629 0.073656 0.916038
O O11 0.651152 0.029439 0.960256
O O12 0.778754 0.042756 0.219788
O O13 0.544702 0.962820 0.339326
O O14 0.674114 0.943316 0.480153
O O15 0.572089 0.980909 0.803283
#
# Coordination Sequence:
#
# PCOD9244761 Si02
#       8
#     4   4   4   4   4   4   4   2
#     4  11  25  41  66  97 133 170 221 270 325 387
#     4  10  25  39  66  99 130 172 219 270 325 393
#     4  11  23  43  69  93 134 175 212 276 330 387
#     4  11  23  40  69  93 133 168 221 269 321 390
#     4  11  22  43  64  96 125 172 216 265 324 389
#     4  11  24  43  65  99 134 172 220 273 323 394
#     4  10  22  40  65  90 130 162 219 261 323 388
#     4  10  20  44  60  96 122 166 212 262 328 386
#
# _framework density 21.641795999999999
#
# number of rings (size 3 to 8) (size 9 to 14) (size 15 to 20)
#    0.000    1.333    2.667    1.600   11.200    2.133 
#    2.400    4.000    0.000    0.000    0.000    0.000 
#    0.000    0.000    0.000    0.000    0.000    0.000 
#
# Total GULP energy -167189.139476 kJ/mol
# GULP energy per Si atom -5572.971316 kJ/mol
# Density = 2.159254 g / cm^3
# Si number density = 21.641796 Si / 1000 Ang^3
#
#
#
# Elastic Constant Matrix: (Units=GPa)
#
#
# Indices 1 2 3 4 5 6 
#
# 1 25.5634 -7.0843 4.2814 0.0000 5.3949 0.0000
# 2 -7.0843 55.6734 14.0399 0.0000 -13.1405 0.0000
# 3 4.2814 14.0399 123.6650 0.0000 5.5399 0.0000
# 4 0.0000 0.0000 0.0000 -8.0163 0.0000 34.3682
# 5 5.3949 -13.1405 5.5399 0.0000 25.1375 0.0000
# 6 0.0000 0.0000 0.0000 34.3682 0.0000 -1.6189
#
#
#
# Elastic Compliance Matrix: (Units=1/GPa)
#
#
# Indices 1 2 3 4 5 6 
#
# 1 0.041922 0.004233 -0.001644 0.000000 -0.006422 0.000000
# 2 0.004233 0.021951 -0.003143 0.000000 0.011259 0.000000
# 3 -0.001644 -0.003143 0.008643 0.000000 -0.003195 0.000000
# 4 0.000000 0.000000 0.000000 0.001386 0.000000 0.029420
# 5 -0.006422 0.011259 -0.003195 0.000000 0.047749 0.000000
# 6 0.000000 0.000000 0.000000 0.029420 0.000000 0.006862
#
#
# Mechanical properties :
#
#
# Convention : Reuss Voigt Hill
#
# Bulk Modulus (GPa) = 14.00400 25.26400 19.63400
# Shear Modulus (GPa) = 32.58954 16.01146 24.30050
#
# Velocity S-wave (km/s) = 3.88475 2.72295 3.35453
# Velocity P-wave (km/s) = 5.15816 4.64597 4.90875
#
# Compressibility (1/GPa) = 0.07140816
#
# Stress axis : x y z
#
# Youngs Moduli (GPa) = 23.85372 45.55683 115.69717
#
# Poissons Ratio (x) = -0.19286 0.19025
# Poissons Ratio (y) = -0.10098 0.36364
# Poissons Ratio (z) = 0.03922 0.14319
#
# Static dielectric constant tensor:
#      x y z
#    x 1.796120 0.000000 0.016190 
#    y 0.000000 1.786000 0.000000 
#    z 0.016190 0.000000 1.797460 
# 
# From -- ./inp_files/13267.got.cif
#   From: 2010.05.17/outbox.cif.g08.bks.cpg/sg14_7_cif.got.tgz:13267.got - 2010.06.03 17:49:19.
