data_PCOD9244716
_publ_section_title
;
Structure prediction by ZEFSAII (Michael W. Deem and Ramdas Pophale) SiO2 
 PCOD9244716
Probable space group: P 21/C
;
_chemical_formula_sum "Si O2"
_cell_formula_units_Z 28
_cell_length_a 14.456428
_cell_length_b 7.590519
_cell_length_c 13.773517
_cell_angle_alpha 90.000000
_cell_angle_beta 50.020836
_cell_angle_gamma 90.000000
_cell_volume 1158.147193
_symmetry_space_group_name_H-M "P 21/C"
_symmetry_group_IT_number 14
_symmetry_cell_setting 'monoclinic'
loop_
_space_group_symop_operation_xyz
x,y,z
-x,1/2+y,1/2-z
-x,-y,-z
x,1/2-y,1/2+z
loop_
_atom_site_type_symbol
_atom_site_label
_atom_site_fract_x
_atom_site_fract_y
_atom_site_fract_z
Si Si1 0.895013 0.494662 0.426670
Si Si2 0.170467 0.708857 0.351082
Si Si3 0.355917 0.886873 0.872126
Si Si4 0.599509 0.740547 0.778679
Si Si5 0.226298 0.366901 0.183663
Si Si6 0.051521 0.030067 0.320013
Si Si7 0.190047 0.383995 0.985904
O O1 0.759617 0.437009 0.484832
O O2 0.971798 0.483054 0.277943
O O3 0.880183 0.696118 0.469490
O O4 0.915301 0.376066 0.507157
O O5 0.295189 0.732551 0.328350
O O6 0.189359 0.544354 0.264956
O O7 0.126231 0.874696 0.320500
O O8 0.465878 0.812304 0.857687
O O9 0.394224 0.063655 0.790374
O O10 0.648872 0.696706 0.851617
O O11 0.700551 0.866564 0.661867
O O12 0.240581 0.401369 0.060264
O O13 0.129463 0.208605 0.266583
O O14 0.916931 0.024303 0.456022
#
# Coordination Sequence:
#
# PCOD9244716 Si02
#       7
#     4   4   4   4   4   4   4
#     4   8  20  44  58  94 132 158 210 270 320 358
#     4   9  21  44  64  93 129 168 212 265 327 372
#     4   8  19  40  65  85 127 169 204 271 321 368
#     4  10  20  43  61  90 132 160 215 267 320 367
#     4  10  23  42  61  97 128 166 216 259 322 381
#     4  11  23  39  68  96 125 173 219 246 328 402
#     4  10  22  40  61  93 133 166 205 273 315 375
#
# _framework density 24.176545999999998
#
# number of rings (size 3 to 8) (size 9 to 14) (size 15 to 20)
#    0.857    1.714    1.429    0.000    6.000    2.286 
#    7.714    3.571    0.000    0.000    0.000    0.000 
#    0.000    0.000    0.000    0.000    0.000    0.000 
#
# Total GULP energy -156595.305600 kJ/mol
# GULP energy per Si atom -5592.689486 kJ/mol
# Density = 2.412152 g / cm^3
# Si number density = 24.176546 Si / 1000 Ang^3
#
#
#
# Elastic Constant Matrix: (Units=GPa)
#
#
# Indices 1 2 3 4 5 6 
#
# 1 138.6991 29.9564 6.6326 0.0000 -11.8790 0.0000
# 2 29.9564 97.9992 -8.5044 0.0000 0.6260 0.0000
# 3 6.6326 -8.5044 28.5997 0.0000 -8.1974 0.0000
# 4 0.0000 0.0000 0.0000 19.9800 0.0000 0.3183
# 5 -11.8790 0.6260 -8.1974 0.0000 47.2898 0.0000
# 6 0.0000 0.0000 0.0000 0.3183 0.0000 26.2382
#
#
#
# Elastic Compliance Matrix: (Units=1/GPa)
#
#
# Indices 1 2 3 4 5 6 
#
# 1 0.008030 -0.002654 -0.002171 0.000000 0.001676 0.000000
# 2 -0.002654 0.011360 0.003956 0.000000 -0.000131 0.000000
# 3 -0.002171 0.003956 0.038381 0.000000 0.006055 0.000000
# 4 0.000000 0.000000 0.000000 0.050060 0.000000 -0.000607
# 5 0.001676 -0.000131 0.006055 0.000000 0.022619 0.000000
# 6 0.000000 0.000000 0.000000 -0.000607 0.000000 0.038120
#
#
# Mechanical properties :
#
#
# Convention : Reuss Voigt Hill
#
# Bulk Modulus (GPa) = 17.84689 35.71856 26.78273
# Shear Modulus (GPa) = 26.45717 34.51582 30.48650
#
# Velocity S-wave (km/s) = 3.31166 3.78253 3.55490
# Velocity P-wave (km/s) = 4.69262 5.82090 5.28695
#
# Compressibility (1/GPa) = 0.05603216
#
# Stress axis : x y z
#
# Youngs Moduli (GPa) = 124.52677 88.03192 26.05470
#
# Poissons Ratio (x) = 0.23362 0.05657
# Poissons Ratio (y) = 0.33048 -0.10306
# Poissons Ratio (z) = 0.27036 -0.34823
#
# Static dielectric constant tensor:
#      x y z
#    x 1.927810 0.000000 -0.022240 
#    y 0.000000 1.976790 0.000000 
#    z -0.022240 0.000000 1.903200 
# 
# From -- ./inp_files/59044.got.cif
#   From: 2010.05.17/outbox.cif.g08.bks.cpg/sg14_30_cif.got.tgz:59044.got - 2010.06.03 17:49:19.
