data_PCOD9244499
_publ_section_title
;
Structure prediction by ZEFSAII (Michael W. Deem and Ramdas Pophale) SiO2 
 PCOD9244499
Probable space group: P 21/C
;
_chemical_formula_sum "Si O2"
_cell_formula_units_Z 28
_cell_length_a 9.113287
_cell_length_b 21.568079
_cell_length_c 8.942503
_cell_angle_alpha 90.000000
_cell_angle_beta 128.637791
_cell_angle_gamma 90.000000
_cell_volume 1372.957650
_symmetry_space_group_name_H-M "P 21/C"
_symmetry_group_IT_number 14
_symmetry_cell_setting 'monoclinic'
loop_
_space_group_symop_operation_xyz
x,y,z
-x,1/2+y,1/2-z
-x,-y,-z
x,1/2-y,1/2+z
loop_
_atom_site_type_symbol
_atom_site_label
_atom_site_fract_x
_atom_site_fract_y
_atom_site_fract_z
Si Si1 0.629044 0.944632 0.129749
Si Si2 0.831253 0.943385 0.566409
Si Si3 0.054503 0.827314 0.586803
Si Si4 0.495301 0.666583 0.381104
Si Si5 0.850816 0.742257 0.702751
Si Si6 0.983593 0.954898 0.135078
Si Si7 0.225811 0.134749 0.179150
O O1 0.694425 0.949046 0.340604
O O2 0.801800 0.951640 0.125470
O O3 0.520523 0.880533 0.034498
O O4 0.500000 0.000000 0.000000
O O5 0.755511 0.905880 0.660458
O O6 0.997356 0.896852 0.608766
O O7 0.876524 0.011828 0.659379
O O8 0.278373 0.818544 0.720221
O O9 0.973348 0.777673 0.655309
O O10 0.956377 0.811843 0.364224
O O11 0.650360 0.719500 0.511588
O O12 0.583941 0.631636 0.294768
O O13 0.807714 0.795638 0.793967
O O14 0.954447 0.889066 0.032100
O O15 0.000000 0.000000 0.000000
#
# Coordination Sequence:
#
# PCOD9244499 Si02
#       7
#     4   4   4   4   4   4   4
#     4  11  22  39  62  95 133 169 215 277 320 391
#     4  10  20  41  66  93 129 177 218 271 334 394
#     4  11  24  39  66  94 126 175 217 265 347 388
#     4  11  23  41  63  93 132 166 218 271 329 400
#     4  11  22  42  61  92 130 165 219 275 321 398
#     4   9  19  38  64  90 126 171 216 265 328 385
#     4   9  21  40  64  90 133 168 212 280 320 390
#
# _framework density 20.393930000000001
#
# number of rings (size 3 to 8) (size 9 to 14) (size 15 to 20)
#    0.000    1.714    2.857    1.286    2.000    0.000 
#    0.000    7.857    0.000    0.000    0.000    0.000 
#    0.000    0.000    0.000    0.000    0.000    0.000 
#
# Total GULP energy -155894.665312 kJ/mol
# GULP energy per Si atom -5567.666618 kJ/mol
# Density = 2.034751 g / cm^3
# Si number density = 20.393930 Si / 1000 Ang^3
#
#
#
# Elastic Constant Matrix: (Units=GPa)
#
#
# Indices 1 2 3 4 5 6 
#
# 1 59.2037 24.4125 62.2651 0.0000 -2.0270 0.0000
# 2 24.4125 62.4496 42.3467 0.0000 5.4967 0.0000
# 3 62.2651 42.3467 126.3158 0.0000 0.6296 0.0000
# 4 0.0000 0.0000 0.0000 27.8189 0.0000 -3.3496
# 5 -2.0270 5.4967 0.6296 0.0000 32.0887 0.0000
# 6 0.0000 0.0000 0.0000 -3.3496 0.0000 22.3227
#
#
#
# Elastic Compliance Matrix: (Units=1/GPa)
#
#
# Indices 1 2 3 4 5 6 
#
# 1 0.035694 -0.002956 -0.016619 0.000000 0.003087 0.000000
# 2 -0.002956 0.021350 -0.005682 0.000000 -0.003732 0.000000
# 3 -0.016619 -0.005682 0.018016 0.000000 -0.000430 0.000000
# 4 0.000000 0.000000 0.000000 0.036608 0.000000 0.005493
# 5 0.003087 -0.003732 -0.000430 0.000000 0.032006 0.000000
# 6 0.000000 0.000000 0.000000 0.005493 0.000000 0.045622
#
#
# Mechanical properties :
#
#
# Convention : Reuss Voigt Hill
#
# Bulk Modulus (GPa) = 40.73990 56.22420 48.48205
# Shear Modulus (GPa) = 20.16206 24.37571 22.26889
#
# Velocity S-wave (km/s) = 3.14766 3.46098 3.30803
# Velocity P-wave (km/s) = 5.76456 6.60304 6.19800
#
# Compressibility (1/GPa) = 0.02454596
#
# Stress axis : x y z
#
# Youngs Moduli (GPa) = 28.01611 46.83923 55.50704
#
# Poissons Ratio (x) = 0.13844 0.92248
# Poissons Ratio (y) = 0.08280 0.31538
# Poissons Ratio (z) = 0.46560 0.26613
#
# Static dielectric constant tensor:
#      x y z
#    x 1.691090 0.000000 -0.018240 
#    y 0.000000 1.766550 0.000000 
#    z -0.018240 0.000000 1.627810 
# 
# From -- ./inp_files/10433.got.cif
#   From: 2010.05.17/outbox.cif.g08.bks.cpg/sg14_6_cif.got.tgz:10433.got - 2010.06.03 17:49:19.
