data_PCOD9245058
_publ_section_title
;
Structure prediction by ZEFSAII (Michael W. Deem and Ramdas Pophale) SiO2 
 PCOD9245058
Probable space group: P 21/C
;
_chemical_formula_sum "Si O2"
_cell_formula_units_Z 28
_cell_length_a 13.847520
_cell_length_b 12.432449
_cell_length_c 8.267327
_cell_angle_alpha 90.000000
_cell_angle_beta 52.459381
_cell_angle_gamma 90.000000
_cell_volume 1128.558392
_symmetry_space_group_name_H-M "P 21/C"
_symmetry_group_IT_number 14
_symmetry_cell_setting 'monoclinic'
loop_
_space_group_symop_operation_xyz
x,y,z
-x,1/2+y,1/2-z
-x,-y,-z
x,1/2-y,1/2+z
loop_
_atom_site_type_symbol
_atom_site_label
_atom_site_fract_x
_atom_site_fract_y
_atom_site_fract_z
Si Si1 0.376880 0.853462 0.116593
Si Si2 0.881690 0.093306 0.036893
Si Si3 0.294959 0.099754 0.708420
Si Si4 0.176967 0.314474 0.754714
Si Si5 0.409853 0.070930 0.886909
Si Si6 0.777685 0.210229 0.440178
Si Si7 0.881029 0.881588 0.366521
O O1 0.267262 0.861234 0.361638
O O2 0.405498 0.950816 0.963548
O O3 0.494142 0.856978 0.113192
O O4 0.337294 0.750039 0.052353
O O5 0.832334 0.180508 0.957802
O O6 0.014052 0.058886 0.838066
O O7 0.868563 0.152241 0.223642
O O8 0.791614 0.993232 0.134813
O O9 0.249467 0.221639 0.781606
O O10 0.417708 0.081516 0.684000
O O11 0.278692 0.381269 0.563571
O O12 0.097831 0.241463 0.717659
O O13 0.107127 0.385422 0.955492
O O14 0.743172 0.908568 0.443929
#
# Coordination Sequence:
#
# PCOD9245058 Si02
#       7
#     4   4   4   4   4   4   4
#     4  10  24  41  62  86 117 158 199 241 305 340
#     4  11  21  41  60  83 126 153 198 243 292 350
#     4  10  21  39  59  89 116 155 192 252 285 357
#     4  10  21  37  60  89 119 149 200 236 303 346
#     4  11  22  43  61  86 123 152 193 258 293 350
#     4  10  23  40  61  85 114 161 201 237 288 362
#     4  10  21  36  58  91 116 158 189 240 297 349
#
# _framework density 24.810414000000002
#
# number of rings (size 3 to 8) (size 9 to 14) (size 15 to 20)
#    0.857    0.857    2.857    1.286    4.000    0.000 
#    0.000    1.429    0.000    0.000    0.000    0.000 
#    0.000    0.000    0.000    0.000    0.000    0.000 
#
# Total GULP energy -156065.214992 kJ/mol
# GULP energy per Si atom -5573.757678 kJ/mol
# Density = 2.475394 g / cm^3
# Si number density = 24.810414 Si / 1000 Ang^3
#
#
#
# Elastic Constant Matrix: (Units=GPa)
#
#
# Indices 1 2 3 4 5 6 
#
# 1 72.1527 7.6376 -5.2445 0.0000 14.4843 0.0000
# 2 7.6376 67.4561 19.0813 0.0000 5.3515 0.0000
# 3 -5.2445 19.0813 72.8823 0.0000 13.3565 0.0000
# 4 0.0000 0.0000 0.0000 31.1998 0.0000 4.3326
# 5 14.4843 5.3515 13.3565 0.0000 19.4080 0.0000
# 6 0.0000 0.0000 0.0000 4.3326 0.0000 38.1659
#
#
#
# Elastic Compliance Matrix: (Units=1/GPa)
#
#
# Indices 1 2 3 4 5 6 
#
# 1 0.017591 -0.002069 0.004702 0.000000 -0.015793 0.000000
# 2 -0.002069 0.016306 -0.004436 0.000000 0.000101 0.000000
# 3 0.004702 -0.004436 0.017897 0.000000 -0.014602 0.000000
# 4 0.000000 0.000000 0.000000 0.032565 0.000000 -0.003697
# 5 -0.015793 0.000101 -0.014602 0.000000 0.073333 0.000000
# 6 0.000000 0.000000 0.000000 -0.003697 0.000000 0.026621
#
#
# Mechanical properties :
#
#
# Convention : Reuss Voigt Hill
#
# Bulk Modulus (GPa) = 20.75286 28.38220 24.56753
# Shear Modulus (GPa) = 24.51215 30.48918 27.50066
#
# Velocity S-wave (km/s) = 3.14662 3.50935 3.33292
# Velocity P-wave (km/s) = 4.64590 5.28064 4.97341
#
# Compressibility (1/GPa) = 0.04818614
#
# Stress axis : x y z
#
# Youngs Moduli (GPa) = 56.84837 61.32871 55.87673
#
# Poissons Ratio (x) = 0.12687 -0.26272
# Poissons Ratio (y) = 0.11760 0.24789
# Poissons Ratio (z) = -0.26728 0.27207
#
# Static dielectric constant tensor:
#      x y z
#    x 2.074490 0.000000 0.042510 
#    y 0.000000 1.989230 0.000000 
#    z 0.042510 0.000000 2.015370 
# 
# From -- ./inp_files/15695.got.cif
#   From: 2010.05.17/outbox.cif.g08.bks.cpg/sg14_8_cif.got.tgz:15695.got - 2010.06.03 17:49:19.
