data_PCOD9245017
_publ_section_title
;
Structure prediction by ZEFSAII (Michael W. Deem and Ramdas Pophale) SiO2 
 PCOD9245017
Probable space group: P 21/C
;
_chemical_formula_sum "Si O2"
_cell_formula_units_Z 20
_cell_length_a 13.866592
_cell_length_b 4.908030
_cell_length_c 21.225561
_cell_angle_alpha 90.000000
_cell_angle_beta 141.885978
_cell_angle_gamma 90.000000
_cell_volume 891.624626
_symmetry_space_group_name_H-M "P 21/C"
_symmetry_group_IT_number 14
_symmetry_cell_setting 'monoclinic'
loop_
_space_group_symop_operation_xyz
x,y,z
-x,1/2+y,1/2-z
-x,-y,-z
x,1/2-y,1/2+z
loop_
_atom_site_type_symbol
_atom_site_label
_atom_site_fract_x
_atom_site_fract_y
_atom_site_fract_z
Si Si1 0.817975 0.255657 0.118435
Si Si2 0.894987 0.816417 0.810212
Si Si3 0.306316 0.265248 0.516684
Si Si4 0.609800 0.095538 0.614471
Si Si5 0.023229 0.176216 0.449157
O O1 0.738043 0.215286 0.144975
O O2 0.992369 0.151620 0.193450
O O3 0.783263 0.565071 0.078960
O O4 0.720385 0.072781 0.018906
O O5 0.938027 0.519729 0.855698
O O6 0.717567 0.868946 0.701445
O O7 0.949384 0.029472 0.893324
O O8 0.489230 0.208846 0.603664
O O9 0.208088 0.208907 0.529233
O O10 0.500000 0.000000 0.500000
O O11 0.000000 0.000000 0.500000
#
# Coordination Sequence:
#
# PCOD9245017 Si02
#       5
#     4   4   4   4   4
#     4   9  19  34  53  78 112 148 180 221 277 341
#     4  10  22  36  58  87 111 147 197 229 280 357
#     4   9  19  35  55  81 109 144 188 228 277 337
#     4  10  21  36  56  85 122 150 177 229 287 344
#     4  10  21  41  61  79 109 151 197 247 284 323
#
# _framework density 22.430962999999998
#
# number of rings (size 3 to 8) (size 9 to 14) (size 15 to 20)
#    0.000    2.400    0.000    1.200    0.000   14.400 
#    0.000    2.000    0.000    0.000    0.000    0.000 
#    0.000    0.000    0.000    0.000    0.000    0.000 
#
# Total GULP energy -111485.308256 kJ/mol
# GULP energy per Si atom -5574.265413 kJ/mol
# Density = 2.237991 g / cm^3
# Si number density = 22.430963 Si / 1000 Ang^3
#
#
#
# Elastic Constant Matrix: (Units=GPa)
#
#
# Indices 1 2 3 4 5 6 
#
# 1 89.6224 -11.4842 13.1692 0.0000 1.0376 0.0000
# 2 -11.4842 56.7036 -7.8435 0.0000 -10.9682 0.0000
# 3 13.1692 -7.8435 74.1130 0.0000 16.6177 0.0000
# 4 0.0000 0.0000 0.0000 17.9537 0.0000 -4.8889
# 5 1.0376 -10.9682 16.6177 0.0000 23.4348 0.0000
# 6 0.0000 0.0000 0.0000 -4.8889 0.0000 32.1034
#
#
#
# Elastic Compliance Matrix: (Units=1/GPa)
#
#
# Indices 1 2 3 4 5 6 
#
# 1 0.011799 0.002513 -0.002351 0.000000 0.002321 0.000000
# 2 0.002513 0.019926 -0.000480 0.000000 0.009556 0.000000
# 3 -0.002351 -0.000480 0.016512 0.000000 -0.011830 0.000000
# 4 0.000000 0.000000 0.000000 0.058108 0.000000 0.008849
# 5 0.002321 0.009556 -0.011830 0.000000 0.055430 0.000000
# 6 0.000000 0.000000 0.000000 0.008849 0.000000 0.032497
#
#
# Mechanical properties :
#
#
# Convention : Reuss Voigt Hill
#
# Bulk Modulus (GPa) = 21.00773 23.12467 22.06620
# Shear Modulus (GPa) = 23.72196 29.80488 26.76342
#
# Velocity S-wave (km/s) = 3.25553 3.64914 3.45794
# Velocity P-wave (km/s) = 4.84945 5.29968 5.07956
#
# Compressibility (1/GPa) = 0.04760153
#
# Stress axis : x y z
#
# Youngs Moduli (GPa) = 84.75605 50.18445 60.56106
#
# Poissons Ratio (x) = -0.12613 0.14237
# Poissons Ratio (y) = -0.21302 0.02909
# Poissons Ratio (z) = 0.19926 0.02410
#
# Static dielectric constant tensor:
#      x y z
#    x 1.945580 0.000000 0.016530 
#    y 0.000000 1.851240 0.000000 
#    z 0.016530 0.000000 1.816020 
# 
# From -- ./inp_files/58236.got.cif
#   From: 2010.05.17/outbox.cif.g08.bks.cpg/sg14_30_cif.got.tgz:58236.got - 2010.06.03 17:49:19.
