data_PCOD9245966
_publ_section_title
;
Structure prediction by ZEFSAII (Michael W. Deem and Ramdas Pophale) SiO2 
 PCOD9245966
Probable space group: P 21/C
;
_chemical_formula_sum "Si O2"
_cell_formula_units_Z 28
_cell_length_a 18.878467
_cell_length_b 4.979867
_cell_length_c 14.708843
_cell_angle_alpha 90.000000
_cell_angle_beta 59.641628
_cell_angle_gamma 90.000000
_cell_volume 1193.201902
_symmetry_space_group_name_H-M "P 21/C"
_symmetry_group_IT_number 14
_symmetry_cell_setting 'monoclinic'
loop_
_space_group_symop_operation_xyz
x,y,z
-x,1/2+y,1/2-z
-x,-y,-z
x,1/2-y,1/2+z
loop_
_atom_site_type_symbol
_atom_site_label
_atom_site_fract_x
_atom_site_fract_y
_atom_site_fract_z
Si Si1 0.076065 0.301892 0.431693
Si Si2 0.216176 0.910512 0.586981
Si Si3 0.376091 0.355466 0.010840
Si Si4 0.837682 0.311894 0.066669
Si Si5 0.946331 0.777859 0.259037
Si Si6 0.289327 0.564478 0.704357
Si Si7 0.540517 0.282115 0.405366
O O1 0.146337 0.526573 0.397096
O O2 0.069288 0.195916 0.334232
O O3 0.000000 0.500000 0.500000
O O4 0.089808 0.037113 0.483554
O O5 0.185940 0.741061 0.520914
O O6 0.142670 0.121234 0.650119
O O7 0.241193 0.761323 0.664283
O O8 0.303416 0.028668 0.498446
O O9 0.325063 0.154951 0.110015
O O10 0.418948 0.561266 0.053600
O O11 0.458151 0.276939 0.902379
O O12 0.773115 0.468857 0.172608
O O13 0.008841 0.031247 0.220846
O O14 0.375985 0.637113 0.697518
O O15 0.500000 0.500000 0.500000
#
# Coordination Sequence:
#
# PCOD9245966 Si02
#       7
#     4   4   4   4   4   4   4
#     4  12  25  46  65  95 134 170 226 283 341 401
#     4  11  24  40  64  94 130 178 223 273 337 400
#     4   9  18  35  66  92 127 172 218 269 334 400
#     4  12  26  42  67  98 134 178 224 279 337 402
#     4  12  25  42  67  96 129 172 224 276 336 401
#     4  10  21  39  66  95 132 173 228 277 334 403
#     4   8  16  34  62  96 124 169 217 268 332 393
#
# _framework density 23.466269
#
# number of rings (size 3 to 8) (size 9 to 14) (size 15 to 20)
#    0.000    1.429    1.429    3.857    6.000    0.000 
#    0.000    0.000   18.857    0.000    0.000    0.000 
#    0.000    0.000    0.000    0.000    0.000    0.000 
#
# Total GULP energy -155872.486056 kJ/mol
# GULP energy per Si atom -5566.874502 kJ/mol
# Density = 2.341286 g / cm^3
# Si number density = 23.466269 Si / 1000 Ang^3
#
#
#
# Elastic Constant Matrix: (Units=GPa)
#
#
# Indices 1 2 3 4 5 6 
#
# 1 129.2946 33.1595 43.4561 0.0000 -25.5028 0.0000
# 2 33.1595 88.8779 -0.9322 0.0000 -14.7528 0.0000
# 3 43.4561 -0.9322 63.5908 0.0000 -7.9884 0.0000
# 4 0.0000 0.0000 0.0000 20.0521 0.0000 -11.1655
# 5 -25.5028 -14.7528 -7.9884 0.0000 31.9955 0.0000
# 6 0.0000 0.0000 0.0000 -11.1655 0.0000 32.7401
#
#
#
# Elastic Compliance Matrix: (Units=1/GPa)
#
#
# Indices 1 2 3 4 5 6 
#
# 1 0.012582 -0.003722 -0.007855 0.000000 0.006351 0.000000
# 2 -0.003722 0.013337 0.003241 0.000000 0.003992 0.000000
# 3 -0.007855 0.003241 0.021207 0.000000 0.000528 0.000000
# 4 0.000000 0.000000 0.000000 0.061560 0.000000 0.020994
# 5 0.006351 0.003992 0.000528 0.000000 0.038289 0.000000
# 6 0.000000 0.000000 0.000000 0.020994 0.000000 0.037703
#
#
# Mechanical properties :
#
#
# Convention : Reuss Voigt Hill
#
# Bulk Modulus (GPa) = 32.83770 48.12558 40.48164
# Shear Modulus (GPa) = 23.64053 30.69622 27.16837
#
# Velocity S-wave (km/s) = 3.17744 3.62069 3.40628
# Velocity P-wave (km/s) = 5.24266 6.16702 5.72353
#
# Compressibility (1/GPa) = 0.03045280
#
# Stress axis : x y z
#
# Youngs Moduli (GPa) = 79.48141 74.98124 47.15416
#
# Poissons Ratio (x) = 0.27910 0.37038
# Poissons Ratio (y) = 0.29585 -0.15281
# Poissons Ratio (z) = 0.62430 -0.24298
#
# Static dielectric constant tensor:
#      x y z
#    x 2.087850 0.000000 -0.117410 
#    y 0.000000 2.126910 0.000000 
#    z -0.117410 0.000000 1.908390 
# 
# From -- ./inp_files/48083.got.cif
#   From: 2010.05.17/outbox.cif.g08.bks.cpg/sg14_25_cif.got.tgz:48083.got - 2010.06.03 17:49:19.
