data_PCOD9245152
_publ_section_title
;
Structure prediction by ZEFSAII (Michael W. Deem and Ramdas Pophale) SiO2 
 PCOD9245152
Probable space group: P 21/C
;
_chemical_formula_sum "Si O2"
_cell_formula_units_Z 28
_cell_length_a 15.141331
_cell_length_b 8.128210
_cell_length_c 19.265239
_cell_angle_alpha 90.000000
_cell_angle_beta 32.759169
_cell_angle_gamma 90.000000
_cell_volume 1282.974935
_symmetry_space_group_name_H-M "P 21/C"
_symmetry_group_IT_number 14
_symmetry_cell_setting 'monoclinic'
loop_
_space_group_symop_operation_xyz
x,y,z
-x,1/2+y,1/2-z
-x,-y,-z
x,1/2-y,1/2+z
loop_
_atom_site_type_symbol
_atom_site_label
_atom_site_fract_x
_atom_site_fract_y
_atom_site_fract_z
Si Si1 0.714038 0.006035 0.296610
Si Si2 0.977786 0.644248 0.460024
Si Si3 0.950266 0.504349 0.848910
Si Si4 0.837150 0.854444 0.670123
Si Si5 0.508177 0.475383 0.577174
Si Si6 0.379317 0.601643 0.985590
Si Si7 0.176000 0.375221 0.576698
O O1 0.788315 0.821875 0.238530
O O2 0.547797 0.997445 0.361496
O O3 0.673786 0.037586 0.403335
O O4 0.841679 0.147980 0.192198
O O5 0.912567 0.799532 0.546428
O O6 0.856393 0.575099 0.481276
O O7 0.000000 0.500000 0.500000
O O8 0.776035 0.415736 0.960159
O O9 0.897094 0.692629 0.878237
O O10 0.044512 0.446383 0.854837
O O11 0.066299 0.467328 0.706357
O O12 0.673329 0.962865 0.771945
O O13 0.500000 0.500000 0.500000
O O14 0.579425 0.292997 0.539848
O O15 0.636734 0.602844 0.524792
#
# Coordination Sequence:
#
# PCOD9245152 Si02
#       7
#     4   4   4   4   4   4   4
#     4   9  19  38  66 101 138 181 230 290 368 421
#     4  10  23  43  71  98 143 188 232 291 374 436
#     4  12  24  41  72 106 138 178 252 300 358 433
#     4  10  23  44  69 100 145 187 234 300 361 439
#     4  11  24  41  68 102 142 183 234 302 357 418
#     4  10  21  36  68 102 136 176 237 297 347 422
#     4  12  26  42  70 107 139 188 240 303 364 430
#
# _framework density 21.824276999999999
#
# number of rings (size 3 to 8) (size 9 to 14) (size 15 to 20)
#    0.000    1.429    2.857    1.714   10.000    0.571 
#    0.000    4.286    3.143    0.000    0.000    0.000 
#    0.000    0.000    0.000    0.000    0.000    0.000 
#
# Total GULP energy -156405.011404 kJ/mol
# GULP energy per Si atom -5585.893264 kJ/mol
# Density = 2.177460 g / cm^3
# Si number density = 21.824277 Si / 1000 Ang^3
#
#
#
# Elastic Constant Matrix: (Units=GPa)
#
#
# Indices 1 2 3 4 5 6 
#
# 1 142.5783 29.3444 71.3486 0.0000 -29.5946 0.0000
# 2 29.3444 59.0358 45.3925 0.0000 -17.6932 0.0000
# 3 71.3486 45.3925 129.5527 0.0000 -32.3794 0.0000
# 4 0.0000 0.0000 0.0000 39.0858 0.0000 -1.9437
# 5 -29.5946 -17.6932 -32.3794 0.0000 42.8148 0.0000
# 6 0.0000 0.0000 0.0000 -1.9437 0.0000 34.8170
#
#
#
# Elastic Compliance Matrix: (Units=1/GPa)
#
#
# Indices 1 2 3 4 5 6 
#
# 1 0.010082 -0.000527 -0.004538 0.000000 0.003319 0.000000
# 2 -0.000527 0.023854 -0.007022 0.000000 0.004182 0.000000
# 3 -0.004538 -0.007022 0.013773 0.000000 0.004377 0.000000
# 4 0.000000 0.000000 0.000000 0.025656 0.000000 0.001432
# 5 0.003319 0.004182 0.004377 0.000000 0.030689 0.000000
# 6 0.000000 0.000000 0.000000 0.001432 0.000000 0.028802
#
#
# Mechanical properties :
#
#
# Convention : Reuss Voigt Hill
#
# Bulk Modulus (GPa) = 42.49330 69.25976 55.87653
# Shear Modulus (GPa) = 30.32603 35.68227 33.00415
#
# Velocity S-wave (km/s) = 3.73172 4.04788 3.89301
# Velocity P-wave (km/s) = 6.17094 7.32469 6.77243
#
# Compressibility (1/GPa) = 0.02353312
#
# Stress axis : x y z
#
# Youngs Moduli (GPa) = 99.18508 41.92208 72.60812
#
# Poissons Ratio (x) = 0.02210 0.32952
# Poissons Ratio (y) = 0.05230 0.50986
# Poissons Ratio (z) = 0.45013 0.29438
#
# Static dielectric constant tensor:
#      x y z
#    x 1.827380 0.000000 0.003580 
#    y 0.000000 1.821820 0.000000 
#    z 0.003580 0.000000 1.873940 
# 
# From -- ./inp_files/68317.got.cif
#   From: 2010.05.17/outbox.cif.g08.bks.cpg/sg14_35_cif.got.tgz:68317.got - 2010.06.03 17:49:19.
