data_PCOD9245760
_publ_section_title
;
Structure prediction by ZEFSAII (Michael W. Deem and Ramdas Pophale) SiO2 
 PCOD9245760
Probable space group: P 21/C
;
_chemical_formula_sum "Si O2"
_cell_formula_units_Z 26
_cell_length_a 15.073704
_cell_length_b 5.284943
_cell_length_c 13.285004
_cell_angle_alpha 90.000000
_cell_angle_beta 82.630535
_cell_angle_gamma 90.000000
_cell_volume 1049.589946
_symmetry_space_group_name_H-M "P 21/C"
_symmetry_group_IT_number 14
_symmetry_cell_setting 'monoclinic'
loop_
_space_group_symop_operation_xyz
x,y,z
-x,1/2+y,1/2-z
-x,-y,-z
x,1/2-y,1/2+z
loop_
_atom_site_type_symbol
_atom_site_label
_atom_site_fract_x
_atom_site_fract_y
_atom_site_fract_z
Si Si1 0.794291 0.123779 0.946289
Si Si2 0.296764 0.378883 0.047186
Si Si3 0.071098 0.443429 0.838340
Si Si4 0.453577 0.751791 0.297606
Si Si5 0.739315 0.114210 0.650363
Si Si6 0.993221 0.553676 0.374495
Si Si7 0.500000 0.500000 0.000000
O O1 0.769366 0.399356 0.904411
O O2 0.895587 0.041248 0.918490
O O3 0.732538 0.897506 0.915542
O O4 0.770348 0.171122 0.066902
O O5 0.398593 0.441752 0.055362
O O6 0.286940 0.394098 0.926322
O O7 0.173216 0.523725 0.803813
O O8 0.062308 0.169555 0.888686
O O9 0.015084 0.413922 0.744519
O O10 0.026321 0.673402 0.905290
O O11 0.510354 0.972371 0.233064
O O12 0.459186 0.813167 0.415596
O O13 0.350041 0.794308 0.282425
#
# Coordination Sequence:
#
# PCOD9245760 Si02
#       7
#     4   4   4   4   4   4   2
#     4  10  21  39  61  89 124 158 216 259 317 406
#     4   9  22  37  61  90 119 169 205 269 330 384
#     4  10  22  38  59  83 127 160 206 271 312 392
#     4  11  27  45  70 105 134 181 232 278 352 412
#     4   9  24  40  62  90 130 161 214 277 321 399
#     4  10  22  38  57  90 117 167 212 252 332 388
#     4  10  24  46  72  94 146 172 230 290 334 406
#
# _framework density 24.771577000000001
#
# number of rings (size 3 to 8) (size 9 to 14) (size 15 to 20)
#    0.923    1.231    0.000    0.923    6.462    6.154 
#    0.000    0.000    0.000    0.000    0.000    0.000 
#    0.000    0.000    0.000    0.000    0.000    0.000 
#
# Total GULP energy -144739.860923 kJ/mol
# GULP energy per Si atom -5566.917728 kJ/mol
# Density = 2.471520 g / cm^3
# Si number density = 24.771577 Si / 1000 Ang^3
#
#
#
# Elastic Constant Matrix: (Units=GPa)
#
#
# Indices 1 2 3 4 5 6 
#
# 1 110.8262 27.3508 -14.4823 0.0000 -16.7042 0.0000
# 2 27.3508 113.1986 12.7294 0.0000 -1.7579 0.0000
# 3 -14.4823 12.7294 38.4142 0.0000 -1.7126 0.0000
# 4 0.0000 0.0000 0.0000 13.6978 0.0000 -7.2288
# 5 -16.7042 -1.7579 -1.7126 0.0000 28.3151 0.0000
# 6 0.0000 0.0000 0.0000 -7.2288 0.0000 14.1750
#
#
#
# Elastic Compliance Matrix: (Units=1/GPa)
#
#
# Indices 1 2 3 4 5 6 
#
# 1 0.011676 -0.003368 0.005831 0.000000 0.007032 0.000000
# 2 -0.003368 0.010152 -0.004707 0.000000 -0.001641 0.000000
# 3 0.005831 -0.004707 0.030011 0.000000 0.004963 0.000000
# 4 0.000000 0.000000 0.000000 0.099887 0.000000 0.050939
# 5 0.007032 -0.001641 0.004963 0.000000 0.039663 0.000000
# 6 0.000000 0.000000 0.000000 0.050939 0.000000 0.096524
#
#
# Mechanical properties :
#
#
# Convention : Reuss Voigt Hill
#
# Bulk Modulus (GPa) = 21.11795 34.84829 27.98312
# Shear Modulus (GPa) = 16.22407 27.02701 21.62554
#
# Velocity S-wave (km/s) = 2.56197 3.30669 2.95786
# Velocity P-wave (km/s) = 4.15875 5.35512 4.79440
#
# Compressibility (1/GPa) = 0.04735309
#
# Stress axis : x y z
#
# Youngs Moduli (GPa) = 85.64472 98.50741 33.32058
#
# Poissons Ratio (x) = 0.33174 -0.19431
# Poissons Ratio (y) = 0.28843 0.15683
# Poissons Ratio (z) = -0.49943 0.46365
#
# Static dielectric constant tensor:
#      x y z
#    x 1.912840 0.000000 0.028110 
#    y 0.000000 1.962580 0.000000 
#    z 0.028110 0.000000 2.030090 
# 
# From -- ./inp_files/45856.got.cif
#   From: 2010.05.17/outbox.cif.g08.bks.cpg/sg14_23_cif.got.tgz:45856.got - 2010.06.03 17:49:19.
