data_PCOD9245787
_publ_section_title
;
Structure prediction by ZEFSAII (Michael W. Deem and Ramdas Pophale) SiO2 
 PCOD9245787
Probable space group: P 21/C
;
_chemical_formula_sum "Si O2"
_cell_formula_units_Z 30
_cell_length_a 11.297452
_cell_length_b 16.822059
_cell_length_c 10.133350
_cell_angle_alpha 90.000000
_cell_angle_beta 140.397806
_cell_angle_gamma 90.000000
_cell_volume 1227.612228
_symmetry_space_group_name_H-M "P 21/C"
_symmetry_group_IT_number 14
_symmetry_cell_setting 'monoclinic'
loop_
_space_group_symop_operation_xyz
x,y,z
-x,1/2+y,1/2-z
-x,-y,-z
x,1/2-y,1/2+z
loop_
_atom_site_type_symbol
_atom_site_label
_atom_site_fract_x
_atom_site_fract_y
_atom_site_fract_z
Si Si1 0.334410 0.942011 0.720486
Si Si2 0.009644 0.622431 0.242404
Si Si3 0.658551 0.719997 0.906179
Si Si4 0.368141 0.809067 0.961492
Si Si5 0.326943 0.404378 0.631650
Si Si6 0.591453 0.137598 0.590228
Si Si7 0.093878 0.959693 0.246043
Si Si8 0.000000 0.500000 0.000000
O O1 0.351156 0.860562 0.814821
O O2 0.532016 0.961262 0.827978
O O3 0.178270 0.938686 0.466611
O O4 0.230747 0.006267 0.720103
O O5 0.937504 0.554227 0.278747
O O6 0.218271 0.653623 0.433755
O O7 0.864303 0.693066 0.115861
O O8 0.999253 0.579242 0.091689
O O9 0.577818 0.693503 0.694999
O O10 0.651842 0.814702 0.904447
O O11 0.517716 0.674281 0.881436
O O12 0.319173 0.716486 0.899671
O O13 0.112240 0.425594 0.444137
O O14 0.429645 0.399432 0.860510
O O15 0.758168 0.073969 0.730949
#
# Coordination Sequence:
#
# PCOD9245787 Si02
#       8
#     4   4   4   4   4   4   4   2
#     4   9  18  37  62  91 123 152 201 248 304 361
#     4  10  22  39  59  93 123 159 204 246 309 368
#     4  11  23  40  62  90 120 163 209 254 301 367
#     4  10  21  39  62  89 122 158 201 255 305 355
#     4  10  21  40  63  88 118 167 208 248 311 364
#     4  10  22  41  60  88 122 159 208 255 299 360
#     4  10  22  40  62  89 125 162 198 255 308 364
#     4   8  18  36  56  88 124 154 182 250 304 348
#
# _framework density 24.437685999999999
#
# number of rings (size 3 to 8) (size 9 to 14) (size 15 to 20)
#    0.000    2.133    1.333    0.800    0.000    8.000 
#    2.400    8.000    0.000    0.000    0.000    0.000 
#    0.000    0.000    0.000    0.000    0.000    0.000 
#
# Total GULP energy -167057.257618 kJ/mol
# GULP energy per Si atom -5568.575254 kJ/mol
# Density = 2.438206 g / cm^3
# Si number density = 24.437686 Si / 1000 Ang^3
#
#
#
# Elastic Constant Matrix: (Units=GPa)
#
#
# Indices 1 2 3 4 5 6 
#
# 1 44.6540 11.1582 34.4313 0.0000 23.5641 0.0000
# 2 11.1582 26.6803 9.0744 0.0000 3.1352 0.0000
# 3 34.4313 9.0744 138.2341 0.0000 19.3590 0.0000
# 4 0.0000 0.0000 0.0000 40.9777 0.0000 11.0654
# 5 23.5641 3.1352 19.3590 0.0000 32.6576 0.0000
# 6 0.0000 0.0000 0.0000 11.0654 0.0000 22.2823
#
#
#
# Elastic Compliance Matrix: (Units=1/GPa)
#
#
# Indices 1 2 3 4 5 6 
#
# 1 0.045359 -0.013504 -0.006554 0.000000 -0.027547 0.000000
# 2 -0.013504 0.042528 -0.000241 0.000000 0.005804 0.000000
# 3 -0.006554 -0.000241 0.008961 0.000000 -0.000560 0.000000
# 4 0.000000 0.000000 0.000000 0.028183 0.000000 -0.013996
# 5 -0.027547 0.005804 -0.000560 0.000000 0.050272 0.000000
# 6 0.000000 0.000000 0.000000 -0.013996 0.000000 0.051829
#
#
# Mechanical properties :
#
#
# Convention : Reuss Voigt Hill
#
# Bulk Modulus (GPa) = 17.77747 35.43291 26.60519
# Shear Modulus (GPa) = 17.45325 29.51048 23.48186
#
# Velocity S-wave (km/s) = 2.67534 3.47880 3.10318
# Velocity P-wave (km/s) = 4.10288 5.53776 4.87342
#
# Compressibility (1/GPa) = 0.05625098
#
# Stress axis : x y z
#
# Youngs Moduli (GPa) = 22.04633 23.51365 111.59816
#
# Poissons Ratio (x) = 0.31753 0.73138
# Poissons Ratio (y) = 0.29771 0.02690
# Poissons Ratio (z) = 0.14448 0.00567
#
# Static dielectric constant tensor:
#      x y z
#    x 4.809970 0.000000 -0.155030 
#    y 0.000000 3.369840 0.000000 
#    z -0.155030 0.000000 1.943860 
# 
# From -- ./inp_files/21858.got.cif
#   From: 2010.05.17/outbox.cif.g08.bks.cpg/sg14_11_cif.got.tgz:21858.got - 2010.06.03 17:49:19.
