data_PCOD9245247
_publ_section_title
;
Structure prediction by ZEFSAII (Michael W. Deem and Ramdas Pophale) SiO2 
 PCOD9245247
Probable space group: P 21/C
;
_chemical_formula_sum "Si O2"
_cell_formula_units_Z 20
_cell_length_a 21.419427
_cell_length_b 5.315989
_cell_length_c 9.589759
_cell_angle_alpha 90.000000
_cell_angle_beta 40.893625
_cell_angle_gamma 90.000000
_cell_volume 714.847230
_symmetry_space_group_name_H-M "P 21/C"
_symmetry_group_IT_number 14
_symmetry_cell_setting 'monoclinic'
loop_
_space_group_symop_operation_xyz
x,y,z
-x,1/2+y,1/2-z
-x,-y,-z
x,1/2-y,1/2+z
loop_
_atom_site_type_symbol
_atom_site_label
_atom_site_fract_x
_atom_site_fract_y
_atom_site_fract_z
Si Si1 0.611509 0.723118 0.740461
Si Si2 0.940418 0.614804 0.820713
Si Si3 0.811152 0.547105 0.807409
Si Si4 0.779408 0.272005 0.115472
Si Si5 0.417875 0.533736 0.462959
O O1 0.593637 0.470658 0.684028
O O2 0.714942 0.812009 0.514548
O O3 0.522647 0.882414 0.828736
O O4 0.604174 0.771812 0.917161
O O5 0.903782 0.663656 0.724151
O O6 0.998472 0.856430 0.771916
O O7 0.841106 0.516733 0.060225
O O8 0.814042 0.463422 0.644128
O O9 0.800261 0.283994 0.916152
O O10 0.667803 0.298246 0.333250
#
# Coordination Sequence:
#
# PCOD9245247 Si02
#       5
#     4   4   4   4   4
#     4  10  21  37  59  91 129 169 216 267 328 400
#     4  10  24  44  67  96 131 174 226 284 340 398
#     4   9  21  40  61  93 125 166 213 273 326 403
#     4   9  21  40  61  93 125 166 213 273 326 403
#     4  10  21  37  59  91 129 169 216 267 328 400
#
# _framework density 27.978007999999999
#
# number of rings (size 3 to 8) (size 9 to 14) (size 15 to 20)
#    1.200    1.200    0.000    1.200    0.000    7.200 
#    0.000    0.000    0.000    0.000    0.000    0.000 
#    0.000    0.000    0.000    0.000    0.000    0.000 
#
# Total GULP energy -111765.352117 kJ/mol
# GULP energy per Si atom -5588.267606 kJ/mol
# Density = 2.791433 g / cm^3
# Si number density = 27.978008 Si / 1000 Ang^3
#
#
#
# Elastic Constant Matrix: (Units=GPa)
#
#
# Indices 1 2 3 4 5 6 
#
# 1 139.3150 44.0223 34.7960 0.0000 -43.9854 0.0000
# 2 44.0223 97.5606 35.5197 0.0000 -26.0037 0.0000
# 3 34.7960 35.5197 108.0058 0.0000 -28.2139 0.0000
# 4 0.0000 0.0000 0.0000 35.7204 0.0000 -13.0093
# 5 -43.9854 -26.0037 -28.2139 0.0000 41.6822 0.0000
# 6 0.0000 0.0000 0.0000 -13.0093 0.0000 43.9192
#
#
#
# Elastic Compliance Matrix: (Units=1/GPa)
#
#
# Indices 1 2 3 4 5 6 
#
# 1 0.011174 -0.002238 -0.000180 0.000000 0.010273 0.000000
# 2 -0.002238 0.013314 -0.002557 0.000000 0.004213 0.000000
# 3 -0.000180 -0.002557 0.011773 0.000000 0.006184 0.000000
# 4 0.000000 0.000000 0.000000 0.031381 0.000000 0.009295
# 5 0.010273 0.004213 0.006184 0.000000 0.041646 0.000000
# 6 0.000000 0.000000 0.000000 0.009295 0.000000 0.025522
#
#
# Mechanical properties :
#
#
# Convention : Reuss Voigt Hill
#
# Bulk Modulus (GPa) = 38.00816 63.72861 50.86839
# Shear Modulus (GPa) = 32.56704 39.63391 36.10047
#
# Velocity S-wave (km/s) = 3.41548 3.76787 3.59599
# Velocity P-wave (km/s) = 5.40079 6.46194 5.95505
#
# Compressibility (1/GPa) = 0.02631014
#
# Stress axis : x y z
#
# Youngs Moduli (GPa) = 89.49663 75.10945 84.94008
#
# Poissons Ratio (x) = 0.16811 0.01531
# Poissons Ratio (y) = 0.20031 0.21717
# Poissons Ratio (z) = 0.01613 0.19204
#
# Static dielectric constant tensor:
#      x y z
#    x 2.179090 0.000000 0.036140 
#    y 0.000000 2.257980 0.000000 
#    z 0.036140 0.000000 2.204180 
# 
# From -- ./inp_files/35450.got.cif
#   From: 2010.05.17/outbox.cif.g08.bks.cpg/sg14_18_cif.got.tgz:35450.got - 2010.06.03 17:49:19.
