data_PCOD9245504
_publ_section_title
;
Structure prediction by ZEFSAII (Michael W. Deem and Ramdas Pophale) SiO2 
 PCOD9245504
Probable space group: P 21/C
;
_chemical_formula_sum "Si O2"
_cell_formula_units_Z 24
_cell_length_a 8.149267
_cell_length_b 20.975494
_cell_length_c 9.828589
_cell_angle_alpha 90.000000
_cell_angle_beta 146.855979
_cell_angle_gamma 90.000000
_cell_volume 918.559050
_symmetry_space_group_name_H-M "P 21/C"
_symmetry_group_IT_number 14
_symmetry_cell_setting 'monoclinic'
loop_
_space_group_symop_operation_xyz
x,y,z
-x,1/2+y,1/2-z
-x,-y,-z
x,1/2-y,1/2+z
loop_
_atom_site_type_symbol
_atom_site_label
_atom_site_fract_x
_atom_site_fract_y
_atom_site_fract_z
Si Si1 0.279865 0.590434 0.756062
Si Si2 0.903861 0.999249 0.117565
Si Si3 0.076923 0.218742 0.928704
Si Si4 0.470490 0.212065 0.932510
Si Si5 0.683476 0.049505 0.252656
Si Si6 0.750235 0.597497 0.883376
O O1 0.216040 0.539622 0.832548
O O2 0.547515 0.643354 0.652194
O O3 0.132833 0.550042 0.528916
O O4 0.107432 0.655577 0.659798
O O5 0.790543 0.035112 0.172889
O O6 0.659739 0.940945 0.946897
O O7 0.811104 0.266715 0.696341
O O8 0.281030 0.243746 0.195524
O O9 0.296002 0.210618 0.953195
O O10 0.379486 0.394288 0.054009
O O11 0.912880 0.106148 0.442347
O O12 0.720084 0.978378 0.339619
#
# Coordination Sequence:
#
# PCOD9245504 Si02
#       6
#     4   4   4   4   4   4
#     4  10  21  38  61  94 134 176 226 284 345 414
#     4   9  19  36  61  93 133 178 226 281 348 416
#     4  12  27  48  72 101 138 184 238 292 351 416
#     4  12  27  48  73 102 138 185 239 293 351 417
#     4   9  19  36  60  93 132 177 225 280 347 412
#     4  10  21  38  61  93 133 176 226 282 344 414
#
# _framework density 26.127880000000001
#
# number of rings (size 3 to 8) (size 9 to 14) (size 15 to 20)
#    0.000    1.667    0.000    4.000    0.000   10.000 
#    0.000    3.333    0.000    0.000    0.000    0.000 
#    0.000    0.000    0.000    0.000    0.000    0.000 
#
# Total GULP energy -133984.569707 kJ/mol
# GULP energy per Si atom -5582.690404 kJ/mol
# Density = 2.606841 g / cm^3
# Si number density = 26.127880 Si / 1000 Ang^3
#
#
#
# Elastic Constant Matrix: (Units=GPa)
#
#
# Indices 1 2 3 4 5 6 
#
# 1 129.6877 29.1000 -2.5366 0.0000 9.3151 0.0000
# 2 29.1000 97.0883 7.5607 0.0000 0.1509 0.0000
# 3 -2.5366 7.5607 57.4848 0.0000 7.5759 0.0000
# 4 0.0000 0.0000 0.0000 31.8439 0.0000 7.7980
# 5 9.3151 0.1509 7.5759 0.0000 51.6598 0.0000
# 6 0.0000 0.0000 0.0000 7.7980 0.0000 44.3698
#
#
#
# Elastic Compliance Matrix: (Units=1/GPa)
#
#
# Indices 1 2 3 4 5 6 
#
# 1 0.008430 -0.002597 0.000931 0.000000 -0.001649 0.000000
# 2 -0.002597 0.011208 -0.001679 0.000000 0.000682 0.000000
# 3 0.000931 -0.001679 0.018028 0.000000 -0.002807 0.000000
# 4 0.000000 0.000000 0.000000 0.032816 0.000000 -0.005767
# 5 -0.001649 0.000682 -0.002807 0.000000 0.020064 0.000000
# 6 0.000000 0.000000 0.000000 -0.005767 0.000000 0.023551
#
#
# Mechanical properties :
#
#
# Convention : Reuss Voigt Hill
#
# Bulk Modulus (GPa) = 32.28212 39.16768 35.72490
# Shear Modulus (GPa) = 38.13552 42.25046 40.19299
#
# Velocity S-wave (km/s) = 3.82458 4.02564 3.92639
# Velocity P-wave (km/s) = 5.64672 6.05235 5.85305
#
# Compressibility (1/GPa) = 0.03097690
#
# Stress axis : x y z
#
# Youngs Moduli (GPa) = 118.62203 89.22319 55.47041
#
# Poissons Ratio (x) = 0.23168 -0.05163
# Poissons Ratio (y) = 0.30802 0.09311
# Poissons Ratio (z) = -0.11042 0.14976
#
# Static dielectric constant tensor:
#      x y z
#    x 2.109590 0.000000 0.100930 
#    y 0.000000 2.050330 0.000000 
#    z 0.100930 0.000000 2.611380 
# 
# From -- ./inp_files/25979.got.cif
#   From: 2010.05.17/outbox.cif.g08.bks.cpg/sg14_13_cif.got.tgz:25979.got - 2010.06.03 17:49:19.
