data_PCOD9245100
_publ_section_title
;
Structure prediction by ZEFSAII (Michael W. Deem and Ramdas Pophale) SiO2 
 PCOD9245100
Probable space group: P 21/C
;
_chemical_formula_sum "Si O2"
_cell_formula_units_Z 28
_cell_length_a 20.720038
_cell_length_b 5.116547
_cell_length_c 14.413372
_cell_angle_alpha 90.000000
_cell_angle_beta 132.648947
_cell_angle_gamma 90.000000
_cell_volume 1123.897628
_symmetry_space_group_name_H-M "P 21/C"
_symmetry_group_IT_number 14
_symmetry_cell_setting 'monoclinic'
loop_
_space_group_symop_operation_xyz
x,y,z
-x,1/2+y,1/2-z
-x,-y,-z
x,1/2-y,1/2+z
loop_
_atom_site_type_symbol
_atom_site_label
_atom_site_fract_x
_atom_site_fract_y
_atom_site_fract_z
Si Si1 0.053132 0.011630 0.788662
Si Si2 0.305685 0.499076 0.081548
Si Si3 0.275389 0.709138 0.387546
Si Si4 0.630402 0.313956 0.196633
Si Si5 0.473954 0.193721 0.669260
Si Si6 0.162015 0.281427 0.735298
Si Si7 0.807549 0.889302 0.936950
O O1 0.089306 0.158554 0.731994
O O2 0.995482 0.241196 0.779555
O O3 0.129563 0.940561 0.937030
O O4 0.348172 0.554750 0.222557
O O5 0.370021 0.343592 0.075142
O O6 0.218089 0.348492 0.020365
O O7 0.296944 0.767524 0.016488
O O8 0.356612 0.772043 0.399179
O O9 0.238106 0.435336 0.318797
O O10 0.201536 0.936135 0.301986
O O11 0.532851 0.377363 0.137257
O O12 0.714145 0.492302 0.310001
O O13 0.492410 0.485381 0.721621
O O14 0.141785 0.304517 0.606566
#
# Coordination Sequence:
#
# PCOD9245100 Si02
#       7
#     4   4   4   4   4   4   4
#     4  12  28  45  69  99 129 163 212 270 322 393
#     4  11  21  39  66  92 131 179 214 262 323 368
#     4  11  23  37  68  98 127 172 221 259 307 386
#     4  10  22  40  64  95 134 170 224 260 317 377
#     4  10  21  36  60  93 133 171 218 266 310 366
#     4  11  24  44  67  98 128 164 216 261 317 393
#     4  11  23  43  70  91 130 177 210 260 330 379
#
# _framework density 24.913302000000002
#
# number of rings (size 3 to 8) (size 9 to 14) (size 15 to 20)
#    0.000    1.143    4.286    1.714    2.000    1.714 
#    0.000    0.000    0.000    6.857    0.000    0.000 
#    0.000    0.000    0.000    0.000    0.000    0.000 
#
# Total GULP energy -156432.884932 kJ/mol
# GULP energy per Si atom -5586.888748 kJ/mol
# Density = 2.485660 g / cm^3
# Si number density = 24.913302 Si / 1000 Ang^3
#
#
#
# Elastic Constant Matrix: (Units=GPa)
#
#
# Indices 1 2 3 4 5 6 
#
# 1 128.4937 2.0884 23.0088 0.0000 -24.0355 0.0000
# 2 2.0884 82.6346 17.8275 0.0000 12.3544 0.0000
# 3 23.0088 17.8275 45.8108 0.0000 -9.4454 0.0000
# 4 0.0000 0.0000 0.0000 29.2867 0.0000 9.4087
# 5 -24.0355 12.3544 -9.4454 0.0000 28.0076 0.0000
# 6 0.0000 0.0000 0.0000 9.4087 0.0000 38.3271
#
#
#
# Elastic Compliance Matrix: (Units=1/GPa)
#
#
# Indices 1 2 3 4 5 6 
#
# 1 0.009777 -0.000743 -0.003035 0.000000 0.007695 0.000000
# 2 -0.000743 0.015246 -0.007607 0.000000 -0.009928 0.000000
# 3 -0.003035 -0.007607 0.028446 0.000000 0.010344 0.000000
# 4 0.000000 0.000000 0.000000 0.037069 0.000000 -0.009100
# 5 0.007695 -0.009928 0.010344 0.000000 0.050176 0.000000
# 6 0.000000 0.000000 0.000000 -0.009100 0.000000 0.028325
#
#
# Mechanical properties :
#
#
# Convention : Reuss Voigt Hill
#
# Bulk Modulus (GPa) = 32.57335 38.08760 35.33047
# Shear Modulus (GPa) = 24.74738 33.39190 29.06964
#
# Velocity S-wave (km/s) = 3.15515 3.66502 3.41960
# Velocity P-wave (km/s) = 5.13579 5.76464 5.45928
#
# Compressibility (1/GPa) = 0.03069994
#
# Stress axis : x y z
#
# Youngs Moduli (GPa) = 102.27665 65.59282 35.15386
#
# Poissons Ratio (x) = 0.04872 0.10670
# Poissons Ratio (y) = 0.07596 0.26741
# Poissons Ratio (z) = 0.31043 0.49895
#
# Static dielectric constant tensor:
#      x y z
#    x 2.029990 0.000000 0.063130 
#    y 0.000000 1.985880 0.000000 
#    z 0.063130 0.000000 1.968880 
# 
# From -- ./inp_files/47953.got.cif
#   From: 2010.05.17/outbox.cif.g08.bks.cpg/sg14_24_cif.got.tgz:47953.got - 2010.06.03 17:49:19.
