data_PCOD9245413
_publ_section_title
;
Structure prediction by ZEFSAII (Michael W. Deem and Ramdas Pophale) SiO2 
 PCOD9245413
Probable space group: P 21/C
;
_chemical_formula_sum "Si O2"
_cell_formula_units_Z 32
_cell_length_a 18.543669
_cell_length_b 5.081252
_cell_length_c 13.475556
_cell_angle_alpha 90.000000
_cell_angle_beta 92.260663
_cell_angle_gamma 90.000000
_cell_volume 1268.746789
_symmetry_space_group_name_H-M "P 21/C"
_symmetry_group_IT_number 14
_symmetry_cell_setting 'monoclinic'
loop_
_space_group_symop_operation_xyz
x,y,z
-x,1/2+y,1/2-z
-x,-y,-z
x,1/2-y,1/2+z
loop_
_atom_site_type_symbol
_atom_site_label
_atom_site_fract_x
_atom_site_fract_y
_atom_site_fract_z
Si Si1 0.552165 0.472275 0.128097
Si Si2 0.603258 0.993106 0.021157
Si Si3 0.393194 0.114381 0.646924
Si Si4 0.275229 0.751407 0.055359
Si Si5 0.840391 0.536255 0.218741
Si Si6 0.309943 0.461220 0.760950
Si Si7 0.990002 0.650854 0.182125
Si Si8 0.139070 0.960426 0.641331
O O1 0.578145 0.748318 0.085214
O O2 0.472930 0.493387 0.170190
O O3 0.618622 0.388580 0.201422
O O4 0.554932 0.244392 0.045789
O O5 0.592088 0.891814 0.908073
O O6 0.689039 0.068199 0.028225
O O7 0.341729 0.176468 0.735972
O O8 0.339563 0.959471 0.571933
O O9 0.279231 0.918582 0.157642
O O10 0.197110 0.616731 0.059961
O O11 0.759202 0.547966 0.172394
O O12 0.906754 0.602683 0.149843
O O13 0.851626 0.249745 0.267757
O O14 0.846553 0.755871 0.307744
O O15 0.001877 0.445993 0.275021
O O16 0.054610 0.578409 0.111093
#
# Coordination Sequence:
#
# PCOD9245413 Si02
#       8
#     4   4   4   4   4   4   4   4
#     4  12  27  38  60  81 113 145 193 231 277 333
#     4  11  25  43  58  80 107 152 190 234 275 329
#     4  11  23  40  61  80 112 146 188 233 283 325
#     4  10  21  38  59  81 112 147 182 231 282 329
#     4   9  16  30  47  74 111 142 168 217 279 331
#     4  10  24  36  57  86 115 145 184 231 288 332
#     4   8  14  24  44  72 106 138 169 210 268 328
#     4   9  16  28  49  78 106 138 177 219 269 326
#
# _framework density 25.221738999999999
#
# number of rings (size 3 to 8) (size 9 to 14) (size 15 to 20)
#    0.000    2.000    2.500    0.750    7.000    0.000 
#    0.000    0.000    0.000    0.000    0.000    1.750 
#    0.000    0.125    0.000    0.000    0.000    0.000 
#
# Total GULP energy -178540.186424 kJ/mol
# GULP energy per Si atom -5579.380826 kJ/mol
# Density = 2.516433 g / cm^3
# Si number density = 25.221739 Si / 1000 Ang^3
#
#
#
# Elastic Constant Matrix: (Units=GPa)
#
#
# Indices 1 2 3 4 5 6 
#
# 1 258.6612 26.0492 21.2999 0.0000 -42.8784 0.0000
# 2 26.0492 109.7281 9.7849 0.0000 -4.3518 0.0000
# 3 21.2999 9.7849 21.1068 0.0000 -5.6440 0.0000
# 4 0.0000 0.0000 0.0000 17.0066 0.0000 -12.5064
# 5 -42.8784 -4.3518 -5.6440 0.0000 27.8394 0.0000
# 6 0.0000 0.0000 0.0000 -12.5064 0.0000 36.0191
#
#
#
# Elastic Compliance Matrix: (Units=1/GPa)
#
#
# Indices 1 2 3 4 5 6 
#
# 1 0.005469 -0.000714 -0.003135 0.000000 0.007675 0.000000
# 2 -0.000714 0.009610 -0.003835 0.000000 -0.000375 0.000000
# 3 -0.003135 -0.003835 0.053784 0.000000 0.005476 0.000000
# 4 0.000000 0.000000 0.000000 0.078962 0.000000 0.027417
# 5 0.007675 -0.000375 0.005476 0.000000 0.048794 0.000000
# 6 0.000000 0.000000 0.000000 0.027417 0.000000 0.037283
#
#
# Mechanical properties :
#
#
# Convention : Reuss Voigt Hill
#
# Bulk Modulus (GPa) = 18.69355 55.97379 37.33367
# Shear Modulus (GPa) = 18.71957 38.33050 28.52504
#
# Velocity S-wave (km/s) = 2.72729 3.90261 3.36664
# Velocity P-wave (km/s) = 4.16476 6.52289 5.47235
#
# Compressibility (1/GPa) = 0.05349439
#
# Stress axis : x y z
#
# Youngs Moduli (GPa) = 182.86534 104.05750 18.59298
#
# Poissons Ratio (x) = 0.07432 0.05829
# Poissons Ratio (y) = 0.13061 0.07130
# Poissons Ratio (z) = 0.57328 0.39903
#
# Static dielectric constant tensor:
#      x y z
#    x 2.150290 0.000000 0.024260 
#    y 0.000000 2.057740 0.000000 
#    z 0.024260 0.000000 2.061000 
# 
# From -- ./inp_files/59884.got.cif
#   From: 2010.05.17/outbox.cif.g08.bks.cpg/sg14_30_cif.got.tgz:59884.got - 2010.06.03 17:49:19.
