data_PCOD9245405
_publ_section_title
;
Structure prediction by ZEFSAII (Michael W. Deem and Ramdas Pophale) SiO2 
 PCOD9245405
Probable space group: P 21/C
;
_chemical_formula_sum "Si O2"
_cell_formula_units_Z 24
_cell_length_a 24.041569
_cell_length_b 5.249370
_cell_length_c 26.814158
_cell_angle_alpha 90.000000
_cell_angle_beta 17.900983
_cell_angle_gamma 90.000000
_cell_volume 1040.159148
_symmetry_space_group_name_H-M "P 21/C"
_symmetry_group_IT_number 14
_symmetry_cell_setting 'monoclinic'
loop_
_space_group_symop_operation_xyz
x,y,z
-x,1/2+y,1/2-z
-x,-y,-z
x,1/2-y,1/2+z
loop_
_atom_site_type_symbol
_atom_site_label
_atom_site_fract_x
_atom_site_fract_y
_atom_site_fract_z
Si Si1 0.527016 0.018787 0.622029
Si Si2 0.586464 0.445162 0.682310
Si Si3 0.160533 0.823771 0.187319
Si Si4 0.005024 0.231991 0.063270
Si Si5 0.205378 0.725136 0.856960
Si Si6 0.836422 0.678143 0.392678
O O1 0.389930 0.088927 0.784492
O O2 0.410871 0.817109 0.689844
O O3 0.687670 0.898845 0.518433
O O4 0.636496 0.218756 0.495151
O O5 0.439728 0.646108 0.784958
O O6 0.742992 0.470026 0.508252
O O7 0.155865 0.115292 0.172724
O O8 0.078405 0.765279 0.310756
O O9 0.021460 0.726849 0.263095
O O10 0.850164 0.280582 0.153624
O O11 0.152534 0.453171 0.925484
O O12 0.081632 0.949387 0.986962
#
# Coordination Sequence:
#
# PCOD9245405 Si02
#       6
#     4   4   4   4   4   4
#     4  11  24  39  66  95 133 173 229 275 335 403
#     4  10  21  38  58  85 124 169 213 260 312 394
#     4  12  24  41  64  99 137 183 215 291 333 415
#     4  10  25  47  73  95 135 174 231 281 355 391
#     4  10  24  48  71 100 126 180 230 287 333 423
#     4  11  24  39  59  94 137 175 220 261 345 399
#
# _framework density 23.073391999999998
#
# number of rings (size 3 to 8) (size 9 to 14) (size 15 to 20)
#    0.000    1.333    3.333    1.000    4.667    7.333 
#    0.000    0.833    0.000    0.000    0.000    0.000 
#    0.000    0.000    0.000    0.000    0.000    0.000 
#
# Total GULP energy -133640.370691 kJ/mol
# GULP energy per Si atom -5568.348779 kJ/mol
# Density = 2.302088 g / cm^3
# Si number density = 23.073392 Si / 1000 Ang^3
#
#
#
# Elastic Constant Matrix: (Units=GPa)
#
#
# Indices 1 2 3 4 5 6 
#
# 1 116.4886 18.7139 47.8225 0.0000 16.3504 0.0000
# 2 18.7139 86.9860 11.7326 0.0000 0.6851 0.0000
# 3 47.8225 11.7326 64.5039 0.0000 5.0946 0.0000
# 4 0.0000 0.0000 0.0000 36.8539 0.0000 -1.9039
# 5 16.3504 0.6851 5.0946 0.0000 45.1048 0.0000
# 6 0.0000 0.0000 0.0000 -1.9039 0.0000 29.9750
#
#
#
# Elastic Compliance Matrix: (Units=1/GPa)
#
#
# Indices 1 2 3 4 5 6 
#
# 1 0.013106 -0.001558 -0.009142 0.000000 -0.003695 0.000000
# 2 -0.001558 0.011971 -0.001062 0.000000 0.000503 0.000000
# 3 -0.009142 -0.001062 0.022411 0.000000 0.000799 0.000000
# 4 0.000000 0.000000 0.000000 0.027223 0.000000 0.001729
# 5 -0.003695 0.000503 0.000799 0.000000 0.023412 0.000000
# 6 0.000000 0.000000 0.000000 0.001729 0.000000 0.033471
#
#
# Mechanical properties :
#
#
# Convention : Reuss Voigt Hill
#
# Bulk Modulus (GPa) = 41.72862 47.16847 44.44855
# Shear Modulus (GPa) = 30.65500 35.03405 32.84453
#
# Velocity S-wave (km/s) = 3.64893 3.90086 3.77700
# Velocity P-wave (km/s) = 5.98977 6.38562 6.19086
#
# Compressibility (1/GPa) = 0.02396437
#
# Stress axis : x y z
#
# Youngs Moduli (GPa) = 76.29874 83.53865 44.62151
#
# Poissons Ratio (x) = 0.13011 0.40792
# Poissons Ratio (y) = 0.11884 0.04740
# Poissons Ratio (z) = 0.69751 0.08874
#
# Static dielectric constant tensor:
#      x y z
#    x 1.903290 0.000000 -0.004750 
#    y 0.000000 2.111850 0.000000 
#    z -0.004750 0.000000 2.017790 
# 
# From -- ./inp_files/75148.got.cif
#   From: 2010.05.17/outbox.cif.g08.bks.cpg/sg14_38_cif.got.tgz:75148.got - 2010.06.03 17:49:19.
