data_PCOD9245727
_publ_section_title
;
Structure prediction by ZEFSAII (Michael W. Deem and Ramdas Pophale) SiO2 
 PCOD9245727
Probable space group: P 21/C
;
_chemical_formula_sum "Si O2"
_cell_formula_units_Z 24
_cell_length_a 6.289460
_cell_length_b 15.033572
_cell_length_c 15.073330
_cell_angle_alpha 90.000000
_cell_angle_beta 55.526298
_cell_angle_gamma 90.000000
_cell_volume 1174.939206
_symmetry_space_group_name_H-M "P 21/C"
_symmetry_group_IT_number 14
_symmetry_cell_setting 'monoclinic'
loop_
_space_group_symop_operation_xyz
x,y,z
-x,1/2+y,1/2-z
-x,-y,-z
x,1/2-y,1/2+z
loop_
_atom_site_type_symbol
_atom_site_label
_atom_site_fract_x
_atom_site_fract_y
_atom_site_fract_z
Si Si1 0.041689 0.600969 0.917072
Si Si2 0.628430 0.151991 0.811454
Si Si3 0.490786 0.346279 0.863976
Si Si4 0.249399 0.939180 0.044588
Si Si5 0.260297 0.934026 0.541818
Si Si6 0.297994 0.976097 0.836108
O O1 0.127105 0.653934 0.811327
O O2 0.985356 0.499653 0.898819
O O3 0.257160 0.603262 0.942994
O O4 0.782254 0.634204 0.025175
O O5 0.486028 0.244960 0.834396
O O6 0.714255 0.138449 0.892848
O O7 0.460672 0.065587 0.821214
O O8 0.709172 0.362726 0.888226
O O9 0.561658 0.415118 0.769324
O O10 0.250063 0.921702 0.939038
O O11 0.984313 0.991151 0.128461
O O12 0.500000 0.000000 0.000000
O O13 0.500000 0.000000 0.500000
#
# Coordination Sequence:
#
# PCOD9245727 Si02
#       6
#     4   4   4   4   4   4
#     4  10  21  39  60  87 123 156 197 253 308 358
#     4  11  23  38  61  91 122 161 207 250 299 362
#     4  11  24  38  61  92 122 162 206 250 303 361
#     4   9  21  41  64  86 117 160 203 248 304 362
#     4   9  18  36  60  85 114 152 197 246 303 357
#     4  10  21  41  63  88 124 161 201 252 305 358
#
# _framework density 20.426589
#
# number of rings (size 3 to 8) (size 9 to 14) (size 15 to 20)
#    0.000    2.000    0.000    4.000    0.000    9.333 
#    0.000    0.000    0.000    0.000    0.000    0.000 
#    0.000    0.000    0.000    0.000    0.000    0.000 
#
# Total GULP energy -133845.963973 kJ/mol
# GULP energy per Si atom -5576.915166 kJ/mol
# Density = 2.038010 g / cm^3
# Si number density = 20.426589 Si / 1000 Ang^3
#
#
#
# Elastic Constant Matrix: (Units=GPa)
#
#
# Indices 1 2 3 4 5 6 
#
# 1 78.5280 27.0700 28.3980 0.0000 0.6962 0.0000
# 2 27.0700 101.7747 58.8220 0.0000 6.0799 0.0000
# 3 28.3980 58.8220 122.9257 0.0000 -12.3622 0.0000
# 4 0.0000 0.0000 0.0000 14.2598 0.0000 0.1362
# 5 0.6962 6.0799 -12.3622 0.0000 30.8137 0.0000
# 6 0.0000 0.0000 0.0000 0.1362 0.0000 16.7829
#
#
#
# Elastic Compliance Matrix: (Units=1/GPa)
#
#
# Indices 1 2 3 4 5 6 
#
# 1 0.014402 -0.002522 -0.002192 0.000000 -0.000707 0.000000
# 2 -0.002522 0.014985 -0.007169 0.000000 -0.005776 0.000000
# 3 -0.002192 -0.007169 0.012733 0.000000 0.006572 0.000000
# 4 0.000000 0.000000 0.000000 0.070133 0.000000 -0.000569
# 5 -0.000707 -0.005776 0.006572 0.000000 0.036245 0.000000
# 6 0.000000 0.000000 0.000000 -0.000569 0.000000 0.059589
#
#
# Mechanical properties :
#
#
# Convention : Reuss Voigt Hill
#
# Bulk Modulus (GPa) = 54.47970 59.08982 56.78476
# Shear Modulus (GPa) = 21.01111 24.96717 22.98914
#
# Velocity S-wave (km/s) = 3.21068 3.49992 3.35841
# Velocity P-wave (km/s) = 6.36188 6.73225 6.54969
#
# Compressibility (1/GPa) = 0.01835546
#
# Stress axis : x y z
#
# Youngs Moduli (GPa) = 69.43263 66.73510 78.53892
#
# Poissons Ratio (x) = 0.16830 0.17212
# Poissons Ratio (y) = 0.17510 0.56302
# Poissons Ratio (z) = 0.15217 0.47840
#
# Static dielectric constant tensor:
#      x y z
#    x 1.775490 0.000000 0.016530 
#    y 0.000000 1.742030 0.000000 
#    z 0.016530 0.000000 1.747380 
# 
# From -- ./inp_files/37259.got.cif
#   From: 2010.05.17/outbox.cif.g08.bks.cpg/sg14_19_cif.got.tgz:37259.got - 2010.06.03 17:49:19.
