data_PCOD9245796
_publ_section_title
;
Structure prediction by ZEFSAII (Michael W. Deem and Ramdas Pophale) SiO2 
 PCOD9245796
Probable space group: P 21/C
;
_chemical_formula_sum "Si O2"
_cell_formula_units_Z 32
_cell_length_a 15.758991
_cell_length_b 6.834246
_cell_length_c 13.720004
_cell_angle_alpha 90.000000
_cell_angle_beta 73.364746
_cell_angle_gamma 90.000000
_cell_volume 1415.810797
_symmetry_space_group_name_H-M "P 21/C"
_symmetry_group_IT_number 14
_symmetry_cell_setting 'monoclinic'
loop_
_space_group_symop_operation_xyz
x,y,z
-x,1/2+y,1/2-z
-x,-y,-z
x,1/2-y,1/2+z
loop_
_atom_site_type_symbol
_atom_site_label
_atom_site_fract_x
_atom_site_fract_y
_atom_site_fract_z
Si Si1 0.341073 0.862758 0.942232
Si Si2 0.929695 0.525588 0.437722
Si Si3 0.133033 0.272729 0.198821
Si Si4 0.366967 0.272729 0.301178
Si Si5 0.158927 0.637241 0.057766
Si Si6 0.570305 0.974411 0.562278
Si Si7 0.831766 0.687529 0.097400
Si Si8 0.331766 0.312473 0.597400
O O1 0.250000 0.750000 0.999999
O O2 0.408091 0.686467 0.905054
O O3 0.346630 0.009528 0.848153
O O4 0.364956 0.998340 0.027897
O O5 0.942173 0.671840 0.342630
O O6 0.908091 0.313532 0.405055
O O7 0.847550 0.629823 0.520527
O O8 0.000000 0.500000 0.500000
O O9 0.120798 0.242801 0.317404
O O10 0.227299 0.163387 0.149640
O O11 0.153371 0.490471 0.151844
O O12 0.442173 0.171841 0.342630
O O13 0.272702 0.163389 0.350359
O O14 0.379203 0.242798 0.182596
O O15 0.135044 0.501659 0.972101
O O16 0.652450 0.870177 0.479473
O O17 0.500000 0.000000 0.500000
#
# Coordination Sequence:
#
# PCOD9245796 Si02
#       8
#     4   4   4   4   4   4   4   4
#     4  11  19  39  67  84 119 163 197 238 303 351
#     4  11  23  41  59  91 125 159 195 247 304 354
#     4  10  21  39  62  91 121 154 206 250 286 360
#     4  10  21  39  62  91 121 154 206 250 286 360
#     4  11  19  39  67  84 119 163 197 238 303 351
#     4  11  23  41  59  91 125 159 195 247 304 354
#     4  10  21  39  62  91 121 154 206 250 286 360
#     4  10  21  39  62  91 121 154 206 250 286 360
#
# _framework density 22.601890999999998
#
# number of rings (size 3 to 8) (size 9 to 14) (size 15 to 20)
#    0.000    1.500    5.000    1.500    0.000    6.000 
#    9.000    0.000    0.000    0.000    0.000    0.000 
#    0.000    0.000    0.000    0.000    0.000    0.000 
#
# Total GULP energy -178503.836407 kJ/mol
# GULP energy per Si atom -5578.244888 kJ/mol
# Density = 2.255045 g / cm^3
# Si number density = 22.601891 Si / 1000 Ang^3
#
#
#
# Elastic Constant Matrix: (Units=GPa)
#
#
# Indices 1 2 3 4 5 6 
#
# 1 43.6713 10.1597 11.6032 0.0000 18.8847 0.0000
# 2 10.1597 145.9894 51.7780 0.0000 16.8984 0.0000
# 3 11.6032 51.7780 155.7909 0.0000 37.4068 0.0000
# 4 0.0000 0.0000 0.0000 19.5887 0.0000 18.5195
# 5 18.8847 16.8984 37.4068 0.0000 40.2616 0.0000
# 6 0.0000 0.0000 0.0000 18.5195 0.0000 10.8097
#
#
#
# Elastic Compliance Matrix: (Units=1/GPa)
#
#
# Indices 1 2 3 4 5 6 
#
# 1 0.029073 -0.000909 0.001698 0.000000 -0.014833 0.000000
# 2 -0.000909 0.007832 -0.002379 0.000000 -0.000651 0.000000
# 3 0.001698 -0.002379 0.009055 0.000000 -0.008210 0.000000
# 4 0.000000 0.000000 0.000000 -0.082376 0.000000 0.141129
# 5 -0.014833 -0.000651 -0.008210 0.000000 0.039696 0.000000
# 6 0.000000 0.000000 0.000000 0.141129 0.000000 -0.149277
#
#
# Mechanical properties :
#
#
# Convention : Reuss Voigt Hill
#
# Bulk Modulus (GPa) = 23.37521 54.72591 39.05056
# Shear Modulus (GPa) = -38.89302 32.25938 -3.31682
#
# Velocity S-wave (km/s) = -4.15274 3.78204 -1.21272
# Velocity P-wave (km/s) = 3.55373 6.58311 3.91844
#
# Compressibility (1/GPa) = 0.04278036
#
# Stress axis : x y z
#
# Youngs Moduli (GPa) = 34.39644 127.67844 110.44209
#
# Poissons Ratio (x) = 0.11601 -0.18755
# Poissons Ratio (y) = 0.03125 0.26276
# Poissons Ratio (z) = -0.05841 0.30377
#
# Static dielectric constant tensor:
#      x y z
#    x 1.912770 0.000000 -0.011790 
#    y 0.000000 1.818180 0.000000 
#    z -0.011790 0.000000 1.895310 
# 
# From -- ./inp_files/48164.got.cif
#   From: 2010.05.17/outbox.cif.g08.bks.cpg/sg14_25_cif.got.tgz:48164.got - 2010.06.03 17:49:19.
