data_PCOD9245882
_publ_section_title
;
Structure prediction by ZEFSAII (Michael W. Deem and Ramdas Pophale) SiO2 
 PCOD9245882
Probable space group: P 21/C
;
_chemical_formula_sum "Si O2"
_cell_formula_units_Z 28
_cell_length_a 25.095084
_cell_length_b 5.397296
_cell_length_c 22.464433
_cell_angle_alpha 90.000000
_cell_angle_beta 153.551781
_cell_angle_gamma 90.000000
_cell_volume 1355.188406
_symmetry_space_group_name_H-M "P 21/C"
_symmetry_group_IT_number 14
_symmetry_cell_setting 'monoclinic'
loop_
_space_group_symop_operation_xyz
x,y,z
-x,1/2+y,1/2-z
-x,-y,-z
x,1/2-y,1/2+z
loop_
_atom_site_type_symbol
_atom_site_label
_atom_site_fract_x
_atom_site_fract_y
_atom_site_fract_z
Si Si1 0.463056 0.815134 0.282888
Si Si2 0.863800 0.858770 0.064832
Si Si3 0.087021 0.394876 0.771662
Si Si4 0.698839 0.829345 0.072151
Si Si5 0.419960 0.248827 0.920863
Si Si6 0.347269 0.180773 0.718001
Si Si7 0.294172 0.779560 0.010073
O O1 0.605600 0.812765 0.434771
O O2 0.411564 0.581910 0.269735
O O3 0.414523 0.076755 0.258548
O O4 0.415566 0.746237 0.169469
O O5 0.942306 0.736566 0.195299
O O6 0.773222 0.026114 0.012920
O O7 0.781024 0.679892 0.943163
O O8 0.962014 0.999993 0.123761
O O9 0.162453 0.227590 0.801629
O O10 0.190902 0.583011 0.895598
O O11 0.657460 0.766131 0.096532
O O12 0.679360 0.106541 0.028300
O O13 0.342612 0.232843 0.783438
O O14 0.500000 0.500000 0.000000
O O15 0.500000 0.000000 0.000000
#
# Coordination Sequence:
#
# PCOD9245882 Si02
#       7
#     4   4   4   4   4   4   4
#     4  11  23  40  63  97 133 162 215 270 341 395
#     4  10  21  39  64  92 126 173 222 263 333 399
#     4  11  21  39  60  93 131 171 214 273 332 404
#     4  11  26  37  62  96 131 171 214 275 334 396
#     4  12  24  45  67  92 133 180 224 269 328 407
#     4  11  22  42  68  94 124 178 221 268 316 402
#     4  10  23  36  61  92 128 164 207 272 331 392
#
# _framework density 20.661334
#
# number of rings (size 3 to 8) (size 9 to 14) (size 15 to 20)
#    0.000    1.143    5.714    0.000    6.000    0.000 
#    0.000    0.714    0.000    0.857    0.000    0.000 
#    0.000    0.000    0.000    0.000    0.000    0.000 
#
# Total GULP energy -156206.135056 kJ/mol
# GULP energy per Si atom -5578.790538 kJ/mol
# Density = 2.061431 g / cm^3
# Si number density = 20.661334 Si / 1000 Ang^3
#
#
#
# Elastic Constant Matrix: (Units=GPa)
#
#
# Indices 1 2 3 4 5 6 
#
# 1 108.6727 23.6970 39.0854 0.0000 -7.5601 0.0000
# 2 23.6970 69.7727 1.7473 0.0000 2.5080 0.0000
# 3 39.0854 1.7473 59.8845 0.0000 15.7300 0.0000
# 4 0.0000 0.0000 0.0000 32.7448 0.0000 6.4841
# 5 -7.5601 2.5080 15.7300 0.0000 33.1910 0.0000
# 6 0.0000 0.0000 0.0000 6.4841 0.0000 28.5363
#
#
#
# Elastic Compliance Matrix: (Units=1/GPa)
#
#
# Indices 1 2 3 4 5 6 
#
# 1 0.015606 -0.005341 -0.012644 0.000000 0.009951 0.000000
# 2 -0.005341 0.016201 0.004174 0.000000 -0.004419 0.000000
# 3 -0.012644 0.004174 0.029319 0.000000 -0.017090 0.000000
# 4 0.000000 0.000000 0.000000 0.031978 0.000000 -0.007266
# 5 0.009951 -0.004419 -0.017090 0.000000 0.040828 0.000000
# 6 0.000000 0.000000 0.000000 -0.007266 0.000000 0.036694
#
#
# Mechanical properties :
#
#
# Convention : Reuss Voigt Hill
#
# Bulk Modulus (GPa) = 29.84751 40.82103 35.33427
# Shear Modulus (GPa) = 23.87588 30.48111 27.17850
#
# Velocity S-wave (km/s) = 3.40307 3.84510 3.63082
# Velocity P-wave (km/s) = 5.46979 6.28595 5.89202
#
# Compressibility (1/GPa) = 0.03350363
#
# Stress axis : x y z
#
# Youngs Moduli (GPa) = 64.07597 61.72572 34.10807
#
# Poissons Ratio (x) = 0.32971 0.43126
# Poissons Ratio (y) = 0.34226 -0.14238
# Poissons Ratio (z) = 0.81017 -0.25767
#
# Static dielectric constant tensor:
#      x y z
#    x 1.740870 0.000000 0.023790 
#    y 0.000000 1.919800 0.000000 
#    z 0.023790 0.000000 1.760270 
# 
# From -- ./inp_files/66279.got.cif
#   From: 2010.05.17/outbox.cif.g08.bks.cpg/sg14_34_cif.got.tgz:66279.got - 2010.06.03 17:49:19.
