data_PCOD9245045
_publ_section_title
;
Structure prediction by ZEFSAII (Michael W. Deem and Ramdas Pophale) SiO2 
 PCOD9245045
Probable space group: P 21/C
;
_chemical_formula_sum "Si O2"
_cell_formula_units_Z 32
_cell_length_a 18.205916
_cell_length_b 4.630832
_cell_length_c 14.233630
_cell_angle_alpha 90.000000
_cell_angle_beta 100.752934
_cell_angle_gamma 90.000000
_cell_volume 1178.945265
_symmetry_space_group_name_H-M "P 21/C"
_symmetry_group_IT_number 14
_symmetry_cell_setting 'monoclinic'
loop_
_space_group_symop_operation_xyz
x,y,z
-x,1/2+y,1/2-z
-x,-y,-z
x,1/2-y,1/2+z
loop_
_atom_site_type_symbol
_atom_site_label
_atom_site_fract_x
_atom_site_fract_y
_atom_site_fract_z
Si Si1 0.515836 0.210940 0.819099
Si Si2 0.626027 0.779427 0.119931
Si Si3 0.716859 0.584792 0.969971
Si Si4 0.225683 0.886806 0.768528
Si Si5 0.667164 0.505769 0.309811
Si Si6 0.972830 0.683165 0.304949
Si Si7 0.903927 0.150433 0.387791
Si Si8 0.184115 0.598682 0.465155
O O1 0.481868 0.034015 0.721814
O O2 0.459683 0.124779 0.890351
O O3 0.602033 0.132596 0.857398
O O4 0.698335 0.964340 0.172414
O O5 0.624198 0.541155 0.201064
O O6 0.652650 0.650851 0.029036
O O7 0.690546 0.698375 0.864383
O O8 0.740936 0.256005 0.979139
O O9 0.792387 0.764539 0.017513
O O10 0.257648 0.631039 0.712884
O O11 0.164590 0.014431 0.681994
O O12 0.182341 0.818476 0.855385
O O13 0.029168 0.416037 0.108680
O O14 0.968731 0.932989 0.221422
O O15 0.915929 0.439515 0.328695
O O16 0.880681 0.277440 0.483934
#
# Coordination Sequence:
#
# PCOD9245045 Si02
#       8
#     4   4   4   4   4   4   4   4
#     4  10  21  36  58  78 110 166 211 253 322 375
#     4  10  22  39  56  82 126 157 209 264 321 363
#     4  11  23  35  58  84 121 162 204 263 317 364
#     4  11  22  37  61  91 125 160 205 263 306 358
#     4  11  21  38  59  81 120 161 211 264 315 369
#     4   9  21  42  68  97 127 164 198 237 290 353
#     4  11  21  37  69  93 123 164 202 240 298 361
#     4  11  23  38  57  95 130 158 199 252 312 354
#
# _framework density 27.142906
#
# number of rings (size 3 to 8) (size 9 to 14) (size 15 to 20)
#    0.000    1.500    3.750    1.500    1.750    0.500 
#    0.000    0.000    0.000   21.000    0.000    0.000 
#    0.000    0.000    0.000    0.000    0.000    0.000 
#
# Total GULP energy -178203.997832 kJ/mol
# GULP energy per Si atom -5568.874932 kJ/mol
# Density = 2.708113 g / cm^3
# Si number density = 27.142906 Si / 1000 Ang^3
#
#
#
# Elastic Constant Matrix: (Units=GPa)
#
#
# Indices 1 2 3 4 5 6 
#
# 1 127.6114 25.1435 36.8559 0.0000 -34.6841 0.0000
# 2 25.1435 98.9793 -5.1320 0.0000 -16.8419 0.0000
# 3 36.8559 -5.1320 118.6361 0.0000 -38.1555 0.0000
# 4 0.0000 0.0000 0.0000 15.2867 0.0000 -11.8573
# 5 -34.6841 -16.8419 -38.1555 0.0000 47.7482 0.0000
# 6 0.0000 0.0000 0.0000 -11.8573 0.0000 42.8567
#
#
#
# Elastic Compliance Matrix: (Units=1/GPa)
#
#
# Indices 1 2 3 4 5 6 
#
# 1 0.010101 -0.001682 -0.001402 0.000000 0.005624 0.000000
# 2 -0.001682 0.011501 0.002600 0.000000 0.004913 0.000000
# 3 -0.001402 0.002600 0.012039 0.000000 0.009519 0.000000
# 4 0.000000 0.000000 0.000000 0.083291 0.000000 0.023044
# 5 0.005624 0.004913 0.009519 0.000000 0.034368 0.000000
# 6 0.000000 0.000000 0.000000 0.023044 0.000000 0.029709
#
#
# Mechanical properties :
#
#
# Convention : Reuss Voigt Hill
#
# Bulk Modulus (GPa) = 30.60618 50.99572 40.80095
# Shear Modulus (GPa) = 25.92460 40.40227 33.16343
#
# Velocity S-wave (km/s) = 3.09385 3.86230 3.49923
# Velocity P-wave (km/s) = 4.90540 6.22241 5.60274
#
# Compressibility (1/GPa) = 0.03267314
#
# Stress axis : x y z
#
# Youngs Moduli (GPa) = 98.99899 86.94840 83.06657
#
# Poissons Ratio (x) = 0.14622 0.11646
# Poissons Ratio (y) = 0.16649 -0.21597
# Poissons Ratio (z) = 0.13880 -0.22607
#
# Static dielectric constant tensor:
#      x y z
#    x 2.491540 0.000000 -0.014120 
#    y 0.000000 2.168860 0.000000 
#    z -0.014120 0.000000 2.159320 
# 
# From -- ./inp_files/49488.got.cif
#   From: 2010.05.17/outbox.cif.g08.bks.cpg/sg14_25_cif.got.tgz:49488.got - 2010.06.03 17:49:19.
