data_PCOD9245211
_publ_section_title
;
Structure prediction by ZEFSAII (Michael W. Deem and Ramdas Pophale) SiO2 
 PCOD9245211
Probable space group: P 21/C
;
_chemical_formula_sum "Si O2"
_cell_formula_units_Z 20
_cell_length_a 25.137048
_cell_length_b 8.024127
_cell_length_c 15.381332
_cell_angle_alpha 90.000000
_cell_angle_beta 164.949488
_cell_angle_gamma 90.000000
_cell_volume 805.617029
_symmetry_space_group_name_H-M "P 21/C"
_symmetry_group_IT_number 14
_symmetry_cell_setting 'monoclinic'
loop_
_space_group_symop_operation_xyz
x,y,z
-x,1/2+y,1/2-z
-x,-y,-z
x,1/2-y,1/2+z
loop_
_atom_site_type_symbol
_atom_site_label
_atom_site_fract_x
_atom_site_fract_y
_atom_site_fract_z
Si Si1 0.123968 0.098331 0.830104
Si Si2 0.687350 0.048638 0.731772
Si Si3 0.923749 0.269487 0.856267
Si Si4 0.686112 0.552753 0.035095
Si Si5 0.497929 0.636009 0.572391
O O1 0.944307 0.170327 0.488085
O O2 0.157726 0.919994 0.831949
O O3 0.295836 0.246528 0.102715
O O4 0.115938 0.040745 0.917413
O O5 0.693118 0.245545 0.747898
O O6 0.500000 0.000000 0.500000
O O7 0.634413 0.000889 0.550595
O O8 0.796360 0.099680 0.658302
O O9 0.156647 0.207551 0.203565
O O10 0.499315 0.584163 0.675512
O O11 0.500000 0.500000 0.500000
#
# Coordination Sequence:
#
# PCOD9245211 Si02
#       5
#     4   4   4   4   4
#     4   9  19  37  58  84 116 152 193 241 291 349
#     4  10  22  37  55  83 117 153 192 235 290 351
#     4   9  19  38  60  83 113 150 198 243 291 345
#     4  10  21  37  60  86 114 152 194 244 294 348
#     4  10  21  37  58  85 120 156 195 243 294 356
#
# _framework density 24.825690999999999
#
# number of rings (size 3 to 8) (size 9 to 14) (size 15 to 20)
#    0.000    2.400    0.000    1.200    0.000    8.000 
#    0.000    8.000    0.000    0.000    0.000    0.000 
#    0.000    0.000    0.000    0.000    0.000    0.000 
#
# Total GULP energy -111482.487811 kJ/mol
# GULP energy per Si atom -5574.124391 kJ/mol
# Density = 2.476919 g / cm^3
# Si number density = 24.825691 Si / 1000 Ang^3
#
#
#
# Elastic Constant Matrix: (Units=GPa)
#
#
# Indices 1 2 3 4 5 6 
#
# 1 104.6016 37.2433 30.6930 0.0000 -28.6780 0.0000
# 2 37.2433 126.0317 54.2468 0.0000 -10.4661 0.0000
# 3 30.6930 54.2468 100.3619 0.0000 -27.4031 0.0000
# 4 0.0000 0.0000 0.0000 52.0246 0.0000 -21.7640
# 5 -28.6780 -10.4661 -27.4031 0.0000 47.0399 0.0000
# 6 0.0000 0.0000 0.0000 -21.7640 0.0000 23.8285
#
#
#
# Elastic Compliance Matrix: (Units=1/GPa)
#
#
# Indices 1 2 3 4 5 6 
#
# 1 0.012601 -0.002996 -0.000379 0.000000 0.006795 0.000000
# 2 -0.002996 0.011104 -0.005838 0.000000 -0.002757 0.000000
# 3 -0.000379 -0.005838 0.015242 0.000000 0.007349 0.000000
# 4 0.000000 0.000000 0.000000 0.031108 0.000000 0.028413
# 5 0.006795 -0.002757 0.007349 0.000000 0.029069 0.000000
# 6 0.000000 0.000000 0.000000 0.028413 0.000000 0.067917
#
#
# Mechanical properties :
#
#
# Convention : Reuss Voigt Hill
#
# Bulk Modulus (GPa) = 48.73266 63.92905 56.33085
# Shear Modulus (GPa) = 25.99992 38.49941 32.24966
#
# Velocity S-wave (km/s) = 3.23971 3.94228 3.60814
# Velocity P-wave (km/s) = 5.80231 6.82123 6.33230
#
# Compressibility (1/GPa) = 0.02052012
#
# Stress axis : x y z
#
# Youngs Moduli (GPa) = 79.35877 90.05835 65.60754
#
# Poissons Ratio (x) = 0.26985 0.02485
# Poissons Ratio (y) = 0.23779 0.38304
# Poissons Ratio (z) = 0.03006 0.52579
#
# Static dielectric constant tensor:
#      x y z
#    x 2.038010 0.000000 0.067510 
#    y 0.000000 2.025450 0.000000 
#    z 0.067510 0.000000 2.058040 
# 
# From -- ./inp_files/51801.got.cif
#   From: 2010.05.17/outbox.cif.g08.bks.cpg/sg14_26_cif.got.tgz:51801.got - 2010.06.03 17:49:19.
