data_PCOD9245519
_publ_section_title
;
Structure prediction by ZEFSAII (Michael W. Deem and Ramdas Pophale) SiO2 
 PCOD9245519
Probable space group: P 21/C
;
_chemical_formula_sum "Si O2"
_cell_formula_units_Z 24
_cell_length_a 5.160435
_cell_length_b 13.406649
_cell_length_c 14.219499
_cell_angle_alpha 90.000000
_cell_angle_beta 90.802710
_cell_angle_gamma 90.000000
_cell_volume 983.667276
_symmetry_space_group_name_H-M "P 21/C"
_symmetry_group_IT_number 14
_symmetry_cell_setting 'monoclinic'
loop_
_space_group_symop_operation_xyz
x,y,z
-x,1/2+y,1/2-z
-x,-y,-z
x,1/2-y,1/2+z
loop_
_atom_site_type_symbol
_atom_site_label
_atom_site_fract_x
_atom_site_fract_y
_atom_site_fract_z
Si Si1 0.540965 0.809693 0.629965
Si Si2 0.277880 0.895186 0.805335
Si Si3 0.236632 0.491513 0.614363
Si Si4 0.219221 0.784517 0.438603
Si Si5 0.870665 0.655475 0.551589
Si Si6 0.755296 0.497252 0.066492
O O1 0.334215 0.843097 0.706538
O O2 0.392760 0.800758 0.530858
O O3 0.705292 0.707493 0.632725
O O4 0.735827 0.903992 0.627711
O O5 0.496454 0.977566 0.829374
O O6 0.323920 0.805059 0.877881
O O7 0.997296 0.939605 0.828029
O O8 0.253508 0.430697 0.514857
O O9 0.130453 0.601788 0.591382
O O10 0.948844 0.744601 0.480093
O O11 0.219760 0.889536 0.384417
O O12 0.500000 0.500000 0.000000
O O13 0.000000 0.500000 0.000000
#
# Coordination Sequence:
#
# PCOD9245519 Si02
#       6
#     4   4   4   4   4   4
#     4  11  23  40  68  95 132 175 217 267 330 388
#     4  11  25  41  64  97 137 163 227 267 325 383
#     4  10  24  42  62  97 128 171 211 278 319 390
#     4  10  22  42  65  94 129 175 215 271 321 393
#     4  10  21  40  71  87 130 171 220 258 338 382
#     4  10  21  38  62  89 122 164 212 256 317 381
#
# _framework density 24.398492999999998
#
# number of rings (size 3 to 8) (size 9 to 14) (size 15 to 20)
#    0.000    1.667    3.333    0.000    4.667    3.333 
#    0.000    1.667    0.000    0.000    0.000    0.000 
#    0.000    0.000    0.000    0.000    0.000    0.000 
#
# Total GULP energy -134175.559375 kJ/mol
# GULP energy per Si atom -5590.648307 kJ/mol
# Density = 2.434296 g / cm^3
# Si number density = 24.398493 Si / 1000 Ang^3
#
#
#
# Elastic Constant Matrix: (Units=GPa)
#
#
# Indices 1 2 3 4 5 6 
#
# 1 104.0641 27.1277 20.6404 0.0000 -14.4767 0.0000
# 2 27.1277 138.5824 26.2334 0.0000 -16.8170 0.0000
# 3 20.6404 26.2334 81.8210 0.0000 -22.6266 0.0000
# 4 0.0000 0.0000 0.0000 25.2614 0.0000 -15.2237
# 5 -14.4767 -16.8170 -22.6266 0.0000 32.4134 0.0000
# 6 0.0000 0.0000 0.0000 -15.2237 0.0000 38.7582
#
#
#
# Elastic Compliance Matrix: (Units=1/GPa)
#
#
# Indices 1 2 3 4 5 6 
#
# 1 0.010689 -0.001460 -0.001385 0.000000 0.003050 0.000000
# 2 -0.001460 0.008094 -0.001544 0.000000 0.002469 0.000000
# 3 -0.001385 -0.001544 0.015705 0.000000 0.009544 0.000000
# 4 0.000000 0.000000 0.000000 0.051862 0.000000 0.020371
# 5 0.003050 0.002469 0.009544 0.000000 0.040157 0.000000
# 6 0.000000 0.000000 0.000000 0.020371 0.000000 0.033802
#
#
# Mechanical properties :
#
#
# Convention : Reuss Voigt Hill
#
# Bulk Modulus (GPa) = 38.89485 52.49674 45.69580
# Shear Modulus (GPa) = 28.14404 35.98435 32.06419
#
# Velocity S-wave (km/s) = 3.40003 3.84456 3.62911
# Velocity P-wave (km/s) = 5.60265 6.42422 6.02745
#
# Compressibility (1/GPa) = 0.02571035
#
# Stress axis : x y z
#
# Youngs Moduli (GPa) = 93.55377 123.55374 63.67250
#
# Poissons Ratio (x) = 0.18041 0.08818
# Poissons Ratio (y) = 0.13660 0.09829
# Poissons Ratio (z) = 0.12957 0.19074
#
# Static dielectric constant tensor:
#      x y z
#    x 1.997340 0.000000 -0.016850 
#    y 0.000000 2.013660 0.000000 
#    z -0.016850 0.000000 1.938530 
# 
# From -- ./inp_files/37140.got.cif
#   From: 2010.05.17/outbox.cif.g08.bks.cpg/sg14_19_cif.got.tgz:37140.got - 2010.06.03 17:49:19.
