data_PCOD9245803
_publ_section_title
;
Structure prediction by ZEFSAII (Michael W. Deem and Ramdas Pophale) SiO2 
 PCOD9245803
Probable space group: P 21/C
;
_chemical_formula_sum "Si O2"
_cell_formula_units_Z 28
_cell_length_a 6.650504
_cell_length_b 16.660325
_cell_length_c 14.422375
_cell_angle_alpha 90.000000
_cell_angle_beta 61.773644
_cell_angle_gamma 90.000000
_cell_volume 1407.969041
_symmetry_space_group_name_H-M "P 21/C"
_symmetry_group_IT_number 14
_symmetry_cell_setting 'monoclinic'
loop_
_space_group_symop_operation_xyz
x,y,z
-x,1/2+y,1/2-z
-x,-y,-z
x,1/2-y,1/2+z
loop_
_atom_site_type_symbol
_atom_site_label
_atom_site_fract_x
_atom_site_fract_y
_atom_site_fract_z
Si Si1 0.821852 0.949726 0.598706
Si Si2 0.395217 0.450545 0.182641
Si Si3 0.438923 0.155140 0.491719
Si Si4 0.839368 0.589470 0.598194
Si Si5 0.254371 0.327373 0.579190
Si Si6 0.114211 0.887532 0.701004
Si Si7 0.645975 0.057287 0.035913
O O1 0.713654 0.884452 0.554487
O O2 0.934101 0.907831 0.661013
O O3 0.626382 0.011534 0.671395
O O4 0.000000 0.000000 0.500000
O O5 0.285804 0.388928 0.279398
O O6 0.226812 0.526311 0.202677
O O7 0.452104 0.408358 0.073004
O O8 0.324781 0.235508 0.553812
O O9 0.685965 0.164969 0.389727
O O10 0.779308 0.638789 0.518641
O O11 0.739230 0.499825 0.597768
O O12 0.111042 0.587772 0.556095
O O13 0.464682 0.371465 0.587038
O O14 0.021749 0.347165 0.684944
O O15 0.500000 0.000000 0.000000
#
# Coordination Sequence:
#
# PCOD9245803 Si02
#       7
#     4   4   4   4   4   4   4
#     4  11  20  42  67  91 117 166 219 260 309 373
#     4  11  21  39  68  94 121 162 219 266 306 382
#     4  11  25  41  60  95 129 161 215 264 319 376
#     4  10  21  39  62  93 126 165 206 257 310 382
#     4  11  25  41  60  96 134 168 204 265 330 383
#     4  11  22  43  67  89 124 168 212 265 310 376
#     4   9  18  37  59  85 121 160 206 243 302 376
#
# _framework density 19.886800999999998
#
# number of rings (size 3 to 8) (size 9 to 14) (size 15 to 20)
#    0.000    1.429    2.857    4.286    0.000    5.714 
#    2.571    0.000    0.000    0.000    0.000    0.000 
#    0.000    0.000    0.000    0.000    0.000    0.000 
#
# Total GULP energy -156247.170380 kJ/mol
# GULP energy per Si atom -5580.256085 kJ/mol
# Density = 1.984154 g / cm^3
# Si number density = 19.886801 Si / 1000 Ang^3
#
#
#
# Elastic Constant Matrix: (Units=GPa)
#
#
# Indices 1 2 3 4 5 6 
#
# 1 101.0933 12.7030 31.8664 0.0000 -18.9518 0.0000
# 2 12.7030 68.1306 33.3312 0.0000 -18.7103 0.0000
# 3 31.8664 33.3312 134.8888 0.0000 -20.2878 0.0000
# 4 0.0000 0.0000 0.0000 20.9845 0.0000 -4.7369
# 5 -18.9518 -18.7103 -20.2878 0.0000 34.2775 0.0000
# 6 0.0000 0.0000 0.0000 -4.7369 0.0000 11.5241
#
#
#
# Elastic Compliance Matrix: (Units=1/GPa)
#
#
# Indices 1 2 3 4 5 6 
#
# 1 0.011480 0.000294 -0.001982 0.000000 0.005334 0.000000
# 2 0.000294 0.018565 -0.003412 0.000000 0.008277 0.000000
# 3 -0.001982 -0.003412 0.009089 0.000000 0.002421 0.000000
# 4 0.000000 0.000000 0.000000 0.052528 0.000000 0.021592
# 5 0.005334 0.008277 0.002421 0.000000 0.038074 0.000000
# 6 0.000000 0.000000 0.000000 0.021592 0.000000 0.095650
#
#
# Mechanical properties :
#
#
# Convention : Reuss Voigt Hill
#
# Bulk Modulus (GPa) = 34.56168 51.10155 42.83162
# Shear Modulus (GPa) = 20.38890 28.43801 24.41346
#
# Velocity S-wave (km/s) = 3.20542 3.78563 3.50754
# Velocity P-wave (km/s) = 5.57822 6.69776 6.16346
#
# Compressibility (1/GPa) = 0.02893378
#
# Stress axis : x y z
#
# Youngs Moduli (GPa) = 87.10952 53.86428 110.02174
#
# Poissons Ratio (x) = -0.01586 0.21811
# Poissons Ratio (y) = -0.02565 0.37541
# Poissons Ratio (z) = 0.17269 0.18379
#
# Static dielectric constant tensor:
#      x y z
#    x 1.682900 0.000000 -0.017350 
#    y 0.000000 1.726310 0.000000 
#    z -0.017350 0.000000 1.761180 
# 
# From -- ./inp_files/37614.got.cif
#   From: 2010.05.17/outbox.cif.g08.bks.cpg/sg14_19_cif.got.tgz:37614.got - 2010.06.03 17:49:19.
