data_PCOD9245717
_publ_section_title
;
Structure prediction by ZEFSAII (Michael W. Deem and Ramdas Pophale) SiO2 
 PCOD9245717
Probable space group: P 21/C
;
_chemical_formula_sum "Si O2"
_cell_formula_units_Z 30
_cell_length_a 25.627979
_cell_length_b 11.013730
_cell_length_c 9.085517
_cell_angle_alpha 90.000000
_cell_angle_beta 149.256980
_cell_angle_gamma 90.000000
_cell_volume 1310.929718
_symmetry_space_group_name_H-M "P 21/C"
_symmetry_group_IT_number 14
_symmetry_cell_setting 'monoclinic'
loop_
_space_group_symop_operation_xyz
x,y,z
-x,1/2+y,1/2-z
-x,-y,-z
x,1/2-y,1/2+z
loop_
_atom_site_type_symbol
_atom_site_label
_atom_site_fract_x
_atom_site_fract_y
_atom_site_fract_z
Si Si1 0.795612 0.643518 0.841520
Si Si2 0.578593 0.732683 0.192952
Si Si3 0.101038 0.149816 0.717562
Si Si4 0.677425 0.424524 0.684369
Si Si5 0.864205 0.120325 0.139561
Si Si6 0.261357 0.740945 0.413264
Si Si7 0.507845 0.872671 0.784649
Si Si8 0.500000 0.500000 0.500000
O O1 0.689286 0.687728 0.508957
O O2 0.872145 0.633693 0.889969
O O3 0.765836 0.519840 0.855133
O O4 0.837749 0.740138 0.060375
O O5 0.559370 0.749654 0.972701
O O6 0.503334 0.645436 0.102554
O O7 0.555183 0.871333 0.176191
O O8 0.979993 0.166445 0.439814
O O9 0.130712 0.024188 0.869332
O O10 0.665172 0.339684 0.512579
O O11 0.581817 0.509671 0.501387
O O12 0.697814 0.335043 0.867147
O O13 0.801696 0.148018 0.136321
O O14 0.812702 0.190028 0.879608
O O15 0.423170 0.917218 0.689556
#
# Coordination Sequence:
#
# PCOD9245717 Si02
#       8
#     4   4   4   4   4   4   4   2
#     4  11  21  37  62  89 119 154 213 254 307 363
#     4   9  19  38  63  88 125 152 192 251 297 361
#     4  11  23  36  58  91 116 159 210 259 306 366
#     4  10  21  39  59  88 116 160 209 252 307 372
#     4  10  22  39  56  82 123 160 208 258 313 357
#     4  10  21  41  57  77 123 165 202 257 310 366
#     4   9  19  39  60  91 121 154 197 243 296 368
#     4   8  20  38  62  86 128 146 194 230 316 354
#
# _framework density 22.884522
#
# number of rings (size 3 to 8) (size 9 to 14) (size 15 to 20)
#    0.800    1.333    1.333    2.400    3.733    0.000 
#    2.400    2.667    0.000    0.000    0.000    0.000 
#    0.000    0.000    0.000    0.000    0.000    0.000 
#
# Total GULP energy -167028.765024 kJ/mol
# GULP energy per Si atom -5567.625501 kJ/mol
# Density = 2.283244 g / cm^3
# Si number density = 22.884522 Si / 1000 Ang^3
#
#
#
# Elastic Constant Matrix: (Units=GPa)
#
#
# Indices 1 2 3 4 5 6 
#
# 1 91.3816 16.3442 34.8400 0.0000 -13.7150 0.0000
# 2 16.3442 98.6181 46.3627 0.0000 -13.0414 0.0000
# 3 34.8400 46.3627 81.5007 0.0000 -14.3060 0.0000
# 4 0.0000 0.0000 0.0000 29.0166 0.0000 -7.7036
# 5 -13.7150 -13.0414 -14.3060 0.0000 22.2035 0.0000
# 6 0.0000 0.0000 0.0000 -7.7036 0.0000 48.7748
#
#
#
# Elastic Compliance Matrix: (Units=1/GPa)
#
#
# Indices 1 2 3 4 5 6 
#
# 1 0.013671 0.001033 -0.005460 0.000000 0.005533 0.000000
# 2 0.001033 0.014158 -0.007807 0.000000 0.003924 0.000000
# 3 -0.005460 -0.007807 0.019899 0.000000 0.004863 0.000000
# 4 0.000000 0.000000 0.000000 0.035971 0.000000 0.005681
# 5 0.005533 0.003924 0.004863 0.000000 0.053893 0.000000
# 6 0.000000 0.000000 0.000000 0.005681 0.000000 0.021400
#
#
# Mechanical properties :
#
#
# Convention : Reuss Voigt Hill
#
# Bulk Modulus (GPa) = 42.99429 51.84381 47.41905
# Shear Modulus (GPa) = 26.14889 31.59589 28.87239
#
# Velocity S-wave (km/s) = 3.38397 3.71976 3.55583
# Velocity P-wave (km/s) = 5.83923 6.41503 6.13389
#
# Compressibility (1/GPa) = 0.02325890
#
# Stress axis : x y z
#
# Youngs Moduli (GPa) = 73.14988 70.63158 50.25481
#
# Poissons Ratio (x) = -0.07297 0.27441
# Poissons Ratio (y) = -0.07557 0.39233
# Poissons Ratio (z) = 0.39943 0.55141
#
# Static dielectric constant tensor:
#      x y z
#    x 1.779370 0.000000 0.021060 
#    y 0.000000 1.838820 0.000000 
#    z 0.021060 0.000000 1.921990 
# 
# From -- ./inp_files/19988.got.cif
#   From: 2010.05.17/outbox.cif.g08.bks.cpg/sg14_10_cif.got.tgz:19988.got - 2010.06.03 17:49:19.
