data_PCOD9245089
_publ_section_title
;
Structure prediction by ZEFSAII (Michael W. Deem and Ramdas Pophale) SiO2 
 PCOD9245089
Probable space group: P 21/C
;
_chemical_formula_sum "Si O2"
_cell_formula_units_Z 28
_cell_length_a 14.891973
_cell_length_b 17.474311
_cell_length_c 9.003315
_cell_angle_alpha 90.000000
_cell_angle_beta 141.925968
_cell_angle_gamma 90.000000
_cell_volume 1444.820890
_symmetry_space_group_name_H-M "P 21/C"
_symmetry_group_IT_number 14
_symmetry_cell_setting 'monoclinic'
loop_
_space_group_symop_operation_xyz
x,y,z
-x,1/2+y,1/2-z
-x,-y,-z
x,1/2-y,1/2+z
loop_
_atom_site_type_symbol
_atom_site_label
_atom_site_fract_x
_atom_site_fract_y
_atom_site_fract_z
Si Si1 0.364583 0.606367 0.084192
Si Si2 0.000911 0.347458 0.108805
Si Si3 0.687907 0.594248 0.484943
Si Si4 0.043447 0.411043 0.703966
Si Si5 0.089421 0.709587 0.682207
Si Si6 0.768489 0.993735 0.807382
Si Si7 0.204343 0.510407 0.130794
O O1 0.531441 0.629493 0.315857
O O2 0.305053 0.559827 0.149917
O O3 0.251874 0.674576 0.901897
O O4 0.347519 0.546174 0.927280
O O5 0.974161 0.313215 0.239598
O O6 0.173031 0.352155 0.308138
O O7 0.922874 0.297418 0.880339
O O8 0.930416 0.432216 0.015873
O O9 0.701888 0.565487 0.334452
O O10 0.710017 0.518817 0.615231
O O11 0.133353 0.452358 0.689116
O O12 0.998284 0.332153 0.566678
O O13 0.889472 0.451481 0.538811
O O14 0.144599 0.432790 0.974206
#
# Coordination Sequence:
#
# PCOD9245089 Si02
#       7
#     4   4   4   4   4   4   4
#     4   9  21  38  57  82 122 156 182 241 312 346
#     4  11  23  37  59  86 118 152 204 240 289 354
#     4  12  20  34  60  93 114 142 204 252 279 346
#     4   9  16  35  57  81 114 153 189 235 288 341
#     4  10  22  40  58  80 117 165 192 236 298 356
#     4   9  16  31  57  83 111 145 189 237 286 339
#     4  10  21  36  60  90 118 150 194 250 296 341
#
# _framework density 19.379564999999999
#
# number of rings (size 3 to 8) (size 9 to 14) (size 15 to 20)
#    0.000    2.000    2.857    3.000    2.000    1.143 
#    0.000    2.857    6.286    0.000    0.000    0.000 
#    0.000    0.000    0.000    0.000    0.000    0.000 
#
# Total GULP energy -156060.915885 kJ/mol
# GULP energy per Si atom -5573.604139 kJ/mol
# Density = 1.933546 g / cm^3
# Si number density = 19.379565 Si / 1000 Ang^3
#
#
#
# Elastic Constant Matrix: (Units=GPa)
#
#
# Indices 1 2 3 4 5 6 
#
# 1 74.7036 25.3967 50.9150 0.0000 16.9865 0.0000
# 2 25.3967 53.7263 32.6953 0.0000 -3.1697 0.0000
# 3 50.9150 32.6953 74.6765 0.0000 16.0902 0.0000
# 4 0.0000 0.0000 0.0000 25.0914 0.0000 -10.7564
# 5 16.9865 -3.1697 16.0902 0.0000 29.5070 0.0000
# 6 0.0000 0.0000 0.0000 -10.7564 0.0000 13.2741
#
#
#
# Elastic Compliance Matrix: (Units=1/GPa)
#
#
# Indices 1 2 3 4 5 6 
#
# 1 0.026486 -0.004088 -0.014604 0.000000 -0.007723 0.000000
# 2 -0.004088 0.028876 -0.012499 0.000000 0.012271 0.000000
# 3 -0.014604 -0.012499 0.030933 0.000000 -0.009803 0.000000
# 4 0.000000 0.000000 0.000000 0.061068 0.000000 0.049485
# 5 -0.007723 0.012271 -0.009803 0.000000 0.045000 0.000000
# 6 0.000000 0.000000 0.000000 0.049485 0.000000 0.115434
#
#
# Mechanical properties :
#
#
# Convention : Reuss Voigt Hill
#
# Bulk Modulus (GPa) = 41.82122 46.79116 44.30619
# Shear Modulus (GPa) = 13.22225 19.84780 16.53502
#
# Velocity S-wave (km/s) = 2.61488 3.20372 2.92416
# Velocity P-wave (km/s) = 5.54470 6.15485 5.85772
#
# Compressibility (1/GPa) = 0.02391131
#
# Stress axis : x y z
#
# Youngs Moduli (GPa) = 37.75608 34.63108 32.32769
#
# Poissons Ratio (x) = 0.14157 0.47213
# Poissons Ratio (y) = 0.15435 0.40407
# Poissons Ratio (z) = 0.55140 0.43287
#
# Static dielectric constant tensor:
#      x y z
#    x 1.688290 0.000000 -0.019570 
#    y 0.000000 1.692080 0.000000 
#    z -0.019570 0.000000 1.694620 
# 
# From -- ./inp_files/14138.got.cif
#   From: 2010.05.17/outbox.cif.g08.bks.cpg/sg14_8_cif.got.tgz:14138.got - 2010.06.03 17:49:19.
