data_PCOD9245035
_publ_section_title
;
Structure prediction by ZEFSAII (Michael W. Deem and Ramdas Pophale) SiO2 
 PCOD9245035
Probable space group: P 21/C
;
_chemical_formula_sum "Si O2"
_cell_formula_units_Z 20
_cell_length_a 8.437656
_cell_length_b 8.133424
_cell_length_c 12.728007
_cell_angle_alpha 90.000000
_cell_angle_beta 115.599314
_cell_angle_gamma 90.000000
_cell_volume 787.742034
_symmetry_space_group_name_H-M "P 21/C"
_symmetry_group_IT_number 14
_symmetry_cell_setting 'monoclinic'
loop_
_space_group_symop_operation_xyz
x,y,z
-x,1/2+y,1/2-z
-x,-y,-z
x,1/2-y,1/2+z
loop_
_atom_site_type_symbol
_atom_site_label
_atom_site_fract_x
_atom_site_fract_y
_atom_site_fract_z
Si Si1 0.775294 0.693807 0.022154
Si Si2 0.980810 0.329846 0.558601
Si Si3 0.307220 0.972225 0.900804
Si Si4 0.705771 0.571612 0.209248
Si Si5 0.554366 0.261053 0.729160
O O1 0.734970 0.552209 0.093839
O O2 0.786867 0.855612 0.101243
O O3 0.949841 0.692160 0.001610
O O4 0.610187 0.723058 0.896949
O O5 0.122983 0.346885 0.691647
O O6 0.000000 0.500000 0.500000
O O7 0.793246 0.334884 0.559665
O O8 0.332067 0.907704 0.790015
O O9 0.500000 0.000000 0.000000
O O10 0.536370 0.682805 0.189556
O O11 0.669512 0.402130 0.260402
#
# Coordination Sequence:
#
# PCOD9245035 Si02
#       5
#     4   4   4   4   4
#     4   9  19  37  58  83 117 150 189 239 286 345
#     4   9  20  37  57  82 116 152 189 235 288 347
#     4   9  18  36  59  81 112 153 188 231 291 343
#     4  11  21  36  59  86 116 153 194 238 290 344
#     4  10  21  36  57  86 116 152 193 237 286 347
#
# _framework density 25.389025
#
# number of rings (size 3 to 8) (size 9 to 14) (size 15 to 20)
#    0.000    2.400    0.000    3.000    0.000    6.400 
#    0.000    1.000    0.000    0.000    0.000    4.200 
#    0.000    0.000    0.000    0.000    0.000    0.000 
#
# Total GULP energy -111823.206274 kJ/mol
# GULP energy per Si atom -5591.160314 kJ/mol
# Density = 2.533124 g / cm^3
# Si number density = 25.389025 Si / 1000 Ang^3
#
#
#
# Elastic Constant Matrix: (Units=GPa)
#
#
# Indices 1 2 3 4 5 6 
#
# 1 161.8254 25.5200 39.7302 0.0000 -29.0778 0.0000
# 2 25.5200 80.4515 9.0192 0.0000 0.9343 0.0000
# 3 39.7302 9.0192 75.6129 0.0000 -8.2712 0.0000
# 4 0.0000 0.0000 0.0000 35.5405 0.0000 -8.0716
# 5 -29.0778 0.9343 -8.2712 0.0000 24.6510 0.0000
# 6 0.0000 0.0000 0.0000 -8.0716 0.0000 22.1446
#
#
#
# Elastic Compliance Matrix: (Units=1/GPa)
#
#
# Indices 1 2 3 4 5 6 
#
# 1 0.009205 -0.002647 -0.003449 0.000000 0.009801 0.000000
# 2 -0.002647 0.013384 -0.000626 0.000000 -0.003840 0.000000
# 3 -0.003449 -0.000626 0.015229 0.000000 0.001065 0.000000
# 4 0.000000 0.000000 0.000000 0.030676 0.000000 0.011181
# 5 0.009801 -0.003840 0.001065 0.000000 0.052630 0.000000
# 6 0.000000 0.000000 0.000000 0.011181 0.000000 0.049233
#
#
# Mechanical properties :
#
#
# Convention : Reuss Voigt Hill
#
# Bulk Modulus (GPa) = 41.02608 51.82540 46.42574
# Shear Modulus (GPa) = 26.05188 32.70858 29.38023
#
# Velocity S-wave (km/s) = 3.20677 3.59318 3.40546
# Velocity P-wave (km/s) = 5.46857 6.13770 5.81277
#
# Compressibility (1/GPa) = 0.02437474
#
# Stress axis : x y z
#
# Youngs Moduli (GPa) = 108.63996 74.71475 65.66627
#
# Poissons Ratio (x) = 0.19777 0.22646
# Poissons Ratio (y) = 0.28757 0.04108
# Poissons Ratio (z) = 0.37467 0.04674
#
# Static dielectric constant tensor:
#      x y z
#    x 2.009210 0.000000 -0.028370 
#    y 0.000000 2.098380 0.000000 
#    z -0.028370 0.000000 2.007590 
# 
# From -- ./inp_files/23126.got.cif
#   From: 2010.05.17/outbox.cif.g08.bks.cpg/sg14_12_cif.got.tgz:23126.got - 2010.06.03 17:49:19.
