data_PCOD9245486
_publ_section_title
;
Structure prediction by ZEFSAII (Michael W. Deem and Ramdas Pophale) SiO2 
 PCOD9245486
Probable space group: P 21/C
;
_chemical_formula_sum "Si O2"
_cell_formula_units_Z 28
_cell_length_a 25.672264
_cell_length_b 8.067164
_cell_length_c 25.267951
_cell_angle_alpha 90.000000
_cell_angle_beta 169.302107
_cell_angle_gamma 90.000000
_cell_volume 971.414029
_symmetry_space_group_name_H-M "P 21/C"
_symmetry_group_IT_number 14
_symmetry_cell_setting 'monoclinic'
loop_
_space_group_symop_operation_xyz
x,y,z
-x,1/2+y,1/2-z
-x,-y,-z
x,1/2-y,1/2+z
loop_
_atom_site_type_symbol
_atom_site_label
_atom_site_fract_x
_atom_site_fract_y
_atom_site_fract_z
Si Si1 0.980514 0.121413 0.751073
Si Si2 0.150592 0.937847 0.234538
Si Si3 0.686833 0.079896 0.826927
Si Si4 0.252344 0.074964 0.813982
Si Si5 0.722627 0.230477 0.230248
Si Si6 0.932781 0.876356 0.577358
Si Si7 0.509541 0.913546 0.813651
O O1 0.951797 0.296328 0.752992
O O2 0.681327 0.069054 0.430115
O O3 0.132434 0.006079 0.945619
O O4 0.186663 0.125976 0.906884
O O5 0.419641 0.974223 0.539831
O O6 0.246673 0.899600 0.271176
O O7 0.977349 0.773530 0.080454
O O8 0.921858 0.081090 0.015078
O O9 0.585371 0.250021 0.750299
O O10 0.012965 0.151087 0.538120
O O11 0.376170 0.902618 0.914153
O O12 0.105211 0.026048 0.722191
O O13 0.498305 0.208948 0.053081
O O14 0.619858 0.937394 0.279190
#
# Coordination Sequence:
#
# PCOD9245486 Si02
#       7
#     4   4   4   4   4   4   4
#     4  11  23  39  58  83 116 158 202 248 304 363
#     4  10  21  38  61  87 119 157 199 244 304 374
#     4  11  22  38  59  85 118 159 200 245 306 370
#     4   9  18  31  54  86 114 143 192 251 300 347
#     4   9  17  32  55  84 114 147 189 244 301 359
#     4  10  23  39  62  89 119 156 204 255 303 361
#     4  12  24  39  59  85 120 156 202 255 304 360
#
# _framework density 28.823962000000002
#
# number of rings (size 3 to 8) (size 9 to 14) (size 15 to 20)
#    0.000    1.714    0.000    5.143    0.000   11.429 
#    0.000    0.000    0.000    5.143    0.000    0.000 
#    0.000    0.000    0.000    0.000    0.000    0.000 
#
# Total GULP energy -157046.009273 kJ/mol
# GULP energy per Si atom -5608.786045 kJ/mol
# Density = 2.875836 g / cm^3
# Si number density = 28.823962 Si / 1000 Ang^3
#
#
#
# Elastic Constant Matrix: (Units=GPa)
#
#
# Indices 1 2 3 4 5 6 
#
# 1 129.8926 37.9416 15.9909 0.0000 16.0849 0.0000
# 2 37.9416 112.7474 12.8084 0.0000 8.2325 0.0000
# 3 15.9909 12.8084 145.9858 0.0000 11.6877 0.0000
# 4 0.0000 0.0000 0.0000 43.5690 0.0000 13.2195
# 5 16.0849 8.2325 11.6877 0.0000 54.8714 0.0000
# 6 0.0000 0.0000 0.0000 13.2195 0.0000 68.9119
#
#
#
# Elastic Compliance Matrix: (Units=1/GPa)
#
#
# Indices 1 2 3 4 5 6 
#
# 1 0.008827 -0.002757 -0.000561 0.000000 -0.002055 0.000000
# 2 -0.002757 0.009898 -0.000521 0.000000 -0.000566 0.000000
# 3 -0.000561 -0.000521 0.007058 0.000000 -0.001261 0.000000
# 4 0.000000 0.000000 0.000000 0.024371 0.000000 -0.004675
# 5 -0.002055 -0.000566 -0.001261 0.000000 0.019180 0.000000
# 6 0.000000 0.000000 0.000000 -0.004675 0.000000 0.015408
#
#
# Mechanical properties :
#
#
# Convention : Reuss Voigt Hill
#
# Bulk Modulus (GPa) = 55.23034 58.01196 56.62115
# Shear Modulus (GPa) = 50.78497 54.92946 52.85722
#
# Velocity S-wave (km/s) = 4.20205 4.37015 4.28693
# Velocity P-wave (km/s) = 6.53803 6.75532 6.64756
#
# Compressibility (1/GPa) = 0.01810599
#
# Stress axis : x y z
#
# Youngs Moduli (GPa) = 113.28375 101.03419 141.68217
#
# Poissons Ratio (x) = 0.27854 0.07942
# Poissons Ratio (y) = 0.31231 0.07383
# Poissons Ratio (z) = 0.06350 0.05265
#
# Static dielectric constant tensor:
#      x y z
#    x 2.304990 0.000000 -0.074970 
#    y 0.000000 2.282710 0.000000 
#    z -0.074970 0.000000 2.231980 
# 
# From -- ./inp_files/80988.got.cif
#   From: 2010.05.17/outbox.cif.g08.bks.cpg/sg14_41_cif.got.tgz:80988.got - 2010.06.03 17:49:19.
