data_PCOD9245625
_publ_section_title
;
Structure prediction by ZEFSAII (Michael W. Deem and Ramdas Pophale) SiO2 
 PCOD9245625
Probable space group: P 21/C
;
_chemical_formula_sum "Si O2"
_cell_formula_units_Z 20
_cell_length_a 10.229150
_cell_length_b 9.259420
_cell_length_c 14.197865
_cell_angle_alpha 90.000000
_cell_angle_beta 138.138113
_cell_angle_gamma 90.000000
_cell_volume 897.411786
_symmetry_space_group_name_H-M "P 21/C"
_symmetry_group_IT_number 14
_symmetry_cell_setting 'monoclinic'
loop_
_space_group_symop_operation_xyz
x,y,z
-x,1/2+y,1/2-z
-x,-y,-z
x,1/2-y,1/2+z
loop_
_atom_site_type_symbol
_atom_site_label
_atom_site_fract_x
_atom_site_fract_y
_atom_site_fract_z
Si Si1 0.380395 0.899562 0.864737
Si Si2 0.834693 0.933425 0.845419
Si Si3 0.856698 0.899383 0.362384
Si Si4 0.463636 0.083863 0.579251
Si Si5 0.032729 0.043859 0.299715
O O1 0.485545 0.751592 0.900929
O O2 0.161507 0.860333 0.785697
O O3 0.336466 0.003731 0.753210
O O4 0.500000 0.000000 0.000000
O O5 0.818493 0.765212 0.864723
O O6 0.912824 0.954951 0.780052
O O7 0.622163 0.009720 0.732939
O O8 0.000000 0.000000 0.000000
O O9 0.000000 0.000000 0.500000
O O10 0.949683 0.898558 0.305363
O O11 0.229574 0.077825 0.463700
O O12 0.500000 0.000000 0.500000
#
# Coordination Sequence:
#
# PCOD9245625 Si02
#       5
#     4   4   4   4   4
#     4  10  21  40  68  93 130 173 219 262 327 392
#     4  11  23  41  67  99 131 168 225 274 319 392
#     4  10  23  44  63  93 135 171 217 271 323 395
#     4  10  21  38  65  97 129 170 221 269 317 392
#     4   9  24  41  68  91 136 173 215 261 342 374
#
# _framework density 22.286313
#
# number of rings (size 3 to 8) (size 9 to 14) (size 15 to 20)
#    1.200    0.800    0.000    3.600    5.600    0.000 
#    3.600    0.000    0.000    0.000    0.000    0.000 
#    0.000    0.000    0.000    0.000    0.000    0.000 
#
# Total GULP energy -111432.080761 kJ/mol
# GULP energy per Si atom -5571.604038 kJ/mol
# Density = 2.223559 g / cm^3
# Si number density = 22.286313 Si / 1000 Ang^3
#
#
#
# Elastic Constant Matrix: (Units=GPa)
#
#
# Indices 1 2 3 4 5 6 
#
# 1 106.3687 15.3347 24.6401 0.0000 20.9119 0.0000
# 2 15.3347 189.3114 75.1294 0.0000 6.9860 0.0000
# 3 24.6401 75.1294 184.4115 0.0000 21.6798 0.0000
# 4 0.0000 0.0000 0.0000 32.6288 0.0000 -1.1725
# 5 20.9119 6.9860 21.6798 0.0000 40.9367 0.0000
# 6 0.0000 0.0000 0.0000 -1.1725 0.0000 16.2110
#
#
#
# Elastic Compliance Matrix: (Units=1/GPa)
#
#
# Indices 1 2 3 4 5 6 
#
# 1 0.010595 -0.000412 -0.000661 0.000000 -0.004992 0.000000
# 2 -0.000412 0.006321 -0.002578 0.000000 0.000497 0.000000
# 3 -0.000661 -0.002578 0.006900 0.000000 -0.002876 0.000000
# 4 0.000000 0.000000 0.000000 0.030728 0.000000 0.002222
# 5 -0.004992 0.000497 -0.002876 0.000000 0.028416 0.000000
# 6 0.000000 0.000000 0.000000 0.002222 0.000000 0.061847
#
#
# Mechanical properties :
#
#
# Convention : Reuss Voigt Hill
#
# Bulk Modulus (GPa) = 60.55863 78.92224 69.74043
# Shear Modulus (GPa) = 31.72322 42.28780 37.00551
#
# Velocity S-wave (km/s) = 3.77694 4.36073 4.07929
# Velocity P-wave (km/s) = 6.80091 7.80028 7.31768
#
# Compressibility (1/GPa) = 0.01651292
#
# Stress axis : x y z
#
# Youngs Moduli (GPa) = 94.38265 158.21346 144.93615
#
# Poissons Ratio (x) = 0.06513 0.09582
# Poissons Ratio (y) = 0.03885 0.37371
# Poissons Ratio (z) = 0.06240 0.40795
#
# Static dielectric constant tensor:
#      x y z
#    x 1.923890 0.000000 -0.042180 
#    y 0.000000 2.199190 0.000000 
#    z -0.042180 0.000000 1.856490 
# 
# From -- ./inp_files/58825.got.cif
#   From: 2010.05.17/outbox.cif.g08.bks.cpg/sg14_30_cif.got.tgz:58825.got - 2010.06.03 17:49:19.
