data_PCOD9245281
_publ_section_title
;
Structure prediction by ZEFSAII (Michael W. Deem and Ramdas Pophale) SiO2 
 PCOD9245281
Probable space group: P 21/C
;
_chemical_formula_sum "Si O2"
_cell_formula_units_Z 28
_cell_length_a 12.360770
_cell_length_b 19.055084
_cell_length_c 8.030286
_cell_angle_alpha 90.000000
_cell_angle_beta 42.999088
_cell_angle_gamma 90.000000
_cell_volume 1289.921624
_symmetry_space_group_name_H-M "P 21/C"
_symmetry_group_IT_number 14
_symmetry_cell_setting 'monoclinic'
loop_
_space_group_symop_operation_xyz
x,y,z
-x,1/2+y,1/2-z
-x,-y,-z
x,1/2-y,1/2+z
loop_
_atom_site_type_symbol
_atom_site_label
_atom_site_fract_x
_atom_site_fract_y
_atom_site_fract_z
Si Si1 0.653721 0.665047 0.838557
Si Si2 0.366782 0.443636 0.679083
Si Si3 0.957357 0.521411 0.857292
Si Si4 0.269352 0.029790 0.921413
Si Si5 0.399970 0.627624 0.352775
Si Si6 0.942294 0.327433 0.181772
Si Si7 0.144034 0.268809 0.669305
O O1 0.669778 0.581511 0.789042
O O2 0.776912 0.703497 0.822821
O O3 0.711857 0.699482 0.600343
O O4 0.477391 0.671155 0.113592
O O5 0.500000 0.500000 0.500000
O O6 0.301828 0.433755 0.565285
O O7 0.455052 0.382099 0.678750
O O8 0.230299 0.480294 0.942735
O O9 0.079786 0.477721 0.611165
O O10 0.001482 0.602494 0.788913
O O11 0.000000 0.500000 0.000000
O O12 0.343166 0.950976 0.856000
O O13 0.247173 0.663466 0.610540
O O14 0.002786 0.260682 0.214140
O O15 0.050034 0.321886 0.895520
#
# Coordination Sequence:
#
# PCOD9245281 Si02
#       7
#     4   4   4   4   4   4   4
#     4  11  22  39  60  86 116 152 197 243 291 344
#     4   9  17  31  54  87 119 149 183 226 291 355
#     4   9  16  31  57  83 110 146 185 230 284 342
#     4   9  19  36  60  89 120 151 189 243 299 352
#     4  10  21  37  61  90 120 149 190 250 299 345
#     4  10  21  40  58  81 112 150 195 235 288 352
#     4  10  23  40  60  80 112 159 199 237 284 354
#
# _framework density 21.706745999999999
#
# number of rings (size 3 to 8) (size 9 to 14) (size 15 to 20)
#    0.000    2.286    0.000    3.857    0.000    2.286 
#    0.000   12.143    0.000    0.000    0.000    0.000 
#    0.000    0.000    0.000    0.000    0.000    0.000 
#
# Total GULP energy -155900.148525 kJ/mol
# GULP energy per Si atom -5567.862447 kJ/mol
# Density = 2.165734 g / cm^3
# Si number density = 21.706746 Si / 1000 Ang^3
#
#
#
# Elastic Constant Matrix: (Units=GPa)
#
#
# Indices 1 2 3 4 5 6 
#
# 1 50.4220 23.8794 41.4479 0.0000 -12.1684 0.0000
# 2 23.8794 53.4095 31.9416 0.0000 -0.6278 0.0000
# 3 41.4479 31.9416 162.0144 0.0000 -22.4683 0.0000
# 4 0.0000 0.0000 0.0000 39.0009 0.0000 -2.0501
# 5 -12.1684 -0.6278 -22.4683 0.0000 32.1009 0.0000
# 6 0.0000 0.0000 0.0000 -2.0501 0.0000 17.0057
#
#
#
# Elastic Compliance Matrix: (Units=1/GPa)
#
#
# Indices 1 2 3 4 5 6 
#
# 1 0.030750 -0.010918 -0.004571 0.000000 0.008243 0.000000
# 2 -0.010918 0.025329 -0.002997 0.000000 -0.005741 0.000000
# 3 -0.004571 -0.002997 0.008510 0.000000 0.004165 0.000000
# 4 0.000000 0.000000 0.000000 0.025804 0.000000 0.003111
# 5 0.008243 -0.005741 0.004165 0.000000 0.037080 0.000000
# 6 0.000000 0.000000 0.000000 0.003111 0.000000 0.059179
#
#
# Mechanical properties :
#
#
# Convention : Reuss Voigt Hill
#
# Bulk Modulus (GPa) = 36.20787 51.15376 43.68082
# Shear Modulus (GPa) = 21.47495 28.85996 25.16746
#
# Velocity S-wave (km/s) = 3.14876 3.65024 3.40873
# Velocity P-wave (km/s) = 5.47140 6.43294 5.97155
#
# Compressibility (1/GPa) = 0.02761830
#
# Stress axis : x y z
#
# Youngs Moduli (GPa) = 32.52022 39.47989 117.50660
#
# Poissons Ratio (x) = 0.43103 0.53713
# Poissons Ratio (y) = 0.35505 0.35214
# Poissons Ratio (z) = 0.14865 0.11831
#
# Static dielectric constant tensor:
#      x y z
#    x 1.865820 0.000000 0.030170 
#    y 0.000000 1.794620 0.000000 
#    z 0.030170 0.000000 1.812630 
# 
# From -- ./inp_files/14269.got.cif
#   From: 2010.05.17/outbox.cif.g08.bks.cpg/sg14_8_cif.got.tgz:14269.got - 2010.06.03 17:49:19.
