data_PCOD9245317
_publ_section_title
;
Structure prediction by ZEFSAII (Michael W. Deem and Ramdas Pophale) SiO2 
 PCOD9245317
Probable space group: P 21/C
;
_chemical_formula_sum "Si O2"
_cell_formula_units_Z 28
_cell_length_a 8.574612
_cell_length_b 6.809746
_cell_length_c 23.879729
_cell_angle_alpha 90.000000
_cell_angle_beta 113.922648
_cell_angle_gamma 90.000000
_cell_volume 1274.575360
_symmetry_space_group_name_H-M "P 21/C"
_symmetry_group_IT_number 14
_symmetry_cell_setting 'monoclinic'
loop_
_space_group_symop_operation_xyz
x,y,z
-x,1/2+y,1/2-z
-x,-y,-z
x,1/2-y,1/2+z
loop_
_atom_site_type_symbol
_atom_site_label
_atom_site_fract_x
_atom_site_fract_y
_atom_site_fract_z
Si Si1 0.797828 0.818561 0.858901
Si Si2 0.805264 0.915426 0.245779
Si Si3 0.583588 0.230161 0.161510
Si Si4 0.888579 0.454075 0.058392
Si Si5 0.180057 0.072810 0.326139
Si Si6 0.987339 0.618786 0.556048
Si Si7 0.665475 0.388727 0.545887
O O1 0.784367 0.740853 0.793190
O O2 0.618556 0.774243 0.861708
O O3 0.949871 0.684952 0.905823
O O4 0.857046 0.042195 0.881765
O O5 0.792843 0.794101 0.187169
O O6 0.993402 0.006637 0.277658
O O7 0.666245 0.085879 0.219841
O O8 0.673536 0.440315 0.180181
O O9 0.634941 0.167199 0.105953
O O10 0.826122 0.538164 0.109013
O O11 0.959436 0.650950 0.039265
O O12 0.732026 0.305480 0.020700
O O13 0.819694 0.539621 0.562028
O O14 0.000000 0.500000 0.500000
O O15 0.500000 0.500000 0.500000
#
# Coordination Sequence:
#
# PCOD9245317 Si02
#       7
#     4   4   4   4   4   4   4
#     4  10  25  39  59  94 129 168 214 267 327 392
#     4  11  22  37  62  87 125 168 206 266 312 386
#     4  11  23  41  60  92 128 164 219 260 326 390
#     4   9  22  42  65  93 126 170 214 266 327 390
#     4  10  21  37  63  88 119 167 211 258 318 385
#     4  11  23  43  69  93 130 171 216 275 328 394
#     4  10  22  42  67  95 127 165 219 273 329 394
#
# _framework density 21.968101000000001
#
# number of rings (size 3 to 8) (size 9 to 14) (size 15 to 20)
#    0.000    1.714    1.429    2.571    4.000    4.000 
#    0.000    4.286    0.000    0.000    0.000    0.000 
#    0.000    0.000    0.000    0.000    0.000    0.000 
#
# Total GULP energy -156303.614632 kJ/mol
# GULP energy per Si atom -5582.271951 kJ/mol
# Density = 2.191810 g / cm^3
# Si number density = 21.968101 Si / 1000 Ang^3
#
#
#
# Elastic Constant Matrix: (Units=GPa)
#
#
# Indices 1 2 3 4 5 6 
#
# 1 116.7009 22.8513 12.9168 0.0000 14.1100 0.0000
# 2 22.8513 119.9349 21.0621 0.0000 2.6275 0.0000
# 3 12.9168 21.0621 48.1548 0.0000 -1.2541 0.0000
# 4 0.0000 0.0000 0.0000 19.0021 0.0000 -16.6233
# 5 14.1100 2.6275 -1.2541 0.0000 21.5712 0.0000
# 6 0.0000 0.0000 0.0000 -16.6233 0.0000 20.9444
#
#
#
# Elastic Compliance Matrix: (Units=1/GPa)
#
#
# Indices 1 2 3 4 5 6 
#
# 1 0.009854 -0.001347 -0.002221 0.000000 -0.006410 0.000000
# 2 -0.001347 0.009254 -0.003698 0.000000 -0.000461 0.000000
# 3 -0.002221 -0.003698 0.023064 0.000000 0.003244 0.000000
# 4 0.000000 0.000000 0.000000 0.172167 0.000000 0.136647
# 5 -0.006410 -0.000461 0.003244 0.000000 0.050796 0.000000
# 6 0.000000 0.000000 0.000000 0.136647 0.000000 0.156200
#
#
# Mechanical properties :
#
#
# Convention : Reuss Voigt Hill
#
# Bulk Modulus (GPa) = 36.18008 44.27233 40.22621
# Shear Modulus (GPa) = 11.23394 27.50090 19.36742
#
# Velocity S-wave (km/s) = 2.26381 3.54200 2.97242
# Velocity P-wave (km/s) = 4.83097 6.07655 5.48920
#
# Compressibility (1/GPa) = 0.02763952
#
# Stress axis : x y z
#
# Youngs Moduli (GPa) = 101.48638 108.06067 43.35737
#
# Poissons Ratio (x) = 0.14555 0.09629
# Poissons Ratio (y) = 0.13670 0.16035
# Poissons Ratio (z) = 0.22539 0.39964
#
# Static dielectric constant tensor:
#      x y z
#    x 1.804120 0.000000 -0.050920 
#    y 0.000000 1.860570 0.000000 
#    z -0.050920 0.000000 1.839790 
# 
# From -- ./inp_files/79178.got.cif
#   From: 2010.05.17/outbox.cif.g08.bks.cpg/sg14_40_cif.got.tgz:79178.got - 2010.06.03 17:49:19.
