data_PCOD9245964
_publ_section_title
;
Structure prediction by ZEFSAII (Michael W. Deem and Ramdas Pophale) SiO2 
 PCOD9245964
Probable space group: P 21/C
;
_chemical_formula_sum "Si O2"
_cell_formula_units_Z 24
_cell_length_a 5.296623
_cell_length_b 27.275136
_cell_length_c 7.825403
_cell_angle_alpha 90.000000
_cell_angle_beta 96.617148
_cell_angle_gamma 90.000000
_cell_volume 1122.974487
_symmetry_space_group_name_H-M "P 21/C"
_symmetry_group_IT_number 14
_symmetry_cell_setting 'monoclinic'
loop_
_space_group_symop_operation_xyz
x,y,z
-x,1/2+y,1/2-z
-x,-y,-z
x,1/2-y,1/2+z
loop_
_atom_site_type_symbol
_atom_site_label
_atom_site_fract_x
_atom_site_fract_y
_atom_site_fract_z
Si Si1 0.500139 0.838012 0.020738
Si Si2 0.025873 0.779548 0.080839
Si Si3 0.267395 0.505058 0.114944
Si Si4 0.103207 0.819824 0.436652
Si Si5 0.544800 0.109838 0.329131
Si Si6 0.299487 0.400032 0.171345
O O1 0.234599 0.808571 0.982246
O O2 0.501375 0.871880 0.191910
O O3 0.746604 0.803325 0.055962
O O4 0.552264 0.871582 0.859459
O O5 0.162983 0.787608 0.274469
O O6 0.975589 0.722470 0.040265
O O7 0.296255 0.559821 0.189981
O O8 0.278501 0.456110 0.231301
O O9 0.500000 0.500000 0.000000
O O10 0.000000 0.500000 0.000000
O O11 0.305218 0.845084 0.573773
O O12 0.946358 0.865550 0.347885
O O13 0.358476 0.098128 0.472984
#
# Coordination Sequence:
#
# PCOD9245964 Si02
#       6
#     4   4   4   4   4   4
#     4  11  26  42  64  98 130 163 218 255 317 377
#     4  11  26  42  62  97 127 168 213 263 307 383
#     4  10  21  39  66  95 122 165 213 253 317 377
#     4  11  23  41  67  87 133 167 211 262 319 366
#     4  11  23  40  69  92 127 172 207 262 320 373
#     4  10  23  43  64  93 132 166 211 266 314 371
#
# _framework density 21.371811000000001
#
# number of rings (size 3 to 8) (size 9 to 14) (size 15 to 20)
#    0.000    1.333    3.333    1.000    7.000    2.000 
#    0.000    0.000    0.000    7.000    0.000    0.000 
#    0.000    0.000    0.000    0.000    0.000    0.000 
#
# Total GULP energy -133605.153318 kJ/mol
# GULP energy per Si atom -5566.881388 kJ/mol
# Density = 2.132317 g / cm^3
# Si number density = 21.371811 Si / 1000 Ang^3
#
#
#
# Elastic Constant Matrix: (Units=GPa)
#
#
# Indices 1 2 3 4 5 6 
#
# 1 58.0609 4.6255 -10.7864 0.0000 -1.2330 0.0000
# 2 4.6255 106.3493 8.0307 0.0000 -5.0806 0.0000
# 3 -10.7864 8.0307 56.6174 0.0000 -9.5196 0.0000
# 4 0.0000 0.0000 0.0000 -4.2700 0.0000 -4.6555
# 5 -1.2330 -5.0806 -9.5196 0.0000 14.7432 0.0000
# 6 0.0000 0.0000 0.0000 -4.6555 0.0000 26.2022
#
#
#
# Elastic Compliance Matrix: (Units=1/GPa)
#
#
# Indices 1 2 3 4 5 6 
#
# 1 0.018172 -0.000923 0.004257 0.000000 0.003950 0.000000
# 2 -0.000923 0.009648 -0.001120 0.000000 0.002525 0.000000
# 3 0.004257 -0.001120 0.020896 0.000000 0.013462 0.000000
# 4 0.000000 0.000000 0.000000 -0.196187 0.000000 -0.034858
# 5 0.003950 0.002525 0.013462 0.000000 0.077721 0.000000
# 6 0.000000 0.000000 0.000000 -0.034858 0.000000 0.031971
#
#
# Mechanical properties :
#
#
# Convention : Reuss Voigt Hill
#
# Bulk Modulus (GPa) = 18.81683 24.97415 21.89549
# Shear Modulus (GPa) = -204.14093 21.94559 -91.09767
#
# Velocity S-wave (km/s) = -9.78397 3.20792 -6.53588
# Velocity P-wave (km/s) = 10.90006 5.04301 6.83298
#
# Compressibility (1/GPa) = 0.05314393
#
# Stress axis : x y z
#
# Youngs Moduli (GPa) = 55.03089 103.64521 47.85638
#
# Poissons Ratio (x) = 0.09567 -0.20373
# Poissons Ratio (y) = 0.05080 0.05360
# Poissons Ratio (z) = -0.23427 0.11607
#
# Static dielectric constant tensor:
#      x y z
#    x 1.839910 0.000000 -0.070200 
#    y 0.000000 1.885340 0.000000 
#    z -0.070200 0.000000 1.804650 
# 
# From -- ./inp_files/6228.got.cif
#   From: 2010.05.17/outbox.cif.g08.bks.cpg/sg14_4_cif.got.tgz:6228.got - 2010.06.03 17:49:19.
