data_PCOD9245427
_publ_section_title
;
Structure prediction by ZEFSAII (Michael W. Deem and Ramdas Pophale) SiO2 
 PCOD9245427
Probable space group: P 21/C
;
_chemical_formula_sum "Si O2"
_cell_formula_units_Z 28
_cell_length_a 11.791147
_cell_length_b 23.965366
_cell_length_c 5.109288
_cell_angle_alpha 90.000000
_cell_angle_beta 112.243868
_cell_angle_gamma 90.000000
_cell_volume 1336.333775
_symmetry_space_group_name_H-M "P 21/C"
_symmetry_group_IT_number 14
_symmetry_cell_setting 'monoclinic'
loop_
_space_group_symop_operation_xyz
x,y,z
-x,1/2+y,1/2-z
-x,-y,-z
x,1/2-y,1/2+z
loop_
_atom_site_type_symbol
_atom_site_label
_atom_site_fract_x
_atom_site_fract_y
_atom_site_fract_z
Si Si1 0.622100 0.010101 0.351985
Si Si2 0.180995 0.461282 0.586279
Si Si3 0.172625 0.564738 0.252564
Si Si4 0.952102 0.108643 0.881856
Si Si5 0.420003 0.086182 0.084800
Si Si6 0.600331 0.787342 0.848701
Si Si7 0.108826 0.284126 0.479613
O O1 0.734009 0.996010 0.641330
O O2 0.686003 0.051642 0.193633
O O3 0.508343 0.047942 0.343361
O O4 0.582483 0.952027 0.179943
O O5 0.133020 0.504173 0.327349
O O6 0.279277 0.418977 0.552198
O O7 0.065435 0.428371 0.591154
O O8 0.145610 0.607152 0.467289
O O9 0.104534 0.583360 0.931298
O O10 0.015636 0.165883 0.854008
O O11 0.452592 0.151364 0.127078
O O12 0.568867 0.757377 0.547467
O O13 0.747896 0.796253 0.952276
O O14 0.087178 0.265905 0.758573
#
# Coordination Sequence:
#
# PCOD9245427 Si02
#       7
#     4   4   4   4   4   4   4
#     4  10  23  40  62  94 132 169 208 254 311 387
#     4  11  22  37  62  93 127 163 202 254 309 382
#     4  11  24  39  57  92 127 165 203 240 305 375
#     4  12  23  37  64  87 126 163 198 258 308 369
#     4  10  22  40  64  95 126 168 206 261 319 374
#     4  10  22  40  63  91 122 157 206 263 314 366
#     4  10  21  38  59  89 118 153 205 257 313 362
#
# _framework density 20.952850999999999
#
# number of rings (size 3 to 8) (size 9 to 14) (size 15 to 20)
#    0.000    1.429    2.857    2.143    6.000    1.143 
#    0.000    0.000    0.000    5.143    0.000    0.000 
#    0.000    0.000    0.000    0.000    0.000    0.000 
#
# Total GULP energy -156058.890099 kJ/mol
# GULP energy per Si atom -5573.531789 kJ/mol
# Density = 2.090516 g / cm^3
# Si number density = 20.952851 Si / 1000 Ang^3
#
#
#
# Elastic Constant Matrix: (Units=GPa)
#
#
# Indices 1 2 3 4 5 6 
#
# 1 44.4033 4.7288 10.4391 0.0000 -9.0509 0.0000
# 2 4.7288 86.6632 13.2933 0.0000 3.1606 0.0000
# 3 10.4391 13.2933 83.5983 0.0000 -11.3498 0.0000
# 4 0.0000 0.0000 0.0000 16.4822 0.0000 9.4449
# 5 -9.0509 3.1606 -11.3498 0.0000 23.4488 0.0000
# 6 0.0000 0.0000 0.0000 9.4449 0.0000 29.3490
#
#
#
# Elastic Compliance Matrix: (Units=1/GPa)
#
#
# Indices 1 2 3 4 5 6 
#
# 1 0.024898 -0.001432 -0.001659 0.000000 0.009000 0.000000
# 2 -0.001432 0.012069 -0.002179 0.000000 -0.003235 0.000000
# 3 -0.001659 -0.002179 0.013346 0.000000 0.006113 0.000000
# 4 0.000000 0.000000 0.000000 0.074390 0.000000 -0.023940
# 5 0.009000 -0.003235 0.006113 0.000000 0.049515 0.000000
# 6 0.000000 0.000000 0.000000 -0.023940 0.000000 0.041777
#
#
# Mechanical properties :
#
#
# Convention : Reuss Voigt Hill
#
# Bulk Modulus (GPa) = 25.14410 30.17636 27.66023
# Shear Modulus (GPa) = 20.85124 26.26958 23.56041
#
# Velocity S-wave (km/s) = 3.15802 3.54467 3.35692
# Velocity P-wave (km/s) = 5.03228 5.58446 5.31555
#
# Compressibility (1/GPa) = 0.03977077
#
# Stress axis : x y z
#
# Youngs Moduli (GPa) = 40.16380 82.85452 74.93066
#
# Poissons Ratio (x) = 0.11867 0.12434
# Poissons Ratio (y) = 0.05752 0.16331
# Poissons Ratio (z) = 0.06665 0.18058
#
# Static dielectric constant tensor:
#      x y z
#    x 1.816890 0.000000 -0.037910 
#    y 0.000000 1.759590 0.000000 
#    z -0.037910 0.000000 1.798650 
# 
# From -- ./inp_files/2987.got.cif
#   From: 2010.05.17/outbox.cif.g08.bks.cpg/sg14_2_cif.got.tgz:2987.got - 2010.06.03 17:49:19.
