data_PCOD9245458
_publ_section_title
;
Structure prediction by ZEFSAII (Michael W. Deem and Ramdas Pophale) SiO2 
 PCOD9245458
Probable space group: P 21/C
;
_chemical_formula_sum "Si O2"
_cell_formula_units_Z 24
_cell_length_a 8.996304
_cell_length_b 19.211694
_cell_length_c 7.679685
_cell_angle_alpha 90.000000
_cell_angle_beta 52.253660
_cell_angle_gamma 90.000000
_cell_volume 1049.544075
_symmetry_space_group_name_H-M "P 21/C"
_symmetry_group_IT_number 14
_symmetry_cell_setting 'monoclinic'
loop_
_space_group_symop_operation_xyz
x,y,z
-x,1/2+y,1/2-z
-x,-y,-z
x,1/2-y,1/2+z
loop_
_atom_site_type_symbol
_atom_site_label
_atom_site_fract_x
_atom_site_fract_y
_atom_site_fract_z
Si Si1 0.861416 0.943510 0.316024
Si Si2 0.504414 0.111757 0.533238
Si Si3 0.620845 0.743136 0.281234
Si Si4 0.027450 0.159853 0.472976
Si Si5 0.594270 0.335659 0.314712
Si Si6 0.066277 0.600276 0.324842
O O1 0.638173 0.943340 0.442160
O O2 0.902047 0.906273 0.468235
O O3 0.937319 0.021569 0.247723
O O4 0.956979 0.902076 0.085233
O O5 0.388766 0.184730 0.601949
O O6 0.541653 0.103899 0.715697
O O7 0.713008 0.117711 0.306862
O O8 0.470655 0.767795 0.246972
O O9 0.536834 0.672947 0.425758
O O10 0.833767 0.723742 0.086647
O O11 0.813393 0.169430 0.688757
O O12 0.016748 0.146934 0.272152
#
# Coordination Sequence:
#
# PCOD9245458 Si02
#       6
#     4   4   4   4   4   4
#     4  11  22  40  70  91 124 171 211 257 321 371
#     4   9  21  39  61  90 128 161 207 259 311 376
#     4  10  21  38  60  89 124 165 205 253 317 376
#     4  11  23  40  63  92 127 165 208 262 313 376
#     4   9  22  38  57  88 127 160 206 254 312 374
#     4  10  23  43  63  96 126 165 215 263 308 378
#
# _framework density 22.867073999999999
#
# number of rings (size 3 to 8) (size 9 to 14) (size 15 to 20)
#    1.000    1.000    0.000    3.000    0.000    6.667 
#    0.000    0.000    0.000   11.000    0.000    0.000 
#    0.000    0.000    0.000    0.000    0.000    0.000 
#
# Total GULP energy -133781.404679 kJ/mol
# GULP energy per Si atom -5574.225195 kJ/mol
# Density = 2.281503 g / cm^3
# Si number density = 22.867074 Si / 1000 Ang^3
#
#
#
# Elastic Constant Matrix: (Units=GPa)
#
#
# Indices 1 2 3 4 5 6 
#
# 1 112.7425 10.4093 43.5870 0.0000 -32.6781 0.0000
# 2 10.4093 38.2012 22.4435 0.0000 -6.3029 0.0000
# 3 43.5870 22.4435 46.2041 0.0000 -10.3288 0.0000
# 4 0.0000 0.0000 0.0000 28.9115 0.0000 -9.4299
# 5 -32.6781 -6.3029 -10.3288 0.0000 30.0143 0.0000
# 6 0.0000 0.0000 0.0000 -9.4299 0.0000 13.7230
#
#
#
# Elastic Compliance Matrix: (Units=1/GPa)
#
#
# Indices 1 2 3 4 5 6 
#
# 1 0.021051 0.009140 -0.020308 0.000000 0.017850 0.000000
# 2 0.009140 0.040680 -0.026269 0.000000 0.009454 0.000000
# 3 -0.020308 -0.026269 0.051334 0.000000 -0.009961 0.000000
# 4 0.000000 0.000000 0.000000 0.044580 0.000000 0.030634
# 5 0.017850 0.009454 -0.009961 0.000000 0.051309 0.000000
# 6 0.000000 0.000000 0.000000 0.030634 0.000000 0.093921
#
#
# Mechanical properties :
#
#
# Convention : Reuss Voigt Hill
#
# Bulk Modulus (GPa) = 26.18427 38.89193 32.53810
# Shear Modulus (GPa) = 12.80483 22.57696 17.69090
#
# Velocity S-wave (km/s) = 2.36893 3.14556 2.78446
# Velocity P-wave (km/s) = 4.35407 5.49886 4.95961
#
# Compressibility (1/GPa) = 0.03819087
#
# Stress axis : x y z
#
# Youngs Moduli (GPa) = 47.50423 24.58231 19.48027
#
# Poissons Ratio (x) = -0.22468 0.39560
# Poissons Ratio (y) = -0.43419 0.51173
# Poissons Ratio (z) = 0.96471 0.64575
#
# Static dielectric constant tensor:
#      x y z
#    x 1.875320 0.000000 0.085370 
#    y 0.000000 1.979750 0.000000 
#    z 0.085370 0.000000 1.925250 
# 
# From -- ./inp_files/10115.got.cif
#   From: 2010.05.17/outbox.cif.g08.bks.cpg/sg14_6_cif.got.tgz:10115.got - 2010.06.03 17:49:19.
