data_PCOD9245246
_publ_section_title
;
Structure prediction by ZEFSAII (Michael W. Deem and Ramdas Pophale) SiO2 
 PCOD9245246
Probable space group: P 21/C
;
_chemical_formula_sum "Si O2"
_cell_formula_units_Z 24
_cell_length_a 9.206708
_cell_length_b 20.682775
_cell_length_c 7.950627
_cell_angle_alpha 90.000000
_cell_angle_beta 47.963592
_cell_angle_gamma 90.000000
_cell_volume 1124.447991
_symmetry_space_group_name_H-M "P 21/C"
_symmetry_group_IT_number 14
_symmetry_cell_setting 'monoclinic'
loop_
_space_group_symop_operation_xyz
x,y,z
-x,1/2+y,1/2-z
-x,-y,-z
x,1/2-y,1/2+z
loop_
_atom_site_type_symbol
_atom_site_label
_atom_site_fract_x
_atom_site_fract_y
_atom_site_fract_z
Si Si1 0.561640 0.806922 0.971801
Si Si2 0.377680 0.965133 0.451595
Si Si3 0.302155 0.919434 0.159974
Si Si4 0.042087 0.014901 0.160704
Si Si5 0.013019 0.350134 0.855185
Si Si6 0.625160 0.317681 0.024849
O O1 0.438271 0.863809 0.976307
O O2 0.514427 0.819181 0.203751
O O3 0.468866 0.736981 0.014113
O O4 0.788526 0.814102 0.751618
O O5 0.423290 0.953556 0.218724
O O6 0.359852 0.892326 0.540527
O O7 0.168637 0.999934 0.594575
O O8 0.500000 0.000000 0.500000
O O9 0.117967 0.883302 0.395905
O O10 0.208657 0.969481 0.104811
O O11 0.075298 0.089973 0.184731
O O12 0.000000 0.000000 0.000000
O O13 0.851644 0.303262 0.895603
#
# Coordination Sequence:
#
# PCOD9245246 Si02
#       6
#     4   4   4   4   4   4
#     4  10  21  39  61  87 120 163 204 243 312 366
#     4   9  19  39  61  82 122 156 200 255 304 357
#     4   9  21  41  59  89 127 157 205 251 303 372
#     4  10  21  37  59  91 121 157 204 257 306 359
#     4   9  20  40  60  80 123 163 194 256 304 359
#     4   9  22  40  55  86 124 153 204 247 294 379
#
# _framework density 21.343809
#
# number of rings (size 3 to 8) (size 9 to 14) (size 15 to 20)
#    0.000    3.333    0.000    2.000    4.667    6.000 
#   12.000    0.000    0.000    0.000    0.000    0.000 
#    0.000    0.000    0.000    0.000    0.000    0.000 
#
# Total GULP energy -133631.198755 kJ/mol
# GULP energy per Si atom -5567.966615 kJ/mol
# Density = 2.129523 g / cm^3
# Si number density = 21.343809 Si / 1000 Ang^3
#
#
#
# Elastic Constant Matrix: (Units=GPa)
#
#
# Indices 1 2 3 4 5 6 
#
# 1 108.3650 66.8034 18.6434 0.0000 -24.2186 0.0000
# 2 66.8034 67.1752 16.4589 0.0000 -19.1245 0.0000
# 3 18.6434 16.4589 53.1210 0.0000 -26.8229 0.0000
# 4 0.0000 0.0000 0.0000 11.6869 0.0000 -11.1225
# 5 -24.2186 -19.1245 -26.8229 0.0000 40.0336 0.0000
# 6 0.0000 0.0000 0.0000 -11.1225 0.0000 43.6486
#
#
#
# Elastic Compliance Matrix: (Units=1/GPa)
#
#
# Indices 1 2 3 4 5 6 
#
# 1 0.024320 -0.023191 0.000733 0.000000 0.004125 0.000000
# 2 -0.023191 0.039457 -0.002498 0.000000 0.003146 0.000000
# 3 0.000733 -0.002498 0.028659 0.000000 0.018452 0.000000
# 4 0.000000 0.000000 0.000000 0.112960 0.000000 0.028784
# 5 0.004125 0.003146 0.018452 0.000000 0.041340 0.000000
# 6 0.000000 0.000000 0.000000 0.028784 0.000000 0.030245
#
#
# Mechanical properties :
#
#
# Convention : Reuss Voigt Hill
#
# Bulk Modulus (GPa) = 23.51578 48.05251 35.78415
# Shear Modulus (GPa) = 14.65989 27.52419 21.09204
#
# Velocity S-wave (km/s) = 2.62362 3.59494 3.14698
# Velocity P-wave (km/s) = 4.49659 6.30824 5.47783
#
# Compressibility (1/GPa) = 0.04252463
#
# Stress axis : x y z
#
# Youngs Moduli (GPa) = 41.11786 25.34436 34.89354
#
# Poissons Ratio (x) = 0.58776 -0.02558
# Poissons Ratio (y) = 0.95356 0.08715
# Poissons Ratio (z) = -0.03014 0.06330
#
# Static dielectric constant tensor:
#      x y z
#    x 1.810350 0.000000 0.007540 
#    y 0.000000 1.838150 0.000000 
#    z 0.007540 0.000000 1.874230 
# 
# From -- ./inp_files/10126.got.cif
#   From: 2010.05.17/outbox.cif.g08.bks.cpg/sg14_6_cif.got.tgz:10126.got - 2010.06.03 17:49:19.
